AV-unprocessed.smi:35|AV-procd|sdf|262|dock8
  -GOLD-   2262016 23D 1   1.00000     0.00000
 Structure written by MMmdl.
 29 30  0  0  0  0  0  0  0  0  1 V2000
  152.2071  142.2017  159.8388 O   0  0  0  0  0  0  0  0  0  0  0  0
  151.7879  141.7178  158.7898 C   0  0  0  0  0  0  0  0  0  0  0  0
  152.5062  140.7102  158.1408 N   0  0  0  0  0  0  0  0  0  0  0  0
  152.1346  140.0906  156.9463 C   0  0  0  0  0  0  0  0  0  0  0  0
  152.8384  139.1997  156.4719 O   0  0  0  0  0  0  0  0  0  0  0  0
  150.9411  140.5296  156.3290 N   0  0  0  0  0  0  0  0  0  0  0  0
  150.5142  139.8534  155.0371 C   0  0  1  0  0  0  0  0  0  0  0  0
  150.2739  138.4978  155.2764 O   0  0  0  0  0  0  0  0  0  0  0  0
  148.8810  138.2882  155.4861 C   0  0  2  0  0  0  0  0  0  0  0  0
  148.5130  136.8001  155.3591 C   0  0  0  0  0  0  0  0  0  0  0  0
  149.4552  136.1412  154.5398 O   0  0  0  0  0  0  0  0  0  0  0  0
  148.2665  139.2210  154.4388 C   0  0  2  0  0  0  0  0  0  0  0  0
  148.2787  138.6080  153.1592 O   0  0  0  0  0  0  0  0  0  0  0  0
  149.1819  140.4430  154.5176 C   0  0  2  0  0  0  0  0  0  0  0  0
  149.3045  141.1126  153.2760 O   0  0  0  0  0  0  0  0  0  0  0  0
  150.1791  141.5116  156.9552 C   0  0  0  0  0  0  0  0  0  0  0  0
  150.5518  142.0992  158.1168 C   0  0  0  0  0  0  0  0  0  0  0  0
  149.3310  143.4808  158.8421 Br  0  0  0  0  0  0  0  0  0  0  0  0
  153.3635  140.4013  158.5756 H   0  0  0  0  0  0  0  0  0  0  0  0
  151.3619  139.9623  154.3578 H   0  0  0  0  0  0  0  0  0  0  0  0
  148.6004  138.6579  156.4743 H   0  0  0  0  0  0  0  0  0  0  0  0
  148.5398  136.3216  156.3383 H   0  0  0  0  0  0  0  0  0  0  0  0
  147.5072  136.6696  154.9586 H   0  0  0  0  0  0  0  0  0  0  0  0
  149.2964  136.3881  153.6416 H   0  0  0  0  0  0  0  0  0  0  0  0
  147.2345  139.4766  154.6821 H   0  0  0  0  0  0  0  0  0  0  0  0
  148.8812  139.0844  152.6080 H   0  0  0  0  0  0  0  0  0  0  0  0
  148.7800  141.1374  155.2571 H   0  0  0  0  0  0  0  0  0  0  0  0
  149.2393  140.4707  152.5848 H   0  0  0  0  0  0  0  0  0  0  0  0
  149.2451  141.8379  156.5238 H   0  0  0  0  0  0  0  0  0  0  0  0
  1  2  2  0  0  0  0
  2 17  1  0  0  0  0
  2  3  1  0  0  0  0
  3 19  1  0  0  0  0
  3  4  1  0  0  0  0
  4  5  2  0  0  0  0
  4  6  1  0  0  0  0
  6  7  1  0  0  0  0
  6 16  1  0  0  0  0
  7 14  1  0  0  0  0
  7  8  1  0  0  0  0
  7 20  1  0  0  0  0
  8  9  1  0  0  0  0
  9 10  1  0  0  0  0
  9 12  1  0  0  0  0
  9 21  1  0  0  0  0
 10 11  1  0  0  0  0
 10 22  1  0  0  0  0
 10 23  1  0  0  0  0
 11 24  1  0  0  0  0
 12 13  1  0  0  0  0
 12 14  1  0  0  0  0
 12 25  1  0  0  0  0
 13 26  1  0  0  0  0
 14 15  1  0  0  0  0
 14 27  1  0  0  0  0
 15 28  1  0  0  0  0
 16 17  2  0  0  0  0
 16 29  1  0  0  0  0
 17 18  1  0  0  0  0
M  END
> <s_m_source_file>
AV-unprocessed.smi

> <i_m_source_file_index>
35

> <i_lp_mmshare_version>
43012

> <i_f3d_flags>
0

> <s_epik_input>
Tz1jMVtuSF1jKD1PKW4oW2NIXWMxQnIpW0NAQEhdMk9bQ0BASF0oW0NIMl1bT0hdKVtDQEBIXShbT0hdKVtDQEhdMltPSF0=

> <s_epik_cmdline>
J2VwaWtfcHl0aG9uJywgJy1waCcsICc3LjAnLCAnLXRuJywgJzgnLCAnLW1hJywgJzIwMCcsICctbWV0YWxfYmluZGluZycsICctaW1hZScsICc8aW5maWxlLm1hZT4nLCAnLW9tYWUnLCAnPG91dGZpbGUubWFlPic=

> <r_lp_tautomer_probability>
0.999537

> <r_epik_Ionization_Penalty>
0.10812

> <r_epik_Ionization_Penalty_Charging>
0.108119

> <r_epik_Ionization_Penalty_Neutral>
4.93006e-07

> <r_epik_State_Penalty>
0.0979238

> <r_epik_Charging_Adjusted_Penalty>
0.206043

> <i_epik_Tot_Q>
0

> <i_epik_Tot_abs_Q>
0

> <r_epik_Metal_State_Penalty>
3.07911

> <b_epik_Metal_Only>
0

> <s_epik_Chemistry_Notes>
This compound contains an acetal/aminal-like group ( X-CH(R)-Y where X, Y are N, S, or O) that may be acid/base labile, releasing an aldehyde.

> <s_lp_Force_Field>
OPLS_2005

> <r_lp_Energy>
32.933

> <b_lp_Chiralities_Consistent>
1

> <s_lp_Variant>
AV-unprocessed.smi:35-16

> <Gold.Version>
5.8.1

> <Gold.Id.Protein>
6NUR|6NUR_protein|mol2

> <Gold.PLP.Fitness>
40.1862

> <Gold.PLP.PLP>
-26.4437

> <Gold.PLP.part.hbond>
-6.4887

> <Gold.PLP.part.metal>
0.0000

> <Gold.PLP.part.buried>
-4.2162

> <Gold.PLP.part.nonpolar>
-16.4381

> <Gold.PLP.part.repulsive>
0.1709

> <Gold.PLP.ligand.clash>
0.0000

> <Gold.PLP.ligand.torsion>
0.4451

> <Gold.PLP.Chemscore.Hbond>
4.8696

> <Gold.PLP.Chemscore.CHOScore>
0.0000

> <Gold.PLP.Chemscore.Metal>
0.0000

> <Gold.Chemscore.Hbonds>
donor molecule, donor type, donor heavy atom, donor atom, acceptor molecule, acceptor atom, score
      L1  H    11    24       P1  7948  1.00
      L1  H    13    26       P1  7957  1.00
      L1  H    15    28       P1  7957  0.96
      P1  H  7989  7998       L1    15  0.01
      P1  H  7997  8008       L1     5  1.00
      P1  H  8011  8017       L1    15  0.85

> <Gold.PLP.Chemscore.Internal.Correction>
0.0239

> <Gold.Rescore>
     Score         DG    S(hbond)    S(metal)    S(lipo)     H(rot)  DE(clash)    DE(int)     intcor
     10.75     -12.15       3.83        0.00      27.96       3.67       0.02       1.37       ----

> <Gold.Chemscore.Fitness>
10.7535

> <Gold.Chemscore.DG>
-12.1472

> <Gold.Chemscore.ZeroCoef>
-5.4800

> <Gold.Chemscore.Hbond>
3.8299

> <Gold.Chemscore.Metal>
0.0000

> <Gold.Chemscore.Lipo>
27.9561

> <Gold.Chemscore.Internal_Hbond>
0.0000

> <Gold.Chemscore.DEClash>
0.0191

> <Gold.Chemscore.DEInternal>
1.3746

> <Gold.Chemscore.Rot>
3.6701

> <Gold.Chemscore.Internal.Correction>
   9.000000E+99

> <Gold.Chemscore.Hbonds>
donor molecule, donor type, donor heavy atom, donor atom, acceptor molecule, acceptor atom, score
      L1  H    11    24       P1  7948  0.90
      L1  H    13    26       P1  7957  1.00
      L1  H    15    28       P1  7957  0.86
      P1  H  7997  8008       L1     5  0.24
      P1  H  8011  8017       L1    15  0.15

> <Gold.Chemscore.Hbond.Weighted>
-12.7918

> <Gold.Chemscore.Metal.Weighted>
-0.0000

> <Gold.Chemscore.Lipo.Weighted>
-3.2709

> <Gold.Chemscore.Internal_Hbond.Weighted>
0.0000

> <Gold.Chemscore.DEClash.Weighted>
0.0191

> <Gold.Chemscore.DEInternal.Weighted>
1.3746

> <Gold.Chemscore.Rot.Weighted>
9.3955

> <Gold.Chemscore.Internal.Correction.Weighted>
   9.000000E+99

> <Gold.Protein.RotatedTorsions>
[ 6907 6896 6895 6894 ] final   -5.47 input  -60.11 | X-H torsion
[ 7974 7965 7964 7962 ] final  -97.09 input  175.53 | X-H torsion
[ 8008 7997 7996 7995 ] final  -29.59 input   59.86 | X-H torsion
[ 10167 10162 10161 10158 ] final  -21.72 input  -65.29 | X-H torsion
[ 10718 10713 10712 10709 ] final   85.40 input   66.30 | X-H torsion
[ 10763 10752 10751 10750 ] final   58.65 input  -60.55 | X-H torsion
[ 11005 11000 10999 10996 ] final  -23.92 input  -57.11 | X-H torsion

> <Gold.Protein.ActiveResidues>
 VAL166  LYS551  ARG553  GLY616  TRP617  ASP618  TYR619  PRO620  LYS621  CYS622 
 ASP623  PHE694  ASN695  SER759  ASP760  ASP761  ALA762  ILE779  LEU786  VAL792 
 PHE793  MET794  SER795  GLU796  ALA797  LYS798  CYS799  TRP800  GLU811  SER814 

> <Gold.Protein.RotatedAtoms>
  151.4811  135.1052  159.9777 H   0  0  0  0  0  0  0  0  0  0  0  0  # atno 6907 bound_to 6896
  152.4779  133.8178  159.7048 H   0  0  0  0  0  0  0  0  0  0  0  0  # atno 6908 bound_to 6896
  150.8829  133.7286  159.2953 H   0  0  0  0  0  0  0  0  0  0  0  0  # atno 6909 bound_to 6896
  145.3382  140.9455  143.2623 H   0  0  0  0  0  0  0  0  0  0  0  0  # atno 7974 bound_to 7965
  154.4284  140.1814  156.1271 H   0  0  0  0  0  0  0  0  0  0  0  0  # atno 8008 bound_to 7997
  156.0097  140.3352  155.6903 H   0  0  0  0  0  0  0  0  0  0  0  0  # atno 8009 bound_to 7997
  155.6128  140.0652  157.2692 H   0  0  0  0  0  0  0  0  0  0  0  0  # atno 8010 bound_to 7997
  140.7283  143.4602  151.0391 H   0  0  0  0  0  0  0  0  0  0  0  0  # atno 10167 bound_to 10162
  157.6914  131.0173  150.2816 H   0  0  0  0  0  0  0  0  0  0  0  0  # atno 10718 bound_to 10713
  152.9876  135.5599  154.5587 H   0  0  0  0  0  0  0  0  0  0  0  0  # atno 10763 bound_to 10752
  154.5010  135.2797  155.1423 H   0  0  0  0  0  0  0  0  0  0  0  0  # atno 10764 bound_to 10752
  154.2853  135.6337  153.5416 H   0  0  0  0  0  0  0  0  0  0  0  0  # atno 10765 bound_to 10752
  140.8797  133.7662  156.0287 H   0  0  0  0  0  0  0  0  0  0  0  0  # atno 11005 bound_to 11000
  144.8810  139.4903  143.6723 LP  0  0  0  0  0  0  0  0  0  0  0  0  # atno 17320 bound_to 7965
  146.3018  139.7451  142.9086 LP  0  0  0  0  0  0  0  0  0  0  0  0  # atno 17321 bound_to 7965
  139.8286  143.7722  152.3179 LP  0  0  0  0  0  0  0  0  0  0  0  0  # atno 17342 bound_to 10162
  139.7830  144.7438  151.0062 LP  0  0  0  0  0  0  0  0  0  0  0  0  # atno 17343 bound_to 10162
  156.3362  130.3808  149.7448 LP  0  0  0  0  0  0  0  0  0  0  0  0  # atno 17370 bound_to 10713
  156.4972  130.8112  151.3118 LP  0  0  0  0  0  0  0  0  0  0  0  0  # atno 17371 bound_to 10713
  140.8476  134.2993  157.5288 LP  0  0  0  0  0  0  0  0  0  0  0  0  # atno 17394 bound_to 11000
  139.8718  134.9450  156.3897 LP  0  0  0  0  0  0  0  0  0  0  0  0  # atno 17395 bound_to 11000

$$$$
