AV-unprocessed.smi:213|AV-procd|sdf|1641|dock1
  -GOLD-   2262020 13D 1   1.00000     0.00000
 Structure written by MMmdl.
 58 61  0  0  0  0  0  0  0  0  1 V2000
  146.6292  138.7561  151.8605 C   0  0  0  0  0  0  0  0  0  0  0  0
  146.4225  138.0124  153.1917 C   0  0  2  0  0  0  0  0  0  0  0  0
  145.0043  137.4125  153.3211 C   0  0  0  0  0  0  0  0  0  0  0  0
  144.8172  136.0918  152.7188 N   0  0  0  0  0  0  0  0  0  0  0  0
  145.7341  135.1189  153.3033 C   0  0  0  0  0  0  0  0  0  0  0  0
  145.5541  133.7182  152.6932 C   0  0  0  0  0  0  0  0  0  0  0  0
  145.7293  133.7888  151.2820 O   0  0  0  0  0  0  0  0  0  0  0  0
  144.8213  134.6937  150.6629 C   0  0  0  0  0  0  0  0  0  0  0  0
  144.9944  136.0980  151.2677 C   0  0  0  0  0  0  0  0  0  0  0  0
  146.7261  138.8844  154.3300 N   0  0  0  0  0  0  0  0  0  0  0  0
  145.6941  139.2397  155.3022 C   0  0  0  0  0  0  0  0  0  0  0  0
  148.0037  139.2812  154.5739 C   0  0  0  0  0  0  0  0  0  0  0  0
  149.0043  138.7045  153.8555 N   0  0  0  0  0  0  0  0  0  0  0  0
  150.2767  139.0595  154.0538 C   0  0  0  0  0  0  0  0  0  0  0  0
  150.7685  139.9532  154.9124 N   0  0  0  0  0  0  0  0  0  0  0  0
  149.7748  140.5275  155.6480 C   0  0  0  0  0  0  0  0  0  0  0  0
  148.3800  140.2546  155.5478 C   0  0  0  0  0  0  0  0  0  0  0  0
  147.6892  141.0235  156.4798 N   0  0  0  0  0  0  0  0  0  0  0  0
  148.6161  141.7176  157.0809 C   0  0  0  0  0  0  0  0  0  0  0  0
  149.8981  141.4792  156.6436 N   0  0  0  0  0  0  0  0  0  0  0  0
  151.1179  142.0926  157.1366 C   0  0  0  0  0  0  0  0  0  0  0  0
  150.8632  142.9885  158.3640 C   0  0  2  0  0  0  0  0  0  0  0  0
  150.4559  144.2812  157.9583 O   0  0  0  0  0  0  0  0  0  0  0  0
  152.0807  143.0734  159.3057 C   0  0  2  0  0  0  0  0  0  0  0  0
  152.6489  141.7448  159.8104 C   0  0  0  0  0  0  0  0  0  0  0  0
  153.3930  142.1988  161.0463 C   0  0  0  0  0  0  0  0  0  0  0  0
  152.4628  143.2781  161.5974 C   0  0  0  0  0  0  0  0  0  0  0  0
  151.8038  143.8489  160.4691 O   0  0  0  0  0  0  0  0  0  0  0  0
  146.4972  138.0856  151.0113 H   0  0  0  0  0  0  0  0  0  0  0  0
  147.6369  139.1675  151.7952 H   0  0  0  0  0  0  0  0  0  0  0  0
  145.9248  139.5791  151.7414 H   0  0  0  0  0  0  0  0  0  0  0  0
  147.1152  137.1755  153.2139 H   0  0  0  0  0  0  0  0  0  0  0  0
  144.7313  137.3658  154.3766 H   0  0  0  0  0  0  0  0  0  0  0  0
  144.2983  138.1064  152.8633 H   0  0  0  0  0  0  0  0  0  0  0  0
  146.7647  135.4458  153.1549 H   0  0  0  0  0  0  0  0  0  0  0  0
  145.5774  135.0629  154.3812 H   0  0  0  0  0  0  0  0  0  0  0  0
  146.2855  133.0258  153.1098 H   0  0  0  0  0  0  0  0  0  0  0  0
  144.5653  133.3196  152.9251 H   0  0  0  0  0  0  0  0  0  0  0  0
  145.0148  134.7156  149.5904 H   0  0  0  0  0  0  0  0  0  0  0  0
  143.7978  134.3400  150.7968 H   0  0  0  0  0  0  0  0  0  0  0  0
  144.2720  136.7639  150.7974 H   0  0  0  0  0  0  0  0  0  0  0  0
  145.9848  136.4807  151.0166 H   0  0  0  0  0  0  0  0  0  0  0  0
  145.7916  140.2826  155.6060 H   0  0  0  0  0  0  0  0  0  0  0  0
  145.7745  138.6118  156.1901 H   0  0  0  0  0  0  0  0  0  0  0  0
  144.6948  139.1086  154.8883 H   0  0  0  0  0  0  0  0  0  0  0  0
  151.0047  138.5540  153.4367 H   0  0  0  0  0  0  0  0  0  0  0  0
  148.3898  142.4196  157.8704 H   0  0  0  0  0  0  0  0  0  0  0  0
  151.8207  141.2977  157.3887 H   0  0  0  0  0  0  0  0  0  0  0  0
  151.5723  142.6660  156.3275 H   0  0  0  0  0  0  0  0  0  0  0  0
  150.0334  142.5669  158.9327 H   0  0  0  0  0  0  0  0  0  0  0  0
  150.0156  144.2055  157.1255 H   0  0  0  0  0  0  0  0  0  0  0  0
  152.8812  143.5979  158.7810 H   0  0  0  0  0  0  0  0  0  0  0  0
  151.8587  141.0494  160.0953 H   0  0  0  0  0  0  0  0  0  0  0  0
  153.2912  141.2516  159.0804 H   0  0  0  0  0  0  0  0  0  0  0  0
  153.5798  141.3929  161.7565 H   0  0  0  0  0  0  0  0  0  0  0  0
  154.3521  142.6363  160.7653 H   0  0  0  0  0  0  0  0  0  0  0  0
  151.7083  142.8336  162.2476 H   0  0  0  0  0  0  0  0  0  0  0  0
  152.9993  144.0352  162.1698 H   0  0  0  0  0  0  0  0  0  0  0  0
  1  2  1  0  0  0  0
  1 29  1  0  0  0  0
  1 30  1  0  0  0  0
  1 31  1  0  0  0  0
  2  3  1  0  0  0  0
  2 10  1  0  0  0  0
  2 32  1  0  0  0  0
  3  4  1  0  0  0  0
  3 33  1  0  0  0  0
  3 34  1  0  0  0  0
  4  9  1  0  0  0  0
  4  5  1  0  0  0  0
  5  6  1  0  0  0  0
  5 35  1  0  0  0  0
  5 36  1  0  0  0  0
  6  7  1  0  0  0  0
  6 37  1  0  0  0  0
  6 38  1  0  0  0  0
  7  8  1  0  0  0  0
  8  9  1  0  0  0  0
  8 39  1  0  0  0  0
  8 40  1  0  0  0  0
  9 41  1  0  0  0  0
  9 42  1  0  0  0  0
 10 11  1  0  0  0  0
 10 12  1  0  0  0  0
 11 43  1  0  0  0  0
 11 44  1  0  0  0  0
 11 45  1  0  0  0  0
 12 17  1  0  0  0  0
 12 13  2  0  0  0  0
 13 14  1  0  0  0  0
 14 15  2  0  0  0  0
 14 46  1  0  0  0  0
 15 16  1  0  0  0  0
 16 20  1  0  0  0  0
 16 17  2  0  0  0  0
 17 18  1  0  0  0  0
 18 19  2  0  0  0  0
 19 20  1  0  0  0  0
 19 47  1  0  0  0  0
 20 21  1  0  0  0  0
 21 22  1  0  0  0  0
 21 48  1  0  0  0  0
 21 49  1  0  0  0  0
 22 23  1  0  0  0  0
 22 24  1  0  0  0  0
 22 50  1  0  0  0  0
 23 51  1  0  0  0  0
 24 28  1  0  0  0  0
 24 25  1  0  0  0  0
 24 52  1  0  0  0  0
 25 26  1  0  0  0  0
 25 53  1  0  0  0  0
 25 54  1  0  0  0  0
 26 27  1  0  0  0  0
 26 55  1  0  0  0  0
 26 56  1  0  0  0  0
 27 28  1  0  0  0  0
 27 57  1  0  0  0  0
 27 58  1  0  0  0  0
M  END
> <s_m_source_file>
AV-unprocessed.smi

> <i_m_source_file_index>
213

> <i_lp_mmshare_version>
43012

> <i_f3d_flags>
0

> <s_epik_input>
W0NIMl0xW0NIMl1PW0NIMl1bQ0gyXU4xW0NIMl1bQ0BASF0oW0NIM10pTihbQ0gzXSljKG5bY0hdbjIpYyhjMjMpbltjSF1uM1tDSDJdW0NASF0oW09IXSlbQ0BASF00W0NIMl1bQ0gyXVtDSDJdTzQ=

> <s_epik_cmdline>
J2VwaWtfcHl0aG9uJywgJy1waCcsICc3LjAnLCAnLXRuJywgJzgnLCAnLW1hJywgJzIwMCcsICctbWV0YWxfYmluZGluZycsICctaW1hZScsICc8aW5maWxlLm1hZT4nLCAnLW9tYWUnLCAnPG91dGZpbGUubWFlPic=

> <r_lp_tautomer_probability>
1

> <r_epik_Ionization_Penalty>
0.423322

> <r_epik_Ionization_Penalty_Charging>
0

> <r_epik_Ionization_Penalty_Neutral>
0.423322

> <r_epik_State_Penalty>
0.569486

> <r_epik_Charging_Adjusted_Penalty>
0.569486

> <i_epik_Tot_Q>
0

> <i_epik_Tot_abs_Q>
0

> <r_epik_Metal_State_Penalty>
0.568671

> <b_epik_Metal_Only>
0

> <s_lp_Force_Field>
OPLS_2005

> <r_lp_Energy>
51.8913

> <b_lp_Chiralities_Consistent>
1

> <s_lp_Variant>
AV-unprocessed.smi:213-9

> <Gold.Version>
5.8.1

> <Gold.Id.Protein>
6NUR|6NUR_protein|mol2

> <Gold.PLP.Fitness>
48.4334

> <Gold.PLP.PLP>
-44.8401

> <Gold.PLP.part.hbond>
-2.6697

> <Gold.PLP.part.metal>
0.0000

> <Gold.PLP.part.buried>
-8.1221

> <Gold.PLP.part.nonpolar>
-36.8344

> <Gold.PLP.part.repulsive>
0.6989

> <Gold.PLP.ligand.clash>
0.0000

> <Gold.PLP.ligand.torsion>
0.9131

> <Gold.PLP.Chemscore.Hbond>
1.5500

> <Gold.PLP.Chemscore.CHOScore>
0.0000

> <Gold.PLP.Chemscore.Metal>
0.0000

> <Gold.Chemscore.Hbonds>
donor molecule, donor type, donor heavy atom, donor atom, acceptor molecule, acceptor atom, score
      L1  H    23    51       P1  8028  1.00
      P1  H  7989  7998       L1    15  0.55

> <Gold.PLP.Chemscore.Internal.Correction>
0.7695

> <Gold.Rescore>
     Score         DG    S(hbond)    S(metal)    S(lipo)     H(rot)  DE(clash)    DE(int)     intcor
     10.87     -13.54       1.24        0.00      93.30       2.74       0.60       2.07       ----

> <Gold.Chemscore.Fitness>
10.8681

> <Gold.Chemscore.DG>
-13.5372

> <Gold.Chemscore.ZeroCoef>
-5.4800

> <Gold.Chemscore.Hbond>
1.2425

> <Gold.Chemscore.Metal>
0.0000

> <Gold.Chemscore.Lipo>
93.2978

> <Gold.Chemscore.Internal_Hbond>
0.0000

> <Gold.Chemscore.DEClash>
0.6022

> <Gold.Chemscore.DEInternal>
2.0669

> <Gold.Chemscore.Rot>
2.7378

> <Gold.Chemscore.Internal.Correction>
   9.000000E+99

> <Gold.Chemscore.Hbonds>
donor molecule, donor type, donor heavy atom, donor atom, acceptor molecule, acceptor atom, score
      L1  H    23    51       P1  8028  0.73
      P1  H  7989  7998       L1    15  0.03

> <Gold.Chemscore.Hbond.Weighted>
-4.1501

> <Gold.Chemscore.Metal.Weighted>
-0.0000

> <Gold.Chemscore.Lipo.Weighted>
-10.9158

> <Gold.Chemscore.Internal_Hbond.Weighted>
0.0000

> <Gold.Chemscore.DEClash.Weighted>
0.6022

> <Gold.Chemscore.DEInternal.Weighted>
2.0669

> <Gold.Chemscore.Rot.Weighted>
7.0087

> <Gold.Chemscore.Internal.Correction.Weighted>
   9.000000E+99

> <Gold.Protein.RotatedTorsions>
[ 6907 6896 6895 6894 ] final  -69.59 input  -60.11 | X-H torsion
[ 7974 7965 7964 7962 ] final   11.67 input  175.53 | X-H torsion
[ 8008 7997 7996 7995 ] final   62.27 input   59.86 | X-H torsion
[ 10167 10162 10161 10158 ] final   11.04 input  -65.29 | X-H torsion
[ 10718 10713 10712 10709 ] final -165.12 input   66.30 | X-H torsion
[ 10763 10752 10751 10750 ] final   90.98 input  -60.55 | X-H torsion
[ 11005 11000 10999 10996 ] final  151.52 input  -57.11 | X-H torsion

> <Gold.Protein.ActiveResidues>
 VAL166  LYS551  ARG553  GLY616  TRP617  ASP618  TYR619  PRO620  LYS621  CYS622 
 ASP623  PHE694  ASN695  SER759  ASP760  ASP761  ALA762  ILE779  LEU786  VAL792 
 PHE793  MET794  SER795  GLU796  ALA797  LYS798  CYS799  TRP800  GLU811  SER814 

> <Gold.Protein.RotatedAtoms>
  150.7298  134.5575  159.5825 H   0  0  0  0  0  0  0  0  0  0  0  0  # atno 6907 bound_to 6896
  152.3047  134.7567  160.0359 H   0  0  0  0  0  0  0  0  0  0  0  0  # atno 6908 bound_to 6896
  151.8135  133.3349  159.3599 H   0  0  0  0  0  0  0  0  0  0  0  0  # atno 6909 bound_to 6896
  146.2366  139.9450  142.8478 H   0  0  0  0  0  0  0  0  0  0  0  0  # atno 7974 bound_to 7965
  155.6116  140.3495  155.4624 H   0  0  0  0  0  0  0  0  0  0  0  0  # atno 8008 bound_to 7997
  156.0149  140.1241  157.0440 H   0  0  0  0  0  0  0  0  0  0  0  0  # atno 8009 bound_to 7997
  154.4294  140.1074  156.5868 H   0  0  0  0  0  0  0  0  0  0  0  0  # atno 8010 bound_to 7997
  140.6157  143.8314  150.7115 H   0  0  0  0  0  0  0  0  0  0  0  0  # atno 10167 bound_to 10162
  156.6489  130.8999  151.3009 H   0  0  0  0  0  0  0  0  0  0  0  0  # atno 10718 bound_to 10713
  153.2033  135.4414  155.0293 H   0  0  0  0  0  0  0  0  0  0  0  0  # atno 10763 bound_to 10752
  154.8159  135.3315  154.7179 H   0  0  0  0  0  0  0  0  0  0  0  0  # atno 10764 bound_to 10752
  153.7622  135.6990  153.4978 H   0  0  0  0  0  0  0  0  0  0  0  0  # atno 10765 bound_to 10752
  140.1226  134.8854  157.2093 H   0  0  0  0  0  0  0  0  0  0  0  0  # atno 11005 bound_to 11000
  145.1916  140.9814  143.4208 LP  0  0  0  0  0  0  0  0  0  0  0  0  # atno 17320 bound_to 7965
  144.9852  139.3743  143.6242 LP  0  0  0  0  0  0  0  0  0  0  0  0  # atno 17321 bound_to 7965
  140.1892  143.4050  152.1876 LP  0  0  0  0  0  0  0  0  0  0  0  0  # atno 17342 bound_to 10162
  139.5396  144.7244  151.4777 LP  0  0  0  0  0  0  0  0  0  0  0  0  # atno 17343 bound_to 10162
  157.7147  130.9483  150.1213 LP  0  0  0  0  0  0  0  0  0  0  0  0  # atno 17370 bound_to 10713
  156.2100  130.3666  149.8682 LP  0  0  0  0  0  0  0  0  0  0  0  0  # atno 17371 bound_to 10713
  140.2945  134.3202  155.7306 LP  0  0  0  0  0  0  0  0  0  0  0  0  # atno 17394 bound_to 11000
  141.2155  133.7554  156.9551 LP  0  0  0  0  0  0  0  0  0  0  0  0  # atno 17395 bound_to 11000

$$$$
