AV-unprocessed.smi:3085|AV-procd|sdf|11752|dock4
  -GOLD-   2272017143D 1   1.00000     0.00000
 Structure written by MMmdl.
 28 29  0  0  0  0  0  0  0  0  2 V2000
  145.9137  132.2211  156.3246 C   0  0  0  0  0  0  0  0  0  0  0  0
  145.9157  133.7231  156.0192 C   0  0  0  0  0  0  0  0  0  0  0  0
  146.2221  134.0072  154.5859 C   0  0  0  0  0  0  0  0  0  0  0  0
  145.4708  133.5120  153.5564 N   0  0  0  0  0  0  0  0  0  0  0  0
  146.0958  134.0641  152.5206 C   0  0  0  0  0  0  0  0  0  0  0  0
  145.7127  133.8935  151.0844 C   0  0  2  0  0  0  0  0  0  0  0  0
  144.3076  134.4485  150.7804 C   0  0  0  0  0  0  0  0  0  0  0  0
  143.9452  134.1640  149.3783 N   0  3  0  0  0  0  0  0  0  0  0  0
  144.0572  132.7238  149.0736 C   0  0  0  0  0  0  0  0  0  0  0  0
  145.4639  132.2145  149.4343 C   0  0  0  0  0  0  0  0  0  0  0  0
  145.7411  132.4963  150.8024 O   0  0  0  0  0  0  0  0  0  0  0  0
  147.1195  134.8343  152.8963 N   0  0  0  0  0  0  0  0  0  0  0  0
  147.2194  134.8207  154.2419 N   0  0  0  0  0  0  0  0  0  0  0  0
  147.7421  135.3649  152.3040 H   0  0  0  0  0  0  0  0  0  0  0  0
  145.6815  132.0380  157.3739 H   0  0  0  0  0  0  0  0  0  0  0  0
  146.8869  131.7762  156.1156 H   0  0  0  0  0  0  0  0  0  0  0  0
  145.1697  131.6983  155.7228 H   0  0  0  0  0  0  0  0  0  0  0  0
  144.9459  134.1537  156.2717 H   0  0  0  0  0  0  0  0  0  0  0  0
  146.6505  134.2277  156.6474 H   0  0  0  0  0  0  0  0  0  0  0  0
  146.4572  134.3991  150.4658 H   0  0  0  0  0  0  0  0  0  0  0  0
  143.5658  133.9920  151.4374 H   0  0  0  0  0  0  0  0  0  0  0  0
  144.2714  135.5247  150.9527 H   0  0  0  0  0  0  0  0  0  0  0  0
  142.9984  134.4716  149.2061 H   0  0  0  0  0  0  0  0  0  0  0  0
  143.3024  132.1777  149.6409 H   0  0  0  0  0  0  0  0  0  0  0  0
  143.8471  132.5590  148.0165 H   0  0  0  0  0  0  0  0  0  0  0  0
  145.5269  131.1378  149.2750 H   0  0  0  0  0  0  0  0  0  0  0  0
  146.2199  132.6756  148.7969 H   0  0  0  0  0  0  0  0  0  0  0  0
  144.5724  134.6728  148.7717 H   0  0  0  0  0  0  0  0  0  0  0  0
  1  2  1  0  0  0  0
  1 15  1  0  0  0  0
  1 16  1  0  0  0  0
  1 17  1  0  0  0  0
  2 18  1  0  0  0  0
  2 19  1  0  0  0  0
  2  3  1  0  0  0  0
  3  4  1  0  0  0  0
  3 13  2  0  0  0  0
  4  5  2  0  0  0  0
  5  6  1  0  0  0  0
  5 12  1  0  0  0  0
  6 11  1  0  0  0  0
  6  7  1  0  0  0  0
  6 20  1  0  0  0  0
  7  8  1  0  0  0  0
  7 21  1  0  0  0  0
  7 22  1  0  0  0  0
  8  9  1  0  0  0  0
  8 23  1  0  0  0  0
  8 28  1  0  0  0  0
  9 10  1  0  0  0  0
  9 24  1  0  0  0  0
  9 25  1  0  0  0  0
 10 11  1  0  0  0  0
 10 26  1  0  0  0  0
 10 27  1  0  0  0  0
 12 13  1  0  0  0  0
 12 14  1  0  0  0  0
M  CHG  1   8   1
M  END
> <s_m_source_file>
AV-unprocessed.smi

> <i_m_source_file_index>
3085

> <i_lp_mmshare_version>
43012

> <i_f3d_flags>
0

> <s_epik_input>
W0NIM11bQ0gyXWMxbmMobltuSF0xKVtDQEBIXTJbQ0gyXVtOSF1bQ0gyXVtDSDJdTzI=

> <s_epik_cmdline>
J2VwaWtfcHl0aG9uJywgJy1waCcsICc3LjAnLCAnLXRuJywgJzgnLCAnLW1hJywgJzIwMCcsICctbWV0YWxfYmluZGluZycsICctaW1hZScsICc8aW5maWxlLm1hZT4nLCAnLW9tYWUnLCAnPG91dGZpbGUubWFlPic=

> <r_epik_Ionization_Penalty>
0.162344

> <r_epik_Ionization_Penalty_Charging>
0.125708

> <r_epik_Ionization_Penalty_Neutral>
0.0366364

> <r_epik_State_Penalty>
0.637958

> <r_epik_Charging_Adjusted_Penalty>
0.763666

> <i_epik_Tot_Q>
1

> <i_epik_Tot_abs_Q>
1

> <r_epik_Metal_State_Penalty>
0.860091

> <b_epik_Metal_Only>
0

> <s_lp_Force_Field>
OPLS_2005

> <r_lp_Energy>
9.17309

> <b_lp_Chiralities_Consistent>
1

> <s_lp_Variant>
AV-unprocessed.smi:3085-3

> <Gold.Version>
5.8.1

> <Gold.Id.Protein>
6NUR|6NUR_protein|mol2

> <Gold.PLP.Fitness>
30.9241

> <Gold.PLP.PLP>
-18.9877

> <Gold.PLP.part.hbond>
-2.9136

> <Gold.PLP.part.metal>
0.0000

> <Gold.PLP.part.buried>
-4.8452

> <Gold.PLP.part.nonpolar>
-12.6063

> <Gold.PLP.part.repulsive>
0.4193

> <Gold.PLP.ligand.clash>
0.0000

> <Gold.PLP.ligand.torsion>
0.0357

> <Gold.PLP.Chemscore.Hbond>
4.0000

> <Gold.PLP.Chemscore.CHOScore>
0.0000

> <Gold.PLP.Chemscore.Metal>
0.0000

> <Gold.Chemscore.Hbonds>
donor molecule, donor type, donor heavy atom, donor atom, acceptor molecule, acceptor atom, score
      L1  H     8    23       P1 10186  2.00
      L1  H     8    28       P1  7921  1.00
      L1  H    12    14       P1  7948  0.99

> <Gold.PLP.Chemscore.Internal.Correction>
0.0078

> <Gold.Rescore>
     Score         DG    S(hbond)    S(metal)    S(lipo)     H(rot)  DE(clash)    DE(int)     intcor
     16.62     -16.70       2.91        0.00      41.21       1.30       0.03       0.05       ----

> <Gold.Chemscore.Fitness>
16.6226

> <Gold.Chemscore.DG>
-16.7008

> <Gold.Chemscore.ZeroCoef>
-5.4800

> <Gold.Chemscore.Hbond>
2.9131

> <Gold.Chemscore.Metal>
0.0000

> <Gold.Chemscore.Lipo>
41.2112

> <Gold.Chemscore.Internal_Hbond>
0.0000

> <Gold.Chemscore.DEClash>
0.0270

> <Gold.Chemscore.DEInternal>
0.0512

> <Gold.Chemscore.Rot>
1.3011

> <Gold.Chemscore.Internal.Correction>
   9.000000E+99

> <Gold.Chemscore.Hbonds>
donor molecule, donor type, donor heavy atom, donor atom, acceptor molecule, acceptor atom, score
      L1  H     8    23       P1 10186  0.93
      L1  H     8    28       P1  7921  0.96
      L1  H    12    14       P1  7948  0.92

> <Gold.Chemscore.Hbond.Weighted>
-9.7299

> <Gold.Chemscore.Metal.Weighted>
-0.0000

> <Gold.Chemscore.Lipo.Weighted>
-4.8217

> <Gold.Chemscore.Internal_Hbond.Weighted>
0.0000

> <Gold.Chemscore.DEClash.Weighted>
0.0270

> <Gold.Chemscore.DEInternal.Weighted>
0.0512

> <Gold.Chemscore.Rot.Weighted>
3.3308

> <Gold.Chemscore.Internal.Correction.Weighted>
   9.000000E+99

> <Gold.Protein.RotatedTorsions>
[ 6907 6896 6895 6894 ] final  121.82 input  -60.11 | X-H torsion
[ 7974 7965 7964 7962 ] final -167.49 input  175.53 | X-H torsion
[ 8008 7997 7996 7995 ] final -158.00 input   59.86 | X-H torsion
[ 10167 10162 10161 10158 ] final   67.12 input  -65.29 | X-H torsion
[ 10718 10713 10712 10709 ] final  111.80 input   66.30 | X-H torsion
[ 10763 10752 10751 10750 ] final   47.08 input  -60.55 | X-H torsion
[ 11005 11000 10999 10996 ] final  113.88 input  -57.11 | X-H torsion

> <Gold.Protein.ActiveResidues>
 VAL166  LYS551  ARG553  GLY616  TRP617  ASP618  TYR619  PRO620  LYS621  CYS622 
 ASP623  PHE694  ASN695  SER759  ASP760  ASP761  ALA762  ILE779  LEU786  VAL792 
 PHE793  MET794  SER795  GLU796  ALA797  LYS798  CYS799  TRP800  GLU811  SER814 

> <Gold.Protein.RotatedAtoms>
  152.4291  133.7247  159.6552 H   0  0  0  0  0  0  0  0  0  0  0  0  # atno 6907 bound_to 6896
  150.8169  133.8310  159.3162 H   0  0  0  0  0  0  0  0  0  0  0  0  # atno 6908 bound_to 6896
  151.6003  135.1050  160.0110 H   0  0  0  0  0  0  0  0  0  0  0  0  # atno 6909 bound_to 6896
  144.7222  140.2510  143.6278 H   0  0  0  0  0  0  0  0  0  0  0  0  # atno 7974 bound_to 7965
  155.7409  140.0814  157.2246 H   0  0  0  0  0  0  0  0  0  0  0  0  # atno 8008 bound_to 7997
  154.4022  140.1578  156.2670 H   0  0  0  0  0  0  0  0  0  0  0  0  # atno 8009 bound_to 7997
  155.9021  140.3409  155.6037 H   0  0  0  0  0  0  0  0  0  0  0  0  # atno 8010 bound_to 7997
  140.0930  144.4971  150.7086 H   0  0  0  0  0  0  0  0  0  0  0  0  # atno 10167 bound_to 10162
  157.6426  131.0957  150.6802 H   0  0  0  0  0  0  0  0  0  0  0  0  # atno 10718 bound_to 10713
  152.9803  135.5988  154.3704 H   0  0  0  0  0  0  0  0  0  0  0  0  # atno 10763 bound_to 10752
  154.3378  135.2768  155.2440 H   0  0  0  0  0  0  0  0  0  0  0  0  # atno 10764 bound_to 10752
  154.4535  135.5983  153.6263 H   0  0  0  0  0  0  0  0  0  0  0  0  # atno 10765 bound_to 10752
  139.8965  134.9558  156.6807 H   0  0  0  0  0  0  0  0  0  0  0  0  # atno 11005 bound_to 11000
  145.8228  139.2051  143.1928 LP  0  0  0  0  0  0  0  0  0  0  0  0  # atno 17320 bound_to 7965
  146.0499  140.8080  142.9787 LP  0  0  0  0  0  0  0  0  0  0  0  0  # atno 17321 bound_to 7965
  140.7018  143.2440  151.4842 LP  0  0  0  0  0  0  0  0  0  0  0  0  # atno 17342 bound_to 10162
  139.5714  144.1920  152.1841 LP  0  0  0  0  0  0  0  0  0  0  0  0  # atno 17343 bound_to 10162
  156.7123  130.4655  149.5544 LP  0  0  0  0  0  0  0  0  0  0  0  0  # atno 17370 bound_to 10713
  156.1721  130.6444  151.0850 LP  0  0  0  0  0  0  0  0  0  0  0  0  # atno 17371 bound_to 10713
  140.7301  133.9066  155.8205 LP  0  0  0  0  0  0  0  0  0  0  0  0  # atno 17394 bound_to 11000
  141.0160  134.0955  157.4172 LP  0  0  0  0  0  0  0  0  0  0  0  0  # atno 17395 bound_to 11000

$$$$
