AV-unprocessed.smi:2284|AV-procd|sdf|9201|dock7
  -GOLD-   2272012413D 1   1.00000     0.00000
 Structure written by MMmdl.
 44 45  0  0  0  0  0  0  0  0  1 V2000
  151.9830  144.9822  158.5857 C   0  0  0  0  0  0  0  0  0  0  0  0
  151.8903  143.4704  158.5674 C   0  0  0  0  0  0  0  0  0  0  0  0
  152.5251  142.7061  159.5654 C   0  0  0  0  0  0  0  0  0  0  0  0
  152.4358  141.3028  159.5384 C   0  0  0  0  0  0  0  0  0  0  0  0
  151.7125  140.6552  158.5154 C   0  0  0  0  0  0  0  0  0  0  0  0
  151.6263  139.1404  158.5010 C   0  0  0  0  0  0  0  0  0  0  0  0
  151.0713  141.4105  157.5064 C   0  0  0  0  0  0  0  0  0  0  0  0
  150.3832  140.7141  156.5346 O   0  0  0  0  0  0  0  0  0  0  0  0
  149.6938  141.4474  155.5296 C   0  0  0  0  0  0  0  0  0  0  0  0
  149.0667  140.4777  154.5138 C   0  0  2  0  0  0  0  0  0  0  0  0
  150.1187  139.7942  153.8624 O   0  0  0  0  0  0  0  0  0  0  0  0
  148.1599  141.1863  153.4823 C   0  0  0  0  0  0  0  0  0  0  0  0
  146.9329  141.7222  154.0948 N   0  0  0  0  0  0  0  0  0  0  0  0
  146.6504  143.0742  153.8406 C   0  0  0  0  0  0  0  0  0  0  0  0
  145.5985  143.6505  154.3233 N   0  0  0  0  0  0  0  0  0  0  0  0
  144.7070  142.9231  155.1171 C   0  0  0  0  0  0  0  0  0  0  0  0
  143.5025  143.6944  155.6267 C   0  0  0  0  0  0  0  0  0  0  0  0
  144.9212  141.6086  155.3981 C   0  0  0  0  0  0  0  0  0  0  0  0
  143.9803  140.7639  156.2483 C   0  0  0  0  0  0  0  0  0  0  0  0
  146.1148  140.9393  154.8562 C   0  0  0  0  0  0  0  0  0  0  0  0
  146.3675  139.7512  155.0646 O   0  0  0  0  0  0  0  0  0  0  0  0
  151.1679  142.8250  157.5435 C   0  0  0  0  0  0  0  0  0  0  0  0
  152.4257  145.3425  159.5149 H   0  0  0  0  0  0  0  0  0  0  0  0
  150.9914  145.4251  158.4888 H   0  0  0  0  0  0  0  0  0  0  0  0
  152.5984  145.3316  157.7563 H   0  0  0  0  0  0  0  0  0  0  0  0
  153.0825  143.1909  160.3536 H   0  0  0  0  0  0  0  0  0  0  0  0
  152.9267  140.7250  160.3077 H   0  0  0  0  0  0  0  0  0  0  0  0
  150.5855  138.8199  158.5563 H   0  0  0  0  0  0  0  0  0  0  0  0
  152.1616  138.7008  159.3429 H   0  0  0  0  0  0  0  0  0  0  0  0
  152.0589  138.7463  157.5809 H   0  0  0  0  0  0  0  0  0  0  0  0
  148.9283  142.0915  155.9659 H   0  0  0  0  0  0  0  0  0  0  0  0
  150.4063  142.0867  155.0056 H   0  0  0  0  0  0  0  0  0  0  0  0
  148.4966  139.7356  155.0741 H   0  0  0  0  0  0  0  0  0  0  0  0
  149.8620  139.6282  152.9684 H   0  0  0  0  0  0  0  0  0  0  0  0
  148.7088  142.0152  153.0311 H   0  0  0  0  0  0  0  0  0  0  0  0
  147.9446  140.5212  152.6430 H   0  0  0  0  0  0  0  0  0  0  0  0
  147.3726  143.5949  153.2095 H   0  0  0  0  0  0  0  0  0  0  0  0
  143.4952  143.7141  156.7167 H   0  0  0  0  0  0  0  0  0  0  0  0
  142.5778  143.2322  155.2799 H   0  0  0  0  0  0  0  0  0  0  0  0
  143.5128  144.7264  155.2738 H   0  0  0  0  0  0  0  0  0  0  0  0
  143.5724  139.9450  155.6550 H   0  0  0  0  0  0  0  0  0  0  0  0
  143.1408  141.3287  156.6498 H   0  0  0  0  0  0  0  0  0  0  0  0
  144.5185  140.3342  157.0938 H   0  0  0  0  0  0  0  0  0  0  0  0
  150.6941  143.4398  156.7936 H   0  0  0  0  0  0  0  0  0  0  0  0
  1  2  1  0  0  0  0
  1 23  1  0  0  0  0
  1 24  1  0  0  0  0
  1 25  1  0  0  0  0
  2 22  1  0  0  0  0
  2  3  2  0  0  0  0
  3  4  1  0  0  0  0
  3 26  1  0  0  0  0
  4  5  2  0  0  0  0
  4 27  1  0  0  0  0
  5  6  1  0  0  0  0
  5  7  1  0  0  0  0
  6 28  1  0  0  0  0
  6 29  1  0  0  0  0
  6 30  1  0  0  0  0
  7  8  1  0  0  0  0
  7 22  2  0  0  0  0
  8  9  1  0  0  0  0
  9 10  1  0  0  0  0
  9 31  1  0  0  0  0
  9 32  1  0  0  0  0
 10 11  1  0  0  0  0
 10 12  1  0  0  0  0
 10 33  1  0  0  0  0
 11 34  1  0  0  0  0
 12 13  1  0  0  0  0
 12 35  1  0  0  0  0
 12 36  1  0  0  0  0
 13 20  1  0  0  0  0
 13 14  1  0  0  0  0
 14 15  2  0  0  0  0
 14 37  1  0  0  0  0
 15 16  1  0  0  0  0
 16 17  1  0  0  0  0
 16 18  2  0  0  0  0
 17 38  1  0  0  0  0
 17 39  1  0  0  0  0
 17 40  1  0  0  0  0
 18 19  1  0  0  0  0
 18 20  1  0  0  0  0
 19 41  1  0  0  0  0
 19 42  1  0  0  0  0
 19 43  1  0  0  0  0
 20 21  2  0  0  0  0
 22 44  1  0  0  0  0
M  END
> <s_m_source_file>
AV-unprocessed.smi

> <i_m_source_file_index>
2284

> <i_lp_mmshare_version>
43012

> <i_f3d_flags>
0

> <s_epik_input>
W0NIM11jMVtjSF1bY0hdYyhbQ0gzXSljKFtjSF0xKU9bQ0gyXVtDQEhdKFtPSF0pW0NIMl1uMltjSF1uYyhbQ0gzXSljKFtDSDNdKWMyPU8=

> <s_epik_cmdline>
J2VwaWtfcHl0aG9uJywgJy1waCcsICc3LjAnLCAnLXRuJywgJzgnLCAnLW1hJywgJzIwMCcsICctbWV0YWxfYmluZGluZycsICctaW1hZScsICc8aW5maWxlLm1hZT4nLCAnLW9tYWUnLCAnPG91dGZpbGUubWFlPic=

> <r_lp_tautomer_probability>
1

> <r_epik_Ionization_Penalty>
3.7476e-05

> <r_epik_Ionization_Penalty_Charging>
8.44705e-08

> <r_epik_Ionization_Penalty_Neutral>
3.73915e-05

> <r_epik_State_Penalty>
-0

> <r_epik_Charging_Adjusted_Penalty>
8.44705e-08

> <i_epik_Tot_Q>
0

> <i_epik_Tot_abs_Q>
0

> <r_epik_Metal_State_Penalty>
-0

> <b_epik_Metal_Only>
0

> <s_lp_Force_Field>
OPLS_2005

> <r_lp_Energy>
24.4024

> <b_lp_Chiralities_Consistent>
1

> <s_lp_Variant>
AV-unprocessed.smi:2284-1

> <Gold.Version>
5.8.1

> <Gold.Id.Protein>
6NUR|6NUR_protein|mol2

> <Gold.PLP.Fitness>
49.1913

> <Gold.PLP.PLP>
-43.7150

> <Gold.PLP.part.hbond>
-2.0000

> <Gold.PLP.part.metal>
0.0000

> <Gold.PLP.part.buried>
-5.2048

> <Gold.PLP.part.nonpolar>
-37.0867

> <Gold.PLP.part.repulsive>
0.2919

> <Gold.PLP.ligand.clash>
0.0000

> <Gold.PLP.ligand.torsion>
0.1225

> <Gold.PLP.Chemscore.Hbond>
1.8960

> <Gold.PLP.Chemscore.CHOScore>
0.0000

> <Gold.PLP.Chemscore.Metal>
0.0000

> <Gold.Chemscore.Hbonds>
donor molecule, donor type, donor heavy atom, donor atom, acceptor molecule, acceptor atom, score
      L1  H    11    34       P1  7957  1.00
      P1  H  7989  7998       L1    11  0.79

> <Gold.PLP.Chemscore.Internal.Correction>
0.0333

> <Gold.Rescore>
     Score         DG    S(hbond)    S(metal)    S(lipo)     H(rot)  DE(clash)    DE(int)     intcor
     15.34     -16.82       1.39        0.00     107.94       2.32       0.12       1.36       ----

> <Gold.Chemscore.Fitness>
15.3431

> <Gold.Chemscore.DG>
-16.8183

> <Gold.Chemscore.ZeroCoef>
-5.4800

> <Gold.Chemscore.Hbond>
1.3947

> <Gold.Chemscore.Metal>
0.0000

> <Gold.Chemscore.Lipo>
107.9362

> <Gold.Chemscore.Internal_Hbond>
0.0000

> <Gold.Chemscore.DEClash>
0.1153

> <Gold.Chemscore.DEInternal>
1.3600

> <Gold.Chemscore.Rot>
2.3236

> <Gold.Chemscore.Internal.Correction>
   9.000000E+99

> <Gold.Chemscore.Hbonds>
donor molecule, donor type, donor heavy atom, donor atom, acceptor molecule, acceptor atom, score
      L1  H    11    34       P1  7957  0.98
      P1  H  7989  7998       L1    11  0.12

> <Gold.Chemscore.Hbond.Weighted>
-4.6582

> <Gold.Chemscore.Metal.Weighted>
-0.0000

> <Gold.Chemscore.Lipo.Weighted>
-12.6285

> <Gold.Chemscore.Internal_Hbond.Weighted>
0.0000

> <Gold.Chemscore.DEClash.Weighted>
0.1153

> <Gold.Chemscore.DEInternal.Weighted>
1.3600

> <Gold.Chemscore.Rot.Weighted>
5.9484

> <Gold.Chemscore.Internal.Correction.Weighted>
   9.000000E+99

> <Gold.Protein.RotatedTorsions>
[ 6907 6896 6895 6894 ] final -117.88 input  -60.11 | X-H torsion
[ 7974 7965 7964 7962 ] final  130.03 input  175.53 | X-H torsion
[ 8008 7997 7996 7995 ] final  156.44 input   59.86 | X-H torsion
[ 10167 10162 10161 10158 ] final  -99.26 input  -65.29 | X-H torsion
[ 10718 10713 10712 10709 ] final  -68.46 input   66.30 | X-H torsion
[ 10763 10752 10751 10750 ] final  137.06 input  -60.55 | X-H torsion
[ 11005 11000 10999 10996 ] final -146.30 input  -57.11 | X-H torsion

> <Gold.Protein.ActiveResidues>
 VAL166  LYS551  ARG553  GLY616  TRP617  ASP618  TYR619  PRO620  LYS621  CYS622 
 ASP623  PHE694  ASN695  SER759  ASP760  ASP761  ALA762  ILE779  LEU786  VAL792 
 PHE793  MET794  SER795  GLU796  ALA797  LYS798  CYS799  TRP800  GLU811  SER814 

> <Gold.Protein.RotatedAtoms>
  150.8173  133.8314  159.3154 H   0  0  0  0  0  0  0  0  0  0  0  0  # atno 6907 bound_to 6896
  151.6082  135.1040  160.0085 H   0  0  0  0  0  0  0  0  0  0  0  0  # atno 6908 bound_to 6896
  152.4264  133.7162  159.6564 H   0  0  0  0  0  0  0  0  0  0  0  0  # atno 6909 bound_to 6896
  145.0222  139.4121  143.5191 H   0  0  0  0  0  0  0  0  0  0  0  0  # atno 7974 bound_to 7965
  156.2422  140.1912  156.6955 H   0  0  0  0  0  0  0  0  0  0  0  0  # atno 8008 bound_to 7997
  154.6220  140.0607  156.9653 H   0  0  0  0  0  0  0  0  0  0  0  0  # atno 8009 bound_to 7997
  155.1847  140.3279  155.4371 H   0  0  0  0  0  0  0  0  0  0  0  0  # atno 8010 bound_to 7997
  140.2643  143.3386  152.0596 H   0  0  0  0  0  0  0  0  0  0  0  0  # atno 10167 bound_to 10162
  156.0504  130.4295  150.2003 H   0  0  0  0  0  0  0  0  0  0  0  0  # atno 10718 bound_to 10713
  153.8667  135.3060  155.3440 H   0  0  0  0  0  0  0  0  0  0  0  0  # atno 10763 bound_to 10752
  154.7824  135.4828  153.9876 H   0  0  0  0  0  0  0  0  0  0  0  0  # atno 10764 bound_to 10752
  153.1430  135.6828  153.9094 H   0  0  0  0  0  0  0  0  0  0  0  0  # atno 10765 bound_to 10752
  140.7834  134.3052  157.5038 H   0  0  0  0  0  0  0  0  0  0  0  0  # atno 11005 bound_to 11000
  146.3487  139.9727  142.8704 LP  0  0  0  0  0  0  0  0  0  0  0  0  # atno 17320 bound_to 7965
  145.1880  140.9798  143.4227 LP  0  0  0  0  0  0  0  0  0  0  0  0  # atno 17321 bound_to 7965
  139.5007  144.6698  151.6269 LP  0  0  0  0  0  0  0  0  0  0  0  0  # atno 17342 bound_to 10162
  140.5941  143.9728  150.6343 LP  0  0  0  0  0  0  0  0  0  0  0  0  # atno 17343 bound_to 10162
  157.0087  130.9944  151.3371 LP  0  0  0  0  0  0  0  0  0  0  0  0  # atno 17370 bound_to 10713
  157.5425  130.8129  149.8046 LP  0  0  0  0  0  0  0  0  0  0  0  0  # atno 17371 bound_to 10713
  139.8739  134.9332  156.3574 LP  0  0  0  0  0  0  0  0  0  0  0  0  # atno 17394 bound_to 11000
  140.9460  133.7482  156.0209 LP  0  0  0  0  0  0  0  0  0  0  0  0  # atno 17395 bound_to 11000

$$$$
