#       Name:                AV-unprocessed.smi:1346
#       Creating user name   scv26
#       Creation time:       Fri Mar 27 05:10:04 2020


#       File generated by GOLD software.
#

@<TRIPOS>MOLECULE
AV-unprocessed.smi:1346
    54    55     1
SMALL
NO_CHARGES


@<TRIPOS>ATOM
      1 ****        -1.8833   0.5078  -0.7567 C.3            1 S1                 0.0000
      2 ****        -2.4356   1.7745  -0.1678 C.2            1 S1                 0.0000
      3 ****        -2.6202   2.8228  -0.9523 N.2            1 S1                 0.0000
      4 ****        -3.1224   3.8348  -0.1289 O.3            1 S1                 0.0000
      5 ****        -3.2184   3.3512   1.1355 C.2            1 S1                 0.0000
      6 ****        -3.7317   4.2894   2.1746 C.3            1 S1                 0.0000
      7 ****        -2.8022   2.0492   1.1826 C.2            1 S1                 0.0000
      8 ****        -2.7396   1.1314   2.3771 C.3            1 S1                 0.0000
      9 ****        -1.3050   1.0707   2.9008 C.2            1 S1                 0.0000
     10 ****        -0.9132   1.8922   3.7292 O.2            1 S1                 0.0000
     11 ****        -0.5298   0.1028   2.3935 N.am           1 S1                 0.0000
     12 ****         0.8858  -0.0711   2.6835 C.3            1 S1                 0.0000
     13 ****         1.4943  -1.1013   1.7265 C.3            1 S1                 0.0000
     14 ****         1.3869  -0.6035   0.4005 O.3            1 S1                 0.0000
     15 ****         1.8544  -1.4874  -0.6102 C.3            1 S1                 0.0000
     16 ****         0.7539  -2.5175  -0.9466 C.3            1 S1                 0.0000
     17 ****         1.1521  -3.4038  -2.1357 C.3            1 S1                 0.0000
     18 ****         1.4947  -2.5525  -3.3657 C.3            1 S1                 0.0000
     19 ****         2.5983  -1.5351  -3.0402 C.3            1 S1                 0.0000
     20 ****         2.2129  -0.6348  -1.8491 C.3            1 S1                 0.0000
     21 ****         3.3359   0.3701  -1.5445 C.3            1 S1                 0.0000
     22 ****        -2.1557  -0.3613  -0.1584 H              1 S1                 0.0000
     23 ****        -0.7954   0.5478  -0.8074 H              1 S1                 0.0000
     24 ****        -2.2572   0.3406  -1.7671 H              1 S1                 0.0000
     25 ****        -3.1759   4.1765   3.1057 H              1 S1                 0.0000
     26 ****        -4.7836   4.0949   2.3826 H              1 S1                 0.0000
     27 ****        -3.6356   5.3257   1.8497 H              1 S1                 0.0000
     28 ****        -3.3914   1.4775   3.1800 H              1 S1                 0.0000
     29 ****        -3.0814   0.1264   2.1260 H              1 S1                 0.0000
     30 ****        -0.9362  -0.5265   1.7166 H              1 S1                 0.0000
     31 ****         1.4087   0.8818   2.5867 H              1 S1                 0.0000
     32 ****         1.0028  -0.4027   3.7159 H              1 S1                 0.0000
     33 ****         2.5441  -1.2634   1.9748 H              1 S1                 0.0000
     34 ****         0.9812  -2.0568   1.8353 H              1 S1                 0.0000
     35 ****         2.7538  -2.0050  -0.2708 H              1 S1                 0.0000
     36 ****         0.5419  -3.1515  -0.0865 H              1 S1                 0.0000
     37 ****        -0.1753  -1.9967  -1.1805 H              1 S1                 0.0000
     38 ****         2.0111  -4.0182  -1.8630 H              1 S1                 0.0000
     39 ****         0.3412  -4.0925  -2.3744 H              1 S1                 0.0000
     40 ****         1.8119  -3.1959  -4.1869 H              1 S1                 0.0000
     41 ****         0.6021  -2.0281  -3.7094 H              1 S1                 0.0000
     42 ****         3.5251  -2.0655  -2.8170 H              1 S1                 0.0000
     43 ****         2.7985  -0.9232  -3.9204 H              1 S1                 0.0000
     44 ****         1.3280  -0.0644  -2.1362 H              1 S1                 0.0000
     45 ****         4.2497  -0.1385  -1.2359 H              1 S1                 0.0000
     46 ****         3.0509   1.0553  -0.7457 H              1 S1                 0.0000
     47 ****         3.5707   0.9735  -2.4216 H              1 S1                 0.0000
     48 ****        -2.4379   2.8800  -1.9338 LP             1 S1                 0.0000
     49 ****        -4.0260   4.1159  -0.4523 LP             1 S1                 0.0000
     50 ****        -2.5038   4.6203  -0.1438 LP             1 S1                 0.0000
     51 ****        -1.5341   2.6021   4.0617 LP             1 S1                 0.0000
     52 ****         0.0260   1.8498   4.0699 LP             1 S1                 0.0000
     53 ****         1.9165   0.2427   0.3425 LP             1 S1                 0.0000
     54 ****         0.4233  -0.4066   0.2197 LP             1 S1                 0.0000
@<TRIPOS>BOND
    1    1    2 1     
    2    1   22 1     
    3    1   23 1     
    4    1   24 1     
    5    2    7 1     
    6    2    3 2     
    7    3    4 1     
    8    4    5 1     
    9    5    6 1     
   10    5    7 2     
   11    6   25 1     
   12    6   26 1     
   13    6   27 1     
   14    7    8 1     
   15    8    9 1     
   16    8   28 1     
   17    8   29 1     
   18    9   10 2     
   19    9   11 am    
   20   11   12 1     
   21   11   30 1     
   22   12   13 1     
   23   12   31 1     
   24   12   32 1     
   25   13   14 1     
   26   13   33 1     
   27   13   34 1     
   28   14   15 1     
   29   15   20 1     
   30   15   16 1     
   31   15   35 1     
   32   16   17 1     
   33   16   36 1     
   34   16   37 1     
   35   17   18 1     
   36   17   38 1     
   37   17   39 1     
   38   18   19 1     
   39   18   40 1     
   40   18   41 1     
   41   19   20 1     
   42   19   42 1     
   43   19   43 1     
   44   20   21 1     
   45   20   44 1     
   46   21   45 1     
   47   21   46 1     
   48   21   47 1     
   49    3   48 1     
   50    4   49 1     
   51    4   50 1     
   52   10   51 1     
   53   10   52 1     
   54   14   53 1     
   55   14   54 1     
@<TRIPOS>SUBSTRUCTURE
      1 S1             1
@<TRIPOS>SET
LONE_PAIRS      STATIC     ATOMS    <user>   **** ""
7 48 49 50 51 52 53 54
DONOR_HYDROGENS      STATIC     ATOMS    <user>   **** ""
1 30
ATOM$BLUE        STATIC     ATOMS    COLORGROUP SYSTEM
7 48 49 50 51 52 53 54
ATOM$RED        STATIC     ATOMS    COLORGROUP SYSTEM
1 30
