AV-unprocessed.smi:2298|AV-procd|sdf|9225|dock3
  -GOLD-   2272012443D 1   1.00000     0.00000
 Structure written by MMmdl.
 37 38  0  0  0  0  0  0  0  0  1 V2000
  151.9938  136.2423  157.0989 C   0  0  0  0  0  0  0  0  0  0  0  0
  151.5772  135.0276  156.2908 C   0  0  0  0  0  0  0  0  0  0  0  0
  152.2448  133.8860  156.5658 N   0  0  0  0  0  0  0  0  0  0  0  0
  151.9187  132.7777  155.8702 C   0  0  0  0  0  0  0  0  0  0  0  0
  150.9183  132.7501  154.8800 C   0  0  0  0  0  0  0  0  0  0  0  0
  150.2056  133.9410  154.5983 C   0  0  0  0  0  0  0  0  0  0  0  0
  149.1848  134.0372  153.6102 N   0  0  0  0  0  0  0  0  0  0  0  0
  148.2375  133.1445  153.2744 C   0  0  0  0  0  0  0  0  0  0  0  0
  148.0893  132.0324  153.7801 O   0  0  0  0  0  0  0  0  0  0  0  0
  147.4441  133.6273  152.3072 N   0  0  0  0  0  0  0  0  0  0  0  0
  146.3099  132.9246  151.7146 C   0  0  1  0  0  0  0  0  0  0  0  0
  145.0001  133.6203  152.1271 C   0  0  0  0  0  0  0  0  0  0  0  0
  143.7752  132.9477  151.4829 C   0  0  0  0  0  0  0  0  0  0  0  0
  143.8970  132.8585  149.9501 C   0  0  1  0  0  0  0  0  0  0  0  0
  143.7838  134.1475  149.3796 O   0  0  0  0  0  0  0  0  0  0  0  0
  145.2258  132.2054  149.5249 C   0  0  0  0  0  0  0  0  0  0  0  0
  146.4444  132.8796  150.1794 C   0  0  0  0  0  0  0  0  0  0  0  0
  150.5549  135.1097  155.3162 C   0  0  0  0  0  0  0  0  0  0  0  0
  149.7454  136.6110  155.0128 Cl  0  0  0  0  0  0  0  0  0  0  0  0
  146.2826  131.9019  152.0963 H   0  0  0  0  0  0  0  0  0  0  0  0
  143.0680  132.2661  149.5612 H   0  0  0  0  0  0  0  0  0  0  0  0
  151.1392  136.6488  157.6407 H   0  0  0  0  0  0  0  0  0  0  0  0
  152.3865  137.0182  156.4412 H   0  0  0  0  0  0  0  0  0  0  0  0
  152.7666  135.9940  157.8279 H   0  0  0  0  0  0  0  0  0  0  0  0
  152.4774  131.8841  156.1058 H   0  0  0  0  0  0  0  0  0  0  0  0
  150.7319  131.8258  154.3567 H   0  0  0  0  0  0  0  0  0  0  0  0
  149.1303  134.9299  153.1420 H   0  0  0  0  0  0  0  0  0  0  0  0
  147.6371  134.5525  151.9528 H   0  0  0  0  0  0  0  0  0  0  0  0
  144.8954  133.6046  153.2126 H   0  0  0  0  0  0  0  0  0  0  0  0
  145.0317  134.6717  151.8373 H   0  0  0  0  0  0  0  0  0  0  0  0
  143.6718  131.9409  151.8897 H   0  0  0  0  0  0  0  0  0  0  0  0
  142.8652  133.4813  151.7601 H   0  0  0  0  0  0  0  0  0  0  0  0
  144.4704  134.2543  148.7392 H   0  0  0  0  0  0  0  0  0  0  0  0
  145.2108  131.1531  149.8115 H   0  0  0  0  0  0  0  0  0  0  0  0
  145.3261  132.2216  148.4390 H   0  0  0  0  0  0  0  0  0  0  0  0
  146.5540  133.8919  149.7878 H   0  0  0  0  0  0  0  0  0  0  0  0
  147.3506  132.3425  149.8973 H   0  0  0  0  0  0  0  0  0  0  0  0
  1  2  1  0  0  0  0
  1 22  1  0  0  0  0
  1 23  1  0  0  0  0
  1 24  1  0  0  0  0
  2 18  1  0  0  0  0
  2  3  2  0  0  0  0
  3  4  1  0  0  0  0
  4  5  2  0  0  0  0
  4 25  1  0  0  0  0
  5  6  1  0  0  0  0
  5 26  1  0  0  0  0
  6  7  1  0  0  0  0
  6 18  2  0  0  0  0
  7  8  1  0  0  0  0
  7 27  1  0  0  0  0
  8  9  2  0  0  0  0
  8 10  1  0  0  0  0
 10 11  1  0  0  0  0
 10 28  1  0  0  0  0
 11 20  1  0  0  0  0
 11 17  1  0  0  0  0
 11 12  1  0  0  0  0
 12 13  1  0  0  0  0
 12 29  1  0  0  0  0
 12 30  1  0  0  0  0
 13 14  1  0  0  0  0
 13 31  1  0  0  0  0
 13 32  1  0  0  0  0
 14 21  1  0  0  0  0
 14 15  1  0  0  0  0
 14 16  1  0  0  0  0
 15 33  1  0  0  0  0
 16 17  1  0  0  0  0
 16 34  1  0  0  0  0
 16 35  1  0  0  0  0
 17 36  1  0  0  0  0
 17 37  1  0  0  0  0
 18 19  1  0  0  0  0
M  END
> <s_m_source_file>
AV-unprocessed.smi

> <i_m_source_file_index>
2298

> <i_lp_mmshare_version>
43012

> <i_f3d_flags>
0

> <s_epik_input>
W0NIM11jMW5bY0hdW2NIXWMoYzFDbClbTkhdQyg9TylbTkhdW0NASF0yW0NIMl1bQ0gyXVtDQEhdKFtPSF0pW0NIMl1bQ0gyXTI=

> <s_epik_cmdline>
J2VwaWtfcHl0aG9uJywgJy1waCcsICc3LjAnLCAnLXRuJywgJzgnLCAnLW1hJywgJzIwMCcsICctbWV0YWxfYmluZGluZycsICctaW1hZScsICc8aW5maWxlLm1hZT4nLCAnLW9tYWUnLCAnPG91dGZpbGUubWFlPic=

> <r_epik_Ionization_Penalty>
0.00999805

> <r_epik_Ionization_Penalty_Charging>
0

> <r_epik_Ionization_Penalty_Neutral>
0.00999805

> <r_epik_State_Penalty>
0.00759022

> <r_epik_Charging_Adjusted_Penalty>
0.00759022

> <i_epik_Tot_Q>
0

> <i_epik_Tot_abs_Q>
0

> <r_epik_Metal_State_Penalty>
0.00746447

> <b_epik_Metal_Only>
0

> <s_lp_Force_Field>
OPLS_2005

> <r_lp_Energy>
16.8241

> <b_lp_Chiralities_Consistent>
1

> <s_lp_Variant>
AV-unprocessed.smi:2298-2

> <Gold.Version>
5.8.1

> <Gold.Id.Protein>
6NUR|6NUR_protein|mol2

> <Gold.PLP.Fitness>
42.8789

> <Gold.PLP.PLP>
-34.4990

> <Gold.PLP.part.hbond>
-4.8038

> <Gold.PLP.part.metal>
0.0000

> <Gold.PLP.part.buried>
-4.3251

> <Gold.PLP.part.nonpolar>
-24.5921

> <Gold.PLP.part.repulsive>
0.0742

> <Gold.PLP.ligand.clash>
0.0000

> <Gold.PLP.ligand.torsion>
0.3324

> <Gold.PLP.Chemscore.Hbond>
3.0139

> <Gold.PLP.Chemscore.CHOScore>
0.0000

> <Gold.PLP.Chemscore.Metal>
0.0000

> <Gold.Chemscore.Hbonds>
donor molecule, donor type, donor heavy atom, donor atom, acceptor molecule, acceptor atom, score
      L1  H     7    27       P1  7948  0.70
      L1  H    10    28       P1  7948  0.84
      L1  H    15    33       P1  7921  0.91

> <Gold.PLP.Chemscore.Internal.Correction>
0.0031

> <Gold.Rescore>
     Score         DG    S(hbond)    S(metal)    S(lipo)     H(rot)  DE(clash)    DE(int)     intcor
     18.89     -19.25       2.54        0.00      76.26       1.42       0.02       0.34       ----

> <Gold.Chemscore.Fitness>
18.8949

> <Gold.Chemscore.DG>
-19.2500

> <Gold.Chemscore.ZeroCoef>
-5.4800

> <Gold.Chemscore.Hbond>
2.5396

> <Gold.Chemscore.Metal>
0.0000

> <Gold.Chemscore.Lipo>
76.2609

> <Gold.Chemscore.Internal_Hbond>
0.0000

> <Gold.Chemscore.DEClash>
0.0155

> <Gold.Chemscore.DEInternal>
0.3396

> <Gold.Chemscore.Rot>
1.4199

> <Gold.Chemscore.Internal.Correction>
   9.000000E+99

> <Gold.Chemscore.Hbonds>
donor molecule, donor type, donor heavy atom, donor atom, acceptor molecule, acceptor atom, score
      L1  H     7    27       P1  7948  0.07
      L1  H    10    28       P1  7948  0.35
      L1  H    15    33       P1  7921  0.87

> <Gold.Chemscore.Hbond.Weighted>
-8.4824

> <Gold.Chemscore.Metal.Weighted>
-0.0000

> <Gold.Chemscore.Lipo.Weighted>
-8.9225

> <Gold.Chemscore.Internal_Hbond.Weighted>
0.0000

> <Gold.Chemscore.DEClash.Weighted>
0.0155

> <Gold.Chemscore.DEInternal.Weighted>
0.3396

> <Gold.Chemscore.Rot.Weighted>
3.6349

> <Gold.Chemscore.Internal.Correction.Weighted>
   9.000000E+99

> <Gold.Protein.RotatedTorsions>
[ 6907 6896 6895 6894 ] final  -28.66 input  -60.11 | X-H torsion
[ 7974 7965 7964 7962 ] final    5.10 input  175.53 | X-H torsion
[ 8008 7997 7996 7995 ] final -123.57 input   59.86 | X-H torsion
[ 10167 10162 10161 10158 ] final  -39.03 input  -65.29 | X-H torsion
[ 10718 10713 10712 10709 ] final   33.61 input   66.30 | X-H torsion
[ 10763 10752 10751 10750 ] final   19.88 input  -60.55 | X-H torsion
[ 11005 11000 10999 10996 ] final -127.56 input  -57.11 | X-H torsion

> <Gold.Protein.ActiveResidues>
 VAL166  LYS551  ARG553  GLY616  TRP617  ASP618  TYR619  PRO620  LYS621  CYS622 
 ASP623  PHE694  ASN695  SER759  ASP760  ASP761  ALA762  ILE779  LEU786  VAL792 
 PHE793  MET794  SER795  GLU796  ALA797  LYS798  CYS799  TRP800  GLU811  SER814 

> <Gold.Protein.RotatedAtoms>
  151.1299  135.0124  159.8577 H   0  0  0  0  0  0  0  0  0  0  0  0  # atno 6907 bound_to 6896
  152.5450  134.1623  159.8573 H   0  0  0  0  0  0  0  0  0  0  0  0  # atno 6908 bound_to 6896
  151.1689  133.4752  159.2627 H   0  0  0  0  0  0  0  0  0  0  0  0  # atno 6909 bound_to 6896
  146.2442  140.0434  142.8380 H   0  0  0  0  0  0  0  0  0  0  0  0  # atno 7974 bound_to 7965
  155.1827  140.0411  157.2885 H   0  0  0  0  0  0  0  0  0  0  0  0  # atno 8008 bound_to 7997
  154.6192  140.2496  155.7542 H   0  0  0  0  0  0  0  0  0  0  0  0  # atno 8009 bound_to 7997
  156.2424  140.2898  156.0492 H   0  0  0  0  0  0  0  0  0  0  0  0  # atno 8010 bound_to 7997
  140.7075  143.3239  151.2725 H   0  0  0  0  0  0  0  0  0  0  0  0  # atno 10167 bound_to 10162
  157.3000  130.7346  149.6661 H   0  0  0  0  0  0  0  0  0  0  0  0  # atno 10718 bound_to 10713
  153.1125  135.6700  153.9476 H   0  0  0  0  0  0  0  0  0  0  0  0  # atno 10763 bound_to 10752
  153.9015  135.3035  155.3450 H   0  0  0  0  0  0  0  0  0  0  0  0  # atno 10764 bound_to 10752
  154.7543  135.5019  153.9424 H   0  0  0  0  0  0  0  0  0  0  0  0  # atno 10765 bound_to 10752
  140.9589  134.0963  157.3988 H   0  0  0  0  0  0  0  0  0  0  0  0  # atno 11005 bound_to 11000
  145.1049  140.9369  143.4691 LP  0  0  0  0  0  0  0  0  0  0  0  0  # atno 17320 bound_to 7965
  145.0635  139.3087  143.5868 LP  0  0  0  0  0  0  0  0  0  0  0  0  # atno 17321 bound_to 7965
  139.6702  144.0034  152.2748 LP  0  0  0  0  0  0  0  0  0  0  0  0  # atno 17342 bound_to 10162
  139.9630  144.6545  150.8061 LP  0  0  0  0  0  0  0  0  0  0  0  0  # atno 17343 bound_to 10162
  155.9671  130.4283  150.4781 LP  0  0  0  0  0  0  0  0  0  0  0  0  # atno 17370 bound_to 10713
  157.2760  131.0597  151.2229 LP  0  0  0  0  0  0  0  0  0  0  0  0  # atno 17371 bound_to 10713
  139.8871  135.0087  156.6542 LP  0  0  0  0  0  0  0  0  0  0  0  0  # atno 17394 bound_to 11000
  140.7496  133.8909  155.8337 LP  0  0  0  0  0  0  0  0  0  0  0  0  # atno 17395 bound_to 11000

$$$$
