AV-unprocessed.smi:85|AV-procd|sdf|810|dock3
  -GOLD-   2262017203D 1   1.00000     0.00000
 Structure written by MMmdl.
 62 65  0  0  0  0  0  0  0  0  1 V2000
  152.8788  137.6115  160.1459 C   0  0  0  0  0  0  0  0  0  0  0  0
  153.4174  139.0129  159.8128 C   0  0  0  0  0  0  0  0  0  0  0  0
  152.3845  139.9435  159.3524 N   0  0  0  0  0  0  0  0  0  0  0  0
  151.8447  139.6610  158.1406 C   0  0  0  0  0  0  0  0  0  0  0  0
  152.6448  139.8149  157.0559 N   0  0  0  0  0  0  0  0  0  0  0  0
  152.1744  139.5545  155.8331 C   0  0  0  0  0  0  0  0  0  0  0  0
  150.9582  139.1358  155.4786 N   0  0  0  0  0  0  0  0  0  0  0  0
  150.1487  138.9824  156.5656 C   0  0  0  0  0  0  0  0  0  0  0  0
  150.5032  139.2335  157.9212 C   0  0  0  0  0  0  0  0  0  0  0  0
  149.4135  138.9843  158.7472 N   0  0  0  0  0  0  0  0  0  0  0  0
  148.4741  138.5978  157.9290 C   0  0  0  0  0  0  0  0  0  0  0  0
  148.8353  138.5457  156.6016 N   0  0  0  0  0  0  0  0  0  0  0  0
  147.9905  138.1387  155.4877 C   0  0  0  0  0  0  0  0  0  0  0  0
  147.4111  139.3126  154.6421 C   0  0  0  0  0  0  0  0  0  0  0  0
  146.8044  138.7920  153.3072 C   0  0  0  0  0  0  0  0  0  0  0  0
  147.7845  138.2314  152.4567 O   0  0  0  0  0  0  0  0  0  0  0  0
  146.3475  140.0478  155.4956 C   0  0  0  0  0  0  0  0  0  0  0  0
  145.9135  141.3931  154.8872 C   0  0  0  0  0  0  0  0  0  0  0  0
  147.0490  142.2275  154.7008 O   0  0  0  0  0  0  0  0  0  0  0  0
  147.9942  141.6770  153.7931 C   0  0  0  0  0  0  0  0  0  0  0  0
  148.5309  140.3386  154.3331 C   0  0  0  0  0  0  0  0  0  0  0  0
  152.5991  141.3670  159.6563 C   0  0  2  0  0  0  0  0  0  0  0  0
  152.8112  141.6667  161.1510 C   0  0  0  0  0  0  0  0  0  0  0  0
  153.1009  143.1597  161.3539 C   0  0  0  0  0  0  0  0  0  0  0  0
  152.0375  143.9488  160.8222 O   0  0  0  0  0  0  0  0  0  0  0  0
  151.7578  143.7829  159.4279 C   0  0  0  0  0  0  0  0  0  0  0  0
  150.4824  144.6037  159.1738 C   0  0  0  0  0  0  0  0  0  0  0  0
  152.9027  144.3579  158.5663 C   0  0  0  0  0  0  0  0  0  0  0  0
  151.4826  142.2902  159.1268 C   0  0  0  0  0  0  0  0  0  0  0  0
  153.6718  136.9826  160.5507 H   0  0  0  0  0  0  0  0  0  0  0  0
  152.4816  137.1063  159.2652 H   0  0  0  0  0  0  0  0  0  0  0  0
  152.0849  137.6644  160.8912 H   0  0  0  0  0  0  0  0  0  0  0  0
  153.8782  139.4288  160.7092 H   0  0  0  0  0  0  0  0  0  0  0  0
  154.2139  138.9370  159.0735 H   0  0  0  0  0  0  0  0  0  0  0  0
  152.8736  139.6993  155.0228 H   0  0  0  0  0  0  0  0  0  0  0  0
  147.4875  138.3271  158.2757 H   0  0  0  0  0  0  0  0  0  0  0  0
  148.5767  137.4729  154.8530 H   0  0  0  0  0  0  0  0  0  0  0  0
  147.1824  137.5244  155.8871 H   0  0  0  0  0  0  0  0  0  0  0  0
  146.0467  138.0297  153.4790 H   0  0  0  0  0  0  0  0  0  0  0  0
  146.2991  139.5946  152.7698 H   0  0  0  0  0  0  0  0  0  0  0  0
  148.2578  138.9354  152.0402 H   0  0  0  0  0  0  0  0  0  0  0  0
  145.4738  139.4151  155.6552 H   0  0  0  0  0  0  0  0  0  0  0  0
  146.7546  140.2452  156.4882 H   0  0  0  0  0  0  0  0  0  0  0  0
  145.3839  141.2566  153.9440 H   0  0  0  0  0  0  0  0  0  0  0  0
  145.2207  141.8967  155.5614 H   0  0  0  0  0  0  0  0  0  0  0  0
  147.5469  141.5628  152.8053 H   0  0  0  0  0  0  0  0  0  0  0  0
  148.8164  142.3839  153.6795 H   0  0  0  0  0  0  0  0  0  0  0  0
  149.0928  140.5470  155.2444 H   0  0  0  0  0  0  0  0  0  0  0  0
  149.2467  139.9246  153.6225 H   0  0  0  0  0  0  0  0  0  0  0  0
  153.5252  141.6333  159.1468 H   0  0  0  0  0  0  0  0  0  0  0  0
  151.9241  141.4035  161.7283 H   0  0  0  0  0  0  0  0  0  0  0  0
  153.6356  141.0715  161.5452 H   0  0  0  0  0  0  0  0  0  0  0  0
  153.1901  143.3767  162.4184 H   0  0  0  0  0  0  0  0  0  0  0  0
  154.0543  143.4372  160.9045 H   0  0  0  0  0  0  0  0  0  0  0  0
  150.1650  144.5323  158.1328 H   0  0  0  0  0  0  0  0  0  0  0  0
  150.6396  145.6586  159.4005 H   0  0  0  0  0  0  0  0  0  0  0  0
  149.6566  144.2563  159.7958 H   0  0  0  0  0  0  0  0  0  0  0  0
  152.6500  144.3170  157.5064 H   0  0  0  0  0  0  0  0  0  0  0  0
  153.8391  143.8164  158.6908 H   0  0  0  0  0  0  0  0  0  0  0  0
  153.0947  145.4015  158.8170 H   0  0  0  0  0  0  0  0  0  0  0  0
  151.3403  142.1497  158.0549 H   0  0  0  0  0  0  0  0  0  0  0  0
  150.5410  142.0133  159.6007 H   0  0  0  0  0  0  0  0  0  0  0  0
  1  2  1  0  0  0  0
  1 30  1  0  0  0  0
  1 31  1  0  0  0  0
  1 32  1  0  0  0  0
  2  3  1  0  0  0  0
  2 33  1  0  0  0  0
  2 34  1  0  0  0  0
  3  4  1  0  0  0  0
  3 22  1  0  0  0  0
  4  9  1  0  0  0  0
  4  5  2  0  0  0  0
  5  6  1  0  0  0  0
  6  7  2  0  0  0  0
  6 35  1  0  0  0  0
  7  8  1  0  0  0  0
  8 12  1  0  0  0  0
  8  9  2  0  0  0  0
  9 10  1  0  0  0  0
 10 11  2  0  0  0  0
 11 12  1  0  0  0  0
 11 36  1  0  0  0  0
 12 13  1  0  0  0  0
 13 14  1  0  0  0  0
 13 37  1  0  0  0  0
 13 38  1  0  0  0  0
 14 21  1  0  0  0  0
 14 15  1  0  0  0  0
 14 17  1  0  0  0  0
 15 16  1  0  0  0  0
 15 39  1  0  0  0  0
 15 40  1  0  0  0  0
 16 41  1  0  0  0  0
 17 18  1  0  0  0  0
 17 42  1  0  0  0  0
 17 43  1  0  0  0  0
 18 19  1  0  0  0  0
 18 44  1  0  0  0  0
 18 45  1  0  0  0  0
 19 20  1  0  0  0  0
 20 21  1  0  0  0  0
 20 46  1  0  0  0  0
 20 47  1  0  0  0  0
 21 48  1  0  0  0  0
 21 49  1  0  0  0  0
 22 29  1  0  0  0  0
 22 23  1  0  0  0  0
 22 50  1  0  0  0  0
 23 24  1  0  0  0  0
 23 51  1  0  0  0  0
 23 52  1  0  0  0  0
 24 25  1  0  0  0  0
 24 53  1  0  0  0  0
 24 54  1  0  0  0  0
 25 26  1  0  0  0  0
 26 27  1  0  0  0  0
 26 28  1  0  0  0  0
 26 29  1  0  0  0  0
 27 55  1  0  0  0  0
 27 56  1  0  0  0  0
 27 57  1  0  0  0  0
 28 58  1  0  0  0  0
 28 59  1  0  0  0  0
 28 60  1  0  0  0  0
 29 61  1  0  0  0  0
 29 62  1  0  0  0  0
M  END
> <s_m_source_file>
AV-unprocessed.smi

> <i_m_source_file_index>
85

> <i_lp_mmshare_version>
43012

> <i_f3d_flags>
0

> <s_epik_input>
W0NIM11DMShbQ0gzXSlPW0NIMl1bQ0gyXVtDQEhdKFtDSDJdMSlOKFtDSDJdW0NIM10pYyhuW2NIXW4yKWMoYzIzKW5bY0hdbjNbQ0gyXUM0KFtDSDJdW09IXSlbQ0gyXVtDSDJdT1tDSDJdW0NIMl00

> <s_epik_cmdline>
J2VwaWtfcHl0aG9uJywgJy1waCcsICc3LjAnLCAnLXRuJywgJzgnLCAnLW1hJywgJzIwMCcsICctbWV0YWxfYmluZGluZycsICctaW1hZScsICc8aW5maWxlLm1hZT4nLCAnLW9tYWUnLCAnPG91dGZpbGUubWFlPic=

> <r_lp_tautomer_probability>
1

> <r_epik_Ionization_Penalty>
0.00336056

> <r_epik_Ionization_Penalty_Charging>
0

> <r_epik_Ionization_Penalty_Neutral>
0.00336056

> <r_epik_State_Penalty>
0.00222191

> <r_epik_Charging_Adjusted_Penalty>
0.00222191

> <i_epik_Tot_Q>
0

> <i_epik_Tot_abs_Q>
0

> <r_epik_Metal_State_Penalty>
-0

> <b_epik_Metal_Only>
0

> <s_lp_Force_Field>
OPLS_2005

> <r_lp_Energy>
35.7443

> <b_lp_Chiralities_Consistent>
1

> <s_lp_Variant>
AV-unprocessed.smi:85-1

> <Gold.Version>
5.8.1

> <Gold.Id.Protein>
6NUR|6NUR_protein|mol2

> <Gold.PLP.Fitness>
48.8965

> <Gold.PLP.PLP>
-44.0390

> <Gold.PLP.part.hbond>
-3.2367

> <Gold.PLP.part.metal>
0.0000

> <Gold.PLP.part.buried>
-8.3689

> <Gold.PLP.part.nonpolar>
-33.3372

> <Gold.PLP.part.repulsive>
0.2908

> <Gold.PLP.ligand.clash>
0.0000

> <Gold.PLP.ligand.torsion>
1.0031

> <Gold.PLP.Chemscore.Hbond>
2.0000

> <Gold.PLP.Chemscore.CHOScore>
0.0000

> <Gold.PLP.Chemscore.Metal>
0.0000

> <Gold.Chemscore.Hbonds>
donor molecule, donor type, donor heavy atom, donor atom, acceptor molecule, acceptor atom, score
      L1  H    16    41       P1  7957  1.00
      P1  H  7997  8009       L1     5  0.85

> <Gold.PLP.Chemscore.Internal.Correction>
0.8637

> <Gold.Rescore>
     Score         DG    S(hbond)    S(metal)    S(lipo)     H(rot)  DE(clash)    DE(int)     intcor
     17.48     -18.77       1.89        0.00     117.45       2.65       0.18       1.12       ----

> <Gold.Chemscore.Fitness>
17.4751

> <Gold.Chemscore.DG>
-18.7701

> <Gold.Chemscore.ZeroCoef>
-5.4800

> <Gold.Chemscore.Hbond>
1.8937

> <Gold.Chemscore.Metal>
0.0000

> <Gold.Chemscore.Lipo>
117.4474

> <Gold.Chemscore.Internal_Hbond>
0.0000

> <Gold.Chemscore.DEClash>
0.1763

> <Gold.Chemscore.DEInternal>
1.1187

> <Gold.Chemscore.Rot>
2.6469

> <Gold.Chemscore.Internal.Correction>
   9.000000E+99

> <Gold.Chemscore.Hbonds>
donor molecule, donor type, donor heavy atom, donor atom, acceptor molecule, acceptor atom, score
      L1  H    16    41       P1  7957  0.96
      P1  H  7997  8009       L1     5  0.15

> <Gold.Chemscore.Hbond.Weighted>
-6.3249

> <Gold.Chemscore.Metal.Weighted>
-0.0000

> <Gold.Chemscore.Lipo.Weighted>
-13.7413

> <Gold.Chemscore.Internal_Hbond.Weighted>
0.0000

> <Gold.Chemscore.DEClash.Weighted>
0.1763

> <Gold.Chemscore.DEInternal.Weighted>
1.1187

> <Gold.Chemscore.Rot.Weighted>
6.7761

> <Gold.Chemscore.Internal.Correction.Weighted>
   9.000000E+99

> <Gold.Protein.RotatedTorsions>
[ 6907 6896 6895 6894 ] final  102.78 input  -60.11 | X-H torsion
[ 7974 7965 7964 7962 ] final   80.21 input  175.53 | X-H torsion
[ 8008 7997 7996 7995 ] final -174.79 input   59.86 | X-H torsion
[ 10167 10162 10161 10158 ] final -117.96 input  -65.29 | X-H torsion
[ 10718 10713 10712 10709 ] final  -96.03 input   66.30 | X-H torsion
[ 10763 10752 10751 10750 ] final  138.63 input  -60.55 | X-H torsion
[ 11005 11000 10999 10996 ] final -146.47 input  -57.11 | X-H torsion

> <Gold.Protein.ActiveResidues>
 VAL166  LYS551  ARG553  GLY616  TRP617  ASP618  TYR619  PRO620  LYS621  CYS622 
 ASP623  PHE694  ASN695  SER759  ASP760  ASP761  ALA762  ILE779  LEU786  VAL792 
 PHE793  MET794  SER795  GLU796  ALA797  LYS798  CYS799  TRP800  GLU811  SER814 

> <Gold.Protein.RotatedAtoms>
  152.5314  133.9924  159.7856 H   0  0  0  0  0  0  0  0  0  0  0  0  # atno 6907 bound_to 6896
  151.0157  133.5915  159.2684 H   0  0  0  0  0  0  0  0  0  0  0  0  # atno 6908 bound_to 6896
  151.2973  135.0765  159.9279 H   0  0  0  0  0  0  0  0  0  0  0  0  # atno 6909 bound_to 6896
  145.6542  139.2455  143.1959 H   0  0  0  0  0  0  0  0  0  0  0  0  # atno 7974 bound_to 7965
  155.9745  140.1169  157.0782 H   0  0  0  0  0  0  0  0  0  0  0  0  # atno 8008 bound_to 7997
  154.4165  140.1156  156.5419 H   0  0  0  0  0  0  0  0  0  0  0  0  # atno 8009 bound_to 7997
  155.6552  140.3473  155.4765 H   0  0  0  0  0  0  0  0  0  0  0  0  # atno 8010 bound_to 7997
  140.0627  143.4952  152.2023 H   0  0  0  0  0  0  0  0  0  0  0  0  # atno 10167 bound_to 10162
  156.0054  130.5134  150.6165 H   0  0  0  0  0  0  0  0  0  0  0  0  # atno 10718 bound_to 10713
  153.8927  135.3031  155.3447 H   0  0  0  0  0  0  0  0  0  0  0  0  # atno 10763 bound_to 10752
  154.7708  135.4886  153.9649 H   0  0  0  0  0  0  0  0  0  0  0  0  # atno 10764 bound_to 10752
  153.1288  135.6799  153.9311 H   0  0  0  0  0  0  0  0  0  0  0  0  # atno 10765 bound_to 10752
  140.7816  134.3072  157.5043 H   0  0  0  0  0  0  0  0  0  0  0  0  # atno 11005 bound_to 11000
  146.1179  140.7346  142.9472 LP  0  0  0  0  0  0  0  0  0  0  0  0  # atno 17320 bound_to 7965
  144.7112  140.4044  143.7079 LP  0  0  0  0  0  0  0  0  0  0  0  0  # atno 17321 bound_to 7965
  139.5884  144.7540  151.3462 LP  0  0  0  0  0  0  0  0  0  0  0  0  # atno 17342 bound_to 10162
  140.7164  143.7255  150.7663 LP  0  0  0  0  0  0  0  0  0  0  0  0  # atno 17343 bound_to 10162
  157.3988  131.0807  151.1327 LP  0  0  0  0  0  0  0  0  0  0  0  0  # atno 17370 bound_to 10713
  157.1996  130.6388  149.5733 LP  0  0  0  0  0  0  0  0  0  0  0  0  # atno 17371 bound_to 10713
  139.8742  134.9322  156.3548 LP  0  0  0  0  0  0  0  0  0  0  0  0  # atno 17394 bound_to 11000
  140.9476  133.7472  156.0229 LP  0  0  0  0  0  0  0  0  0  0  0  0  # atno 17395 bound_to 11000

$$$$
