AV-unprocessed.smi:1127|AV-procd|sdf|4841|dock2
  -GOLD-   22720 3403D 1   1.00000     0.00000
 Structure written by MMmdl.
 42 43  0  0  0  0  0  0  0  0  1 V2000
  145.9470  142.6139  155.1332 C   0  0  0  0  0  0  0  0  0  0  0  0
  146.0034  141.2493  156.3879 S   0  0  1  0  0  0  0  0  0  0  0  0
  144.6210  140.5942  156.4037 O   0  0  0  0  0  0  0  0  0  0  0  0
  147.0195  140.1393  155.3522 C   0  0  0  0  0  0  0  0  0  0  0  0
  146.6742  138.8855  155.0441 N   0  0  0  0  0  0  0  0  0  0  0  0
  147.7026  138.4189  154.2474 N   0  0  0  0  0  0  0  0  0  0  0  0
  148.5564  139.4412  154.1618 C   0  0  0  0  0  0  0  0  0  0  0  0
  148.1911  140.5474  154.8290 N   0  0  0  0  0  0  0  0  0  0  0  0
  148.8877  141.8186  154.9363 C   0  0  0  0  0  0  0  0  0  0  0  0
  150.2103  141.6787  155.6950 C   0  0  0  0  0  0  0  0  0  0  0  0
  150.9849  140.7591  155.4305 O   0  0  0  0  0  0  0  0  0  0  0  0
  150.4609  142.6142  156.6237 N   0  0  0  0  0  0  0  0  0  0  0  0
  151.6788  142.7166  157.4243 C   0  0  0  0  0  0  0  0  0  0  0  0
  151.5146  141.8761  158.7089 C   0  0  0  0  0  0  0  0  0  0  0  0
  152.6154  142.0658  159.7720 C   0  0  0  0  0  0  0  0  0  0  0  0
  152.2055  142.9484  160.9690 C   0  0  0  0  0  0  0  0  0  0  0  0
  152.0055  144.4527  160.6911 C   0  0  0  0  0  0  0  0  0  0  0  0
  150.7751  144.7918  159.8252 C   0  0  0  0  0  0  0  0  0  0  0  0
  151.0727  145.1125  158.3479 C   0  0  0  0  0  0  0  0  0  0  0  0
  152.0792  144.1969  157.6228 C   0  0  0  0  0  0  0  0  0  0  0  0
  146.9036  142.7087  154.6185 H   0  0  0  0  0  0  0  0  0  0  0  0
  145.7240  143.5623  155.6207 H   0  0  0  0  0  0  0  0  0  0  0  0
  145.1718  142.4151  154.3934 H   0  0  0  0  0  0  0  0  0  0  0  0
  149.4736  139.3804  153.5946 H   0  0  0  0  0  0  0  0  0  0  0  0
  149.0538  142.2114  153.9319 H   0  0  0  0  0  0  0  0  0  0  0  0
  148.2488  142.5306  155.4599 H   0  0  0  0  0  0  0  0  0  0  0  0
  149.7637  143.3297  156.7711 H   0  0  0  0  0  0  0  0  0  0  0  0
  152.4955  142.2526  156.8680 H   0  0  0  0  0  0  0  0  0  0  0  0
  150.5312  142.0215  159.1540 H   0  0  0  0  0  0  0  0  0  0  0  0
  151.5174  140.8279  158.4066 H   0  0  0  0  0  0  0  0  0  0  0  0
  152.8536  141.0806  160.1749 H   0  0  0  0  0  0  0  0  0  0  0  0
  153.5460  142.4163  159.3260 H   0  0  0  0  0  0  0  0  0  0  0  0
  151.3042  142.5413  161.4287 H   0  0  0  0  0  0  0  0  0  0  0  0
  152.9821  142.8545  161.7288 H   0  0  0  0  0  0  0  0  0  0  0  0
  151.8656  144.9351  161.6593 H   0  0  0  0  0  0  0  0  0  0  0  0
  152.9127  144.9007  160.2855 H   0  0  0  0  0  0  0  0  0  0  0  0
  150.0226  144.0092  159.9060 H   0  0  0  0  0  0  0  0  0  0  0  0
  150.2907  145.6716  160.2505 H   0  0  0  0  0  0  0  0  0  0  0  0
  150.1338  145.1438  157.7953 H   0  0  0  0  0  0  0  0  0  0  0  0
  151.4683  146.1277  158.3016 H   0  0  0  0  0  0  0  0  0  0  0  0
  153.0528  144.2593  158.1057 H   0  0  0  0  0  0  0  0  0  0  0  0
  152.2519  144.6261  156.6351 H   0  0  0  0  0  0  0  0  0  0  0  0
  1  2  1  0  0  0  0
  1 21  1  0  0  0  0
  1 22  1  0  0  0  0
  1 23  1  0  0  0  0
  2  3  2  0  0  0  0
  2  4  1  0  0  0  0
  4  8  1  0  0  0  0
  4  5  2  0  0  0  0
  5  6  1  0  0  0  0
  6  7  2  0  0  0  0
  7  8  1  0  0  0  0
  7 24  1  0  0  0  0
  8  9  1  0  0  0  0
  9 10  1  0  0  0  0
  9 25  1  0  0  0  0
  9 26  1  0  0  0  0
 10 11  2  0  0  0  0
 10 12  1  0  0  0  0
 12 13  1  0  0  0  0
 12 27  1  0  0  0  0
 13 20  1  0  0  0  0
 13 14  1  0  0  0  0
 13 28  1  0  0  0  0
 14 15  1  0  0  0  0
 14 29  1  0  0  0  0
 14 30  1  0  0  0  0
 15 16  1  0  0  0  0
 15 31  1  0  0  0  0
 15 32  1  0  0  0  0
 16 17  1  0  0  0  0
 16 33  1  0  0  0  0
 16 34  1  0  0  0  0
 17 18  1  0  0  0  0
 17 35  1  0  0  0  0
 17 36  1  0  0  0  0
 18 19  1  0  0  0  0
 18 37  1  0  0  0  0
 18 38  1  0  0  0  0
 19 20  1  0  0  0  0
 19 39  1  0  0  0  0
 19 40  1  0  0  0  0
 20 41  1  0  0  0  0
 20 42  1  0  0  0  0
M  END
> <s_m_source_file>
AV-unprocessed.smi

> <i_m_source_file_index>
1127

> <i_lp_mmshare_version>
43012

> <i_f3d_flags>
0

> <s_epik_input>
W0NIM11bU0BdKD1PKWMxbm5bY0hdbjFbQ0gyXUMoPU8pW05IXVtDSF0yW0NIMl1bQ0gyXVtDSDJdW0NIMl1bQ0gyXVtDSDJdW0NIMl0y

> <s_epik_cmdline>
J2VwaWtfcHl0aG9uJywgJy1waCcsICc3LjAnLCAnLXRuJywgJzgnLCAnLW1hJywgJzIwMCcsICctbWV0YWxfYmluZGluZycsICctaW1hZScsICc8aW5maWxlLm1hZT4nLCAnLW9tYWUnLCAnPG91dGZpbGUubWFlPic=

> <r_lp_tautomer_probability>
1

> <r_epik_Ionization_Penalty>
7.34999e-08

> <r_epik_Ionization_Penalty_Charging>
0

> <r_epik_Ionization_Penalty_Neutral>
7.34999e-08

> <r_epik_State_Penalty>
-0

> <r_epik_Charging_Adjusted_Penalty>
0

> <i_epik_Tot_Q>
0

> <i_epik_Tot_abs_Q>
0

> <r_epik_Metal_State_Penalty>
-0

> <b_epik_Metal_Only>
0

> <s_lp_Force_Field>
OPLS_2005

> <r_lp_Energy>
17.4242

> <b_lp_Chiralities_Consistent>
1

> <s_lp_Variant>
AV-unprocessed.smi:1127-2

> <Gold.Version>
5.8.1

> <Gold.Id.Protein>
6NUR|6NUR_protein|mol2

> <Gold.PLP.Fitness>
42.6859

> <Gold.PLP.PLP>
-36.6898

> <Gold.PLP.part.hbond>
-2.0000

> <Gold.PLP.part.metal>
0.0000

> <Gold.PLP.part.buried>
-3.9202

> <Gold.PLP.part.nonpolar>
-30.7772

> <Gold.PLP.part.repulsive>
0.3578

> <Gold.PLP.ligand.clash>
0.0000

> <Gold.PLP.ligand.torsion>
1.1031

> <Gold.PLP.Chemscore.Hbond>
1.5360

> <Gold.PLP.Chemscore.CHOScore>
0.8447

> <Gold.PLP.Chemscore.Metal>
0.0000

> <Gold.Chemscore.Hbonds>
donor molecule, donor type, donor heavy atom, donor atom, acceptor molecule, acceptor atom, score
      L1  H    12    27       P1  8028  0.74
      P1  H  7989  7998       L1    11  0.81
      L1  C     7    24       P1  7957  0.86

> <Gold.PLP.Chemscore.Internal.Correction>
1.0601

> <Gold.Rescore>
     Score         DG    S(hbond)    S(metal)    S(lipo)     H(rot)  DE(clash)    DE(int)     intcor
     15.22     -17.45       1.45        0.00      98.12       1.70       1.18       1.05       ----

> <Gold.Chemscore.Fitness>
15.2178

> <Gold.Chemscore.DG>
-17.4521

> <Gold.Chemscore.ZeroCoef>
-5.4800

> <Gold.Chemscore.Hbond>
1.4537

> <Gold.Chemscore.Metal>
0.0000

> <Gold.Chemscore.Lipo>
98.1183

> <Gold.Chemscore.Internal_Hbond>
0.0000

> <Gold.Chemscore.DEClash>
1.1840

> <Gold.Chemscore.DEInternal>
1.0503

> <Gold.Chemscore.Rot>
1.7044

> <Gold.Chemscore.Internal.Correction>
   9.000000E+99

> <Gold.Chemscore.Hbonds>
donor molecule, donor type, donor heavy atom, donor atom, acceptor molecule, acceptor atom, score
      L1  H    12    27       P1  8028  0.72
      P1  H  7989  7998       L1    11  0.59

> <Gold.Chemscore.Hbond.Weighted>
-4.8554

> <Gold.Chemscore.Metal.Weighted>
-0.0000

> <Gold.Chemscore.Lipo.Weighted>
-11.4798

> <Gold.Chemscore.Internal_Hbond.Weighted>
0.0000

> <Gold.Chemscore.DEClash.Weighted>
1.1840

> <Gold.Chemscore.DEInternal.Weighted>
1.0503

> <Gold.Chemscore.Rot.Weighted>
4.3631

> <Gold.Chemscore.Internal.Correction.Weighted>
   9.000000E+99

> <Gold.Protein.RotatedTorsions>
[ 6907 6896 6895 6894 ] final  126.77 input  -60.11 | X-H torsion
[ 7974 7965 7964 7962 ] final   89.32 input  175.53 | X-H torsion
[ 8008 7997 7996 7995 ] final  -72.17 input   59.86 | X-H torsion
[ 10167 10162 10161 10158 ] final  121.40 input  -65.29 | X-H torsion
[ 10718 10713 10712 10709 ] final   55.39 input   66.30 | X-H torsion
[ 10763 10752 10751 10750 ] final -102.30 input  -60.55 | X-H torsion
[ 11005 11000 10999 10996 ] final   92.27 input  -57.11 | X-H torsion

> <Gold.Protein.ActiveResidues>
 VAL166  LYS551  ARG553  GLY616  TRP617  ASP618  TYR619  PRO620  LYS621  CYS622 
 ASP623  PHE694  ASN695  SER759  ASP760  ASP761  ALA762  ILE779  LEU786  VAL792 
 PHE793  MET794  SER795  GLU796  ALA797  LYS798  CYS799  TRP800  GLU811  SER814 

> <Gold.Protein.RotatedAtoms>
  152.3873  133.6629  159.6208 H   0  0  0  0  0  0  0  0  0  0  0  0  # atno 6907 bound_to 6896
  150.7789  133.9014  159.3351 H   0  0  0  0  0  0  0  0  0  0  0  0  # atno 6908 bound_to 6896
  151.6807  135.0963  160.0267 H   0  0  0  0  0  0  0  0  0  0  0  0  # atno 6909 bound_to 6896
  145.5339  139.2285  143.2603 H   0  0  0  0  0  0  0  0  0  0  0  0  # atno 7974 bound_to 7965
  154.5145  140.0802  156.8054 H   0  0  0  0  0  0  0  0  0  0  0  0  # atno 8008 bound_to 7997
  155.3712  140.3423  155.4225 H   0  0  0  0  0  0  0  0  0  0  0  0  # atno 8009 bound_to 7997
  156.1611  140.1589  156.8597 H   0  0  0  0  0  0  0  0  0  0  0  0  # atno 8010 bound_to 7997
  139.5922  144.7029  151.3263 H   0  0  0  0  0  0  0  0  0  0  0  0  # atno 10167 bound_to 10162
  157.5341  130.8651  149.8728 H   0  0  0  0  0  0  0  0  0  0  0  0  # atno 10718 bound_to 10713
  154.7723  135.4865  153.9674 H   0  0  0  0  0  0  0  0  0  0  0  0  # atno 10763 bound_to 10752
  153.1384  135.6767  153.9073 H   0  0  0  0  0  0  0  0  0  0  0  0  # atno 10764 bound_to 10752
  153.8755  135.3138  155.3422 H   0  0  0  0  0  0  0  0  0  0  0  0  # atno 10765 bound_to 10752
  139.8826  134.8723  156.3548 H   0  0  0  0  0  0  0  0  0  0  0  0  # atno 11005 bound_to 11000
  146.2026  140.6157  142.9095 LP  0  0  0  0  0  0  0  0  0  0  0  0  # atno 17320 bound_to 7965
  144.7611  140.5425  143.6735 LP  0  0  0  0  0  0  0  0  0  0  0  0  # atno 17321 bound_to 7965
  140.7182  143.7208  150.7697 LP  0  0  0  0  0  0  0  0  0  0  0  0  # atno 17342 bound_to 10162
  140.0766  143.5009  152.2552 LP  0  0  0  0  0  0  0  0  0  0  0  0  # atno 17343 bound_to 10162
  156.0445  130.3731  150.1353 LP  0  0  0  0  0  0  0  0  0  0  0  0  # atno 17370 bound_to 10713
  156.9536  130.9782  151.3493 LP  0  0  0  0  0  0  0  0  0  0  0  0  # atno 17371 bound_to 10713
  140.9570  133.7414  156.0348 LP  0  0  0  0  0  0  0  0  0  0  0  0  # atno 17394 bound_to 11000
  140.8037  134.3480  157.5432 LP  0  0  0  0  0  0  0  0  0  0  0  0  # atno 17395 bound_to 11000

$$$$
