AV-unprocessed.smi:2100|AV-procd|sdf|8574|dock10
  -GOLD-   2272011303D 1   1.00000     0.00000
 Structure written by MMmdl.
 41 42  0  0  0  0  0  0  0  0  1 V2000
  148.9849  136.6536  159.7402 C   0  0  0  0  0  0  0  0  0  0  0  0
  149.3367  136.6180  158.2491 C   0  0  1  0  0  0  0  0  0  0  0  0
  150.2143  137.8120  157.8322 C   0  0  0  0  0  0  0  0  0  0  0  0
  150.6431  137.6895  156.4279 N   0  0  0  0  0  0  0  0  0  0  0  0
  151.4086  139.0634  155.7050 S   0  0  0  0  0  0  0  0  0  0  0  0
  152.7722  139.1774  156.2448 O   0  0  0  0  0  0  0  0  0  0  0  0
  151.1712  139.0316  154.2536 O   0  0  0  0  0  0  0  0  0  0  0  0
  150.4343  140.3204  156.3775 N   0  0  0  0  0  0  0  0  0  0  0  0
  151.0659  141.5088  156.9547 C   0  0  0  0  0  0  0  0  0  0  0  0
  150.0884  142.2927  157.8449 C   0  0  0  0  0  0  0  0  0  0  0  0
  150.7601  143.4585  158.5454 C   0  0  0  0  0  0  0  0  0  0  0  0
  151.7894  144.1849  157.9096 C   0  0  0  0  0  0  0  0  0  0  0  0
  152.3823  145.2568  158.6046 C   0  0  0  0  0  0  0  0  0  0  0  0
  151.9272  145.5580  159.9028 C   0  0  0  0  0  0  0  0  0  0  0  0
  150.8953  144.7702  160.4505 C   0  0  0  0  0  0  0  0  0  0  0  0
  150.3196  143.7409  159.7923 N   0  0  0  0  0  0  0  0  0  0  0  0
  151.2171  136.3720  156.1120 C   0  0  0  0  0  0  0  0  0  0  0  0
  150.3014  135.2349  156.6018 C   0  0  1  0  0  0  0  0  0  0  0  0
  150.9408  133.8557  156.4067 C   0  0  0  0  0  0  0  0  0  0  0  0
  150.0300  135.4061  157.9860 O   0  0  0  0  0  0  0  0  0  0  0  0
  148.4448  137.5658  159.9945 H   0  0  0  0  0  0  0  0  0  0  0  0
  149.8818  136.6117  160.3588 H   0  0  0  0  0  0  0  0  0  0  0  0
  148.3535  135.8073  160.0114 H   0  0  0  0  0  0  0  0  0  0  0  0
  148.4071  136.6315  157.6771 H   0  0  0  0  0  0  0  0  0  0  0  0
  149.6631  138.7411  157.9752 H   0  0  0  0  0  0  0  0  0  0  0  0
  151.1014  137.8682  158.4648 H   0  0  0  0  0  0  0  0  0  0  0  0
  149.6242  140.5360  155.7972 H   0  0  0  0  0  0  0  0  0  0  0  0
  151.9515  141.2100  157.5168 H   0  0  0  0  0  0  0  0  0  0  0  0
  151.4077  142.1443  156.1373 H   0  0  0  0  0  0  0  0  0  0  0  0
  149.2540  142.6635  157.2483 H   0  0  0  0  0  0  0  0  0  0  0  0
  149.6572  141.6409  158.6054 H   0  0  0  0  0  0  0  0  0  0  0  0
  152.1184  143.9286  156.9134 H   0  0  0  0  0  0  0  0  0  0  0  0
  153.1724  145.8364  158.1506 H   0  0  0  0  0  0  0  0  0  0  0  0
  152.3590  146.3725  160.4653 H   0  0  0  0  0  0  0  0  0  0  0  0
  150.5227  144.9718  161.4439 H   0  0  0  0  0  0  0  0  0  0  0  0
  151.3677  136.2864  155.0356 H   0  0  0  0  0  0  0  0  0  0  0  0
  152.2000  136.2979  156.5794 H   0  0  0  0  0  0  0  0  0  0  0  0
  149.3616  135.2589  156.0472 H   0  0  0  0  0  0  0  0  0  0  0  0
  151.1531  133.6670  155.3541 H   0  0  0  0  0  0  0  0  0  0  0  0
  150.2770  133.0654  156.7581 H   0  0  0  0  0  0  0  0  0  0  0  0
  151.8781  133.7732  156.9577 H   0  0  0  0  0  0  0  0  0  0  0  0
  1  2  1  0  0  0  0
  1 21  1  0  0  0  0
  1 22  1  0  0  0  0
  1 23  1  0  0  0  0
  2 20  1  0  0  0  0
  2  3  1  0  0  0  0
  2 24  1  0  0  0  0
  3  4  1  0  0  0  0
  3 25  1  0  0  0  0
  3 26  1  0  0  0  0
  4  5  1  0  0  0  0
  4 17  1  0  0  0  0
  5  6  2  0  0  0  0
  5  7  2  0  0  0  0
  5  8  1  0  0  0  0
  8  9  1  0  0  0  0
  8 27  1  0  0  0  0
  9 10  1  0  0  0  0
  9 28  1  0  0  0  0
  9 29  1  0  0  0  0
 10 11  1  0  0  0  0
 10 30  1  0  0  0  0
 10 31  1  0  0  0  0
 11 16  1  0  0  0  0
 11 12  2  0  0  0  0
 12 13  1  0  0  0  0
 12 32  1  0  0  0  0
 13 14  2  0  0  0  0
 13 33  1  0  0  0  0
 14 15  1  0  0  0  0
 14 34  1  0  0  0  0
 15 16  2  0  0  0  0
 15 35  1  0  0  0  0
 17 18  1  0  0  0  0
 17 36  1  0  0  0  0
 17 37  1  0  0  0  0
 18 19  1  0  0  0  0
 18 20  1  0  0  0  0
 18 38  1  0  0  0  0
 19 39  1  0  0  0  0
 19 40  1  0  0  0  0
 19 41  1  0  0  0  0
M  END
> <s_m_source_file>
AV-unprocessed.smi

> <i_m_source_file_index>
2100

> <i_lp_mmshare_version>
43012

> <i_f3d_flags>
0

> <s_epik_input>
W0NIM11bQ0BASF0xW0NIMl1OKFtDSDJdW0NASF0oTzEpW0NIM10pUyg9TykoPU8pW05IXVtDSDJdW0NIMl1jMltjSF1bY0hdW2NIXVtjSF1uMg==

> <s_epik_cmdline>
J2VwaWtfcHl0aG9uJywgJy1waCcsICc3LjAnLCAnLXRuJywgJzgnLCAnLW1hJywgJzIwMCcsICctbWV0YWxfYmluZGluZycsICctaW1hZScsICc8aW5maWxlLm1hZT4nLCAnLW9tYWUnLCAnPG91dGZpbGUubWFlPic=

> <r_epik_Ionization_Penalty>
0.085378

> <r_epik_Ionization_Penalty_Charging>
0

> <r_epik_Ionization_Penalty_Neutral>
0.085378

> <r_epik_State_Penalty>
0.0441186

> <r_epik_Charging_Adjusted_Penalty>
0.0441186

> <i_epik_Tot_Q>
0

> <i_epik_Tot_abs_Q>
0

> <r_epik_Metal_State_Penalty>
0.24397

> <b_epik_Metal_Only>
0

> <s_lp_Force_Field>
OPLS_2005

> <r_lp_Energy>
5.36855

> <b_lp_Chiralities_Consistent>
1

> <s_lp_Variant>
AV-unprocessed.smi:2100-2

> <Gold.Version>
5.8.1

> <Gold.Id.Protein>
6NUR|6NUR_protein|mol2

> <Gold.PLP.Fitness>
43.1709

> <Gold.PLP.PLP>
-36.1137

> <Gold.PLP.part.hbond>
-3.7625

> <Gold.PLP.part.metal>
0.0000

> <Gold.PLP.part.buried>
-5.6654

> <Gold.PLP.part.nonpolar>
-27.6240

> <Gold.PLP.part.repulsive>
0.2838

> <Gold.PLP.ligand.clash>
0.0000

> <Gold.PLP.ligand.torsion>
1.1225

> <Gold.PLP.Chemscore.Hbond>
2.8640

> <Gold.PLP.Chemscore.CHOScore>
0.0000

> <Gold.PLP.Chemscore.Metal>
0.0000

> <Gold.Chemscore.Hbonds>
donor molecule, donor type, donor heavy atom, donor atom, acceptor molecule, acceptor atom, score
      P1  H  6896  6907       L1    20  0.88
      P1  H  7989  7998       L1     7  1.00
      P1  H  7997  8008       L1     6  1.00

> <Gold.PLP.Chemscore.Internal.Correction>
0.7102

> <Gold.Rescore>
     Score         DG    S(hbond)    S(metal)    S(lipo)     H(rot)  DE(clash)    DE(int)     intcor
     20.27     -21.44       2.84        0.00      92.77       1.71       0.05       1.13       ----

> <Gold.Chemscore.Fitness>
20.2659

> <Gold.Chemscore.DG>
-21.4443

> <Gold.Chemscore.ZeroCoef>
-5.4800

> <Gold.Chemscore.Hbond>
2.8376

> <Gold.Chemscore.Metal>
0.0000

> <Gold.Chemscore.Lipo>
92.7708

> <Gold.Chemscore.Internal_Hbond>
0.0000

> <Gold.Chemscore.DEClash>
0.0480

> <Gold.Chemscore.DEInternal>
1.1304

> <Gold.Chemscore.Rot>
1.7060

> <Gold.Chemscore.Internal.Correction>
   9.000000E+99

> <Gold.Chemscore.Hbonds>
donor molecule, donor type, donor heavy atom, donor atom, acceptor molecule, acceptor atom, score
      P1  H  6896  6907       L1    20  0.78
      P1  H  7989  7998       L1     7  0.65
      P1  H  7997  8008       L1     6  1.00

> <Gold.Chemscore.Hbond.Weighted>
-9.4775

> <Gold.Chemscore.Metal.Weighted>
-0.0000

> <Gold.Chemscore.Lipo.Weighted>
-10.8542

> <Gold.Chemscore.Internal_Hbond.Weighted>
0.0000

> <Gold.Chemscore.DEClash.Weighted>
0.0480

> <Gold.Chemscore.DEInternal.Weighted>
1.1304

> <Gold.Chemscore.Rot.Weighted>
4.3674

> <Gold.Chemscore.Internal.Correction.Weighted>
   9.000000E+99

> <Gold.Protein.RotatedTorsions>
[ 6907 6896 6895 6894 ] final  -73.87 input  -60.11 | X-H torsion
[ 7974 7965 7964 7962 ] final   15.18 input  175.53 | X-H torsion
[ 8008 7997 7996 7995 ] final  -44.28 input   59.86 | X-H torsion
[ 10167 10162 10161 10158 ] final  -98.89 input  -65.29 | X-H torsion
[ 10718 10713 10712 10709 ] final  129.58 input   66.30 | X-H torsion
[ 10763 10752 10751 10750 ] final -162.15 input  -60.55 | X-H torsion
[ 11005 11000 10999 10996 ] final  -20.35 input  -57.11 | X-H torsion

> <Gold.Protein.ActiveResidues>
 VAL166  LYS551  ARG553  GLY616  TRP617  ASP618  TYR619  PRO620  LYS621  CYS622 
 ASP623  PHE694  ASN695  SER759  ASP760  ASP761  ALA762  ILE779  LEU786  VAL792 
 PHE793  MET794  SER795  GLU796  ALA797  LYS798  CYS799  TRP800  GLU811  SER814 

> <Gold.Protein.RotatedAtoms>
  150.7114  134.4953  159.5534 H   0  0  0  0  0  0  0  0  0  0  0  0  # atno 6907 bound_to 6896
  152.2562  134.8079  160.0447 H   0  0  0  0  0  0  0  0  0  0  0  0  # atno 6908 bound_to 6896
  151.8809  133.3460  159.3803 H   0  0  0  0  0  0  0  0  0  0  0  0  # atno 6909 bound_to 6896
  146.2285  139.8932  142.8551 H   0  0  0  0  0  0  0  0  0  0  0  0  # atno 7974 bound_to 7965
  154.3997  140.1426  156.3658 H   0  0  0  0  0  0  0  0  0  0  0  0  # atno 8008 bound_to 7997
  155.8139  140.3472  155.5453 H   0  0  0  0  0  0  0  0  0  0  0  0  # atno 8009 bound_to 7997
  155.8358  140.0919  157.1755 H   0  0  0  0  0  0  0  0  0  0  0  0  # atno 8010 bound_to 7997
  140.2682  143.3362  152.0560 H   0  0  0  0  0  0  0  0  0  0  0  0  # atno 10167 bound_to 10162
  157.5141  131.1097  150.9250 H   0  0  0  0  0  0  0  0  0  0  0  0  # atno 10718 bound_to 10713
  154.7240  135.3032  154.9002 H   0  0  0  0  0  0  0  0  0  0  0  0  # atno 10763 bound_to 10752
  153.9865  135.6724  153.4756 H   0  0  0  0  0  0  0  0  0  0  0  0  # atno 10764 bound_to 10752
  153.0858  135.4985  154.8513 H   0  0  0  0  0  0  0  0  0  0  0  0  # atno 10765 bound_to 10752
  140.8456  133.7894  155.9909 H   0  0  0  0  0  0  0  0  0  0  0  0  # atno 11005 bound_to 11000
  145.2397  141.0004  143.3943 LP  0  0  0  0  0  0  0  0  0  0  0  0  # atno 17320 bound_to 7965
  144.9462  139.4133  143.6425 LP  0  0  0  0  0  0  0  0  0  0  0  0  # atno 17321 bound_to 7965
  139.4996  144.6674  151.6324 LP  0  0  0  0  0  0  0  0  0  0  0  0  # atno 17342 bound_to 10162
  140.5911  143.9777  150.6325 LP  0  0  0  0  0  0  0  0  0  0  0  0  # atno 17343 bound_to 10162
  156.9882  130.5553  149.5301 LP  0  0  0  0  0  0  0  0  0  0  0  0  # atno 17370 bound_to 10713
  156.0308  130.5400  150.8529 LP  0  0  0  0  0  0  0  0  0  0  0  0  # atno 17371 bound_to 10713
  140.8847  134.2569  157.5126 LP  0  0  0  0  0  0  0  0  0  0  0  0  # atno 17394 bound_to 11000
  139.8703  134.9632  156.4455 LP  0  0  0  0  0  0  0  0  0  0  0  0  # atno 17395 bound_to 11000

$$$$
