AV-unprocessed.smi:2787|AV-procd|sdf|10759|dock1
  -GOLD-   2272015193D 1   1.00000     0.00000
 Structure written by MMmdl.
 36 37  0  0  0  0  0  0  0  0  2 V2000
  147.9296  139.8593  153.0007 O   0  0  0  0  0  0  0  0  0  0  0  0
  147.4828  140.9353  153.7980 C   0  0  0  0  0  0  0  0  0  0  0  0
  148.6784  141.6898  154.3978 C   0  0  0  0  0  0  0  0  0  0  0  0
  149.6037  140.7856  155.2324 C   0  0  0  0  0  0  0  0  0  0  0  0
  150.3884  141.5304  156.2694 C   0  0  0  0  0  0  0  0  0  0  0  0
  150.3765  142.8758  156.5000 N   0  3  0  0  0  0  0  0  0  0  0  0
  151.2488  143.1872  157.5438 C   0  0  0  0  0  0  0  0  0  0  0  0
  151.5675  144.4063  158.1343 C   0  0  0  0  0  0  0  0  0  0  0  0
  152.5069  144.3734  159.1861 C   0  0  0  0  0  0  0  0  0  0  0  0
  153.0920  143.1626  159.6106 C   0  0  0  0  0  0  0  0  0  0  0  0
  152.7618  141.9331  159.0032 C   0  0  0  0  0  0  0  0  0  0  0  0
  151.8293  141.9748  157.9673 C   0  0  0  0  0  0  0  0  0  0  0  0
  151.2687  140.9823  157.1565 N   0  0  0  0  0  0  0  0  0  0  0  0
  151.6776  139.5825  157.3510 C   0  0  0  0  0  0  0  0  0  0  0  0
  151.7524  138.7876  156.0303 C   0  0  1  0  0  0  0  0  0  0  0  0
  153.1033  138.6578  155.6308 O   0  0  0  0  0  0  0  0  0  0  0  0
  151.1132  137.3899  156.1359 C   0  0  0  0  0  0  0  0  0  0  0  0
  150.9335  136.8747  154.9195 F   0  0  0  0  0  0  0  0  0  0  0  0
  151.8725  136.5690  156.8621 F   0  0  0  0  0  0  0  0  0  0  0  0
  149.9193  137.4947  156.7195 F   0  0  0  0  0  0  0  0  0  0  0  0
  148.5959  140.1777  152.4106 H   0  0  0  0  0  0  0  0  0  0  0  0
  146.8624  141.6017  153.1982 H   0  0  0  0  0  0  0  0  0  0  0  0
  146.8530  140.5365  154.5936 H   0  0  0  0  0  0  0  0  0  0  0  0
  149.2523  142.1318  153.5826 H   0  0  0  0  0  0  0  0  0  0  0  0
  148.3155  142.5200  155.0056 H   0  0  0  0  0  0  0  0  0  0  0  0
  149.0163  140.0162  155.7342 H   0  0  0  0  0  0  0  0  0  0  0  0
  150.3034  140.2661  154.5769 H   0  0  0  0  0  0  0  0  0  0  0  0
  151.1216  145.3351  157.8099 H   0  0  0  0  0  0  0  0  0  0  0  0
  152.7844  145.2953  159.6766 H   0  0  0  0  0  0  0  0  0  0  0  0
  153.8091  143.1767  160.4188 H   0  0  0  0  0  0  0  0  0  0  0  0
  153.2154  141.0106  159.3346 H   0  0  0  0  0  0  0  0  0  0  0  0
  152.6497  139.5874  157.8447 H   0  0  0  0  0  0  0  0  0  0  0  0
  150.9834  139.1163  158.0508 H   0  0  0  0  0  0  0  0  0  0  0  0
  151.2373  139.3452  155.2473 H   0  0  0  0  0  0  0  0  0  0  0  0
  153.2269  137.7945  155.2674 H   0  0  0  0  0  0  0  0  0  0  0  0
  149.8088  143.5316  155.9788 H   0  0  0  0  0  0  0  0  0  0  0  0
  1  2  1  0  0  0  0
  1 21  1  0  0  0  0
  2  3  1  0  0  0  0
  2 22  1  0  0  0  0
  2 23  1  0  0  0  0
  3  4  1  0  0  0  0
  3 24  1  0  0  0  0
  3 25  1  0  0  0  0
  4  5  1  0  0  0  0
  4 26  1  0  0  0  0
  4 27  1  0  0  0  0
  5 13  1  0  0  0  0
  5  6  2  0  0  0  0
  6  7  1  0  0  0  0
  6 36  1  0  0  0  0
  7 12  2  0  0  0  0
  7  8  1  0  0  0  0
  8  9  2  0  0  0  0
  8 28  1  0  0  0  0
  9 10  1  0  0  0  0
  9 29  1  0  0  0  0
 10 11  2  0  0  0  0
 10 30  1  0  0  0  0
 11 12  1  0  0  0  0
 11 31  1  0  0  0  0
 12 13  1  0  0  0  0
 13 14  1  0  0  0  0
 14 15  1  0  0  0  0
 14 32  1  0  0  0  0
 14 33  1  0  0  0  0
 15 16  1  0  0  0  0
 15 17  1  0  0  0  0
 15 34  1  0  0  0  0
 16 35  1  0  0  0  0
 17 18  1  0  0  0  0
 17 19  1  0  0  0  0
 17 20  1  0  0  0  0
M  CHG  1   6   1
M  END
> <s_m_source_file>
AV-unprocessed.smi

> <i_m_source_file_index>
2787

> <i_lp_mmshare_version>
43012

> <i_f3d_flags>
0

> <s_epik_input>
W09IXVtDSDJdW0NIMl1bQ0gyXWMobjEpbihbQ0gyXVtDQEhdKFtPSF0pQyhGKShGKUYpYyhjMTIpW2NIXVtjSF1bY0hdW2NIXTI=

> <s_epik_cmdline>
J2VwaWtfcHl0aG9uJywgJy1waCcsICc3LjAnLCAnLXRuJywgJzgnLCAnLW1hJywgJzIwMCcsICctbWV0YWxfYmluZGluZycsICctaW1hZScsICc8aW5maWxlLm1hZT4nLCAnLW9tYWUnLCAnPG91dGZpbGUubWFlPic=

> <r_epik_Ionization_Penalty>
0.964009

> <r_epik_Ionization_Penalty_Charging>
0.952215

> <r_epik_Ionization_Penalty_Neutral>
0.0117938

> <r_epik_State_Penalty>
1.09527

> <r_epik_Charging_Adjusted_Penalty>
2.04749

> <i_epik_Tot_Q>
1

> <i_epik_Tot_abs_Q>
1

> <r_epik_Metal_State_Penalty>
5.08046

> <b_epik_Metal_Only>
0

> <s_lp_Force_Field>
OPLS_2005

> <r_lp_Energy>
16.8731

> <b_lp_Chiralities_Consistent>
1

> <s_lp_Variant>
AV-unprocessed.smi:2787-4

> <Gold.Version>
5.8.1

> <Gold.Id.Protein>
6NUR|6NUR_protein|mol2

> <Gold.PLP.Fitness>
53.3798

> <Gold.PLP.PLP>
-43.9193

> <Gold.PLP.part.hbond>
-2.5208

> <Gold.PLP.part.metal>
0.0000

> <Gold.PLP.part.buried>
-5.6483

> <Gold.PLP.part.nonpolar>
-36.2781

> <Gold.PLP.part.repulsive>
0.0778

> <Gold.PLP.ligand.clash>
0.0000

> <Gold.PLP.ligand.torsion>
1.3120

> <Gold.PLP.Chemscore.Hbond>
4.0000

> <Gold.PLP.Chemscore.CHOScore>
0.0000

> <Gold.PLP.Chemscore.Metal>
0.0000

> <Gold.Chemscore.Hbonds>
donor molecule, donor type, donor heavy atom, donor atom, acceptor molecule, acceptor atom, score
      L1  H     1    21       P1  7957  1.00
      L1  H     6    36       P1  8028  2.00
      P1  H  7997  8009       L1    16  1.00

> <Gold.PLP.Chemscore.Internal.Correction>
0.0844

> <Gold.Rescore>
     Score         DG    S(hbond)    S(metal)    S(lipo)     H(rot)  DE(clash)    DE(int)     intcor
     17.75     -18.71       2.92        0.00     106.53       3.51       0.04       0.92       ----

> <Gold.Chemscore.Fitness>
17.7499

> <Gold.Chemscore.DG>
-18.7081

> <Gold.Chemscore.ZeroCoef>
-5.4800

> <Gold.Chemscore.Hbond>
2.9223

> <Gold.Chemscore.Metal>
0.0000

> <Gold.Chemscore.Lipo>
106.5317

> <Gold.Chemscore.Internal_Hbond>
0.0000

> <Gold.Chemscore.DEClash>
0.0363

> <Gold.Chemscore.DEInternal>
0.9219

> <Gold.Chemscore.Rot>
3.5143

> <Gold.Chemscore.Internal.Correction>
   9.000000E+99

> <Gold.Chemscore.Hbonds>
donor molecule, donor type, donor heavy atom, donor atom, acceptor molecule, acceptor atom, score
      L1  H     1    21       P1  7957  0.97
      L1  H     6    36       P1  8028  0.93
      P1  H  7997  8009       L1    16  0.89

> <Gold.Chemscore.Hbond.Weighted>
-9.7606

> <Gold.Chemscore.Metal.Weighted>
-0.0000

> <Gold.Chemscore.Lipo.Weighted>
-12.4642

> <Gold.Chemscore.Internal_Hbond.Weighted>
0.0000

> <Gold.Chemscore.DEClash.Weighted>
0.0363

> <Gold.Chemscore.DEInternal.Weighted>
0.9219

> <Gold.Chemscore.Rot.Weighted>
8.9967

> <Gold.Chemscore.Internal.Correction.Weighted>
   9.000000E+99

> <Gold.Protein.RotatedTorsions>
[ 6907 6896 6895 6894 ] final   30.26 input  -60.11 | X-H torsion
[ 7974 7965 7964 7962 ] final  -72.88 input  175.53 | X-H torsion
[ 8008 7997 7996 7995 ] final -145.29 input   59.86 | X-H torsion
[ 10167 10162 10161 10158 ] final   20.84 input  -65.29 | X-H torsion
[ 10718 10713 10712 10709 ] final   32.08 input   66.30 | X-H torsion
[ 10763 10752 10751 10750 ] final  127.40 input  -60.55 | X-H torsion
[ 11005 11000 10999 10996 ] final -134.57 input  -57.11 | X-H torsion

> <Gold.Protein.ActiveResidues>
 VAL166  LYS551  ARG553  GLY616  TRP617  ASP618  TYR619  PRO620  LYS621  CYS622 
 ASP623  PHE694  ASN695  SER759  ASP760  ASP761  ALA762  ILE779  LEU786  VAL792 
 PHE793  MET794  SER795  GLU796  ALA797  LYS798  CYS799  TRP800  GLU811  SER814 

> <Gold.Protein.RotatedAtoms>
  152.0435  134.9697  160.0573 H   0  0  0  0  0  0  0  0  0  0  0  0  # atno 6907 bound_to 6896
  152.1126  133.4304  159.4646 H   0  0  0  0  0  0  0  0  0  0  0  0  # atno 6908 bound_to 6896
  150.6844  134.2548  159.4569 H   0  0  0  0  0  0  0  0  0  0  0  0  # atno 6909 bound_to 6896
  145.6593  140.9257  143.0942 H   0  0  0  0  0  0  0  0  0  0  0  0  # atno 7974 bound_to 7965
  155.5408  140.0608  157.2870 H   0  0  0  0  0  0  0  0  0  0  0  0  # atno 8008 bound_to 7997
  154.4452  140.1919  156.0633 H   0  0  0  0  0  0  0  0  0  0  0  0  # atno 8009 bound_to 7997
  156.0586  140.3275  155.7438 H   0  0  0  0  0  0  0  0  0  0  0  0  # atno 8010 bound_to 7997
  140.5473  143.9572  150.6555 H   0  0  0  0  0  0  0  0  0  0  0  0  # atno 10167 bound_to 10162
  157.2807  130.7253  149.6555 H   0  0  0  0  0  0  0  0  0  0  0  0  # atno 10718 bound_to 10713
  153.7087  135.3271  155.3241 H   0  0  0  0  0  0  0  0  0  0  0  0  # atno 10763 bound_to 10752
  154.8391  135.4472  154.1336 H   0  0  0  0  0  0  0  0  0  0  0  0  # atno 10764 bound_to 10752
  153.2423  135.6972  153.7848 H   0  0  0  0  0  0  0  0  0  0  0  0  # atno 10765 bound_to 10752
  140.8978  134.1729  157.4482 H   0  0  0  0  0  0  0  0  0  0  0  0  # atno 11005 bound_to 11000
  144.7094  139.8428  143.7419 LP  0  0  0  0  0  0  0  0  0  0  0  0  # atno 17320 bound_to 7965
  146.1138  139.4146  143.0271 LP  0  0  0  0  0  0  0  0  0  0  0  0  # atno 17321 bound_to 7965
  140.2989  143.3274  152.0991 LP  0  0  0  0  0  0  0  0  0  0  0  0  # atno 17342 bound_to 10162
  139.5012  144.6709  151.6244 LP  0  0  0  0  0  0  0  0  0  0  0  0  # atno 17343 bound_to 10162
  155.9664  130.4339  150.5026 LP  0  0  0  0  0  0  0  0  0  0  0  0  # atno 17370 bound_to 10713
  157.2969  131.0637  151.2095 LP  0  0  0  0  0  0  0  0  0  0  0  0  # atno 17371 bound_to 10713
  139.8738  134.9885  156.5417 LP  0  0  0  0  0  0  0  0  0  0  0  0  # atno 17394 bound_to 11000
  140.8268  133.8310  155.8946 LP  0  0  0  0  0  0  0  0  0  0  0  0  # atno 17395 bound_to 11000

$$$$
