AV-unprocessed.smi:1709|AV-procd|sdf|6893|dock7
  -GOLD-   22720 8 93D 1   1.00000     0.00000
 Structure written by MMmdl.
 43 45  0  0  0  0  0  0  0  0  2 V2000
  151.3267  144.6216  157.9852 C   0  0  0  0  0  0  0  0  0  0  0  0
  151.6026  143.2081  158.4739 C   0  0  0  0  0  0  0  0  0  0  0  0
  152.6891  142.9833  159.3457 C   0  0  0  0  0  0  0  0  0  0  0  0
  152.9472  141.6784  159.7980 C   0  0  0  0  0  0  0  0  0  0  0  0
  152.1020  140.6471  159.3562 C   0  0  0  0  0  0  0  0  0  0  0  0
  151.0623  140.8534  158.5222 N   0  0  0  0  0  0  0  0  0  0  0  0
  150.7956  142.1080  158.0751 C   0  0  0  0  0  0  0  0  0  0  0  0
  149.7200  142.4177  157.1854 N   0  0  0  0  0  0  0  0  0  0  0  0
  148.6434  141.7051  156.7901 C   0  0  0  0  0  0  0  0  0  0  0  0
  148.4469  140.5668  157.2122 O   0  0  0  0  0  0  0  0  0  0  0  0
  147.8123  142.3096  155.9258 N   0  0  0  0  0  0  0  0  0  0  0  0
  146.5729  141.7464  155.4018 C   0  0  2  0  0  0  0  0  0  0  0  0
  145.5141  141.5096  156.4930 C   0  0  0  0  0  0  0  0  0  0  0  0
  144.8206  140.1871  156.1100 C   0  0  0  0  0  0  0  0  0  0  0  0
  145.4174  139.7918  154.8198 N   0  3  2  0  0  0  0  0  0  0  0  0
  145.3823  138.3543  154.4727 C   0  0  0  0  0  0  0  0  0  0  0  0
  145.9741  138.1574  153.0625 C   0  0  0  0  0  0  0  0  0  0  0  0
  147.3759  138.7888  152.9363 C   0  0  0  0  0  0  0  0  0  0  0  0
  147.3683  140.2583  153.4001 C   0  0  0  0  0  0  0  0  0  0  0  0
  146.7790  140.3473  154.8178 C   0  0  1  0  0  0  0  0  0  0  0  0
  152.0610  145.3274  158.3748 H   0  0  0  0  0  0  0  0  0  0  0  0
  150.3397  144.9519  158.3099 H   0  0  0  0  0  0  0  0  0  0  0  0
  151.3670  144.6652  156.8963 H   0  0  0  0  0  0  0  0  0  0  0  0
  153.3199  143.7998  159.6656 H   0  0  0  0  0  0  0  0  0  0  0  0
  153.7713  141.4740  160.4655 H   0  0  0  0  0  0  0  0  0  0  0  0
  152.2641  139.6291  159.6790 H   0  0  0  0  0  0  0  0  0  0  0  0
  149.8052  143.3184  156.7372 H   0  0  0  0  0  0  0  0  0  0  0  0
  148.0519  143.2453  155.6279 H   0  0  0  0  0  0  0  0  0  0  0  0
  146.1415  142.4005  154.6408 H   0  0  0  0  0  0  0  0  0  0  0  0
  145.9724  141.4121  157.4785 H   0  0  0  0  0  0  0  0  0  0  0  0
  144.8079  142.3391  156.5419 H   0  0  0  0  0  0  0  0  0  0  0  0
  145.0223  139.4271  156.8664 H   0  0  0  0  0  0  0  0  0  0  0  0
  143.7395  140.2956  156.0184 H   0  0  0  0  0  0  0  0  0  0  0  0
  145.9477  137.7798  155.2080 H   0  0  0  0  0  0  0  0  0  0  0  0
  144.3532  137.9950  154.5029 H   0  0  0  0  0  0  0  0  0  0  0  0
  146.0197  137.0948  152.8213 H   0  0  0  0  0  0  0  0  0  0  0  0
  145.3093  138.6111  152.3263 H   0  0  0  0  0  0  0  0  0  0  0  0
  148.0843  138.2219  153.5420 H   0  0  0  0  0  0  0  0  0  0  0  0
  147.7274  138.7215  151.9064 H   0  0  0  0  0  0  0  0  0  0  0  0
  148.3825  140.6580  153.3839 H   0  0  0  0  0  0  0  0  0  0  0  0
  146.7810  140.8644  152.7088 H   0  0  0  0  0  0  0  0  0  0  0  0
  147.3946  139.7606  155.5041 H   0  0  0  0  0  0  0  0  0  0  0  0
  144.9075  140.2880  154.1031 H   0  0  0  0  0  0  0  0  0  0  0  0
  1  2  1  0  0  0  0
  1 21  1  0  0  0  0
  1 22  1  0  0  0  0
  1 23  1  0  0  0  0
  2  7  1  0  0  0  0
  2  3  2  0  0  0  0
  3  4  1  0  0  0  0
  3 24  1  0  0  0  0
  4  5  2  0  0  0  0
  4 25  1  0  0  0  0
  5  6  1  0  0  0  0
  5 26  1  0  0  0  0
  6  7  2  0  0  0  0
  7  8  1  0  0  0  0
  8  9  1  0  0  0  0
  8 27  1  0  0  0  0
  9 10  2  0  0  0  0
  9 11  1  0  0  0  0
 11 12  1  0  0  0  0
 11 28  1  0  0  0  0
 12 20  1  0  0  0  0
 12 13  1  0  0  0  0
 12 29  1  0  0  0  0
 13 14  1  0  0  0  0
 13 30  1  0  0  0  0
 13 31  1  0  0  0  0
 14 15  1  0  0  0  0
 14 32  1  0  0  0  0
 14 33  1  0  0  0  0
 15 20  1  0  0  0  0
 15 16  1  0  0  0  0
 15 43  1  0  0  0  0
 16 17  1  0  0  0  0
 16 34  1  0  0  0  0
 16 35  1  0  0  0  0
 17 18  1  0  0  0  0
 17 36  1  0  0  0  0
 17 37  1  0  0  0  0
 18 19  1  0  0  0  0
 18 38  1  0  0  0  0
 18 39  1  0  0  0  0
 19 20  1  0  0  0  0
 19 40  1  0  0  0  0
 19 41  1  0  0  0  0
 20 42  1  0  0  0  0
M  CHG  1  15   1
M  END
> <s_m_source_file>
AV-unprocessed.smi

> <i_m_source_file_index>
1709

> <i_lp_mmshare_version>
43012

> <i_f3d_flags>
0

> <s_epik_input>
W0NIM11jMVtjSF1bY0hdW2NIXW5jMVtOSF1DKD1PKVtOSF1bQ0BIXShbQ0gyXVtDSDJdMilbQ0BASF0oTjIzKVtDSDJdW0NIMl1bQ0gyXVtDSDJdMw==

> <s_epik_cmdline>
J2VwaWtfcHl0aG9uJywgJy1waCcsICc3LjAnLCAnLXRuJywgJzgnLCAnLW1hJywgJzIwMCcsICctbWV0YWxfYmluZGluZycsICctaW1hZScsICc8aW5maWxlLm1hZT4nLCAnLW9tYWUnLCAnPG91dGZpbGUubWFlPic=

> <r_epik_Ionization_Penalty>
0.00101524

> <r_epik_Ionization_Penalty_Charging>
0.000974069

> <r_epik_Ionization_Penalty_Neutral>
4.11757e-05

> <r_epik_State_Penalty>
0.000633842

> <r_epik_Charging_Adjusted_Penalty>
0.00160791

> <i_epik_Tot_Q>
1

> <i_epik_Tot_abs_Q>
1

> <r_epik_Metal_State_Penalty>
-0

> <b_epik_Metal_Only>
0

> <s_lp_Force_Field>
OPLS_2005

> <r_lp_Energy>
38.5282

> <b_lp_Chiralities_Consistent>
1

> <s_lp_Variant>
AV-unprocessed.smi:1709-3

> <Gold.Version>
5.8.1

> <Gold.Id.Protein>
6NUR|6NUR_protein|mol2

> <Gold.PLP.Fitness>
41.5047

> <Gold.PLP.PLP>
-29.8282

> <Gold.PLP.part.hbond>
-3.0000

> <Gold.PLP.part.metal>
0.0000

> <Gold.PLP.part.buried>
-1.0426

> <Gold.PLP.part.nonpolar>
-25.9627

> <Gold.PLP.part.repulsive>
0.0912

> <Gold.PLP.ligand.clash>
0.0000

> <Gold.PLP.ligand.torsion>
0.0828

> <Gold.PLP.Chemscore.Hbond>
3.9440

> <Gold.PLP.Chemscore.CHOScore>
0.0000

> <Gold.PLP.Chemscore.Metal>
0.0000

> <Gold.Chemscore.Hbonds>
donor molecule, donor type, donor heavy atom, donor atom, acceptor molecule, acceptor atom, score
      L1  H     8    27       P1  8028  0.93
      L1  H    11    28       P1  8028  1.00
      L1  H    15    43       P1 10175  1.95

> <Gold.PLP.Chemscore.Internal.Correction>
0.0100

> <Gold.Rescore>
     Score         DG    S(hbond)    S(metal)    S(lipo)     H(rot)  DE(clash)    DE(int)     intcor
     19.08     -21.60       2.62        0.00      84.72       1.00       0.11       2.41       ----

> <Gold.Chemscore.Fitness>
19.0848

> <Gold.Chemscore.DG>
-21.5979

> <Gold.Chemscore.ZeroCoef>
-5.4800

> <Gold.Chemscore.Hbond>
2.6243

> <Gold.Chemscore.Metal>
0.0000

> <Gold.Chemscore.Lipo>
84.7247

> <Gold.Chemscore.Internal_Hbond>
0.0000

> <Gold.Chemscore.DEClash>
0.1060

> <Gold.Chemscore.DEInternal>
2.4071

> <Gold.Chemscore.Rot>
1.0000

> <Gold.Chemscore.Internal.Correction>
   9.000000E+99

> <Gold.Chemscore.Hbonds>
donor molecule, donor type, donor heavy atom, donor atom, acceptor molecule, acceptor atom, score
      L1  H     8    27       P1  8028  0.87
      L1  H    11    28       P1  8028  0.69
      L1  H    15    43       P1 10175  0.90

> <Gold.Chemscore.Hbond.Weighted>
-8.7652

> <Gold.Chemscore.Metal.Weighted>
-0.0000

> <Gold.Chemscore.Lipo.Weighted>
-9.9128

> <Gold.Chemscore.Internal_Hbond.Weighted>
0.0000

> <Gold.Chemscore.DEClash.Weighted>
0.1060

> <Gold.Chemscore.DEInternal.Weighted>
2.4071

> <Gold.Chemscore.Rot.Weighted>
2.5600

> <Gold.Chemscore.Internal.Correction.Weighted>
   9.000000E+99

> <Gold.Protein.RotatedTorsions>
[ 6907 6896 6895 6894 ] final  -21.31 input  -60.11 | X-H torsion
[ 7974 7965 7964 7962 ] final   40.84 input  175.53 | X-H torsion
[ 8008 7997 7996 7995 ] final  -24.77 input   59.86 | X-H torsion
[ 10167 10162 10161 10158 ] final   97.50 input  -65.29 | X-H torsion
[ 10718 10713 10712 10709 ] final  146.84 input   66.30 | X-H torsion
[ 10763 10752 10751 10750 ] final  -56.02 input  -60.55 | X-H torsion
[ 11005 11000 10999 10996 ] final   39.58 input  -57.11 | X-H torsion

> <Gold.Protein.ActiveResidues>
 VAL166  LYS551  ARG553  GLY616  TRP617  ASP618  TYR619  PRO620  LYS621  CYS622 
 ASP623  PHE694  ASN695  SER759  ASP760  ASP761  ALA762  ILE779  LEU786  VAL792 
 PHE793  MET794  SER795  GLU796  ALA797  LYS798  CYS799  TRP800  GLU811  SER814 

> <Gold.Protein.RotatedAtoms>
  151.2352  135.0569  159.9002 H   0  0  0  0  0  0  0  0  0  0  0  0  # atno 6907 bound_to 6896
  152.5400  134.0494  159.8113 H   0  0  0  0  0  0  0  0  0  0  0  0  # atno 6908 bound_to 6896
  151.0679  133.5441  159.2661 H   0  0  0  0  0  0  0  0  0  0  0  0  # atno 6909 bound_to 6896
  146.0872  139.5485  142.9499 H   0  0  0  0  0  0  0  0  0  0  0  0  # atno 7974 bound_to 7965
  154.4511  140.1944  156.0516 H   0  0  0  0  0  0  0  0  0  0  0  0  # atno 8008 bound_to 7997
  156.0650  140.3292  155.7479 H   0  0  0  0  0  0  0  0  0  0  0  0  # atno 8009 bound_to 7997
  155.5353  140.0581  157.2871 H   0  0  0  0  0  0  0  0  0  0  0  0  # atno 8010 bound_to 7997
  139.7795  144.6893  151.0043 H   0  0  0  0  0  0  0  0  0  0  0  0  # atno 10167 bound_to 10162
  157.3283  131.0916  151.1184 H   0  0  0  0  0  0  0  0  0  0  0  0  # atno 10718 bound_to 10713
  154.2001  135.6412  153.5084 H   0  0  0  0  0  0  0  0  0  0  0  0  # atno 10763 bound_to 10752
  153.0014  135.5449  154.6325 H   0  0  0  0  0  0  0  0  0  0  0  0  # atno 10764 bound_to 10752
  154.5735  135.2919  155.0777 H   0  0  0  0  0  0  0  0  0  0  0  0  # atno 10765 bound_to 10752
  140.2014  134.3866  155.8094 H   0  0  0  0  0  0  0  0  0  0  0  0  # atno 11005 bound_to 11000
  145.6108  141.0340  143.1968 LP  0  0  0  0  0  0  0  0  0  0  0  0  # atno 17320 bound_to 7965
  144.7334  139.7657  143.7338 LP  0  0  0  0  0  0  0  0  0  0  0  0  # atno 17321 bound_to 7965
  140.7818  143.4499  151.0428 LP  0  0  0  0  0  0  0  0  0  0  0  0  # atno 17342 bound_to 10162
  139.8180  143.7859  152.3175 LP  0  0  0  0  0  0  0  0  0  0  0  0  # atno 17343 bound_to 10162
  157.2442  130.6583  149.5903 LP  0  0  0  0  0  0  0  0  0  0  0  0  # atno 17370 bound_to 10713
  155.9693  130.4559  150.5904 LP  0  0  0  0  0  0  0  0  0  0  0  0  # atno 17371 bound_to 10713
  141.2227  133.7096  156.8263 LP  0  0  0  0  0  0  0  0  0  0  0  0  # atno 17394 bound_to 11000
  140.2050  134.8869  157.3212 LP  0  0  0  0  0  0  0  0  0  0  0  0  # atno 17395 bound_to 11000

$$$$
