AV-unprocessed.smi:229|AV-procd|sdf|1759|dock6
  -GOLD-   2262020293D 1   1.00000     0.00000
 Structure written by MMmdl.
 58 62  0  0  0  0  0  0  0  0  1 V2000
  149.5629  133.3977  160.6116 C   0  0  0  0  0  0  0  0  0  0  0  0
  149.2487  132.6748  159.2949 C   0  0  0  0  0  0  0  0  0  0  0  0
  150.2441  132.9884  158.1656 C   0  0  2  0  0  0  0  0  0  0  0  0
  150.2716  134.4802  157.7866 C   0  0  0  0  0  0  0  0  0  0  0  0
  151.1507  134.6865  156.6426 N   0  0  0  0  0  0  0  0  0  0  0  0
  151.5168  135.9746  156.4226 C   0  0  0  0  0  0  0  0  0  0  0  0
  151.5660  136.4602  155.1527 N   0  0  0  0  0  0  0  0  0  0  0  0
  151.9162  137.7301  154.9274 C   0  0  0  0  0  0  0  0  0  0  0  0
  152.2539  138.6719  155.8102 N   0  0  0  0  0  0  0  0  0  0  0  0
  152.2152  138.1890  157.0847 C   0  0  0  0  0  0  0  0  0  0  0  0
  151.8627  136.8667  157.4770 C   0  0  0  0  0  0  0  0  0  0  0  0
  151.9536  136.7447  158.8592 N   0  0  0  0  0  0  0  0  0  0  0  0
  152.3272  137.9290  159.2609 C   0  0  0  0  0  0  0  0  0  0  0  0
  152.5065  138.8564  158.2602 N   0  0  0  0  0  0  0  0  0  0  0  0
  152.9201  140.2395  158.4173 C   0  0  0  0  0  0  0  0  0  0  0  0
  151.7545  141.1595  158.8299 C   0  0  2  0  0  0  0  0  0  0  0  0
  150.6074  140.8293  158.0694 O   0  0  0  0  0  0  0  0  0  0  0  0
  152.1066  142.6509  158.6528 C   0  0  1  0  0  0  0  0  0  0  0  0
  150.9426  143.6316  158.4764 C   0  0  0  0  0  0  0  0  0  0  0  0
  151.5888  144.9287  158.9081 C   0  0  0  0  0  0  0  0  0  0  0  0
  152.4704  144.4682  160.0675 C   0  0  0  0  0  0  0  0  0  0  0  0
  152.8665  143.1343  159.7565 O   0  0  0  0  0  0  0  0  0  0  0  0
  150.7904  133.8654  155.4906 C   0  0  0  0  0  0  0  0  0  0  0  0
  150.7036  132.3727  155.8808 C   0  0  2  0  0  0  0  0  0  0  0  0
  152.0702  131.7192  156.1168 C   0  0  0  0  0  0  0  0  0  0  0  0
  152.3127  130.9150  154.8475 C   0  0  0  0  0  0  0  0  0  0  0  0
  151.0142  130.4443  154.5402 O   0  0  0  0  0  0  0  0  0  0  0  0
  150.1208  131.5328  154.7276 C   0  0  0  0  0  0  0  0  0  0  0  0
  149.8513  132.2280  157.0217 O   0  0  0  0  0  0  0  0  0  0  0  0
  148.8680  133.0930  161.3942 H   0  0  0  0  0  0  0  0  0  0  0  0
  149.4823  134.4794  160.5059 H   0  0  0  0  0  0  0  0  0  0  0  0
  150.5715  133.1673  160.9560 H   0  0  0  0  0  0  0  0  0  0  0  0
  149.2581  131.6006  159.4828 H   0  0  0  0  0  0  0  0  0  0  0  0
  148.2349  132.9171  158.9743 H   0  0  0  0  0  0  0  0  0  0  0  0
  151.2388  132.6755  158.4858 H   0  0  0  0  0  0  0  0  0  0  0  0
  149.2684  134.8210  157.5268 H   0  0  0  0  0  0  0  0  0  0  0  0
  150.5934  135.0722  158.6415 H   0  0  0  0  0  0  0  0  0  0  0  0
  151.9276  138.0345  153.8912 H   0  0  0  0  0  0  0  0  0  0  0  0
  152.4892  138.1591  160.3040 H   0  0  0  0  0  0  0  0  0  0  0  0
  153.7121  140.2734  159.1666 H   0  0  0  0  0  0  0  0  0  0  0  0
  153.3637  140.5784  157.4801 H   0  0  0  0  0  0  0  0  0  0  0  0
  151.5252  140.9785  159.8808 H   0  0  0  0  0  0  0  0  0  0  0  0
  150.8869  140.3502  157.3042 H   0  0  0  0  0  0  0  0  0  0  0  0
  152.7644  142.7502  157.7877 H   0  0  0  0  0  0  0  0  0  0  0  0
  150.5625  143.6619  157.4550 H   0  0  0  0  0  0  0  0  0  0  0  0
  150.1116  143.3997  159.1431 H   0  0  0  0  0  0  0  0  0  0  0  0
  152.2054  145.3271  158.1011 H   0  0  0  0  0  0  0  0  0  0  0  0
  150.8677  145.6939  159.1971 H   0  0  0  0  0  0  0  0  0  0  0  0
  153.3340  145.1164  160.2173 H   0  0  0  0  0  0  0  0  0  0  0  0
  151.8967  144.4492  160.9951 H   0  0  0  0  0  0  0  0  0  0  0  0
  149.8258  134.2031  155.1085 H   0  0  0  0  0  0  0  0  0  0  0  0
  151.5192  133.9978  154.6891 H   0  0  0  0  0  0  0  0  0  0  0  0
  152.8686  132.4329  156.3230 H   0  0  0  0  0  0  0  0  0  0  0  0
  152.0175  131.0284  156.9596 H   0  0  0  0  0  0  0  0  0  0  0  0
  152.6792  131.5514  154.0404 H   0  0  0  0  0  0  0  0  0  0  0  0
  153.0168  130.0957  154.9934 H   0  0  0  0  0  0  0  0  0  0  0  0
  149.1115  131.1741  154.9318 H   0  0  0  0  0  0  0  0  0  0  0  0
  150.0832  132.1068  153.8003 H   0  0  0  0  0  0  0  0  0  0  0  0
  1  2  1  0  0  0  0
  1 30  1  0  0  0  0
  1 31  1  0  0  0  0
  1 32  1  0  0  0  0
  2  3  1  0  0  0  0
  2 33  1  0  0  0  0
  2 34  1  0  0  0  0
  3 29  1  0  0  0  0
  3  4  1  0  0  0  0
  3 35  1  0  0  0  0
  4  5  1  0  0  0  0
  4 36  1  0  0  0  0
  4 37  1  0  0  0  0
  5  6  1  0  0  0  0
  5 23  1  0  0  0  0
  6 11  1  0  0  0  0
  6  7  2  0  0  0  0
  7  8  1  0  0  0  0
  8  9  2  0  0  0  0
  8 38  1  0  0  0  0
  9 10  1  0  0  0  0
 10 14  1  0  0  0  0
 10 11  2  0  0  0  0
 11 12  1  0  0  0  0
 12 13  2  0  0  0  0
 13 14  1  0  0  0  0
 13 39  1  0  0  0  0
 14 15  1  0  0  0  0
 15 16  1  0  0  0  0
 15 40  1  0  0  0  0
 15 41  1  0  0  0  0
 16 17  1  0  0  0  0
 16 18  1  0  0  0  0
 16 42  1  0  0  0  0
 17 43  1  0  0  0  0
 18 22  1  0  0  0  0
 18 19  1  0  0  0  0
 18 44  1  0  0  0  0
 19 20  1  0  0  0  0
 19 45  1  0  0  0  0
 19 46  1  0  0  0  0
 20 21  1  0  0  0  0
 20 47  1  0  0  0  0
 20 48  1  0  0  0  0
 21 22  1  0  0  0  0
 21 49  1  0  0  0  0
 21 50  1  0  0  0  0
 23 24  1  0  0  0  0
 23 51  1  0  0  0  0
 23 52  1  0  0  0  0
 24 28  1  0  0  0  0
 24 25  1  0  0  0  0
 24 29  1  0  0  0  0
 25 26  1  0  0  0  0
 25 53  1  0  0  0  0
 25 54  1  0  0  0  0
 26 27  1  0  0  0  0
 26 55  1  0  0  0  0
 26 56  1  0  0  0  0
 27 28  1  0  0  0  0
 28 57  1  0  0  0  0
 28 58  1  0  0  0  0
M  END
> <s_m_source_file>
AV-unprocessed.smi

> <i_m_source_file_index>
229

> <i_lp_mmshare_version>
43012

> <i_f3d_flags>
0

> <s_epik_input>
W0NIMl0xT1tDSDJdW0NIMl1bQ0BdMTJbQ0gyXU4oW0NIMl1bQ0BIXShPMilbQ0gyXVtDSDNdKWMobltjSF1uMyljKGMzNCluW2NIXW40W0NIMl1bQ0BIXShbT0hdKVtDQEBIXTVbQ0gyXVtDSDJdW0NIMl1PNQ==

> <s_epik_cmdline>
J2VwaWtfcHl0aG9uJywgJy1waCcsICc3LjAnLCAnLXRuJywgJzgnLCAnLW1hJywgJzIwMCcsICctbWV0YWxfYmluZGluZycsICctaW1hZScsICc8aW5maWxlLm1hZT4nLCAnLW9tYWUnLCAnPG91dGZpbGUubWFlPic=

> <r_lp_tautomer_probability>
1

> <r_epik_Ionization_Penalty>
0.00318402

> <r_epik_Ionization_Penalty_Charging>
0

> <r_epik_Ionization_Penalty_Neutral>
0.00318402

> <r_epik_State_Penalty>
0.00215642

> <r_epik_Charging_Adjusted_Penalty>
0.00215642

> <i_epik_Tot_Q>
0

> <i_epik_Tot_abs_Q>
0

> <r_epik_Metal_State_Penalty>
-0

> <b_epik_Metal_Only>
0

> <s_lp_Force_Field>
OPLS_2005

> <r_lp_Energy>
55.431

> <b_lp_Chiralities_Consistent>
1

> <s_lp_Variant>
AV-unprocessed.smi:229-13

> <Gold.Version>
5.8.1

> <Gold.Id.Protein>
6NUR|6NUR_protein|mol2

> <Gold.PLP.Fitness>
42.7245

> <Gold.PLP.PLP>
-39.7641

> <Gold.PLP.part.hbond>
-2.0000

> <Gold.PLP.part.metal>
0.0000

> <Gold.PLP.part.buried>
-8.1799

> <Gold.PLP.part.nonpolar>
-29.9670

> <Gold.PLP.part.repulsive>
0.1957

> <Gold.PLP.ligand.clash>
0.0000

> <Gold.PLP.ligand.torsion>
1.1784

> <Gold.PLP.Chemscore.Hbond>
1.6413

> <Gold.PLP.Chemscore.CHOScore>
0.0000

> <Gold.PLP.Chemscore.Metal>
0.0000

> <Gold.Chemscore.Hbonds>
donor molecule, donor type, donor heavy atom, donor atom, acceptor molecule, acceptor atom, score
      P1  H  6896  6909       L1    12  0.67
      P1  H 10752 10763       L1     7  0.90

> <Gold.PLP.Chemscore.Internal.Correction>
0.3935

> <Gold.Rescore>
     Score         DG    S(hbond)    S(metal)    S(lipo)     H(rot)  DE(clash)    DE(int)     intcor
     12.09     -14.34       0.91        0.00     103.66       2.46       0.03       2.22       ----

> <Gold.Chemscore.Fitness>
12.0942

> <Gold.Chemscore.DG>
-14.3391

> <Gold.Chemscore.ZeroCoef>
-5.4800

> <Gold.Chemscore.Hbond>
0.9059

> <Gold.Chemscore.Metal>
0.0000

> <Gold.Chemscore.Lipo>
103.6646

> <Gold.Chemscore.Internal_Hbond>
0.0000

> <Gold.Chemscore.DEClash>
0.0270

> <Gold.Chemscore.DEInternal>
2.2179

> <Gold.Chemscore.Rot>
2.4591

> <Gold.Chemscore.Internal.Correction>
   9.000000E+99

> <Gold.Chemscore.Hbonds>
donor molecule, donor type, donor heavy atom, donor atom, acceptor molecule, acceptor atom, score
      P1  H  6896  6909       L1    12  0.62
      P1  H 10752 10763       L1     7  0.07

> <Gold.Chemscore.Hbond.Weighted>
-3.0256

> <Gold.Chemscore.Metal.Weighted>
-0.0000

> <Gold.Chemscore.Lipo.Weighted>
-12.1288

> <Gold.Chemscore.Internal_Hbond.Weighted>
0.0000

> <Gold.Chemscore.DEClash.Weighted>
0.0270

> <Gold.Chemscore.DEInternal.Weighted>
2.2179

> <Gold.Chemscore.Rot.Weighted>
6.2953

> <Gold.Chemscore.Internal.Correction.Weighted>
   9.000000E+99

> <Gold.Protein.RotatedTorsions>
[ 6907 6896 6895 6894 ] final   99.63 input  -60.11 | X-H torsion
[ 7974 7965 7964 7962 ] final   81.08 input  175.53 | X-H torsion
[ 8008 7997 7996 7995 ] final  -40.83 input   59.86 | X-H torsion
[ 10167 10162 10161 10158 ] final -102.22 input  -65.29 | X-H torsion
[ 10718 10713 10712 10709 ] final    7.89 input   66.30 | X-H torsion
[ 10763 10752 10751 10750 ] final   61.84 input  -60.55 | X-H torsion
[ 11005 11000 10999 10996 ] final -150.05 input  -57.11 | X-H torsion

> <Gold.Protein.ActiveResidues>
 VAL166  LYS551  ARG553  GLY616  TRP617  ASP618  TYR619  PRO620  LYS621  CYS622 
 ASP623  PHE694  ASN695  SER759  ASP760  ASP761  ALA762  ILE779  LEU786  VAL792 
 PHE793  MET794  SER795  GLU796  ALA797  LYS798  CYS799  TRP800  GLU811  SER814 

> <Gold.Protein.RotatedAtoms>
  152.5388  134.0399  159.8062 H   0  0  0  0  0  0  0  0  0  0  0  0  # atno 6907 bound_to 6896
  151.0556  133.5579  159.2646 H   0  0  0  0  0  0  0  0  0  0  0  0  # atno 6908 bound_to 6896
  151.2497  135.0625  159.9111 H   0  0  0  0  0  0  0  0  0  0  0  0  # atno 6909 bound_to 6896
  145.6429  139.2429  143.2021 H   0  0  0  0  0  0  0  0  0  0  0  0  # atno 7974 bound_to 7965
  154.4009  140.1515  156.3092 H   0  0  0  0  0  0  0  0  0  0  0  0  # atno 8008 bound_to 7997
  155.8631  140.3452  155.5748 H   0  0  0  0  0  0  0  0  0  0  0  0  # atno 8009 bound_to 7997
  155.7858  140.0850  157.2026 H   0  0  0  0  0  0  0  0  0  0  0  0  # atno 8010 bound_to 7997
  140.2330  143.3593  152.0870 H   0  0  0  0  0  0  0  0  0  0  0  0  # atno 10167 bound_to 10162
  156.9435  130.5870  149.5653 H   0  0  0  0  0  0  0  0  0  0  0  0  # atno 10718 bound_to 10713
  152.9963  135.5486  154.6098 H   0  0  0  0  0  0  0  0  0  0  0  0  # atno 10763 bound_to 10752
  154.5421  135.2820  155.1088 H   0  0  0  0  0  0  0  0  0  0  0  0  # atno 10764 bound_to 10752
  154.2361  135.6425  153.5244 H   0  0  0  0  0  0  0  0  0  0  0  0  # atno 10765 bound_to 10752
  140.7443  134.3479  157.5140 H   0  0  0  0  0  0  0  0  0  0  0  0  # atno 11005 bound_to 11000
  146.1266  140.7240  142.9432 LP  0  0  0  0  0  0  0  0  0  0  0  0  # atno 17320 bound_to 7965
  144.7151  140.4180  143.7051 LP  0  0  0  0  0  0  0  0  0  0  0  0  # atno 17321 bound_to 7965
  139.5103  144.6882  151.5830 LP  0  0  0  0  0  0  0  0  0  0  0  0  # atno 17342 bound_to 10162
  140.6171  143.9328  150.6497 LP  0  0  0  0  0  0  0  0  0  0  0  0  # atno 17343 bound_to 10162
  156.0394  130.5478  150.8733 LP  0  0  0  0  0  0  0  0  0  0  0  0  # atno 17370 bound_to 10713
  157.5769  131.0946  150.9332 LP  0  0  0  0  0  0  0  0  0  0  0  0  # atno 17371 bound_to 10713
  139.8800  134.9101  156.3006 LP  0  0  0  0  0  0  0  0  0  0  0  0  # atno 17394 bound_to 11000
  140.9808  133.7268  156.0670 LP  0  0  0  0  0  0  0  0  0  0  0  0  # atno 17395 bound_to 11000

$$$$
