AV-unprocessed.smi:3223|AV-procd|sdf|12308|dock6
  -GOLD-   2272018153D 1   1.00000     0.00000
 Structure written by MMmdl.
 43 43  0  0  0  0  0  0  0  0  2 V2000
  151.2261  141.1452  158.2732 C   0  0  0  0  0  0  0  0  0  0  0  0
  150.8508  140.6796  156.8960 C   0  0  0  0  0  0  0  0  0  0  0  0
  150.9376  141.4060  155.6744 C   0  0  0  0  0  0  0  0  0  0  0  0
  150.5285  140.7047  154.6294 N   0  0  0  0  0  0  0  0  0  0  0  0
  150.1673  139.5109  155.1458 N   0  0  0  0  0  0  0  0  0  0  0  0
  149.6706  138.4659  154.2696 C   0  0  0  0  0  0  0  0  0  0  0  0
  148.2990  138.8055  153.6492 C   0  0  1  0  0  0  0  0  0  0  0  0
  148.4267  139.9657  152.6532 C   0  0  0  0  0  0  0  0  0  0  0  0
  147.7163  137.6312  152.9602 N   0  3  0  0  0  0  0  0  0  0  0  0
  146.6685  137.9440  151.9663 C   0  0  0  0  0  0  0  0  0  0  0  0
  146.6834  136.9247  150.8160 C   0  0  0  0  0  0  0  0  0  0  0  0
  146.0520  135.5873  151.2108 C   0  0  0  0  0  0  0  0  0  0  0  0
  145.5554  135.4431  152.3279 O   0  0  0  0  0  0  0  0  0  0  0  0
  146.0851  134.6155  150.2852 N   0  0  0  0  0  0  0  0  0  0  0  0
  145.5435  133.2693  150.4495 C   0  0  0  0  0  0  0  0  0  0  0  0
  144.0234  133.3272  150.6654 C   0  0  0  0  0  0  0  0  0  0  0  0
  146.2553  132.5715  151.6159 C   0  0  0  0  0  0  0  0  0  0  0  0
  150.3493  139.4685  156.5115 C   0  0  0  0  0  0  0  0  0  0  0  0
  151.1284  142.2263  158.3751 H   0  0  0  0  0  0  0  0  0  0  0  0
  152.2584  140.8917  158.5145 H   0  0  0  0  0  0  0  0  0  0  0  0
  150.5959  140.6930  159.0392 H   0  0  0  0  0  0  0  0  0  0  0  0
  151.2854  142.4165  155.5177 H   0  0  0  0  0  0  0  0  0  0  0  0
  150.4094  138.3168  153.4809 H   0  0  0  0  0  0  0  0  0  0  0  0
  149.6205  137.5282  154.8259 H   0  0  0  0  0  0  0  0  0  0  0  0
  147.6223  139.1325  154.4408 H   0  0  0  0  0  0  0  0  0  0  0  0
  148.8234  140.8580  153.1385 H   0  0  0  0  0  0  0  0  0  0  0  0
  147.4569  140.2281  152.2289 H   0  0  0  0  0  0  0  0  0  0  0  0
  149.0938  139.7113  151.8285 H   0  0  0  0  0  0  0  0  0  0  0  0
  148.4612  137.1509  152.4763 H   0  0  0  0  0  0  0  0  0  0  0  0
  145.6943  137.9498  152.4558 H   0  0  0  0  0  0  0  0  0  0  0  0
  146.8365  138.9493  151.5771 H   0  0  0  0  0  0  0  0  0  0  0  0
  146.1627  137.3372  149.9501 H   0  0  0  0  0  0  0  0  0  0  0  0
  147.7103  136.7328  150.5022 H   0  0  0  0  0  0  0  0  0  0  0  0
  146.5183  134.8223  149.3968 H   0  0  0  0  0  0  0  0  0  0  0  0
  145.7440  132.6898  149.5467 H   0  0  0  0  0  0  0  0  0  0  0  0
  143.6059  132.3262  150.7775 H   0  0  0  0  0  0  0  0  0  0  0  0
  143.5205  133.7982  149.8202 H   0  0  0  0  0  0  0  0  0  0  0  0
  143.7706  133.8944  151.5619 H   0  0  0  0  0  0  0  0  0  0  0  0
  145.8916  131.5513  151.7418 H   0  0  0  0  0  0  0  0  0  0  0  0
  146.0931  133.1005  152.5558 H   0  0  0  0  0  0  0  0  0  0  0  0
  147.3310  132.5172  151.4444 H   0  0  0  0  0  0  0  0  0  0  0  0
  150.1128  138.5880  157.0908 H   0  0  0  0  0  0  0  0  0  0  0  0
  147.3335  137.0087  153.6581 H   0  0  0  0  0  0  0  0  0  0  0  0
  1  2  1  0  0  0  0
  1 19  1  0  0  0  0
  1 20  1  0  0  0  0
  1 21  1  0  0  0  0
  2 18  2  0  0  0  0
  2  3  1  0  0  0  0
  3  4  2  0  0  0  0
  3 22  1  0  0  0  0
  4  5  1  0  0  0  0
  5  6  1  0  0  0  0
  5 18  1  0  0  0  0
  6  7  1  0  0  0  0
  6 23  1  0  0  0  0
  6 24  1  0  0  0  0
  7  8  1  0  0  0  0
  7  9  1  0  0  0  0
  7 25  1  0  0  0  0
  8 26  1  0  0  0  0
  8 27  1  0  0  0  0
  8 28  1  0  0  0  0
  9 10  1  0  0  0  0
  9 29  1  0  0  0  0
  9 43  1  0  0  0  0
 10 11  1  0  0  0  0
 10 30  1  0  0  0  0
 10 31  1  0  0  0  0
 11 12  1  0  0  0  0
 11 32  1  0  0  0  0
 11 33  1  0  0  0  0
 12 13  2  0  0  0  0
 12 14  1  0  0  0  0
 14 15  1  0  0  0  0
 14 34  1  0  0  0  0
 15 16  1  0  0  0  0
 15 17  1  0  0  0  0
 15 35  1  0  0  0  0
 16 36  1  0  0  0  0
 16 37  1  0  0  0  0
 16 38  1  0  0  0  0
 17 39  1  0  0  0  0
 17 40  1  0  0  0  0
 17 41  1  0  0  0  0
 18 42  1  0  0  0  0
M  CHG  1   9   1
M  END
> <s_m_source_file>
AV-unprocessed.smi

> <i_m_source_file_index>
3223

> <i_lp_mmshare_version>
43012

> <i_f3d_flags>
0

> <s_epik_input>
W0NIM11jMVtjSF1ubihbY0hdMSlbQ0gyXVtDQEhdKFtDSDNdKVtOSF1bQ0gyXVtDSDJdQyg9TylbTkhdW0NIXShbQ0gzXSlbQ0gzXQ==

> <s_epik_cmdline>
J2VwaWtfcHl0aG9uJywgJy1waCcsICc3LjAnLCAnLXRuJywgJzgnLCAnLW1hJywgJzIwMCcsICctbWV0YWxfYmluZGluZycsICctaW1hZScsICc8aW5maWxlLm1hZT4nLCAnLW9tYWUnLCAnPG91dGZpbGUubWFlPic=

> <r_lp_tautomer_probability>
1

> <r_epik_Ionization_Penalty>
0.0057861

> <r_epik_Ionization_Penalty_Charging>
0.00577767

> <r_epik_Ionization_Penalty_Neutral>
8.4224e-06

> <r_epik_State_Penalty>
0.00424195

> <r_epik_Charging_Adjusted_Penalty>
0.0100196

> <i_epik_Tot_Q>
1

> <i_epik_Tot_abs_Q>
1

> <r_epik_Metal_State_Penalty>
-0

> <b_epik_Metal_Only>
0

> <s_lp_Force_Field>
OPLS_2005

> <r_lp_Energy>
5.87618

> <b_lp_Chiralities_Consistent>
1

> <s_lp_Variant>
AV-unprocessed.smi:3223-2

> <Gold.Version>
5.8.1

> <Gold.Id.Protein>
6NUR|6NUR_protein|mol2

> <Gold.PLP.Fitness>
42.7896

> <Gold.PLP.PLP>
-30.5568

> <Gold.PLP.part.hbond>
-3.0000

> <Gold.PLP.part.metal>
0.0000

> <Gold.PLP.part.buried>
1.5051

> <Gold.PLP.part.nonpolar>
-29.3609

> <Gold.PLP.part.repulsive>
0.3333

> <Gold.PLP.ligand.clash>
0.0000

> <Gold.PLP.ligand.torsion>
0.5887

> <Gold.PLP.Chemscore.Hbond>
3.4117

> <Gold.PLP.Chemscore.CHOScore>
1.0000

> <Gold.PLP.Chemscore.Metal>
0.0000

> <Gold.Chemscore.Hbonds>
donor molecule, donor type, donor heavy atom, donor atom, acceptor molecule, acceptor atom, score
      L1  H     9    29       P1  7948  0.33
      L1  H    14    34       P1  7921  0.62
      P1  H  7989  7998       L1     4  0.88

> <Gold.PLP.Chemscore.Internal.Correction>
0.1750

> <Gold.Rescore>
     Score         DG    S(hbond)    S(metal)    S(lipo)     H(rot)  DE(clash)    DE(int)     intcor
     13.01     -17.94       2.70        0.00      77.30       2.19       3.32       1.61       ----

> <Gold.Chemscore.Fitness>
13.0124

> <Gold.Chemscore.DG>
-17.9421

> <Gold.Chemscore.ZeroCoef>
-5.4800

> <Gold.Chemscore.Hbond>
2.6981

> <Gold.Chemscore.Metal>
0.0000

> <Gold.Chemscore.Lipo>
77.3007

> <Gold.Chemscore.Internal_Hbond>
0.0000

> <Gold.Chemscore.DEClash>
3.3189

> <Gold.Chemscore.DEInternal>
1.6108

> <Gold.Chemscore.Rot>
2.1850

> <Gold.Chemscore.Internal.Correction>
   9.000000E+99

> <Gold.Chemscore.Hbonds>
donor molecule, donor type, donor heavy atom, donor atom, acceptor molecule, acceptor atom, score
      L1  H     9    29       P1  7948  0.17
      L1  H    14    34       P1  7921  0.08
      P1  H  7989  7998       L1     4  0.51

> <Gold.Chemscore.Hbond.Weighted>
-9.0116

> <Gold.Chemscore.Metal.Weighted>
-0.0000

> <Gold.Chemscore.Lipo.Weighted>
-9.0442

> <Gold.Chemscore.Internal_Hbond.Weighted>
0.0000

> <Gold.Chemscore.DEClash.Weighted>
3.3189

> <Gold.Chemscore.DEInternal.Weighted>
1.6108

> <Gold.Chemscore.Rot.Weighted>
5.5936

> <Gold.Chemscore.Internal.Correction.Weighted>
   9.000000E+99

> <Gold.Protein.RotatedTorsions>
[ 6907 6896 6895 6894 ] final   32.00 input  -60.11 | X-H torsion
[ 7974 7965 7964 7962 ] final  114.57 input  175.53 | X-H torsion
[ 8008 7997 7996 7995 ] final -163.95 input   59.86 | X-H torsion
[ 10167 10162 10161 10158 ] final   58.48 input  -65.29 | X-H torsion
[ 10718 10713 10712 10709 ] final   60.04 input   66.30 | X-H torsion
[ 10763 10752 10751 10750 ] final -162.18 input  -60.55 | X-H torsion
[ 11005 11000 10999 10996 ] final  132.17 input  -57.11 | X-H torsion

> <Gold.Protein.ActiveResidues>
 VAL166  LYS551  ARG553  GLY616  TRP617  ASP618  TYR619  PRO620  LYS621  CYS622 
 ASP623  PHE694  ASN695  SER759  ASP760  ASP761  ALA762  ILE779  LEU786  VAL792 
 PHE793  MET794  SER795  GLU796  ALA797  LYS798  CYS799  TRP800  GLU811  SER814 

> <Gold.Protein.RotatedAtoms>
  152.0683  134.9550  160.0574 H   0  0  0  0  0  0  0  0  0  0  0  0  # atno 6907 bound_to 6896
  152.0886  133.4184  159.4542 H   0  0  0  0  0  0  0  0  0  0  0  0  # atno 6908 bound_to 6896
  150.6836  134.2818  159.4673 H   0  0  0  0  0  0  0  0  0  0  0  0  # atno 6909 bound_to 6896
  145.2027  139.2944  143.4309 H   0  0  0  0  0  0  0  0  0  0  0  0  # atno 7974 bound_to 7965
  155.8286  140.0930  157.1806 H   0  0  0  0  0  0  0  0  0  0  0  0  # atno 8008 bound_to 7997
  154.3979  140.1423  156.3646 H   0  0  0  0  0  0  0  0  0  0  0  0  # atno 8009 bound_to 7997
  155.8190  140.3447  155.5505 H   0  0  0  0  0  0  0  0  0  0  0  0  # atno 8010 bound_to 7997
  140.1868  144.4126  150.6589 H   0  0  0  0  0  0  0  0  0  0  0  0  # atno 10167 bound_to 10162
  157.5722  130.8916  149.9286 H   0  0  0  0  0  0  0  0  0  0  0  0  # atno 10718 bound_to 10713
  154.7238  135.3031  154.9005 H   0  0  0  0  0  0  0  0  0  0  0  0  # atno 10763 bound_to 10752
  153.9868  135.6723  153.4756 H   0  0  0  0  0  0  0  0  0  0  0  0  # atno 10764 bound_to 10752
  153.0857  135.4985  154.8509 H   0  0  0  0  0  0  0  0  0  0  0  0  # atno 10765 bound_to 10752
  139.9774  134.9559  156.9544 H   0  0  0  0  0  0  0  0  0  0  0  0  # atno 11005 bound_to 11000
  146.3414  140.2278  142.8592 LP  0  0  0  0  0  0  0  0  0  0  0  0  # atno 17320 bound_to 7965
  144.9932  140.8565  143.5327 LP  0  0  0  0  0  0  0  0  0  0  0  0  # atno 17321 bound_to 7965
  140.6483  143.2218  151.6136 LP  0  0  0  0  0  0  0  0  0  0  0  0  # atno 17342 bound_to 10162
  139.5273  144.3022  152.1064 LP  0  0  0  0  0  0  0  0  0  0  0  0  # atno 17343 bound_to 10162
  156.0767  130.3678  150.0663 LP  0  0  0  0  0  0  0  0  0  0  0  0  # atno 17370 bound_to 10713
  156.8814  130.9558  151.3599 LP  0  0  0  0  0  0  0  0  0  0  0  0  # atno 17371 bound_to 10713
  140.5166  134.0949  155.7282 LP  0  0  0  0  0  0  0  0  0  0  0  0  # atno 17394 bound_to 11000
  141.1450  133.9071  157.2237 LP  0  0  0  0  0  0  0  0  0  0  0  0  # atno 17395 bound_to 11000

$$$$
