AV-unprocessed.smi:401|AV-procd|sdf|2494|dock2
  -GOLD-   2262022443D 1   1.00000     0.00000
 Structure written by MMmdl.
 43 44  0  0  0  0  0  0  0  0  1 V2000
  152.6004  143.3399  160.3258 C   0  0  0  0  0  0  0  0  0  0  0  0
  151.8142  144.2801  159.3934 C   0  0  0  0  0  0  0  0  0  0  0  0
  151.3533  145.5277  160.1630 C   0  0  0  0  0  0  0  0  0  0  0  0
  150.6106  143.5968  158.7037 C   0  0  0  0  0  0  0  0  0  0  0  0
  150.9953  142.4289  157.7889 C   0  0  0  0  0  0  0  0  0  0  0  0
  151.6136  141.4656  158.2407 O   0  0  0  0  0  0  0  0  0  0  0  0
  150.5972  142.5172  156.5101 N   0  0  0  0  0  0  0  0  0  0  0  0
  150.8155  141.4982  155.4907 C   0  0  0  0  0  0  0  0  0  0  0  0
  149.5304  141.1189  154.7620 C   0  0  0  0  0  0  0  0  0  0  0  0
  148.6912  142.1460  154.2801 C   0  0  0  0  0  0  0  0  0  0  0  0
  147.4881  141.8083  153.6349 C   0  0  0  0  0  0  0  0  0  0  0  0
  147.1660  140.4462  153.4989 C   0  0  0  0  0  0  0  0  0  0  0  0
  147.9548  139.4522  153.9557 N   0  0  0  0  0  0  0  0  0  0  0  0
  149.1157  139.7722  154.5781 C   0  0  0  0  0  0  0  0  0  0  0  0
  149.9153  138.7094  155.0316 N   0  0  0  0  0  0  0  0  0  0  0  0
  151.2578  138.7116  154.4673 C   0  0  0  0  0  0  0  0  0  0  0  0
  152.1321  137.6807  155.2017 C   0  0  0  0  0  0  0  0  0  0  0  0
  151.5134  136.3980  155.1439 O   0  0  0  0  0  0  0  0  0  0  0  0
  150.2294  136.3922  155.7632 C   0  0  0  0  0  0  0  0  0  0  0  0
  149.3042  137.3852  155.0398 C   0  0  0  0  0  0  0  0  0  0  0  0
  151.9542  142.9126  161.0933 H   0  0  0  0  0  0  0  0  0  0  0  0
  153.4052  143.8741  160.8314 H   0  0  0  0  0  0  0  0  0  0  0  0
  153.0618  142.5173  159.7801 H   0  0  0  0  0  0  0  0  0  0  0  0
  152.5002  144.6205  158.6163 H   0  0  0  0  0  0  0  0  0  0  0  0
  150.6561  145.2662  160.9597 H   0  0  0  0  0  0  0  0  0  0  0  0
  150.8532  146.2367  159.5025 H   0  0  0  0  0  0  0  0  0  0  0  0
  152.1986  146.0456  160.6171 H   0  0  0  0  0  0  0  0  0  0  0  0
  149.9090  143.2318  159.4550 H   0  0  0  0  0  0  0  0  0  0  0  0
  150.0599  144.3323  158.1149 H   0  0  0  0  0  0  0  0  0  0  0  0
  150.0927  143.3449  156.2272 H   0  0  0  0  0  0  0  0  0  0  0  0
  151.5152  141.9034  154.7593 H   0  0  0  0  0  0  0  0  0  0  0  0
  151.3183  140.6344  155.9258 H   0  0  0  0  0  0  0  0  0  0  0  0
  148.9645  143.1834  154.4078 H   0  0  0  0  0  0  0  0  0  0  0  0
  146.8265  142.5739  153.2574 H   0  0  0  0  0  0  0  0  0  0  0  0
  146.2505  140.1462  153.0111 H   0  0  0  0  0  0  0  0  0  0  0  0
  151.2016  138.4672  153.4057 H   0  0  0  0  0  0  0  0  0  0  0  0
  151.7030  139.7039  154.5446 H   0  0  0  0  0  0  0  0  0  0  0  0
  153.1164  137.6226  154.7372 H   0  0  0  0  0  0  0  0  0  0  0  0
  152.2860  137.9745  156.2414 H   0  0  0  0  0  0  0  0  0  0  0  0
  149.8143  135.3858  155.7128 H   0  0  0  0  0  0  0  0  0  0  0  0
  150.3224  136.6474  156.8202 H   0  0  0  0  0  0  0  0  0  0  0  0
  148.3352  137.4281  155.5384 H   0  0  0  0  0  0  0  0  0  0  0  0
  149.1313  137.0496  154.0163 H   0  0  0  0  0  0  0  0  0  0  0  0
  1  2  1  0  0  0  0
  1 21  1  0  0  0  0
  1 22  1  0  0  0  0
  1 23  1  0  0  0  0
  2  3  1  0  0  0  0
  2  4  1  0  0  0  0
  2 24  1  0  0  0  0
  3 25  1  0  0  0  0
  3 26  1  0  0  0  0
  3 27  1  0  0  0  0
  4  5  1  0  0  0  0
  4 28  1  0  0  0  0
  4 29  1  0  0  0  0
  5  6  2  0  0  0  0
  5  7  1  0  0  0  0
  7  8  1  0  0  0  0
  7 30  1  0  0  0  0
  8  9  1  0  0  0  0
  8 31  1  0  0  0  0
  8 32  1  0  0  0  0
  9 14  1  0  0  0  0
  9 10  2  0  0  0  0
 10 11  1  0  0  0  0
 10 33  1  0  0  0  0
 11 12  2  0  0  0  0
 11 34  1  0  0  0  0
 12 13  1  0  0  0  0
 12 35  1  0  0  0  0
 13 14  2  0  0  0  0
 14 15  1  0  0  0  0
 15 20  1  0  0  0  0
 15 16  1  0  0  0  0
 16 17  1  0  0  0  0
 16 36  1  0  0  0  0
 16 37  1  0  0  0  0
 17 18  1  0  0  0  0
 17 38  1  0  0  0  0
 17 39  1  0  0  0  0
 18 19  1  0  0  0  0
 19 20  1  0  0  0  0
 19 40  1  0  0  0  0
 19 41  1  0  0  0  0
 20 42  1  0  0  0  0
 20 43  1  0  0  0  0
M  END
> <s_m_source_file>
AV-unprocessed.smi

> <i_m_source_file_index>
401

> <i_lp_mmshare_version>
43012

> <i_f3d_flags>
0

> <s_epik_input>
W0NIM11bQ0hdKFtDSDNdKVtDSDJdQyg9TylbTkhdW0NIMl1jMVtjSF1bY0hdW2NIXW5jMU4yW0NIMl1bQ0gyXU9bQ0gyXVtDSDJdMg==

> <s_epik_cmdline>
J2VwaWtfcHl0aG9uJywgJy1waCcsICc3LjAnLCAnLXRuJywgJzgnLCAnLW1hJywgJzIwMCcsICctbWV0YWxfYmluZGluZycsICctaW1hZScsICc8aW5maWxlLm1hZT4nLCAnLW9tYWUnLCAnPG91dGZpbGUubWFlPic=

> <r_lp_tautomer_probability>
1

> <r_epik_Ionization_Penalty>
0.00505534

> <r_epik_Ionization_Penalty_Charging>
0

> <r_epik_Ionization_Penalty_Neutral>
0.00505534

> <r_epik_State_Penalty>
0.00367784

> <r_epik_Charging_Adjusted_Penalty>
0.00367784

> <i_epik_Tot_Q>
0

> <i_epik_Tot_abs_Q>
0

> <r_epik_Metal_State_Penalty>
-0

> <b_epik_Metal_Only>
0

> <s_lp_Force_Field>
OPLS_2005

> <r_lp_Energy>
19.3172

> <b_lp_Chiralities_Consistent>
1

> <s_lp_Variant>
AV-unprocessed.smi:401-1

> <Gold.Version>
5.8.1

> <Gold.Id.Protein>
6NUR|6NUR_protein|mol2

> <Gold.PLP.Fitness>
46.6668

> <Gold.PLP.PLP>
-38.0373

> <Gold.PLP.part.hbond>
-2.0000

> <Gold.PLP.part.metal>
0.0000

> <Gold.PLP.part.buried>
-1.9427

> <Gold.PLP.part.nonpolar>
-34.0013

> <Gold.PLP.part.repulsive>
0.4413

> <Gold.PLP.ligand.clash>
0.0000

> <Gold.PLP.ligand.torsion>
0.2986

> <Gold.PLP.Chemscore.Hbond>
2.0000

> <Gold.PLP.Chemscore.CHOScore>
1.0000

> <Gold.PLP.Chemscore.Metal>
0.0000

> <Gold.Chemscore.Hbonds>
donor molecule, donor type, donor heavy atom, donor atom, acceptor molecule, acceptor atom, score
      L1  H     7    30       P1  8028  1.00
      P1  H 10752 10764       L1    18  0.75
      L1  C    12    35       P1 10175  0.73

> <Gold.PLP.Chemscore.Internal.Correction>
0.2267

> <Gold.Rescore>
     Score         DG    S(hbond)    S(metal)    S(lipo)     H(rot)  DE(clash)    DE(int)     intcor
     16.83     -19.29       1.93        0.00      98.88       1.65       0.17       2.29       ----

> <Gold.Chemscore.Fitness>
16.8336

> <Gold.Chemscore.DG>
-19.2856

> <Gold.Chemscore.ZeroCoef>
-5.4800

> <Gold.Chemscore.Hbond>
1.9334

> <Gold.Chemscore.Metal>
0.0000

> <Gold.Chemscore.Lipo>
98.8795

> <Gold.Chemscore.Internal_Hbond>
0.0000

> <Gold.Chemscore.DEClash>
0.1668

> <Gold.Chemscore.DEInternal>
2.2852

> <Gold.Chemscore.Rot>
1.6488

> <Gold.Chemscore.Internal.Correction>
   9.000000E+99

> <Gold.Chemscore.Hbonds>
donor molecule, donor type, donor heavy atom, donor atom, acceptor molecule, acceptor atom, score
      L1  H     7    30       P1  8028  1.00
      P1  H 10752 10764       L1    18  0.09

> <Gold.Chemscore.Hbond.Weighted>
-6.4575

> <Gold.Chemscore.Metal.Weighted>
-0.0000

> <Gold.Chemscore.Lipo.Weighted>
-11.5689

> <Gold.Chemscore.Internal_Hbond.Weighted>
0.0000

> <Gold.Chemscore.DEClash.Weighted>
0.1668

> <Gold.Chemscore.DEInternal.Weighted>
2.2852

> <Gold.Chemscore.Rot.Weighted>
4.2208

> <Gold.Chemscore.Internal.Correction.Weighted>
   9.000000E+99

> <Gold.Protein.RotatedTorsions>
[ 6907 6896 6895 6894 ] final  -32.56 input  -60.11 | X-H torsion
[ 7974 7965 7964 7962 ] final  103.45 input  175.53 | X-H torsion
[ 8008 7997 7996 7995 ] final -165.34 input   59.86 | X-H torsion
[ 10167 10162 10161 10158 ] final  162.83 input  -65.29 | X-H torsion
[ 10718 10713 10712 10709 ] final   78.37 input   66.30 | X-H torsion
[ 10763 10752 10751 10750 ] final  -54.98 input  -60.55 | X-H torsion
[ 11005 11000 10999 10996 ] final   46.67 input  -57.11 | X-H torsion

> <Gold.Protein.ActiveResidues>
 VAL166  LYS551  ARG553  GLY616  TRP617  ASP618  TYR619  PRO620  LYS621  CYS622 
 ASP623  PHE694  ASN695  SER759  ASP760  ASP761  ALA762  ILE779  LEU786  VAL792 
 PHE793  MET794  SER795  GLU796  ALA797  LYS798  CYS799  TRP800  GLU811  SER814 

> <Gold.Protein.RotatedAtoms>
  151.0771  134.9835  159.8337 H   0  0  0  0  0  0  0  0  0  0  0  0  # atno 6907 bound_to 6896
  152.5415  134.2227  159.8804 H   0  0  0  0  0  0  0  0  0  0  0  0  # atno 6908 bound_to 6896
  151.2255  133.4435  159.2635 H   0  0  0  0  0  0  0  0  0  0  0  0  # atno 6909 bound_to 6896
  145.3457  139.2451  143.3585 H   0  0  0  0  0  0  0  0  0  0  0  0  # atno 7974 bound_to 7965
  155.8485  140.0959  157.1690 H   0  0  0  0  0  0  0  0  0  0  0  0  # atno 8008 bound_to 7997
  154.3984  140.1387  156.3877 H   0  0  0  0  0  0  0  0  0  0  0  0  # atno 8009 bound_to 7997
  155.7987  140.3453  155.5393 H   0  0  0  0  0  0  0  0  0  0  0  0  # atno 8010 bound_to 7997
  139.4865  144.4398  151.8965 H   0  0  0  0  0  0  0  0  0  0  0  0  # atno 10167 bound_to 10162
  157.6742  130.9865  150.1777 H   0  0  0  0  0  0  0  0  0  0  0  0  # atno 10718 bound_to 10713
  154.1835  135.6439  153.5040 H   0  0  0  0  0  0  0  0  0  0  0  0  # atno 10763 bound_to 10752
  153.0053  135.5411  154.6489 H   0  0  0  0  0  0  0  0  0  0  0  0  # atno 10764 bound_to 10752
  154.5860  135.2929  155.0657 H   0  0  0  0  0  0  0  0  0  0  0  0  # atno 10765 bound_to 10752
  140.1348  134.4659  155.8494 H   0  0  0  0  0  0  0  0  0  0  0  0  # atno 11005 bound_to 11000
  146.2989  140.4064  142.8711 LP  0  0  0  0  0  0  0  0  0  0  0  0  # atno 17320 bound_to 7965
  144.8756  140.7331  143.6019 LP  0  0  0  0  0  0  0  0  0  0  0  0  # atno 17321 bound_to 7965
  140.3850  144.2688  150.5905 LP  0  0  0  0  0  0  0  0  0  0  0  0  # atno 17342 bound_to 10162
  140.5199  143.2268  151.8405 LP  0  0  0  0  0  0  0  0  0  0  0  0  # atno 17343 bound_to 10162
  156.2516  130.3701  149.8226 LP  0  0  0  0  0  0  0  0  0  0  0  0  # atno 17370 bound_to 10713
  156.5997  130.8541  151.3428 LP  0  0  0  0  0  0  0  0  0  0  0  0  # atno 17371 bound_to 10713
  141.2176  133.6810  156.7137 LP  0  0  0  0  0  0  0  0  0  0  0  0  # atno 17394 bound_to 11000
  140.2796  134.8327  157.3921 LP  0  0  0  0  0  0  0  0  0  0  0  0  # atno 17395 bound_to 11000

$$$$
