AV-unprocessed.smi:1041|AV-procd|sdf|4530|dock3
  -GOLD-   22720 2553D 1   1.00000     0.00000
 Structure written by MMmdl.
 53 54  0  0  0  0  0  0  0  0  2 V2000
  143.8982  132.6740  151.4014 C   0  0  0  0  0  0  0  0  0  0  0  0
  145.1215  132.8277  152.1000 O   0  0  0  0  0  0  0  0  0  0  0  0
  145.9761  133.7833  151.4943 C   0  0  0  0  0  0  0  0  0  0  0  0
  147.4301  133.4673  151.8777 C   0  0  0  0  0  0  0  0  0  0  0  0
  147.8196  134.0653  153.1802 N   0  3  2  0  0  0  0  0  0  0  0  0
  149.1897  133.6660  153.5924 C   0  0  0  0  0  0  0  0  0  0  0  0
  149.6271  134.4055  154.8674 C   0  0  0  0  0  0  0  0  0  0  0  0
  148.6332  134.1721  156.0229 C   0  0  1  0  0  0  0  0  0  0  0  0
  149.0233  134.9341  157.3036 C   0  0  0  0  0  0  0  0  0  0  0  0
  149.5857  136.2388  156.9830 N   0  0  0  0  0  0  0  0  0  0  0  0
  150.2217  137.0411  157.8480 C   0  0  0  0  0  0  0  0  0  0  0  0
  150.4574  136.7329  159.0157 O   0  0  0  0  0  0  0  0  0  0  0  0
  150.6455  138.4078  157.3096 C   0  0  0  0  0  0  0  0  0  0  0  0
  149.5615  139.1640  156.5430 C   0  0  0  0  0  0  0  0  0  0  0  0
  149.6543  139.4408  155.2174 C   0  0  0  0  0  0  0  0  0  0  0  0
  150.8247  139.0372  154.3380 C   0  0  0  0  0  0  0  0  0  0  0  0
  148.6561  140.1371  154.5597 N   0  0  0  0  0  0  0  0  0  0  0  0
  147.5572  140.5464  155.2961 C   0  0  0  0  0  0  0  0  0  0  0  0
  146.5268  141.2980  154.4820 C   0  0  0  0  0  0  0  0  0  0  0  0
  147.3791  140.3352  156.5649 N   0  0  0  0  0  0  0  0  0  0  0  0
  148.3640  139.6344  157.2796 C   0  0  0  0  0  0  0  0  0  0  0  0
  148.2303  139.4330  158.4860 O   0  0  0  0  0  0  0  0  0  0  0  0
  147.2215  134.5601  155.5514 C   0  0  0  0  0  0  0  0  0  0  0  0
  146.8326  133.8147  154.2636 C   0  0  0  0  0  0  0  0  0  0  0  0
  148.7644  140.3191  153.5720 H   0  0  0  0  0  0  0  0  0  0  0  0
  143.2792  131.9309  151.9039 H   0  0  0  0  0  0  0  0  0  0  0  0
  144.0676  132.3345  150.3786 H   0  0  0  0  0  0  0  0  0  0  0  0
  143.3406  133.6108  151.3711 H   0  0  0  0  0  0  0  0  0  0  0  0
  145.8381  133.7931  150.4133 H   0  0  0  0  0  0  0  0  0  0  0  0
  145.7180  134.7798  151.8561 H   0  0  0  0  0  0  0  0  0  0  0  0
  147.5906  132.3887  151.9076 H   0  0  0  0  0  0  0  0  0  0  0  0
  148.0766  133.8507  151.0869 H   0  0  0  0  0  0  0  0  0  0  0  0
  149.2239  132.5871  153.7522 H   0  0  0  0  0  0  0  0  0  0  0  0
  149.8962  133.8908  152.7925 H   0  0  0  0  0  0  0  0  0  0  0  0
  150.6263  134.0706  155.1480 H   0  0  0  0  0  0  0  0  0  0  0  0
  149.7083  135.4733  154.6598 H   0  0  0  0  0  0  0  0  0  0  0  0
  148.6274  133.1058  156.2560 H   0  0  0  0  0  0  0  0  0  0  0  0
  148.1487  135.0458  157.9473 H   0  0  0  0  0  0  0  0  0  0  0  0
  149.7645  134.3683  157.8694 H   0  0  0  0  0  0  0  0  0  0  0  0
  149.4489  136.5757  156.0410 H   0  0  0  0  0  0  0  0  0  0  0  0
  150.9777  139.0197  158.1487 H   0  0  0  0  0  0  0  0  0  0  0  0
  151.5364  138.2825  156.6932 H   0  0  0  0  0  0  0  0  0  0  0  0
  150.9221  137.9520  154.3067 H   0  0  0  0  0  0  0  0  0  0  0  0
  151.7541  139.4565  154.7237 H   0  0  0  0  0  0  0  0  0  0  0  0
  150.6990  139.3909  153.3138 H   0  0  0  0  0  0  0  0  0  0  0  0
  145.6555  141.5470  155.0889 H   0  0  0  0  0  0  0  0  0  0  0  0
  146.1922  140.6930  153.6387 H   0  0  0  0  0  0  0  0  0  0  0  0
  146.9513  142.2256  154.0970 H   0  0  0  0  0  0  0  0  0  0  0  0
  146.4941  134.3402  156.3339 H   0  0  0  0  0  0  0  0  0  0  0  0
  147.1714  135.6362  155.3779 H   0  0  0  0  0  0  0  0  0  0  0  0
  145.8396  134.1410  153.9572 H   0  0  0  0  0  0  0  0  0  0  0  0
  146.7658  132.7427  154.4569 H   0  0  0  0  0  0  0  0  0  0  0  0
  147.8514  135.0646  153.0339 H   0  0  0  0  0  0  0  0  0  0  0  0
  1  2  1  0  0  0  0
  1 26  1  0  0  0  0
  1 27  1  0  0  0  0
  1 28  1  0  0  0  0
  2  3  1  0  0  0  0
  3  4  1  0  0  0  0
  3 29  1  0  0  0  0
  3 30  1  0  0  0  0
  4  5  1  0  0  0  0
  4 31  1  0  0  0  0
  4 32  1  0  0  0  0
  5 24  1  0  0  0  0
  5  6  1  0  0  0  0
  5 53  1  0  0  0  0
  6  7  1  0  0  0  0
  6 33  1  0  0  0  0
  6 34  1  0  0  0  0
  7  8  1  0  0  0  0
  7 35  1  0  0  0  0
  7 36  1  0  0  0  0
  8  9  1  0  0  0  0
  8 23  1  0  0  0  0
  8 37  1  0  0  0  0
  9 10  1  0  0  0  0
  9 38  1  0  0  0  0
  9 39  1  0  0  0  0
 10 11  1  0  0  0  0
 10 40  1  0  0  0  0
 11 12  2  0  0  0  0
 11 13  1  0  0  0  0
 13 41  1  0  0  0  0
 13 42  1  0  0  0  0
 13 14  1  0  0  0  0
 14 21  1  0  0  0  0
 14 15  2  0  0  0  0
 15 16  1  0  0  0  0
 15 17  1  0  0  0  0
 16 43  1  0  0  0  0
 16 44  1  0  0  0  0
 16 45  1  0  0  0  0
 17 25  1  0  0  0  0
 17 18  1  0  0  0  0
 18 19  1  0  0  0  0
 18 20  2  0  0  0  0
 19 46  1  0  0  0  0
 19 47  1  0  0  0  0
 19 48  1  0  0  0  0
 20 21  1  0  0  0  0
 21 22  2  0  0  0  0
 23 24  1  0  0  0  0
 23 49  1  0  0  0  0
 23 50  1  0  0  0  0
 24 51  1  0  0  0  0
 24 52  1  0  0  0  0
M  CHG  1   5   1
M  END
> <s_m_source_file>
AV-unprocessed.smi

> <i_m_source_file_index>
1041

> <i_lp_mmshare_version>
43012

> <i_f3d_flags>
0

> <s_epik_input>
W0NIM11PW0NIMl1bQ0gyXU4xW0NIMl1bQ0gyXVtDSF0oW0NIMl1bQ0gyXTEpW0NIMl1bTkhdQyg9TylbQ0gyXWMyYyhbQ0gzXSluYyhbQ0gzXSlbbkhdYzI9Tw==

> <s_epik_cmdline>
J2VwaWtfcHl0aG9uJywgJy1waCcsICc3LjAnLCAnLXRuJywgJzgnLCAnLW1hJywgJzIwMCcsICctbWV0YWxfYmluZGluZycsICctaW1hZScsICc8aW5maWxlLm1hZT4nLCAnLW9tYWUnLCAnPG91dGZpbGUubWFlPic=

> <r_lp_tautomer_probability>
0.156392

> <r_epik_Ionization_Penalty>
0.0240251

> <r_epik_Ionization_Penalty_Charging>
0.0239146

> <r_epik_Ionization_Penalty_Neutral>
0.000110474

> <r_epik_State_Penalty>
1.15942

> <r_epik_Charging_Adjusted_Penalty>
1.18333

> <i_epik_Tot_Q>
1

> <i_epik_Tot_abs_Q>
1

> <r_epik_Metal_State_Penalty>
1.33297

> <b_epik_Metal_Only>
0

> <s_lp_Force_Field>
OPLS_2005

> <r_lp_Energy>
24.2188

> <b_lp_Chiralities_Consistent>
1

> <s_lp_Variant>
AV-unprocessed.smi:1041-3

> <Gold.Version>
5.8.1

> <Gold.Id.Protein>
6NUR|6NUR_protein|mol2

> <Gold.PLP.Fitness>
41.4224

> <Gold.PLP.PLP>
-30.9532

> <Gold.PLP.part.hbond>
-3.1305

> <Gold.PLP.part.metal>
0.0000

> <Gold.PLP.part.buried>
-6.0448

> <Gold.PLP.part.nonpolar>
-21.7594

> <Gold.PLP.part.repulsive>
0.6791

> <Gold.PLP.ligand.clash>
0.0000

> <Gold.PLP.ligand.torsion>
0.8115

> <Gold.PLP.Chemscore.Hbond>
4.0000

> <Gold.PLP.Chemscore.CHOScore>
0.0000

> <Gold.PLP.Chemscore.Metal>
0.0000

> <Gold.Chemscore.Hbonds>
donor molecule, donor type, donor heavy atom, donor atom, acceptor molecule, acceptor atom, score
      L1  H     5    53       P1  7948  1.28
      P1  H  6896  6907       L1    12  1.00

> <Gold.PLP.Chemscore.Internal.Correction>
0.0921

> <Gold.Rescore>
     Score         DG    S(hbond)    S(metal)    S(lipo)     H(rot)  DE(clash)    DE(int)     intcor
     16.09     -17.24       2.85        0.00      72.40       2.43       0.01       1.14       ----

> <Gold.Chemscore.Fitness>
16.0870

> <Gold.Chemscore.DG>
-17.2372

> <Gold.Chemscore.ZeroCoef>
-5.4800

> <Gold.Chemscore.Hbond>
2.8458

> <Gold.Chemscore.Metal>
0.0000

> <Gold.Chemscore.Lipo>
72.4008

> <Gold.Chemscore.Internal_Hbond>
0.0000

> <Gold.Chemscore.DEClash>
0.0057

> <Gold.Chemscore.DEInternal>
1.1445

> <Gold.Chemscore.Rot>
2.4291

> <Gold.Chemscore.Internal.Correction>
   9.000000E+99

> <Gold.Chemscore.Hbonds>
donor molecule, donor type, donor heavy atom, donor atom, acceptor molecule, acceptor atom, score
      L1  H     5    53       P1  7948  0.62
      P1  H  6896  6907       L1    12  0.97

> <Gold.Chemscore.Hbond.Weighted>
-9.5049

> <Gold.Chemscore.Metal.Weighted>
-0.0000

> <Gold.Chemscore.Lipo.Weighted>
-8.4709

> <Gold.Chemscore.Internal_Hbond.Weighted>
0.0000

> <Gold.Chemscore.DEClash.Weighted>
0.0057

> <Gold.Chemscore.DEInternal.Weighted>
1.1445

> <Gold.Chemscore.Rot.Weighted>
6.2186

> <Gold.Chemscore.Internal.Correction.Weighted>
   9.000000E+99

> <Gold.Protein.RotatedTorsions>
[ 6907 6896 6895 6894 ] final  -22.17 input  -60.11 | X-H torsion
[ 7974 7965 7964 7962 ] final  -96.71 input  175.53 | X-H torsion
[ 8008 7997 7996 7995 ] final   -5.55 input   59.86 | X-H torsion
[ 10167 10162 10161 10158 ] final -120.96 input  -65.29 | X-H torsion
[ 10718 10713 10712 10709 ] final  161.89 input   66.30 | X-H torsion
[ 10763 10752 10751 10750 ] final  -92.70 input  -60.55 | X-H torsion
[ 11005 11000 10999 10996 ] final  165.12 input  -57.11 | X-H torsion

> <Gold.Protein.ActiveResidues>
 VAL166  LYS551  ARG553  GLY616  TRP617  ASP618  TYR619  PRO620  LYS621  CYS622 
 ASP623  PHE694  ASN695  SER759  ASP760  ASP761  ALA762  ILE779  LEU786  VAL792 
 PHE793  MET794  SER795  GLU796  ALA797  LYS798  CYS799  TRP800  GLU811  SER814 

> <Gold.Protein.RotatedAtoms>
  151.2225  135.0524  159.8954 H   0  0  0  0  0  0  0  0  0  0  0  0  # atno 6907 bound_to 6896
  152.5414  134.0625  159.8168 H   0  0  0  0  0  0  0  0  0  0  0  0  # atno 6908 bound_to 6896
  151.0793  133.5354  159.2653 H   0  0  0  0  0  0  0  0  0  0  0  0  # atno 6909 bound_to 6896
  145.3433  140.9464  143.2595 H   0  0  0  0  0  0  0  0  0  0  0  0  # atno 7974 bound_to 7965
  154.6027  140.2455  155.7771 H   0  0  0  0  0  0  0  0  0  0  0  0  # atno 8008 bound_to 7997
  156.2321  140.2963  156.0168 H   0  0  0  0  0  0  0  0  0  0  0  0  # atno 8009 bound_to 7997
  155.2183  140.0399  157.2935 H   0  0  0  0  0  0  0  0  0  0  0  0  # atno 8010 bound_to 7997
  140.0301  143.5256  152.2180 H   0  0  0  0  0  0  0  0  0  0  0  0  # atno 10167 bound_to 10162
  157.1302  131.0514  151.2375 H   0  0  0  0  0  0  0  0  0  0  0  0  # atno 10718 bound_to 10713
  154.6887  135.5221  153.8362 H   0  0  0  0  0  0  0  0  0  0  0  0  # atno 10763 bound_to 10752
  153.0616  135.6570  154.0459 H   0  0  0  0  0  0  0  0  0  0  0  0  # atno 10764 bound_to 10752
  154.0336  135.2983  155.3345 H   0  0  0  0  0  0  0  0  0  0  0  0  # atno 10765 bound_to 10752
  140.2529  134.7963  157.3518 H   0  0  0  0  0  0  0  0  0  0  0  0  # atno 11005 bound_to 11000
  144.8773  139.4953  143.6739 LP  0  0  0  0  0  0  0  0  0  0  0  0  # atno 17320 bound_to 7965
  146.2998  139.7391  142.9099 LP  0  0  0  0  0  0  0  0  0  0  0  0  # atno 17321 bound_to 7965
  139.6081  144.7602  151.3014 LP  0  0  0  0  0  0  0  0  0  0  0  0  # atno 17342 bound_to 10162
  140.7305  143.6877  150.7948 LP  0  0  0  0  0  0  0  0  0  0  0  0  # atno 17343 bound_to 10162
  157.4399  130.7538  149.7060 LP  0  0  0  0  0  0  0  0  0  0  0  0  # atno 17370 bound_to 10713
  155.9809  130.4024  150.3499 LP  0  0  0  0  0  0  0  0  0  0  0  0  # atno 17371 bound_to 10713
  140.1540  134.4813  155.7941 LP  0  0  0  0  0  0  0  0  0  0  0  0  # atno 17394 bound_to 11000
  141.2199  133.6874  156.7429 LP  0  0  0  0  0  0  0  0  0  0  0  0  # atno 17395 bound_to 11000

$$$$
