AV-unprocessed.smi:34|AV-procd|sdf|231|dock10
  -GOLD-   2262015563D 1   1.00000     0.00000
 Structure written by MMmdl.
 54 58  0  0  0  0  0  0  0  0  2 V2000
  149.5571  133.2318  155.5834 O   0  0  0  0  0  0  0  0  0  0  0  0
  150.5169  133.1467  156.3525 C   0  0  0  0  0  0  0  0  0  0  0  0
  150.9034  134.0326  157.3050 N   0  5  0  0  0  0  0  0  0  0  0  0
  150.4753  135.3029  157.2521 C   0  0  0  0  0  0  0  0  0  0  0  0
  149.8875  135.8766  158.3332 N   0  0  0  0  0  0  0  0  0  0  0  0
  149.4513  137.1406  158.2745 C   0  0  0  0  0  0  0  0  0  0  0  0
  149.4931  137.9980  157.2496 N   0  0  0  0  0  0  0  0  0  0  0  0
  150.0734  137.4283  156.1535 C   0  0  0  0  0  0  0  0  0  0  0  0
  150.5826  136.0994  156.0795 C   0  0  0  0  0  0  0  0  0  0  0  0
  151.1027  135.8425  154.8202 N   0  0  0  0  0  0  0  0  0  0  0  0
  150.8884  137.0005  154.1997 C   0  0  0  0  0  0  0  0  0  0  0  0
  150.2911  137.9846  154.9052 N   0  0  0  0  0  0  0  0  0  0  0  0
  149.9206  139.3701  154.4777 C   0  0  2  0  0  0  0  0  0  0  0  0
  150.8552  140.2549  155.0252 O   0  0  0  0  0  0  0  0  0  0  0  0
  150.2667  140.9620  156.1133 C   0  0  1  0  0  0  0  0  0  0  0  0
  151.0151  142.2728  156.3812 C   0  0  0  0  0  0  0  0  0  0  0  0
  151.3397  142.3345  157.7602 O   0  0  0  0  0  0  0  0  0  0  0  0
  152.2132  141.4584  158.2909 C   0  0  0  0  0  0  0  0  0  0  0  0
  152.6343  140.4674  157.6914 O   0  0  0  0  0  0  0  0  0  0  0  0
  152.6186  141.8152  159.6814 C   0  0  0  0  0  0  0  0  0  0  0  0
  153.4883  140.9559  160.3925 C   0  0  0  0  0  0  0  0  0  0  0  0
  153.8849  141.2651  161.7082 C   0  0  0  0  0  0  0  0  0  0  0  0
  153.4163  142.4373  162.3292 C   0  0  0  0  0  0  0  0  0  0  0  0
  152.5505  143.3004  161.6326 C   0  0  0  0  0  0  0  0  0  0  0  0
  152.1531  142.9931  160.3168 C   0  0  0  0  0  0  0  0  0  0  0  0
  148.8253  141.1304  155.6403 C   0  0  1  0  0  0  0  0  0  0  0  0
  148.7881  142.0768  154.6970 F   0  0  0  0  0  0  0  0  0  0  0  0
  148.5446  139.7582  155.0442 C   0  0  1  0  0  0  0  0  0  0  0  0
  147.5274  139.8308  154.0662 O   0  0  0  0  0  0  0  0  0  0  0  0
  151.4461  131.9698  156.2262 C   0  0  0  0  0  0  0  0  0  0  0  0
  151.0819  130.8735  155.4115 C   0  0  0  0  0  0  0  0  0  0  0  0
  151.9270  129.7522  155.2999 C   0  0  0  0  0  0  0  0  0  0  0  0
  153.1411  129.7105  156.0104 C   0  0  0  0  0  0  0  0  0  0  0  0
  153.5078  130.7897  156.8360 C   0  0  0  0  0  0  0  0  0  0  0  0
  152.6638  131.9119  156.9472 C   0  0  0  0  0  0  0  0  0  0  0  0
  149.0008  137.5189  159.1800 H   0  0  0  0  0  0  0  0  0  0  0  0
  151.1848  137.1306  153.1709 H   0  0  0  0  0  0  0  0  0  0  0  0
  149.9843  139.3767  153.3888 H   0  0  0  0  0  0  0  0  0  0  0  0
  150.2754  140.3435  157.0111 H   0  0  0  0  0  0  0  0  0  0  0  0
  151.9183  142.3354  155.7725 H   0  0  0  0  0  0  0  0  0  0  0  0
  150.3808  143.1221  156.1243 H   0  0  0  0  0  0  0  0  0  0  0  0
  153.8607  140.0497  159.9370 H   0  0  0  0  0  0  0  0  0  0  0  0
  154.5488  140.6010  162.2416 H   0  0  0  0  0  0  0  0  0  0  0  0
  153.7199  142.6737  163.3384 H   0  0  0  0  0  0  0  0  0  0  0  0
  152.1887  144.1997  162.1085 H   0  0  0  0  0  0  0  0  0  0  0  0
  151.4853  143.6762  159.8126 H   0  0  0  0  0  0  0  0  0  0  0  0
  148.1328  141.4127  156.4336 H   0  0  0  0  0  0  0  0  0  0  0  0
  148.2544  139.0617  155.8327 H   0  0  0  0  0  0  0  0  0  0  0  0
  147.9099  139.6406  153.2230 H   0  0  0  0  0  0  0  0  0  0  0  0
  150.1522  130.8890  154.8613 H   0  0  0  0  0  0  0  0  0  0  0  0
  151.6419  128.9230  154.6697 H   0  0  0  0  0  0  0  0  0  0  0  0
  153.7884  128.8503  155.9254 H   0  0  0  0  0  0  0  0  0  0  0  0
  154.4358  130.7568  157.3874 H   0  0  0  0  0  0  0  0  0  0  0  0
  152.9590  132.7253  157.5944 H   0  0  0  0  0  0  0  0  0  0  0  0
  1  2  2  0  0  0  0
  2  3  1  0  0  0  0
  2 30  1  0  0  0  0
  3  4  1  0  0  0  0
  4  9  1  0  0  0  0
  4  5  2  0  0  0  0
  5  6  1  0  0  0  0
  6  7  2  0  0  0  0
  6 36  1  0  0  0  0
  7  8  1  0  0  0  0
  8 12  1  0  0  0  0
  8  9  2  0  0  0  0
  9 10  1  0  0  0  0
 10 11  2  0  0  0  0
 11 12  1  0  0  0  0
 11 37  1  0  0  0  0
 12 13  1  0  0  0  0
 13 28  1  0  0  0  0
 13 14  1  0  0  0  0
 13 38  1  0  0  0  0
 14 15  1  0  0  0  0
 15 16  1  0  0  0  0
 15 26  1  0  0  0  0
 15 39  1  0  0  0  0
 16 17  1  0  0  0  0
 16 40  1  0  0  0  0
 16 41  1  0  0  0  0
 17 18  1  0  0  0  0
 18 19  2  0  0  0  0
 18 20  1  0  0  0  0
 20 25  1  0  0  0  0
 20 21  2  0  0  0  0
 21 22  1  0  0  0  0
 21 42  1  0  0  0  0
 22 23  2  0  0  0  0
 22 43  1  0  0  0  0
 23 24  1  0  0  0  0
 23 44  1  0  0  0  0
 24 25  2  0  0  0  0
 24 45  1  0  0  0  0
 25 46  1  0  0  0  0
 26 27  1  0  0  0  0
 26 28  1  0  0  0  0
 26 47  1  0  0  0  0
 28 29  1  0  0  0  0
 28 48  1  0  0  0  0
 29 49  1  0  0  0  0
 30 35  1  0  0  0  0
 30 31  2  0  0  0  0
 31 32  1  0  0  0  0
 31 50  1  0  0  0  0
 32 33  2  0  0  0  0
 32 51  1  0  0  0  0
 33 34  1  0  0  0  0
 33 52  1  0  0  0  0
 34 35  2  0  0  0  0
 34 53  1  0  0  0  0
 35 54  1  0  0  0  0
M  CHG  1   3  -1
M  END
> <s_m_source_file>
AV-unprocessed.smi

> <i_m_source_file_index>
34

> <i_lp_mmshare_version>
43012

> <i_f3d_flags>
0

> <s_epik_input>
W2NIXTFbY0hdW2NIXVtjSF1bY0hdYzFDKD1PKVtOSF1jKG5bY0hdbjIpYyhjMjMpbltjSF1uM1tDQEBIXTRPW0NASF0oW0NAQEhdKEYpW0NASF00W09IXSlbQ0gyXU9DKD1PKWM1W2NIXVtjSF1bY0hdW2NIXVtjSF01

> <s_epik_cmdline>
J2VwaWtfcHl0aG9uJywgJy1waCcsICc3LjAnLCAnLXRuJywgJzgnLCAnLW1hJywgJzIwMCcsICctbWV0YWxfYmluZGluZycsICctaW1hZScsICc8aW5maWxlLm1hZT4nLCAnLW9tYWUnLCAnPG91dGZpbGUubWFlPic=

> <r_lp_tautomer_probability>
1

> <r_epik_Ionization_Penalty>
4.33227

> <r_epik_Ionization_Penalty_Charging>
3.41027

> <r_epik_Ionization_Penalty_Neutral>
0.922001

> <r_epik_State_Penalty>
3.41358

> <r_epik_Charging_Adjusted_Penalty>
6.82385

> <i_epik_Tot_Q>
-1

> <i_epik_Tot_abs_Q>
1

> <r_epik_Metal_State_Penalty>
0.496292

> <b_epik_Metal_Only>
1

> <s_epik_Chemistry_Notes>
This compound has an ester and may undergo hydrolysis at high or low pH. This compound contains an acetal/aminal-like group ( X-CH(R)-Y where X, Y are N, S, or O) that may be acid/base labile, releasing an aldehyde.

> <s_lp_Force_Field>
OPLS_2005

> <r_lp_Energy>
43.1366

> <b_lp_Chiralities_Consistent>
1

> <s_lp_Variant>
AV-unprocessed.smi:34-17

> <Gold.Version>
5.8.1

> <Gold.Id.Protein>
6NUR|6NUR_protein|mol2

> <Gold.PLP.Fitness>
66.5347

> <Gold.PLP.PLP>
-53.9188

> <Gold.PLP.part.hbond>
-5.0000

> <Gold.PLP.part.metal>
0.0000

> <Gold.PLP.part.buried>
1.0771

> <Gold.PLP.part.nonpolar>
-49.1741

> <Gold.PLP.part.repulsive>
0.2731

> <Gold.PLP.ligand.clash>
0.0000

> <Gold.PLP.ligand.torsion>
1.9191

> <Gold.PLP.Chemscore.Hbond>
4.3948

> <Gold.PLP.Chemscore.CHOScore>
1.0000

> <Gold.PLP.Chemscore.Metal>
0.0000

> <Gold.Chemscore.Hbonds>
donor molecule, donor type, donor heavy atom, donor atom, acceptor molecule, acceptor atom, score
      P1  H  6896  6907       L1     3  0.80
      P1  H  6896  6908       L1     5  0.71
      P1  H  7989  7998       L1    14  1.00
      P1  H  7997  8010       L1    19  0.83
      P1  H 10752 10764       L1    10  1.00
      L1  C    11    37       P1  7949  1.00

> <Gold.PLP.Chemscore.Internal.Correction>
0.2697

> <Gold.Rescore>
     Score         DG    S(hbond)    S(metal)    S(lipo)     H(rot)  DE(clash)    DE(int)     intcor
     11.63     -18.21       1.67        0.00     120.16       2.69       1.31       5.27       ----

> <Gold.Chemscore.Fitness>
11.6320

> <Gold.Chemscore.DG>
-18.2133

> <Gold.Chemscore.ZeroCoef>
-5.4800

> <Gold.Chemscore.Hbond>
1.6685

> <Gold.Chemscore.Metal>
0.0000

> <Gold.Chemscore.Lipo>
120.1557

> <Gold.Chemscore.Internal_Hbond>
0.0000

> <Gold.Chemscore.DEClash>
1.3107

> <Gold.Chemscore.DEInternal>
5.2706

> <Gold.Chemscore.Rot>
2.6944

> <Gold.Chemscore.Internal.Correction>
   9.000000E+99

> <Gold.Chemscore.Hbonds>
donor molecule, donor type, donor heavy atom, donor atom, acceptor molecule, acceptor atom, score
      P1  H  6896  6907       L1     3  0.31
      P1  H  6896  6908       L1     5  0.13
      P1  H  7989  7998       L1    14  0.25
      P1  H  7997  8010       L1    19  0.77
      P1  H 10752 10764       L1    10  0.43

> <Gold.Chemscore.Hbond.Weighted>
-5.5727

> <Gold.Chemscore.Metal.Weighted>
-0.0000

> <Gold.Chemscore.Lipo.Weighted>
-14.0582

> <Gold.Chemscore.Internal_Hbond.Weighted>
0.0000

> <Gold.Chemscore.DEClash.Weighted>
1.3107

> <Gold.Chemscore.DEInternal.Weighted>
5.2706

> <Gold.Chemscore.Rot.Weighted>
6.8975

> <Gold.Chemscore.Internal.Correction.Weighted>
   9.000000E+99

> <Gold.Protein.RotatedTorsions>
[ 6907 6896 6895 6894 ] final -155.79 input  -60.11 | X-H torsion
[ 7974 7965 7964 7962 ] final -104.53 input  175.53 | X-H torsion
[ 8008 7997 7996 7995 ] final   49.15 input   59.86 | X-H torsion
[ 10167 10162 10161 10158 ] final  -67.43 input  -65.29 | X-H torsion
[ 10718 10713 10712 10709 ] final  -63.40 input   66.30 | X-H torsion
[ 10763 10752 10751 10750 ] final  -56.52 input  -60.55 | X-H torsion
[ 11005 11000 10999 10996 ] final -103.82 input  -57.11 | X-H torsion

> <Gold.Protein.ActiveResidues>
 VAL166  LYS551  ARG553  GLY616  TRP617  ASP618  TYR619  PRO620  LYS621  CYS622 
 ASP623  PHE694  ASN695  SER759  ASP760  ASP761  ALA762  ILE779  LEU786  VAL792 
 PHE793  MET794  SER795  GLU796  ALA797  LYS798  CYS799  TRP800  GLU811  SER814 

> <Gold.Protein.RotatedAtoms>
  151.2778  133.4224  159.2624 H   0  0  0  0  0  0  0  0  0  0  0  0  # atno 6907 bound_to 6896
  151.0387  134.9592  159.8160 H   0  0  0  0  0  0  0  0  0  0  0  0  # atno 6908 bound_to 6896
  152.5361  134.2737  159.9034 H   0  0  0  0  0  0  0  0  0  0  0  0  # atno 6909 bound_to 6896
  145.2419  140.9208  143.3145 H   0  0  0  0  0  0  0  0  0  0  0  0  # atno 7974 bound_to 7965
  155.3974  140.3436  155.4255 H   0  0  0  0  0  0  0  0  0  0  0  0  # atno 8008 bound_to 7997
  156.1523  140.1575  156.8782 H   0  0  0  0  0  0  0  0  0  0  0  0  # atno 8009 bound_to 7997
  154.5063  140.0801  156.7883 H   0  0  0  0  0  0  0  0  0  0  0  0  # atno 8010 bound_to 7997
  140.5583  143.2312  151.6777 H   0  0  0  0  0  0  0  0  0  0  0  0  # atno 10167 bound_to 10162
  156.0793  130.4220  150.1272 H   0  0  0  0  0  0  0  0  0  0  0  0  # atno 10718 bound_to 10713
  154.2080  135.6399  153.5106 H   0  0  0  0  0  0  0  0  0  0  0  0  # atno 10763 bound_to 10752
  152.9996  135.5467  154.6245 H   0  0  0  0  0  0  0  0  0  0  0  0  # atno 10764 bound_to 10752
  154.5675  135.2914  155.0833 H   0  0  0  0  0  0  0  0  0  0  0  0  # atno 10765 bound_to 10752
  141.1129  133.8671  157.1533 H   0  0  0  0  0  0  0  0  0  0  0  0  # atno 11005 bound_to 11000
  144.9581  139.4009  143.6369 LP  0  0  0  0  0  0  0  0  0  0  0  0  # atno 17320 bound_to 7965
  146.3326  139.8621  142.8854 LP  0  0  0  0  0  0  0  0  0  0  0  0  # atno 17321 bound_to 7965
  139.5058  144.3703  152.0476 LP  0  0  0  0  0  0  0  0  0  0  0  0  # atno 17342 bound_to 10162
  140.2827  144.3841  150.6113 LP  0  0  0  0  0  0  0  0  0  0  0  0  # atno 17343 bound_to 10162
  156.9306  130.9712  151.3533 LP  0  0  0  0  0  0  0  0  0  0  0  0  # atno 17370 bound_to 10713
  157.5903  130.8439  149.8650 LP  0  0  0  0  0  0  0  0  0  0  0  0  # atno 17371 bound_to 10713
  140.0033  135.0019  157.0237 LP  0  0  0  0  0  0  0  0  0  0  0  0  # atno 17394 bound_to 11000
  140.4727  134.1370  155.7205 LP  0  0  0  0  0  0  0  0  0  0  0  0  # atno 17395 bound_to 11000

$$$$
