AV-unprocessed.smi:1505|AV-procd|sdf|6075|dock1
  -GOLD-   22720 6193D 1   1.00000     0.00000
 Structure written by MMmdl.
 44 45  0  0  0  0  0  0  0  0  1 V2000
  145.2408  143.5214  154.7728 C   0  0  0  0  0  0  0  0  0  0  0  0
  145.8719  142.4970  155.7183 C   0  0  0  0  0  0  0  0  0  0  0  0
  145.3277  142.3009  156.8051 O   0  0  0  0  0  0  0  0  0  0  0  0
  146.9989  141.8495  155.3362 N   0  0  0  0  0  0  0  0  0  0  0  0
  147.6770  140.7998  156.1057 C   0  0  0  0  0  0  0  0  0  0  0  0
  147.4537  139.4501  155.4029 C   0  0  0  0  0  0  0  0  0  0  0  0
  147.9331  139.4940  153.9308 C   0  0  0  0  0  0  0  0  0  0  0  0
  147.5268  138.2827  153.2255 N   0  0  0  0  0  0  0  0  0  0  0  0
  146.2758  137.8048  153.1862 C   0  0  0  0  0  0  0  0  0  0  0  0
  145.3362  138.2825  153.8231 O   0  0  0  0  0  0  0  0  0  0  0  0
  146.1589  136.7873  152.3201 N   0  0  0  0  0  0  0  0  0  0  0  0
  144.8941  136.2025  151.8783 C   0  0  0  0  0  0  0  0  0  0  0  0
  145.0974  135.1774  150.7431 C   0  0  0  0  0  0  0  0  0  0  0  0
  145.5172  133.8197  151.2450 C   0  0  0  0  0  0  0  0  0  0  0  0
  146.7105  133.4795  151.9447 C   0  0  0  0  0  0  0  0  0  0  0  0
  146.8075  132.1852  152.1997 N   0  0  0  0  0  0  0  0  0  0  0  0
  145.6810  131.6565  151.6797 N   0  0  0  0  0  0  0  0  0  0  0  0
  145.4581  130.2297  151.7670 C   0  0  0  0  0  0  0  0  0  0  0  0
  144.8787  132.6195  151.1064 C   0  0  0  0  0  0  0  0  0  0  0  0
  147.3786  140.7326  153.1942 C   0  0  0  0  0  0  0  0  0  0  0  0
  147.6021  142.0195  154.0093 C   0  0  0  0  0  0  0  0  0  0  0  0
  145.9481  144.3166  154.5348 H   0  0  0  0  0  0  0  0  0  0  0  0
  144.3665  143.9821  155.2340 H   0  0  0  0  0  0  0  0  0  0  0  0
  144.9168  143.0447  153.8474 H   0  0  0  0  0  0  0  0  0  0  0  0
  148.7442  141.0217  156.1520 H   0  0  0  0  0  0  0  0  0  0  0  0
  147.3504  140.7364  157.1426 H   0  0  0  0  0  0  0  0  0  0  0  0
  147.9729  138.6615  155.9492 H   0  0  0  0  0  0  0  0  0  0  0  0
  146.3922  139.1994  155.4401 H   0  0  0  0  0  0  0  0  0  0  0  0
  149.0227  139.5614  153.9229 H   0  0  0  0  0  0  0  0  0  0  0  0
  148.2309  137.8231  152.6669 H   0  0  0  0  0  0  0  0  0  0  0  0
  146.9940  136.4641  151.8542 H   0  0  0  0  0  0  0  0  0  0  0  0
  144.4187  135.7182  152.7313 H   0  0  0  0  0  0  0  0  0  0  0  0
  144.2051  136.9838  151.5525 H   0  0  0  0  0  0  0  0  0  0  0  0
  144.1693  135.0964  150.1763 H   0  0  0  0  0  0  0  0  0  0  0  0
  145.8326  135.5694  150.0398 H   0  0  0  0  0  0  0  0  0  0  0  0
  147.5143  134.1302  152.2558 H   0  0  0  0  0  0  0  0  0  0  0  0
  144.5034  129.9715  151.3080 H   0  0  0  0  0  0  0  0  0  0  0  0
  145.4441  129.9209  152.8126 H   0  0  0  0  0  0  0  0  0  0  0  0
  146.2563  129.7001  151.2459 H   0  0  0  0  0  0  0  0  0  0  0  0
  143.9402  132.3720  150.6324 H   0  0  0  0  0  0  0  0  0  0  0  0
  147.8475  140.8266  152.2140 H   0  0  0  0  0  0  0  0  0  0  0  0
  146.3094  140.6083  153.0145 H   0  0  0  0  0  0  0  0  0  0  0  0
  147.1983  142.8764  153.4684 H   0  0  0  0  0  0  0  0  0  0  0  0
  148.6698  142.2147  154.1183 H   0  0  0  0  0  0  0  0  0  0  0  0
  1  2  1  0  0  0  0
  1 22  1  0  0  0  0
  1 23  1  0  0  0  0
  1 24  1  0  0  0  0
  2  3  2  0  0  0  0
  2  4  1  0  0  0  0
  4 21  1  0  0  0  0
  4  5  1  0  0  0  0
  5  6  1  0  0  0  0
  5 25  1  0  0  0  0
  5 26  1  0  0  0  0
  6  7  1  0  0  0  0
  6 27  1  0  0  0  0
  6 28  1  0  0  0  0
  7  8  1  0  0  0  0
  7 20  1  0  0  0  0
  7 29  1  0  0  0  0
  8  9  1  0  0  0  0
  8 30  1  0  0  0  0
  9 10  2  0  0  0  0
  9 11  1  0  0  0  0
 11 12  1  0  0  0  0
 11 31  1  0  0  0  0
 12 13  1  0  0  0  0
 12 32  1  0  0  0  0
 12 33  1  0  0  0  0
 13 14  1  0  0  0  0
 13 34  1  0  0  0  0
 13 35  1  0  0  0  0
 14 19  2  0  0  0  0
 14 15  1  0  0  0  0
 15 16  2  0  0  0  0
 15 36  1  0  0  0  0
 16 17  1  0  0  0  0
 17 18  1  0  0  0  0
 17 19  1  0  0  0  0
 18 37  1  0  0  0  0
 18 38  1  0  0  0  0
 18 39  1  0  0  0  0
 19 40  1  0  0  0  0
 20 21  1  0  0  0  0
 20 41  1  0  0  0  0
 20 42  1  0  0  0  0
 21 43  1  0  0  0  0
 21 44  1  0  0  0  0
M  END
> <s_m_source_file>
AV-unprocessed.smi

> <i_m_source_file_index>
1505

> <i_lp_mmshare_version>
43012

> <i_f3d_flags>
0

> <s_epik_input>
W0NIM11DKD1PKU4xW0NIMl1bQ0gyXVtDSF0oW0NIMl1bQ0gyXTEpW05IXUMoPU8pW05IXVtDSDJdW0NIMl1jMltjSF1ubihbQ0gzXSlbY0hdMg==

> <s_epik_cmdline>
J2VwaWtfcHl0aG9uJywgJy1waCcsICc3LjAnLCAnLXRuJywgJzgnLCAnLW1hJywgJzIwMCcsICctbWV0YWxfYmluZGluZycsICctaW1hZScsICc8aW5maWxlLm1hZT4nLCAnLW9tYWUnLCAnPG91dGZpbGUubWFlPic=

> <r_lp_tautomer_probability>
1

> <r_epik_Ionization_Penalty>
0.000559595

> <r_epik_Ionization_Penalty_Charging>
0

> <r_epik_Ionization_Penalty_Neutral>
0.000559595

> <r_epik_State_Penalty>
-0

> <r_epik_Charging_Adjusted_Penalty>
0

> <i_epik_Tot_Q>
0

> <i_epik_Tot_abs_Q>
0

> <r_epik_Metal_State_Penalty>
-0

> <b_epik_Metal_Only>
0

> <s_lp_Force_Field>
OPLS_2005

> <r_lp_Energy>
17.177

> <b_lp_Chiralities_Consistent>
1

> <s_lp_Variant>
AV-unprocessed.smi:1505-1

> <Gold.Version>
5.8.1

> <Gold.Id.Protein>
6NUR|6NUR_protein|mol2

> <Gold.PLP.Fitness>
42.4026

> <Gold.PLP.PLP>
-33.8092

> <Gold.PLP.part.hbond>
-2.0000

> <Gold.PLP.part.metal>
0.0000

> <Gold.PLP.part.buried>
-5.9995

> <Gold.PLP.part.nonpolar>
-27.2691

> <Gold.PLP.part.repulsive>
0.8729

> <Gold.PLP.ligand.clash>
0.0000

> <Gold.PLP.ligand.torsion>
0.2269

> <Gold.PLP.Chemscore.Hbond>
2.0000

> <Gold.PLP.Chemscore.CHOScore>
1.0000

> <Gold.PLP.Chemscore.Metal>
0.0000

> <Gold.Chemscore.Hbonds>
donor molecule, donor type, donor heavy atom, donor atom, acceptor molecule, acceptor atom, score
      L1  H     8    30       P1  7948  1.00
      L1  H    11    31       P1  7948  1.00
      L1  C    15    36       P1  7948  1.00

> <Gold.PLP.Chemscore.Internal.Correction>
0.0472

> <Gold.Rescore>
     Score         DG    S(hbond)    S(metal)    S(lipo)     H(rot)  DE(clash)    DE(int)     intcor
     14.24     -15.40       1.91        0.00      67.37       1.69       0.01       1.16       ----

> <Gold.Chemscore.Fitness>
14.2406

> <Gold.Chemscore.DG>
-15.4025

> <Gold.Chemscore.ZeroCoef>
-5.4800

> <Gold.Chemscore.Hbond>
1.9059

> <Gold.Chemscore.Metal>
0.0000

> <Gold.Chemscore.Lipo>
67.3692

> <Gold.Chemscore.Internal_Hbond>
0.0000

> <Gold.Chemscore.DEClash>
0.0061

> <Gold.Chemscore.DEInternal>
1.1557

> <Gold.Chemscore.Rot>
1.6896

> <Gold.Chemscore.Internal.Correction>
   9.000000E+99

> <Gold.Chemscore.Hbonds>
donor molecule, donor type, donor heavy atom, donor atom, acceptor molecule, acceptor atom, score
      L1  H     8    30       P1  7948  0.96
      L1  H    11    31       P1  7948  0.94

> <Gold.Chemscore.Hbond.Weighted>
-6.3658

> <Gold.Chemscore.Metal.Weighted>
-0.0000

> <Gold.Chemscore.Lipo.Weighted>
-7.8822

> <Gold.Chemscore.Internal_Hbond.Weighted>
0.0000

> <Gold.Chemscore.DEClash.Weighted>
0.0061

> <Gold.Chemscore.DEInternal.Weighted>
1.1557

> <Gold.Chemscore.Rot.Weighted>
4.3255

> <Gold.Chemscore.Internal.Correction.Weighted>
   9.000000E+99

> <Gold.Protein.RotatedTorsions>
[ 6907 6896 6895 6894 ] final   17.65 input  -60.11 | X-H torsion
[ 7974 7965 7964 7962 ] final  155.48 input  175.53 | X-H torsion
[ 8008 7997 7996 7995 ] final  157.38 input   59.86 | X-H torsion
[ 10167 10162 10161 10158 ] final  163.94 input  -65.29 | X-H torsion
[ 10718 10713 10712 10709 ] final  142.70 input   66.30 | X-H torsion
[ 10763 10752 10751 10750 ] final  -22.39 input  -60.55 | X-H torsion
[ 11005 11000 10999 10996 ] final  -58.70 input  -57.11 | X-H torsion

> <Gold.Protein.ActiveResidues>
 VAL166  LYS551  ARG553  GLY616  TRP617  ASP618  TYR619  PRO620  LYS621  CYS622 
 ASP623  PHE694  ASN695  SER759  ASP760  ASP761  ALA762  ILE779  LEU786  VAL792 
 PHE793  MET794  SER795  GLU796  ALA797  LYS798  CYS799  TRP800  GLU811  SER814 

> <Gold.Protein.RotatedAtoms>
  151.8529  135.0551  160.0460 H   0  0  0  0  0  0  0  0  0  0  0  0  # atno 6907 bound_to 6896
  152.2722  133.5388  159.5454 H   0  0  0  0  0  0  0  0  0  0  0  0  # atno 6908 bound_to 6896
  150.7156  134.0598  159.3869 H   0  0  0  0  0  0  0  0  0  0  0  0  # atno 6909 bound_to 6896
  144.8022  139.7074  143.6177 H   0  0  0  0  0  0  0  0  0  0  0  0  # atno 7974 bound_to 7965
  156.2367  140.1887  156.7100 H   0  0  0  0  0  0  0  0  0  0  0  0  # atno 8008 bound_to 7997
  154.6120  140.0620  156.9533 H   0  0  0  0  0  0  0  0  0  0  0  0  # atno 8009 bound_to 7997
  155.2001  140.3291  155.4347 H   0  0  0  0  0  0  0  0  0  0  0  0  # atno 8010 bound_to 7997
  139.4881  144.4286  151.9098 H   0  0  0  0  0  0  0  0  0  0  0  0  # atno 10167 bound_to 10162
  157.3775  131.0987  151.0770 H   0  0  0  0  0  0  0  0  0  0  0  0  # atno 10718 bound_to 10713
  153.6512  135.6981  153.5208 H   0  0  0  0  0  0  0  0  0  0  0  0  # atno 10763 bound_to 10752
  153.2705  135.4216  155.0982 H   0  0  0  0  0  0  0  0  0  0  0  0  # atno 10764 bound_to 10752
  154.8476  135.3577  154.6056 H   0  0  0  0  0  0  0  0  0  0  0  0  # atno 10765 bound_to 10752
  141.1218  133.6613  156.4960 H   0  0  0  0  0  0  0  0  0  0  0  0  # atno 11005 bound_to 11000
  146.2306  139.5806  142.9558 LP  0  0  0  0  0  0  0  0  0  0  0  0  # atno 17320 bound_to 7965
  145.5525  141.0412  143.2270 LP  0  0  0  0  0  0  0  0  0  0  0  0  # atno 17321 bound_to 7965
  140.3733  144.2828  150.5917 LP  0  0  0  0  0  0  0  0  0  0  0  0  # atno 17342 bound_to 10162
  140.5299  143.2246  151.8255 LP  0  0  0  0  0  0  0  0  0  0  0  0  # atno 17343 bound_to 10162
  157.1852  130.6327  149.5685 LP  0  0  0  0  0  0  0  0  0  0  0  0  # atno 17370 bound_to 10713
  155.9768  130.4740  150.6554 LP  0  0  0  0  0  0  0  0  0  0  0  0  # atno 17371 bound_to 10713
  140.4484  134.6951  157.5027 LP  0  0  0  0  0  0  0  0  0  0  0  0  # atno 17394 bound_to 11000
  140.0182  134.6587  155.9278 LP  0  0  0  0  0  0  0  0  0  0  0  0  # atno 17395 bound_to 11000

$$$$
