#       Name:                AV-unprocessed.smi:527
#       Creating user name   scv26
#       Creation time:       Thu Mar 26 23:31:10 2020


#       File generated by GOLD software.
#

@<TRIPOS>MOLECULE
AV-unprocessed.smi:527
    47    48     1
SMALL
NO_CHARGES


@<TRIPOS>ATOM
      1 ****        -4.6206  -0.1597   1.8786 C.3            1 S1                 0.0000
      2 ****        -3.7690  -1.4395   1.7500 C.3            1 S1                 0.0000
      3 ****        -4.2414  -2.3203   0.5757 C.3            1 S1                 0.0000
      4 ****        -3.8645  -1.7202  -0.7879 C.3            1 S1                 0.0000
      5 ****        -2.3544  -1.4614  -0.8821 C.3            1 S1                 0.0000
      6 ****        -1.8465  -0.5787   0.2778 C.3            1 S1                 0.0000
      7 ****        -0.3947  -0.4316   0.1850 N.am           1 S1                 0.0000
      8 ****         0.2478   0.4695  -0.5728 C.2            1 S1                 0.0000
      9 ****        -0.3316   1.2791  -1.3002 O.2            1 S1                 0.0000
     10 ****         1.5828   0.3614  -0.4258 N.am           1 S1                 0.0000
     11 ****         2.5378   1.0989  -1.0284 C.2            1 S1                 0.0000
     12 ****         2.3239   2.0128  -1.8292 O.2            1 S1                 0.0000
     13 ****         3.9766   0.7238  -0.6499 C.3            1 S1                 0.0000
     14 ****         4.9840   1.5548  -1.3224 N.pl3          1 S1                 0.0000
     15 ****         5.5338   2.7266  -0.8679 C.2            1 S1                 0.0000
     16 ****         6.4128   3.1463  -1.8329 C.2            1 S1                 0.0000
     17 ****         6.3634   2.2139  -2.8344 N.pl3          1 S1                 1.0000
     18 ****         5.4941   1.2471  -2.5226 C.2            1 S1                 0.0000
     19 ****        -2.2416  -1.1805   1.6516 C.3            1 S1                 0.0000
     20 ****        -1.7069  -0.3623   2.8438 C.3            1 S1                 0.0000
     21 ****        -4.4814   0.5157   1.0352 H              1 S1                 0.0000
     22 ****        -4.3806   0.3922   2.7870 H              1 S1                 0.0000
     23 ****        -5.6819  -0.4041   1.9294 H              1 S1                 0.0000
     24 ****        -3.9435  -2.0128   2.6615 H              1 S1                 0.0000
     25 ****        -3.7895  -3.3092   0.6650 H              1 S1                 0.0000
     26 ****        -5.3193  -2.4767   0.6292 H              1 S1                 0.0000
     27 ****        -4.1729  -2.3956  -1.5862 H              1 S1                 0.0000
     28 ****        -4.4082  -0.7893  -0.9507 H              1 S1                 0.0000
     29 ****        -1.8269  -2.4165  -0.8755 H              1 S1                 0.0000
     30 ****        -2.1271  -0.9927  -1.8404 H              1 S1                 0.0000
     31 ****        -2.3024   0.4091   0.1925 H              1 S1                 0.0000
     32 ****         0.1576  -1.0580   0.7520 H              1 S1                 0.0000
     33 ****         1.9048  -0.3546   0.2087 H              1 S1                 0.0000
     34 ****         4.1146   0.8327   0.4268 H              1 S1                 0.0000
     35 ****         4.1675  -0.3206  -0.9018 H              1 S1                 0.0000
     36 ****         5.2629   3.1655   0.0817 H              1 S1                 0.0000
     37 ****         7.0516   4.0163  -1.8815 H              1 S1                 0.0000
     38 ****         5.2492   0.3903  -3.1247 H              1 S1                 0.0000
     39 ****        -1.7623  -2.1589   1.7189 H              1 S1                 0.0000
     40 ****        -2.0294   0.6778   2.7941 H              1 S1                 0.0000
     41 ****        -0.6173  -0.3642   2.8738 H              1 S1                 0.0000
     42 ****        -2.0543  -0.7761   3.7909 H              1 S1                 0.0000
     43 ****         6.9028   2.2503  -3.6903 H              1 S1                 0.0000
     44 ****        -1.3306   1.2850  -1.3455 LP             1 S1                 0.0000
     45 ****         0.1974   1.9298  -1.8449 LP             1 S1                 0.0000
     46 ****         1.3847   2.2533  -2.0742 LP             1 S1                 0.0000
     47 ****         3.0898   2.5130  -2.2333 LP             1 S1                 0.0000
@<TRIPOS>BOND
    1    1    2 1     
    2    1   21 1     
    3    1   22 1     
    4    1   23 1     
    5    2   19 1     
    6    2    3 1     
    7    2   24 1     
    8    3    4 1     
    9    3   25 1     
   10    3   26 1     
   11    4    5 1     
   12    4   27 1     
   13    4   28 1     
   14    5    6 1     
   15    5   29 1     
   16    5   30 1     
   17    6    7 1     
   18    6   19 1     
   19    6   31 1     
   20    7    8 1     
   21    7   32 1     
   22    8    9 2     
   23    8   10 1     
   24   10   11 1     
   25   10   33 1     
   26   11   12 2     
   27   11   13 1     
   28   13   14 1     
   29   13   34 1     
   30   13   35 1     
   31   14   18 1     
   32   14   15 1     
   33   15   16 2     
   34   15   36 1     
   35   16   17 1     
   36   16   37 1     
   37   17   18 2     
   38   17   43 1     
   39   18   38 1     
   40   19   20 1     
   41   19   39 1     
   42   20   40 1     
   43   20   41 1     
   44   20   42 1     
   45    9   44 1     
   46    9   45 1     
   47   12   46 1     
   48   12   47 1     
@<TRIPOS>SUBSTRUCTURE
      1 S1             1
@<TRIPOS>SET
LONE_PAIRS      STATIC     ATOMS    <user>   **** ""
4 44 45 46 47
DONOR_HYDROGENS      STATIC     ATOMS    <user>   **** ""
3 32 33 43
ATOM$BLUE        STATIC     ATOMS    COLORGROUP SYSTEM
4 44 45 46 47
ATOM$RED        STATIC     ATOMS    COLORGROUP SYSTEM
3 32 33 43
