#       Name:                AV-unprocessed.smi:2424
#       Creating user name   scv26
#       Creation time:       Fri Mar 27 13:19:35 2020


#       File generated by GOLD software.
#

@<TRIPOS>MOLECULE
AV-unprocessed.smi:2424
    56    57     1
SMALL
NO_CHARGES


@<TRIPOS>ATOM
      1 ****        -1.0947   0.0105   2.8926 C.3            1 S1                 0.0000
      2 ****        -1.2809  -1.1895   1.9485 C.3            1 S1                 0.0000
      3 ****        -2.2024  -0.9274   0.7334 C.3            1 S1                 0.0000
      4 ****        -3.6250  -0.5693   1.2418 C.3            1 S1                 0.0000
      5 ****        -4.2667  -1.5558   2.2356 C.3            1 S1                 0.0000
      6 ****        -1.6853   0.0598  -0.3566 C.3            1 S1                 0.0000
      7 ****        -0.2241   0.1644  -0.4172 N.am           1 S1                 0.0000
      8 ****         0.4789   1.2999  -0.3141 C.2            1 S1                 0.0000
      9 ****        -0.0385   2.4028  -0.1403 O.2            1 S1                 0.0000
     10 ****         1.7970   1.0546  -0.4318 N.am           1 S1                 0.0000
     11 ****         2.8761   1.9467  -0.3515 C.2            1 S1                 0.0000
     12 ****         2.7932   3.2465   0.0045 C.2            1 S1                 0.0000
     13 ****         3.9310   4.0555   0.0655 N.am           1 S1                 0.0000
     14 ****         5.1851   3.6317  -0.2124 C.2            1 S1                 0.0000
     15 ****         6.1369   4.4066  -0.1361 O.2            1 S1                 0.0000
     16 ****         5.3026   2.2163  -0.5982 C.2            1 S1                 0.0000
     17 ****         6.6830   1.6744  -0.9227 C.3            1 S1                 0.0000
     18 ****         4.1993   1.4362  -0.6574 C.2            1 S1                 0.0000
     19 ****        -2.2225  -0.8843  -1.4473 C.3            1 S1                 0.0000
     20 ****        -1.4899  -1.0274  -2.7798 C.3            1 S1                 0.0000
     21 ****        -2.1319  -1.9967  -0.3908 C.3            1 S1                 0.0000
     22 ****        -3.2229  -2.9043  -0.3910 O.3            1 S1                 0.0000
     23 ****        -3.1319  -3.8904  -1.4040 C.3            1 S1                 0.0000
     24 ****         3.7936   5.0185   0.3362 H              1 S1                 0.0000
     25 ****        -0.3601  -0.2199   3.6642 H              1 S1                 0.0000
     26 ****        -2.0217   0.2752   3.4003 H              1 S1                 0.0000
     27 ****        -0.7438   0.8928   2.3587 H              1 S1                 0.0000
     28 ****        -0.2933  -1.5002   1.6073 H              1 S1                 0.0000
     29 ****        -1.6358  -2.0453   2.5220 H              1 S1                 0.0000
     30 ****        -3.6205   0.4233   1.6927 H              1 S1                 0.0000
     31 ****        -4.3070  -0.4773   0.3967 H              1 S1                 0.0000
     32 ****        -5.3061  -1.2845   2.4207 H              1 S1                 0.0000
     33 ****        -3.7619  -1.5464   3.2011 H              1 S1                 0.0000
     34 ****        -4.2595  -2.5791   1.8632 H              1 S1                 0.0000
     35 ****        -2.2031   1.0207  -0.3488 H              1 S1                 0.0000
     36 ****         0.2844  -0.6965  -0.5548 H              1 S1                 0.0000
     37 ****         2.0571   0.0948  -0.6050 H              1 S1                 0.0000
     38 ****         1.8932   3.7754   0.2753 H              1 S1                 0.0000
     39 ****         6.6439   0.6180  -1.1901 H              1 S1                 0.0000
     40 ****         7.3456   1.7806  -0.0632 H              1 S1                 0.0000
     41 ****         7.1176   2.2186  -1.7619 H              1 S1                 0.0000
     42 ****         4.3038   0.3993  -0.9433 H              1 S1                 0.0000
     43 ****        -3.2705  -0.6393  -1.6274 H              1 S1                 0.0000
     44 ****        -0.4975  -1.4602  -2.6526 H              1 S1                 0.0000
     45 ****        -1.3688  -0.0595  -3.2665 H              1 S1                 0.0000
     46 ****        -2.0392  -1.6695  -3.4679 H              1 S1                 0.0000
     47 ****        -1.1656  -2.5063  -0.4035 H              1 S1                 0.0000
     48 ****        -3.9691  -4.5824  -1.3137 H              1 S1                 0.0000
     49 ****        -2.2097  -4.4659  -1.3146 H              1 S1                 0.0000
     50 ****        -3.1740  -3.4461  -2.3981 H              1 S1                 0.0000
     51 ****        -1.0327   2.4830  -0.0689 LP             1 S1                 0.0000
     52 ****         0.5353   3.2188  -0.0704 LP             1 S1                 0.0000
     53 ****         5.9868   5.3579   0.1331 LP             1 S1                 0.0000
     54 ****         7.0610   4.0854  -0.3432 LP             1 S1                 0.0000
     55 ****        -4.0669  -2.3858  -0.5278 LP             1 S1                 0.0000
     56 ****        -3.2539  -3.3634   0.4969 LP             1 S1                 0.0000
@<TRIPOS>BOND
    1    1    2 1     
    2    1   25 1     
    3    1   26 1     
    4    1   27 1     
    5    2    3 1     
    6    2   28 1     
    7    2   29 1     
    8    3   21 1     
    9    3    4 1     
   10    3    6 1     
   11    4    5 1     
   12    4   30 1     
   13    4   31 1     
   14    5   32 1     
   15    5   33 1     
   16    5   34 1     
   17    6    7 1     
   18    6   19 1     
   19    6   35 1     
   20    7    8 am    
   21    7   36 1     
   22    8    9 2     
   23    8   10 am    
   24   10   11 1     
   25   10   37 1     
   26   11   18 1     
   27   11   12 2     
   28   12   13 1     
   29   12   38 1     
   30   13   24 1     
   31   13   14 am    
   32   14   15 2     
   33   14   16 1     
   34   16   17 1     
   35   16   18 2     
   36   17   39 1     
   37   17   40 1     
   38   17   41 1     
   39   18   42 1     
   40   19   20 1     
   41   19   21 1     
   42   19   43 1     
   43   20   44 1     
   44   20   45 1     
   45   20   46 1     
   46   21   22 1     
   47   21   47 1     
   48   22   23 1     
   49   23   48 1     
   50   23   49 1     
   51   23   50 1     
   52    9   51 1     
   53    9   52 1     
   54   15   53 1     
   55   15   54 1     
   56   22   55 1     
   57   22   56 1     
@<TRIPOS>SUBSTRUCTURE
      1 S1             1
@<TRIPOS>SET
LONE_PAIRS      STATIC     ATOMS    <user>   **** ""
6 51 52 53 54 55 56
DONOR_HYDROGENS      STATIC     ATOMS    <user>   **** ""
3 36 37 24
ATOM$BLUE        STATIC     ATOMS    COLORGROUP SYSTEM
6 51 52 53 54 55 56
ATOM$RED        STATIC     ATOMS    COLORGROUP SYSTEM
3 36 37 24
