AV-unprocessed.smi:3225|AV-procd|sdf|12311|dock1
  -GOLD-   2272018153D 1   1.00000     0.00000
 Structure written by MMmdl.
 41 42  0  0  0  0  0  0  0  0  2 V2000
  146.1825  137.9595  150.8744 C   0  0  0  0  0  0  0  0  0  0  0  0
  145.8377  137.6842  152.3477 C   0  0  2  0  0  0  0  0  0  0  0  0
  144.4784  136.9643  152.5101 C   0  0  0  0  0  0  0  0  0  0  0  0
  144.4138  135.7038  151.7925 N   0  0  0  0  0  0  0  0  0  0  0  0
  144.5546  135.4761  150.4395 C   0  0  0  0  0  0  0  0  0  0  0  0
  144.4027  134.1345  150.2362 C   0  0  0  0  0  0  0  0  0  0  0  0
  144.1620  133.6193  151.5404 C   0  0  0  0  0  0  0  0  0  0  0  0
  144.1656  134.5619  152.4694 N   0  0  0  0  0  0  0  0  0  0  0  0
  145.8573  138.9575  153.1018 N   0  3  0  0  0  0  0  0  0  0  0  0
  147.0914  139.7578  152.9560 C   0  0  0  0  0  0  0  0  0  0  0  0
  147.4960  140.3915  154.2928 C   0  0  0  0  0  0  0  0  0  0  0  0
  148.7958  141.2063  154.1827 C   0  0  0  0  0  0  0  0  0  0  0  0
  149.5816  141.1415  155.4121 N   0  0  0  0  0  0  0  0  0  0  0  0
  149.0599  141.6837  156.6555 C   0  0  0  0  0  0  0  0  0  0  0  0
  150.2328  141.6096  157.6435 C   0  0  0  0  0  0  0  0  0  0  0  0
  151.2607  140.6737  156.9983 C   0  0  0  0  0  0  0  0  0  0  0  0
  150.7782  140.5614  155.5619 C   0  0  0  0  0  0  0  0  0  0  0  0
  151.4284  140.0029  154.6795 O   0  0  0  0  0  0  0  0  0  0  0  0
  146.2720  137.0352  150.3032 H   0  0  0  0  0  0  0  0  0  0  0  0
  147.1348  138.4838  150.7862 H   0  0  0  0  0  0  0  0  0  0  0  0
  145.4188  138.5735  150.3957 H   0  0  0  0  0  0  0  0  0  0  0  0
  146.6273  137.0471  152.7496 H   0  0  0  0  0  0  0  0  0  0  0  0
  144.2675  136.7569  153.5592 H   0  0  0  0  0  0  0  0  0  0  0  0
  143.6706  137.6040  152.1519 H   0  0  0  0  0  0  0  0  0  0  0  0
  144.7508  136.2770  149.7418 H   0  0  0  0  0  0  0  0  0  0  0  0
  144.4531  133.6017  149.2982 H   0  0  0  0  0  0  0  0  0  0  0  0
  143.9841  132.5963  151.8377 H   0  0  0  0  0  0  0  0  0  0  0  0
  145.0939  139.5253  152.7624 H   0  0  0  0  0  0  0  0  0  0  0  0
  147.9031  139.1289  152.5910 H   0  0  0  0  0  0  0  0  0  0  0  0
  146.9269  140.5376  152.2111 H   0  0  0  0  0  0  0  0  0  0  0  0
  146.6879  141.0331  154.6469 H   0  0  0  0  0  0  0  0  0  0  0  0
  147.6215  139.6090  155.0426 H   0  0  0  0  0  0  0  0  0  0  0  0
  149.3979  140.8355  153.3520 H   0  0  0  0  0  0  0  0  0  0  0  0
  148.5692  142.2492  153.9557 H   0  0  0  0  0  0  0  0  0  0  0  0
  148.7026  142.7062  156.5263 H   0  0  0  0  0  0  0  0  0  0  0  0
  148.2249  141.0687  156.9937 H   0  0  0  0  0  0  0  0  0  0  0  0
  150.6693  142.5997  157.7808 H   0  0  0  0  0  0  0  0  0  0  0  0
  149.9135  141.2538  158.6237 H   0  0  0  0  0  0  0  0  0  0  0  0
  152.2740  141.0730  157.0509 H   0  0  0  0  0  0  0  0  0  0  0  0
  151.2471  139.6874  157.4629 H   0  0  0  0  0  0  0  0  0  0  0  0
  145.6982  138.7613  154.0798 H   0  0  0  0  0  0  0  0  0  0  0  0
  1  2  1  0  0  0  0
  1 19  1  0  0  0  0
  1 20  1  0  0  0  0
  1 21  1  0  0  0  0
  2  3  1  0  0  0  0
  2  9  1  0  0  0  0
  2 22  1  0  0  0  0
  3  4  1  0  0  0  0
  3 23  1  0  0  0  0
  3 24  1  0  0  0  0
  4  8  1  0  0  0  0
  4  5  1  0  0  0  0
  5  6  2  0  0  0  0
  5 25  1  0  0  0  0
  6  7  1  0  0  0  0
  6 26  1  0  0  0  0
  7  8  2  0  0  0  0
  7 27  1  0  0  0  0
  9 10  1  0  0  0  0
  9 28  1  0  0  0  0
  9 41  1  0  0  0  0
 10 11  1  0  0  0  0
 10 29  1  0  0  0  0
 10 30  1  0  0  0  0
 11 12  1  0  0  0  0
 11 31  1  0  0  0  0
 11 32  1  0  0  0  0
 12 13  1  0  0  0  0
 12 33  1  0  0  0  0
 12 34  1  0  0  0  0
 13 17  1  0  0  0  0
 13 14  1  0  0  0  0
 14 15  1  0  0  0  0
 14 35  1  0  0  0  0
 14 36  1  0  0  0  0
 15 16  1  0  0  0  0
 15 37  1  0  0  0  0
 15 38  1  0  0  0  0
 16 17  1  0  0  0  0
 16 39  1  0  0  0  0
 16 40  1  0  0  0  0
 17 18  2  0  0  0  0
M  CHG  1   9   1
M  END
> <s_m_source_file>
AV-unprocessed.smi

> <i_m_source_file_index>
3225

> <i_lp_mmshare_version>
43012

> <i_f3d_flags>
0

> <s_epik_input>
bjFbY0hdW2NIXVtjSF1uMVtDSDJdW0NAQEhdKFtDSDNdKVtOSF1bQ0gyXVtDSDJdW0NIMl1OMltDSDJdW0NIMl1bQ0gyXUMyPU8=

> <s_epik_cmdline>
J2VwaWtfcHl0aG9uJywgJy1waCcsICc3LjAnLCAnLXRuJywgJzgnLCAnLW1hJywgJzIwMCcsICctbWV0YWxfYmluZGluZycsICctaW1hZScsICc8aW5maWxlLm1hZT4nLCAnLW9tYWUnLCAnPG91dGZpbGUubWFlPic=

> <r_lp_tautomer_probability>
1

> <r_epik_Ionization_Penalty>
0.00490443

> <r_epik_Ionization_Penalty_Charging>
0.00490019

> <r_epik_Ionization_Penalty_Neutral>
4.24076e-06

> <r_epik_State_Penalty>
0.00355741

> <r_epik_Charging_Adjusted_Penalty>
0.0084576

> <i_epik_Tot_Q>
1

> <i_epik_Tot_abs_Q>
1

> <r_epik_Metal_State_Penalty>
-0

> <b_epik_Metal_Only>
0

> <s_lp_Force_Field>
OPLS_2005

> <r_lp_Energy>
20.009

> <b_lp_Chiralities_Consistent>
1

> <s_lp_Variant>
AV-unprocessed.smi:3225-1

> <Gold.Version>
5.8.1

> <Gold.Id.Protein>
6NUR|6NUR_protein|mol2

> <Gold.PLP.Fitness>
45.0332

> <Gold.PLP.PLP>
-33.8661

> <Gold.PLP.part.hbond>
-1.9962

> <Gold.PLP.part.metal>
0.0000

> <Gold.PLP.part.buried>
1.0974

> <Gold.PLP.part.nonpolar>
-33.1837

> <Gold.PLP.part.repulsive>
0.1656

> <Gold.PLP.ligand.clash>
0.0000

> <Gold.PLP.ligand.torsion>
0.5467

> <Gold.PLP.Chemscore.Hbond>
3.0000

> <Gold.PLP.Chemscore.CHOScore>
1.0218

> <Gold.PLP.Chemscore.Metal>
0.0000

> <Gold.Chemscore.Hbonds>
donor molecule, donor type, donor heavy atom, donor atom, acceptor molecule, acceptor atom, score
      L1  H     9    28       P1 10175  2.00
      P1  H  7989  7998       L1    18  0.86
      L1  C     5    25       P1  7921  0.03
      L1  C     5    25       P1 10171  0.97

> <Gold.PLP.Chemscore.Internal.Correction>
0.1952

> <Gold.Rescore>
     Score         DG    S(hbond)    S(metal)    S(lipo)     H(rot)  DE(clash)    DE(int)     intcor
     13.14     -15.26       1.97        0.00      75.37       2.19       1.49       0.63       ----

> <Gold.Chemscore.Fitness>
13.1404

> <Gold.Chemscore.DG>
-15.2606

> <Gold.Chemscore.ZeroCoef>
-5.4800

> <Gold.Chemscore.Hbond>
1.9655

> <Gold.Chemscore.Metal>
0.0000

> <Gold.Chemscore.Lipo>
75.3683

> <Gold.Chemscore.Internal_Hbond>
0.0000

> <Gold.Chemscore.DEClash>
1.4854

> <Gold.Chemscore.DEInternal>
0.6348

> <Gold.Chemscore.Rot>
2.1884

> <Gold.Chemscore.Internal.Correction>
   9.000000E+99

> <Gold.Chemscore.Hbonds>
donor molecule, donor type, donor heavy atom, donor atom, acceptor molecule, acceptor atom, score
      L1  H     9    28       P1 10175  1.00
      P1  H  7989  7998       L1    18  0.71

> <Gold.Chemscore.Hbond.Weighted>
-6.5648

> <Gold.Chemscore.Metal.Weighted>
-0.0000

> <Gold.Chemscore.Lipo.Weighted>
-8.8181

> <Gold.Chemscore.Internal_Hbond.Weighted>
0.0000

> <Gold.Chemscore.DEClash.Weighted>
1.4854

> <Gold.Chemscore.DEInternal.Weighted>
0.6348

> <Gold.Chemscore.Rot.Weighted>
5.6023

> <Gold.Chemscore.Internal.Correction.Weighted>
   9.000000E+99

> <Gold.Protein.RotatedTorsions>
[ 6907 6896 6895 6894 ] final   85.08 input  -60.11 | X-H torsion
[ 7974 7965 7964 7962 ] final   72.84 input  175.53 | X-H torsion
[ 8008 7997 7996 7995 ] final   13.93 input   59.86 | X-H torsion
[ 10167 10162 10161 10158 ] final -111.50 input  -65.29 | X-H torsion
[ 10718 10713 10712 10709 ] final  -88.55 input   66.30 | X-H torsion
[ 10763 10752 10751 10750 ] final   93.34 input  -60.55 | X-H torsion
[ 11005 11000 10999 10996 ] final  -58.15 input  -57.11 | X-H torsion

> <Gold.Protein.ActiveResidues>
 VAL166  LYS551  ARG553  GLY616  TRP617  ASP618  TYR619  PRO620  LYS621  CYS622 
 ASP623  PHE694  ASN695  SER759  ASP760  ASP761  ALA762  ILE779  LEU786  VAL792 
 PHE793  MET794  SER795  GLU796  ALA797  LYS798  CYS799  TRP800  GLU811  SER814 

> <Gold.Protein.RotatedAtoms>
  152.5367  134.2641  159.8946 H   0  0  0  0  0  0  0  0  0  0  0  0  # atno 6907 bound_to 6896
  151.2600  133.4300  159.2623 H   0  0  0  0  0  0  0  0  0  0  0  0  # atno 6908 bound_to 6896
  151.0461  134.9655  159.8243 H   0  0  0  0  0  0  0  0  0  0  0  0  # atno 6909 bound_to 6896
  145.7484  139.2749  143.1445 H   0  0  0  0  0  0  0  0  0  0  0  0  # atno 7974 bound_to 7965
  154.8413  140.2915  155.5657 H   0  0  0  0  0  0  0  0  0  0  0  0  # atno 8008 bound_to 7997
  156.3012  140.2513  156.3287 H   0  0  0  0  0  0  0  0  0  0  0  0  # atno 8009 bound_to 7997
  154.9122  140.0388  157.1942 H   0  0  0  0  0  0  0  0  0  0  0  0  # atno 8010 bound_to 7997
  140.1329  143.4345  152.1615 H   0  0  0  0  0  0  0  0  0  0  0  0  # atno 10167 bound_to 10162
  155.9983  130.4840  150.5037 H   0  0  0  0  0  0  0  0  0  0  0  0  # atno 10718 bound_to 10713
  153.2292  135.4329  155.0576 H   0  0  0  0  0  0  0  0  0  0  0  0  # atno 10763 bound_to 10752
  154.8288  135.3375  154.6813 H   0  0  0  0  0  0  0  0  0  0  0  0  # atno 10764 bound_to 10752
  153.7241  135.7015  153.5061 H   0  0  0  0  0  0  0  0  0  0  0  0  # atno 10765 bound_to 10752
  141.1195  133.6611  156.4877 H   0  0  0  0  0  0  0  0  0  0  0  0  # atno 11005 bound_to 11000
  146.0380  140.8193  142.9843 LP  0  0  0  0  0  0  0  0  0  0  0  0  # atno 17320 bound_to 7965
  144.6855  140.2868  143.7284 LP  0  0  0  0  0  0  0  0  0  0  0  0  # atno 17321 bound_to 7965
  139.5511  144.7338  151.4434 LP  0  0  0  0  0  0  0  0  0  0  0  0  # atno 17342 bound_to 10162
  140.6806  143.8089  150.7117 LP  0  0  0  0  0  0  0  0  0  0  0  0  # atno 17343 bound_to 10162
  157.3018  131.0647  151.2063 LP  0  0  0  0  0  0  0  0  0  0  0  0  # atno 17370 bound_to 10713
  157.3039  130.6856  149.6179 LP  0  0  0  0  0  0  0  0  0  0  0  0  # atno 17371 bound_to 10713
  140.4549  134.6895  157.5057 LP  0  0  0  0  0  0  0  0  0  0  0  0  # atno 17394 bound_to 11000
  140.0141  134.6645  155.9336 LP  0  0  0  0  0  0  0  0  0  0  0  0  # atno 17395 bound_to 11000

$$$$
