#       Name:                AV-unprocessed.smi:1645
#       Creating user name   scv26
#       Creation time:       Fri Mar 27 07:30:59 2020


#       File generated by GOLD software.
#

@<TRIPOS>MOLECULE
AV-unprocessed.smi:1645
    59    62     1
SMALL
NO_CHARGES


@<TRIPOS>ATOM
      1 ****        -0.9060   1.7851   0.0293 O.2            1 S1                 0.0000
      2 ****        -1.2174   0.7581   0.6322 C.2            1 S1                 0.0000
      3 ****        -0.3586  -0.1836   1.0572 N.am           1 S1                 0.0000
      4 ****         1.0516  -0.2175   0.8936 C.ar           1 S1                 0.0000
      5 ****         1.7402   0.4095  -0.1700 C.ar           1 S1                 0.0000
      6 ****         3.1416   0.2920  -0.2373 C.ar           1 S1                 0.0000
      7 ****         3.8222  -0.4531   0.7537 C.ar           1 S1                 0.0000
      8 ****         5.2275  -0.5737   0.7069 N.3            1 S1                 0.0000
      9 ****         5.7708  -1.1064  -0.5439 C.3            1 S1                 0.0000
     10 ****         7.2764  -0.8126  -0.6638 C.3            1 S1                 0.0000
     11 ****         8.0380  -1.3107   0.5738 C.3            1 S1                 0.0000
     12 ****         7.4220  -0.7113   1.8466 C.3            1 S1                 0.0000
     13 ****         5.9153  -1.0103   1.9243 C.3            1 S1                 0.0000
     14 ****         3.1570  -1.0637   1.7648 N.ar           1 S1                 0.0000
     15 ****         1.8137  -0.9523   1.8230 C.ar           1 S1                 0.0000
     16 ****        -2.4803   0.4506   0.9620 N.am           1 S1                 0.0000
     17 ****        -3.6469   1.2927   0.7009 C.3            1 S1                 0.0000
     18 ****        -4.8000   1.0490   1.6927 C.3            1 S1                 0.0000
     19 ****        -6.0679   1.1270   0.8363 C.3            1 S1                 0.0000
     20 ****        -5.6266   0.5766  -0.4503 N.4            1 S1                 1.0000
     21 ****        -6.5187   0.7092  -1.6197 C.3            1 S1                 0.0000
     22 ****        -5.9192  -0.1073  -2.7849 C.3            1 S1                 0.0000
     23 ****        -4.4424   0.2585  -3.0587 C.3            1 S1                 0.0000
     24 ****        -3.5921   0.2281  -1.7699 C.3            1 S1                 0.0000
     25 ****        -4.2735   1.1023  -0.7018 C.3            1 S1                 0.0000
     26 ****        -0.7472  -0.9234   1.6236 H              1 S1                 0.0000
     27 ****         1.2232   0.9664  -0.9360 H              1 S1                 0.0000
     28 ****         3.6779   0.7817  -1.0362 H              1 S1                 0.0000
     29 ****         5.6015  -2.1837  -0.5636 H              1 S1                 0.0000
     30 ****         5.2587  -0.6957  -1.4130 H              1 S1                 0.0000
     31 ****         7.6771  -1.2800  -1.5634 H              1 S1                 0.0000
     32 ****         7.4294   0.2613  -0.7780 H              1 S1                 0.0000
     33 ****         7.9943  -2.3996   0.6206 H              1 S1                 0.0000
     34 ****         9.0921  -1.0416   0.5021 H              1 S1                 0.0000
     35 ****         7.9268  -1.1042   2.7296 H              1 S1                 0.0000
     36 ****         7.5798   0.3681   1.8543 H              1 S1                 0.0000
     37 ****         5.4961  -0.5044   2.7951 H              1 S1                 0.0000
     38 ****         5.7536  -2.0801   2.0628 H              1 S1                 0.0000
     39 ****         1.3332  -1.4612   2.6458 H              1 S1                 0.0000
     40 ****        -2.6429  -0.4140   1.4573 H              1 S1                 0.0000
     41 ****        -3.3462   2.3381   0.7976 H              1 S1                 0.0000
     42 ****        -4.7214   0.0507   2.1267 H              1 S1                 0.0000
     43 ****        -4.8070   1.7653   2.5149 H              1 S1                 0.0000
     44 ****        -6.8985   0.5618   1.2596 H              1 S1                 0.0000
     45 ****        -6.3821   2.1641   0.7067 H              1 S1                 0.0000
     46 ****        -7.5120   0.3349  -1.3699 H              1 S1                 0.0000
     47 ****        -6.6268   1.7596  -1.8936 H              1 S1                 0.0000
     48 ****        -5.9827  -1.1697  -2.5456 H              1 S1                 0.0000
     49 ****        -6.5136   0.0385  -3.6873 H              1 S1                 0.0000
     50 ****        -4.0202  -0.4183  -3.8021 H              1 S1                 0.0000
     51 ****        -4.3971   1.2574  -3.4945 H              1 S1                 0.0000
     52 ****        -3.4871  -0.7974  -1.4130 H              1 S1                 0.0000
     53 ****        -2.5889   0.5957  -1.9863 H              1 S1                 0.0000
     54 ****        -4.3860   2.1053  -1.1197 H              1 S1                 0.0000
     55 ****        -5.5125  -0.4141  -0.2908 H              1 S1                 0.0000
     56 ****         0.0541   1.9702  -0.1804 LP             1 S1                 0.0000
     57 ****        -1.6131   2.4344  -0.2509 LP             1 S1                 0.0000
     58 ****         5.4874   0.3918   0.6903 LP             1 S1                 0.0000
     59 ****         3.6539  -1.5881   2.4562 LP             1 S1                 0.0000
@<TRIPOS>BOND
    1    1    2 2     
    2    2    3 am    
    3    2   16 am    
    4    3    4 1     
    5    3   26 1     
    6    4   15 ar    
    7    4    5 ar    
    8    5    6 ar    
    9    5   27 1     
   10    6    7 ar    
   11    6   28 1     
   12    7    8 1     
   13    7   14 ar    
   14    8   13 1     
   15    8    9 1     
   16    9   10 1     
   17    9   29 1     
   18    9   30 1     
   19   10   11 1     
   20   10   31 1     
   21   10   32 1     
   22   11   12 1     
   23   11   33 1     
   24   11   34 1     
   25   12   13 1     
   26   12   35 1     
   27   12   36 1     
   28   13   37 1     
   29   13   38 1     
   30   14   15 ar    
   31   15   39 1     
   32   16   17 1     
   33   16   40 1     
   34   17   25 1     
   35   17   18 1     
   36   17   41 1     
   37   18   19 1     
   38   18   42 1     
   39   18   43 1     
   40   19   20 1     
   41   19   44 1     
   42   19   45 1     
   43   20   25 1     
   44   20   21 1     
   45   20   55 1     
   46   21   22 1     
   47   21   46 1     
   48   21   47 1     
   49   22   23 1     
   50   22   48 1     
   51   22   49 1     
   52   23   24 1     
   53   23   50 1     
   54   23   51 1     
   55   24   25 1     
   56   24   52 1     
   57   24   53 1     
   58   25   54 1     
   59    1   56 1     
   60    1   57 1     
   61    8   58 1     
   62   14   59 1     
@<TRIPOS>SUBSTRUCTURE
      1 S1             1
@<TRIPOS>SET
LONE_PAIRS      STATIC     ATOMS    <user>   **** ""
4 56 57 58 59
DONOR_HYDROGENS      STATIC     ATOMS    <user>   **** ""
3 26 40 55
ATOM$BLUE        STATIC     ATOMS    COLORGROUP SYSTEM
4 56 57 58 59
ATOM$RED        STATIC     ATOMS    COLORGROUP SYSTEM
3 26 40 55
