#       Name:                AV-unprocessed.smi:104
#       Creating user name   scv26
#       Creation time:       Thu Mar 26 17:59:24 2020


#       File generated by GOLD software.
#

@<TRIPOS>MOLECULE
AV-unprocessed.smi:104
    58    60     1
SMALL
NO_CHARGES


@<TRIPOS>ATOM
      1 ****        -4.1768   3.9579  -1.4477 C.3            1 S1                 0.0000
      2 ****        -3.6233   2.5891  -1.0744 C.2            1 S1                 0.0000
      3 ****        -3.8464   2.0886   0.0273 O.2            1 S1                 0.0000
      4 ****        -2.8987   2.0415  -2.0658 O.3            1 S1                 0.0000
      5 ****        -2.2792   0.7727  -1.9012 C.3            1 S1                 0.0000
      6 ****        -0.7863   0.9347  -1.5631 C.3            1 S1                 0.0000
      7 ****        -0.0629  -0.2515  -1.8411 O.3            1 S1                 0.0000
      8 ****         1.1817  -0.1300  -1.2330 C.3            1 S1                 0.0000
      9 ****         1.6690  -1.4948  -0.8772 N.pl3          1 S1                 0.0000
     10 ****         2.8895  -2.0800  -1.1268 C.2            1 S1                 0.0000
     11 ****         4.2910  -1.1707  -2.0416 Br             1 S1                 0.0000
     12 ****         3.0632  -3.2984  -0.6959 N.2            1 S1                 0.0000
     13 ****         1.8472  -3.5844  -0.0869 C.ar           1 S1                 0.0000
     14 ****         1.3265  -4.7138   0.5937 C.ar           1 S1                 0.0000
     15 ****         2.0256  -5.8417   0.7803 N.pl3          1 S1                 0.0000
     16 ****         0.0647  -4.6516   1.0803 N.ar           1 S1                 0.0000
     17 ****        -0.6543  -3.5376   0.9090 C.ar           1 S1                 0.0000
     18 ****        -0.3049  -2.4043   0.2950 N.ar           1 S1                 0.0000
     19 ****         0.9680  -2.4679  -0.1949 C.ar           1 S1                 0.0000
     20 ****         0.9962   0.7208   0.0339 C.3            1 S1                 0.0000
     21 ****         1.9162   1.8035   0.0603 O.3            1 S1                 0.0000
     22 ****         3.1471   1.6292   0.5722 C.2            1 S1                 0.0000
     23 ****         3.9866   2.8979   0.5101 C.3            1 S1                 0.0000
     24 ****         3.5963   0.5828   1.0404 O.2            1 S1                 0.0000
     25 ****        -0.4299   1.2501  -0.1047 C.3            1 S1                 0.0000
     26 ****        -1.2895   0.5667   0.8004 O.3            1 S1                 0.0000
     27 ****        -1.3616   0.9428   2.0887 C.2            1 S1                 0.0000
     28 ****        -2.3364   0.0874   2.8863 C.3            1 S1                 0.0000
     29 ****        -0.7304   1.8611   2.6120 O.2            1 S1                 0.0000
     30 ****        -3.4589   4.7366  -1.1904 H              1 S1                 0.0000
     31 ****        -5.1051   4.1516  -0.9102 H              1 S1                 0.0000
     32 ****        -4.3808   4.0133  -2.5173 H              1 S1                 0.0000
     33 ****        -2.7973   0.1411  -1.1785 H              1 S1                 0.0000
     34 ****        -2.3638   0.2613  -2.8601 H              1 S1                 0.0000
     35 ****        -0.3619   1.7093  -2.2051 H              1 S1                 0.0000
     36 ****         1.9052   0.2806  -1.9373 H              1 S1                 0.0000
     37 ****         2.9694  -5.9123   0.4279 H              1 S1                 0.0000
     38 ****         1.6093  -6.6171   1.2752 H              1 S1                 0.0000
     39 ****        -1.6517  -3.5558   1.3228 H              1 S1                 0.0000
     40 ****         1.0925   0.1025   0.9283 H              1 S1                 0.0000
     41 ****         4.2161   3.1476  -0.5258 H              1 S1                 0.0000
     42 ****         4.9247   2.7629   1.0488 H              1 S1                 0.0000
     43 ****         3.4480   3.7329   0.9584 H              1 S1                 0.0000
     44 ****        -0.4918   2.3253   0.0733 H              1 S1                 0.0000
     45 ****        -3.3520   0.2292   2.5166 H              1 S1                 0.0000
     46 ****        -2.3107   0.3595   3.9417 H              1 S1                 0.0000
     47 ****        -2.0772  -0.9674   2.7945 H              1 S1                 0.0000
     48 ****        -4.4008   2.5819   0.6977 LP             1 S1                 0.0000
     49 ****        -3.4735   1.1884   0.2524 LP             1 S1                 0.0000
     50 ****         0.0482  -0.3608  -2.8288 LP             1 S1                 0.0000
     51 ****        -0.5488  -1.0432  -1.4707 LP             1 S1                 0.0000
     52 ****         3.8706  -3.8820  -0.7822 LP             1 S1                 0.0000
     53 ****        -0.3270  -5.4339   1.5648 LP             1 S1                 0.0000
     54 ****        -0.9021  -1.6072   0.2051 LP             1 S1                 0.0000
     55 ****         3.0278  -0.2397   1.0626 LP             1 S1                 0.0000
     56 ****         4.5295   0.5553   1.3986 LP             1 S1                 0.0000
     57 ****        -0.0932   2.4047   2.0657 LP             1 S1                 0.0000
     58 ****        -0.8549   2.0634   3.5834 LP             1 S1                 0.0000
@<TRIPOS>BOND
    1    1    2 1     
    2    1   30 1     
    3    1   31 1     
    4    1   32 1     
    5    2    3 2     
    6    2    4 1     
    7    4    5 1     
    8    5    6 1     
    9    5   33 1     
   10    5   34 1     
   11    6   25 1     
   12    6    7 1     
   13    6   35 1     
   14    7    8 1     
   15    8    9 1     
   16    8   20 1     
   17    8   36 1     
   18    9   19 1     
   19    9   10 1     
   20   10   11 1     
   21   10   12 2     
   22   12   13 1     
   23   13   19 ar    
   24   13   14 ar    
   25   14   15 1     
   26   14   16 ar    
   27   15   37 1     
   28   15   38 1     
   29   16   17 ar    
   30   17   18 ar    
   31   17   39 1     
   32   18   19 ar    
   33   20   21 1     
   34   20   25 1     
   35   20   40 1     
   36   21   22 1     
   37   22   23 1     
   38   22   24 2     
   39   23   41 1     
   40   23   42 1     
   41   23   43 1     
   42   25   26 1     
   43   25   44 1     
   44   26   27 1     
   45   27   28 1     
   46   27   29 2     
   47   28   45 1     
   48   28   46 1     
   49   28   47 1     
   50    3   48 1     
   51    3   49 1     
   52    7   50 1     
   53    7   51 1     
   54   12   52 1     
   55   16   53 1     
   56   18   54 1     
   57   24   55 1     
   58   24   56 1     
   59   29   57 1     
   60   29   58 1     
@<TRIPOS>SUBSTRUCTURE
      1 S1             1
@<TRIPOS>SET
LONE_PAIRS      STATIC     ATOMS    <user>   **** ""
11 48 49 50 51 52 53 54 55 56 57 58
DONOR_HYDROGENS      STATIC     ATOMS    <user>   **** ""
2 37 38
ATOM$BLUE        STATIC     ATOMS    COLORGROUP SYSTEM
11 48 49 50 51 52 53 54 55 56 57 58
ATOM$RED        STATIC     ATOMS    COLORGROUP SYSTEM
2 37 38
