AV-unprocessed.smi:2103|AV-procd|sdf|8582|dock6
  -GOLD-   2272011313D 1   1.00000     0.00000
 Structure written by MMmdl.
 38 39  0  0  0  0  0  0  0  0  1 V2000
  146.1823  141.6127  157.4202 C   0  0  0  0  0  0  0  0  0  0  0  0
  147.0752  141.4519  156.2916 N   0  0  0  0  0  0  0  0  0  0  0  0
  146.7416  142.0607  155.0572 C   0  0  0  0  0  0  0  0  0  0  0  0
  145.7154  142.7224  154.8983 O   0  0  0  0  0  0  0  0  0  0  0  0
  147.7099  141.8317  153.9914 C   0  0  0  0  0  0  0  0  0  0  0  0
  148.8170  141.0880  154.2067 C   0  0  0  0  0  0  0  0  0  0  0  0
  149.1136  140.4954  155.4204 N   0  0  0  0  0  0  0  0  0  0  0  0
  150.3441  139.7055  155.5606 C   0  0  0  0  0  0  0  0  0  0  0  0
  151.4192  140.3862  156.4201 C   0  0  0  0  0  0  0  0  0  0  0  0
  152.5336  139.8815  156.5658 O   0  0  0  0  0  0  0  0  0  0  0  0
  151.0562  141.5428  156.9947 N   0  0  0  0  0  0  0  0  0  0  0  0
  151.9073  142.3714  157.8433 C   0  0  0  0  0  0  0  0  0  0  0  0
  152.0016  141.7871  159.2692 C   0  0  0  0  0  0  0  0  0  0  0  0
  152.8270  142.6948  160.1956 C   0  0  0  0  0  0  0  0  0  0  0  0
  152.2650  144.1246  160.2230 C   0  0  0  0  0  0  0  0  0  0  0  0
  152.1778  144.7125  158.8061 C   0  0  0  0  0  0  0  0  0  0  0  0
  151.3505  143.8077  157.8787 C   0  0  0  0  0  0  0  0  0  0  0  0
  148.2286  140.6658  156.5066 C   0  0  0  0  0  0  0  0  0  0  0  0
  148.4633  140.1418  157.5985 O   0  0  0  0  0  0  0  0  0  0  0  0
  145.4165  142.3599  157.2141 H   0  0  0  0  0  0  0  0  0  0  0  0
  146.7798  141.9450  158.2713 H   0  0  0  0  0  0  0  0  0  0  0  0
  145.7276  140.6388  157.6077 H   0  0  0  0  0  0  0  0  0  0  0  0
  147.5379  142.2638  153.0165 H   0  0  0  0  0  0  0  0  0  0  0  0
  149.5052  140.9511  153.3850 H   0  0  0  0  0  0  0  0  0  0  0  0
  150.1164  138.7252  155.9830 H   0  0  0  0  0  0  0  0  0  0  0  0
  150.7679  139.5080  154.5748 H   0  0  0  0  0  0  0  0  0  0  0  0
  150.1199  141.8801  156.8246 H   0  0  0  0  0  0  0  0  0  0  0  0
  152.9083  142.4058  157.4085 H   0  0  0  0  0  0  0  0  0  0  0  0
  151.0005  141.6614  159.6841 H   0  0  0  0  0  0  0  0  0  0  0  0
  152.4511  140.7939  159.2432 H   0  0  0  0  0  0  0  0  0  0  0  0
  152.8408  142.2814  161.2044 H   0  0  0  0  0  0  0  0  0  0  0  0
  153.8633  142.7157  159.8558 H   0  0  0  0  0  0  0  0  0  0  0  0
  151.2737  144.1192  160.6781 H   0  0  0  0  0  0  0  0  0  0  0  0
  152.8907  144.7587  160.8516 H   0  0  0  0  0  0  0  0  0  0  0  0
  151.7360  145.7086  158.8445 H   0  0  0  0  0  0  0  0  0  0  0  0
  153.1817  144.8345  158.3973 H   0  0  0  0  0  0  0  0  0  0  0  0
  151.3367  144.2292  156.8728 H   0  0  0  0  0  0  0  0  0  0  0  0
  150.3149  143.7938  158.2217 H   0  0  0  0  0  0  0  0  0  0  0  0
  1  2  1  0  0  0  0
  1 20  1  0  0  0  0
  1 21  1  0  0  0  0
  1 22  1  0  0  0  0
  2 18  1  0  0  0  0
  2  3  1  0  0  0  0
  3  4  2  0  0  0  0
  3  5  1  0  0  0  0
  5  6  2  0  0  0  0
  5 23  1  0  0  0  0
  6  7  1  0  0  0  0
  6 24  1  0  0  0  0
  7  8  1  0  0  0  0
  7 18  1  0  0  0  0
  8  9  1  0  0  0  0
  8 25  1  0  0  0  0
  8 26  1  0  0  0  0
  9 10  2  0  0  0  0
  9 11  1  0  0  0  0
 11 12  1  0  0  0  0
 11 27  1  0  0  0  0
 12 17  1  0  0  0  0
 12 13  1  0  0  0  0
 12 28  1  0  0  0  0
 13 14  1  0  0  0  0
 13 29  1  0  0  0  0
 13 30  1  0  0  0  0
 14 15  1  0  0  0  0
 14 31  1  0  0  0  0
 14 32  1  0  0  0  0
 15 16  1  0  0  0  0
 15 33  1  0  0  0  0
 15 34  1  0  0  0  0
 16 17  1  0  0  0  0
 16 35  1  0  0  0  0
 16 36  1  0  0  0  0
 17 37  1  0  0  0  0
 17 38  1  0  0  0  0
 18 19  2  0  0  0  0
M  END
> <s_m_source_file>
AV-unprocessed.smi

> <i_m_source_file_index>
2103

> <i_lp_mmshare_version>
43012

> <i_f3d_flags>
0

> <s_epik_input>
W0NIM11uMWMoPU8pW2NIXVtjSF1uKGMxPU8pW0NIMl1DKD1PKVtOSF1bQ0hdMltDSDJdW0NIMl1bQ0gyXVtDSDJdW0NIMl0y

> <s_epik_cmdline>
J2VwaWtfcHl0aG9uJywgJy1waCcsICc3LjAnLCAnLXRuJywgJzgnLCAnLW1hJywgJzIwMCcsICctbWV0YWxfYmluZGluZycsICctaW1hZScsICc8aW5maWxlLm1hZT4nLCAnLW9tYWUnLCAnPG91dGZpbGUubWFlPic=

> <r_lp_tautomer_probability>
1

> <r_epik_Ionization_Penalty>
3.18221e-08

> <r_epik_Ionization_Penalty_Charging>
1.27752e-08

> <r_epik_Ionization_Penalty_Neutral>
1.90469e-08

> <r_epik_State_Penalty>
-0

> <r_epik_Charging_Adjusted_Penalty>
1.27752e-08

> <i_epik_Tot_Q>
0

> <i_epik_Tot_abs_Q>
0

> <r_epik_Metal_State_Penalty>
-0

> <b_epik_Metal_Only>
0

> <s_lp_Force_Field>
OPLS_2005

> <r_lp_Energy>
16.4869

> <b_lp_Chiralities_Consistent>
1

> <s_lp_Variant>
AV-unprocessed.smi:2103-1

> <Gold.Version>
5.8.1

> <Gold.Id.Protein>
6NUR|6NUR_protein|mol2

> <Gold.PLP.Fitness>
42.7420

> <Gold.PLP.PLP>
-37.5545

> <Gold.PLP.part.hbond>
-1.0000

> <Gold.PLP.part.metal>
0.0000

> <Gold.PLP.part.buried>
-4.4769

> <Gold.PLP.part.nonpolar>
-31.8118

> <Gold.PLP.part.repulsive>
0.2770

> <Gold.PLP.ligand.clash>
0.0000

> <Gold.PLP.ligand.torsion>
0.4087

> <Gold.PLP.Chemscore.Hbond>
1.0000

> <Gold.PLP.Chemscore.CHOScore>
1.0000

> <Gold.PLP.Chemscore.Metal>
0.0000

> <Gold.Chemscore.Hbonds>
donor molecule, donor type, donor heavy atom, donor atom, acceptor molecule, acceptor atom, score
      P1  H  7997  8008       L1    10  1.00
      L1  C     6    24       P1  7957  1.00

> <Gold.PLP.Chemscore.Internal.Correction>
0.0050

> <Gold.Rescore>
     Score         DG    S(hbond)    S(metal)    S(lipo)     H(rot)  DE(clash)    DE(int)     intcor
     14.77     -15.31       1.00        0.00      89.20       1.54       0.10       0.43       ----

> <Gold.Chemscore.Fitness>
14.7748

> <Gold.Chemscore.DG>
-15.3078

> <Gold.Chemscore.ZeroCoef>
-5.4800

> <Gold.Chemscore.Hbond>
0.9969

> <Gold.Chemscore.Metal>
0.0000

> <Gold.Chemscore.Lipo>
89.1966

> <Gold.Chemscore.Internal_Hbond>
0.0000

> <Gold.Chemscore.DEClash>
0.0998

> <Gold.Chemscore.DEInternal>
0.4332

> <Gold.Chemscore.Rot>
1.5383

> <Gold.Chemscore.Internal.Correction>
   9.000000E+99

> <Gold.Chemscore.Hbonds>
donor molecule, donor type, donor heavy atom, donor atom, acceptor molecule, acceptor atom, score
      P1  H  7997  8008       L1    10  1.00

> <Gold.Chemscore.Hbond.Weighted>
-3.3298

> <Gold.Chemscore.Metal.Weighted>
-0.0000

> <Gold.Chemscore.Lipo.Weighted>
-10.4360

> <Gold.Chemscore.Internal_Hbond.Weighted>
0.0000

> <Gold.Chemscore.DEClash.Weighted>
0.0998

> <Gold.Chemscore.DEInternal.Weighted>
0.4332

> <Gold.Chemscore.Rot.Weighted>
3.9380

> <Gold.Chemscore.Internal.Correction.Weighted>
   9.000000E+99

> <Gold.Protein.RotatedTorsions>
[ 6907 6896 6895 6894 ] final   -7.67 input  -60.11 | X-H torsion
[ 7974 7965 7964 7962 ] final  -36.90 input  175.53 | X-H torsion
[ 8008 7997 7996 7995 ] final  -57.56 input   59.86 | X-H torsion
[ 10167 10162 10161 10158 ] final  172.99 input  -65.29 | X-H torsion
[ 10718 10713 10712 10709 ] final   -5.44 input   66.30 | X-H torsion
[ 10763 10752 10751 10750 ] final  -72.52 input  -60.55 | X-H torsion
[ 11005 11000 10999 10996 ] final   91.47 input  -57.11 | X-H torsion

> <Gold.Protein.ActiveResidues>
 VAL166  LYS551  ARG553  GLY616  TRP617  ASP618  TYR619  PRO620  LYS621  CYS622 
 ASP623  PHE694  ASN695  SER759  ASP760  ASP761  ALA762  ILE779  LEU786  VAL792 
 PHE793  MET794  SER795  GLU796  ALA797  LYS798  CYS799  TRP800  GLU811  SER814 

> <Gold.Protein.RotatedAtoms>
  151.4459  135.1025  159.9683 H   0  0  0  0  0  0  0  0  0  0  0  0  # atno 6907 bound_to 6896
  152.4906  133.8485  159.7200 H   0  0  0  0  0  0  0  0  0  0  0  0  # atno 6908 bound_to 6896
  150.9056  133.7003  159.2895 H   0  0  0  0  0  0  0  0  0  0  0  0  # atno 6909 bound_to 6896
  146.0622  140.6333  142.8992 H   0  0  0  0  0  0  0  0  0  0  0  0  # atno 7974 bound_to 7965
  154.4273  140.1104  156.5817 H   0  0  0  0  0  0  0  0  0  0  0  0  # atno 8008 bound_to 7997
  155.6105  140.3494  155.4602 H   0  0  0  0  0  0  0  0  0  0  0  0  # atno 8009 bound_to 7997
  156.0103  140.1218  157.0450 H   0  0  0  0  0  0  0  0  0  0  0  0  # atno 8010 bound_to 7997
  139.5094  144.3311  152.0110 H   0  0  0  0  0  0  0  0  0  0  0  0  # atno 10167 bound_to 10162
  156.7465  130.5226  149.5813 H   0  0  0  0  0  0  0  0  0  0  0  0  # atno 10718 bound_to 10713
  154.4468  135.5927  153.6165 H   0  0  0  0  0  0  0  0  0  0  0  0  # atno 10763 bound_to 10752
  152.9810  135.6011  154.3654 H   0  0  0  0  0  0  0  0  0  0  0  0  # atno 10764 bound_to 10752
  154.3511  135.2841  155.2350 H   0  0  0  0  0  0  0  0  0  0  0  0  # atno 10765 bound_to 10752
  139.8838  134.8676  156.3433 H   0  0  0  0  0  0  0  0  0  0  0  0  # atno 11005 bound_to 11000
  144.7181  140.4281  143.7029 LP  0  0  0  0  0  0  0  0  0  0  0  0  # atno 17320 bound_to 7965
  145.6541  139.1570  143.2845 LP  0  0  0  0  0  0  0  0  0  0  0  0  # atno 17321 bound_to 7965
  140.2751  144.3921  150.6138 LP  0  0  0  0  0  0  0  0  0  0  0  0  # atno 17342 bound_to 10162
  140.6060  143.2168  151.6981 LP  0  0  0  0  0  0  0  0  0  0  0  0  # atno 17343 bound_to 10162
  156.1430  130.6257  151.0492 LP  0  0  0  0  0  0  0  0  0  0  0  0  # atno 17370 bound_to 10713
  157.6796  131.0841  150.7405 LP  0  0  0  0  0  0  0  0  0  0  0  0  # atno 17371 bound_to 10713
  140.9644  133.7368  156.0446 LP  0  0  0  0  0  0  0  0  0  0  0  0  # atno 17394 bound_to 11000
  140.7949  134.3575  157.5455 LP  0  0  0  0  0  0  0  0  0  0  0  0  # atno 17395 bound_to 11000

$$$$
