AV-unprocessed.smi:3279|AV-procd|sdf|12549|dock9
  -GOLD-   2272018463D 1   1.00000     0.00000
 Structure written by MMmdl.
 35 35  0  0  0  0  0  0  0  0  2 V2000
  150.0555  138.6007  154.6339 C   0  0  0  0  0  0  0  0  0  0  0  0
  151.3297  137.8757  155.0949 C   0  0  1  0  0  0  0  0  0  0  0  0
  152.3865  138.8433  155.6703 C   0  0  0  0  0  0  0  0  0  0  0  0
  151.7916  139.8100  156.5912 N   0  0  0  0  0  0  0  0  0  0  0  0
  152.2301  140.0875  157.8291 C   0  0  0  0  0  0  0  0  0  0  0  0
  153.1575  139.4887  158.3749 O   0  0  0  0  0  0  0  0  0  0  0  0
  151.5114  141.2218  158.5584 C   0  0  0  0  0  0  0  0  0  0  0  0
  151.9732  142.4642  158.0359 O   0  0  0  0  0  0  0  0  0  0  0  0
  151.9660  143.6064  158.8952 C   0  0  0  0  0  0  0  0  0  0  0  0
  150.5297  144.1000  159.1608 C   0  0  0  0  0  0  0  0  0  0  0  0
  152.7383  144.6769  158.1076 C   0  0  0  0  0  0  0  0  0  0  0  0
  152.7047  143.3025  160.2135 C   0  0  0  0  0  0  0  0  0  0  0  0
  151.0127  136.7392  156.0281 C   0  0  0  0  0  0  0  0  0  0  0  0
  150.4308  136.9197  157.2237 N   0  0  0  0  0  0  0  0  0  0  0  0
  150.2990  135.6744  157.6998 N   0  0  0  0  0  0  0  0  0  0  0  0
  150.7866  134.7976  156.8142 N   0  0  0  0  0  0  0  0  0  0  0  0
  151.2485  135.4492  155.7388 N   0  5  0  0  0  0  0  0  0  0  0  0
  149.3618  137.9077  154.1568 H   0  0  0  0  0  0  0  0  0  0  0  0
  150.2887  139.3841  153.9126 H   0  0  0  0  0  0  0  0  0  0  0  0
  149.5372  139.0665  155.4727 H   0  0  0  0  0  0  0  0  0  0  0  0
  151.7729  137.4709  154.1833 H   0  0  0  0  0  0  0  0  0  0  0  0
  153.1477  138.2814  156.2120 H   0  0  0  0  0  0  0  0  0  0  0  0
  152.9059  139.3479  154.8540 H   0  0  0  0  0  0  0  0  0  0  0  0
  151.0247  140.3602  156.2329 H   0  0  0  0  0  0  0  0  0  0  0  0
  150.4360  141.1139  158.4150 H   0  0  0  0  0  0  0  0  0  0  0  0
  151.7241  141.1306  159.6230 H   0  0  0  0  0  0  0  0  0  0  0  0
  150.5354  145.0534  159.6898 H   0  0  0  0  0  0  0  0  0  0  0  0
  149.9630  143.4006  159.7754 H   0  0  0  0  0  0  0  0  0  0  0  0
  149.9836  144.2434  158.2278 H   0  0  0  0  0  0  0  0  0  0  0  0
  152.2489  144.8969  157.1580 H   0  0  0  0  0  0  0  0  0  0  0  0
  153.7532  144.3469  157.8834 H   0  0  0  0  0  0  0  0  0  0  0  0
  152.8098  145.6103  158.6669 H   0  0  0  0  0  0  0  0  0  0  0  0
  152.8347  144.2086  160.8061 H   0  0  0  0  0  0  0  0  0  0  0  0
  153.6951  142.8879  160.0237 H   0  0  0  0  0  0  0  0  0  0  0  0
  152.1593  142.5928  160.8352 H   0  0  0  0  0  0  0  0  0  0  0  0
  1  2  1  0  0  0  0
  1 18  1  0  0  0  0
  1 19  1  0  0  0  0
  1 20  1  0  0  0  0
  2  3  1  0  0  0  0
  2 13  1  0  0  0  0
  2 21  1  0  0  0  0
  3  4  1  0  0  0  0
  3 22  1  0  0  0  0
  3 23  1  0  0  0  0
  4  5  1  0  0  0  0
  4 24  1  0  0  0  0
  5  6  2  0  0  0  0
  5  7  1  0  0  0  0
  7  8  1  0  0  0  0
  7 25  1  0  0  0  0
  7 26  1  0  0  0  0
  8  9  1  0  0  0  0
  9 10  1  0  0  0  0
  9 11  1  0  0  0  0
  9 12  1  0  0  0  0
 10 27  1  0  0  0  0
 10 28  1  0  0  0  0
 10 29  1  0  0  0  0
 11 30  1  0  0  0  0
 11 31  1  0  0  0  0
 11 32  1  0  0  0  0
 12 33  1  0  0  0  0
 12 34  1  0  0  0  0
 12 35  1  0  0  0  0
 13 17  1  0  0  0  0
 13 14  2  0  0  0  0
 14 15  1  0  0  0  0
 15 16  2  0  0  0  0
 16 17  1  0  0  0  0
M  CHG  1  17  -1
M  END
> <s_m_source_file>
AV-unprocessed.smi

> <i_m_source_file_index>
3279

> <i_lp_mmshare_version>
43012

> <i_f3d_flags>
0

> <s_epik_input>
W25IXTFubm5jMVtDQEhdKFtDSDNdKVtDSDJdW05IXUMoPU8pW0NIMl1PQyhbQ0gzXSkoW0NIM10pW0NIM10=

> <s_epik_cmdline>
J2VwaWtfcHl0aG9uJywgJy1waCcsICc3LjAnLCAnLXRuJywgJzgnLCAnLW1hJywgJzIwMCcsICctbWV0YWxfYmluZGluZycsICctaW1hZScsICc8aW5maWxlLm1hZT4nLCAnLW9tYWUnLCAnPG91dGZpbGUubWFlPic=

> <r_epik_Ionization_Penalty>
0.054353

> <r_epik_Ionization_Penalty_Charging>
0.054353

> <r_epik_Ionization_Penalty_Neutral>
3.0997e-08

> <r_epik_State_Penalty>
0.0139445

> <r_epik_Charging_Adjusted_Penalty>
0.0682975

> <i_epik_Tot_Q>
-1

> <i_epik_Tot_abs_Q>
1

> <r_epik_Metal_State_Penalty>
0.0109703

> <b_epik_Metal_Only>
0

> <s_lp_Force_Field>
OPLS_2005

> <r_lp_Energy>
1.27922

> <b_lp_Chiralities_Consistent>
1

> <s_lp_Variant>
AV-unprocessed.smi:3279-2

> <Gold.Version>
5.8.1

> <Gold.Id.Protein>
6NUR|6NUR_protein|mol2

> <Gold.PLP.Fitness>
40.1595

> <Gold.PLP.PLP>
-30.5613

> <Gold.PLP.part.hbond>
-3.6518

> <Gold.PLP.part.metal>
0.0000

> <Gold.PLP.part.buried>
-3.8911

> <Gold.PLP.part.nonpolar>
-23.8137

> <Gold.PLP.part.repulsive>
0.1975

> <Gold.PLP.ligand.clash>
0.0000

> <Gold.PLP.ligand.torsion>
0.7131

> <Gold.PLP.Chemscore.Hbond>
3.6396

> <Gold.PLP.Chemscore.CHOScore>
0.0000

> <Gold.PLP.Chemscore.Metal>
0.0000

> <Gold.Chemscore.Hbonds>
donor molecule, donor type, donor heavy atom, donor atom, acceptor molecule, acceptor atom, score
      P1  H  6896  6907       L1    15  0.46
      P1  H  7997  8009       L1     6  0.91
      P1  H 10752 10763       L1    17  2.00

> <Gold.PLP.Chemscore.Internal.Correction>
0.1056

> <Gold.Rescore>
     Score         DG    S(hbond)    S(metal)    S(lipo)     H(rot)  DE(clash)    DE(int)     intcor
     14.10     -14.99       2.33        0.00      72.43       2.64       0.01       0.87       ----

> <Gold.Chemscore.Fitness>
14.1034

> <Gold.Chemscore.DG>
-14.9874

> <Gold.Chemscore.ZeroCoef>
-5.4800

> <Gold.Chemscore.Hbond>
2.3333

> <Gold.Chemscore.Metal>
0.0000

> <Gold.Chemscore.Lipo>
72.4347

> <Gold.Chemscore.Internal_Hbond>
0.0000

> <Gold.Chemscore.DEClash>
0.0142

> <Gold.Chemscore.DEInternal>
0.8697

> <Gold.Chemscore.Rot>
2.6409

> <Gold.Chemscore.Internal.Correction>
   9.000000E+99

> <Gold.Chemscore.Hbonds>
donor molecule, donor type, donor heavy atom, donor atom, acceptor molecule, acceptor atom, score
      P1  H  6896  6907       L1    15  0.12
      P1  H  7997  8009       L1     6  0.20
      P1  H 10752 10763       L1    17  0.39

> <Gold.Chemscore.Hbond.Weighted>
-7.7932

> <Gold.Chemscore.Metal.Weighted>
-0.0000

> <Gold.Chemscore.Lipo.Weighted>
-8.4749

> <Gold.Chemscore.Internal_Hbond.Weighted>
0.0000

> <Gold.Chemscore.DEClash.Weighted>
0.0142

> <Gold.Chemscore.DEInternal.Weighted>
0.8697

> <Gold.Chemscore.Rot.Weighted>
6.7607

> <Gold.Chemscore.Internal.Correction.Weighted>
   9.000000E+99

> <Gold.Protein.RotatedTorsions>
[ 6907 6896 6895 6894 ] final  -66.98 input  -60.11 | X-H torsion
[ 7974 7965 7964 7962 ] final -131.64 input  175.53 | X-H torsion
[ 8008 7997 7996 7995 ] final  147.15 input   59.86 | X-H torsion
[ 10167 10162 10161 10158 ] final  -89.91 input  -65.29 | X-H torsion
[ 10718 10713 10712 10709 ] final  -26.78 input   66.30 | X-H torsion
[ 10763 10752 10751 10750 ] final   72.63 input  -60.55 | X-H torsion
[ 11005 11000 10999 10996 ] final -141.01 input  -57.11 | X-H torsion

> <Gold.Protein.ActiveResidues>
 VAL166  LYS551  ARG553  GLY616  TRP617  ASP618  TYR619  PRO620  LYS621  CYS622 
 ASP623  PHE694  ASN695  SER759  ASP760  ASP761  ALA762  ILE779  LEU786  VAL792 
 PHE793  MET794  SER795  GLU796  ALA797  LYS798  CYS799  TRP800  GLU811  SER814 

> <Gold.Protein.RotatedAtoms>
  150.7435  134.5945  159.6004 H   0  0  0  0  0  0  0  0  0  0  0  0  # atno 6907 bound_to 6896
  152.3324  134.7239  160.0295 H   0  0  0  0  0  0  0  0  0  0  0  0  # atno 6908 bound_to 6896
  151.7719  133.3306  159.3483 H   0  0  0  0  0  0  0  0  0  0  0  0  # atno 6909 bound_to 6896
  144.9360  140.7184  143.4876 H   0  0  0  0  0  0  0  0  0  0  0  0  # atno 7974 bound_to 7965
  156.2833  140.2163  156.5492 H   0  0  0  0  0  0  0  0  0  0  0  0  # atno 8008 bound_to 7997
  154.7305  140.0496  157.0745 H   0  0  0  0  0  0  0  0  0  0  0  0  # atno 8009 bound_to 7997
  155.0359  140.3140  155.4745 H   0  0  0  0  0  0  0  0  0  0  0  0  # atno 8010 bound_to 7997
  140.3601  143.2846  151.9624 H   0  0  0  0  0  0  0  0  0  0  0  0  # atno 10167 bound_to 10162
  156.4467  130.4475  149.7017 H   0  0  0  0  0  0  0  0  0  0  0  0  # atno 10718 bound_to 10713
  153.0471  135.5093  154.7772 H   0  0  0  0  0  0  0  0  0  0  0  0  # atno 10763 bound_to 10752
  154.6664  135.2946  154.9802 H   0  0  0  0  0  0  0  0  0  0  0  0  # atno 10764 bound_to 10752
  154.0635  135.6687  153.4867 H   0  0  0  0  0  0  0  0  0  0  0  0  # atno 10765 bound_to 10752
  140.8366  134.2452  157.4831 H   0  0  0  0  0  0  0  0  0  0  0  0  # atno 11005 bound_to 11000
  145.3065  139.1832  143.4661 LP  0  0  0  0  0  0  0  0  0  0  0  0  # atno 17320 bound_to 7965
  146.3267  140.3064  142.8624 LP  0  0  0  0  0  0  0  0  0  0  0  0  # atno 17321 bound_to 7965
  139.4815  144.6000  151.7622 LP  0  0  0  0  0  0  0  0  0  0  0  0  # atno 17342 bound_to 10162
  140.5135  144.0988  150.6002 LP  0  0  0  0  0  0  0  0  0  0  0  0  # atno 17343 bound_to 10162
  156.3860  130.7603  151.2600 LP  0  0  0  0  0  0  0  0  0  0  0  0  # atno 17370 bound_to 10713
  157.7504  131.0282  150.4038 LP  0  0  0  0  0  0  0  0  0  0  0  0  # atno 17371 bound_to 10713
  139.8704  134.9614  156.4395 LP  0  0  0  0  0  0  0  0  0  0  0  0  # atno 17394 bound_to 11000
  140.8940  133.7827  155.9604 LP  0  0  0  0  0  0  0  0  0  0  0  0  # atno 17395 bound_to 11000

$$$$
