#       Name:                AV-unprocessed.smi:3200
#       Creating user name   scv26
#       Creation time:       Fri Mar 27 18:07:01 2020


#       File generated by GOLD software.
#

@<TRIPOS>MOLECULE
AV-unprocessed.smi:3200
    42    43     1
SMALL
NO_CHARGES


@<TRIPOS>ATOM
      1 ****        -6.1790   1.9476  -1.4183 C.3            1 S1                 0.0000
      2 ****        -4.9123   1.9554  -0.6322 C.2            1 S1                 0.0000
      3 ****        -4.9204   2.0007   0.6947 N.2            1 S1                 0.0000
      4 ****        -3.5584   1.9865   1.0277 O.3            1 S1                 0.0000
      5 ****        -2.8912   1.9535  -0.1506 C.2            1 S1                 0.0000
      6 ****        -1.4010   1.8831  -0.1337 C.3            1 S1                 0.0000
      7 ****        -0.8850   0.4446  -0.0011 C.3            1 S1                 0.0000
      8 ****         0.5916   0.4113   0.0168 N.4            1 S1                 1.0000
      9 ****         1.1836  -0.9446   0.0732 C.3            1 S1                 0.0000
     10 ****         0.9253  -1.6726   1.3998 C.3            1 S1                 0.0000
     11 ****         2.0750  -2.6782   1.5448 C.3            1 S1                 0.0000
     12 ****         3.0715  -2.3622   0.4192 C.3            1 S1                 0.0000
     13 ****         2.7183  -0.9546  -0.0948 C.3            1 S1                 0.0000
     14 ****         3.1353  -0.7779  -1.5669 C.3            1 S1                 0.0000
     15 ****         3.4257   0.1119   0.7737 C.3            1 S1                 0.0000
     16 ****        -3.6841   1.9118  -1.2181 N.2            1 S1                 0.0000
     17 ****        -7.0486   1.9529  -0.7600 H              1 S1                 0.0000
     18 ****        -6.2275   1.0570  -2.0452 H              1 S1                 0.0000
     19 ****        -6.2280   2.8266  -2.0609 H              1 S1                 0.0000
     20 ****        -1.0223   2.3359  -1.0511 H              1 S1                 0.0000
     21 ****        -1.0341   2.4934   0.6927 H              1 S1                 0.0000
     22 ****        -1.2713  -0.0033   0.9152 H              1 S1                 0.0000
     23 ****        -1.2491  -0.1579  -0.8346 H              1 S1                 0.0000
     24 ****         0.9219   0.8565  -0.8276 H              1 S1                 0.0000
     25 ****         0.7469  -1.5407  -0.7307 H              1 S1                 0.0000
     26 ****         0.9503  -0.9700   2.2340 H              1 S1                 0.0000
     27 ****        -0.0495  -2.1614   1.4151 H              1 S1                 0.0000
     28 ****         2.5476  -2.5691   2.5214 H              1 S1                 0.0000
     29 ****         1.7194  -3.7063   1.4691 H              1 S1                 0.0000
     30 ****         4.1078  -2.4462   0.7496 H              1 S1                 0.0000
     31 ****         2.9360  -3.0941  -0.3786 H              1 S1                 0.0000
     32 ****         4.2155  -0.8720  -1.6835 H              1 S1                 0.0000
     33 ****         2.8475   0.2037  -1.9451 H              1 S1                 0.0000
     34 ****         2.6704  -1.5258  -2.2102 H              1 S1                 0.0000
     35 ****         4.5095   0.0090   0.7110 H              1 S1                 0.0000
     36 ****         3.1546   0.0310   1.8265 H              1 S1                 0.0000
     37 ****         3.1829   1.1235   0.4478 H              1 S1                 0.0000
     38 ****         0.9236   0.9416   0.8098 H              1 S1                 0.0000
     39 ****        -5.7085   2.0364   1.3091 LP             1 S1                 0.0000
     40 ****        -3.3416   1.1771   1.5735 LP             1 S1                 0.0000
     41 ****        -3.3169   2.8095   1.5418 LP             1 S1                 0.0000
     42 ****        -3.4434   1.8620  -2.1874 LP             1 S1                 0.0000
@<TRIPOS>BOND
    1    1    2 1     
    2    1   17 1     
    3    1   18 1     
    4    1   19 1     
    5    2   16 1     
    6    2    3 2     
    7    3    4 1     
    8    4    5 1     
    9    5    6 1     
   10    5   16 2     
   11    6    7 1     
   12    6   20 1     
   13    6   21 1     
   14    7    8 1     
   15    7   22 1     
   16    7   23 1     
   17    8    9 1     
   18    8   24 1     
   19    8   38 1     
   20    9   13 1     
   21    9   10 1     
   22    9   25 1     
   23   10   11 1     
   24   10   26 1     
   25   10   27 1     
   26   11   12 1     
   27   11   28 1     
   28   11   29 1     
   29   12   13 1     
   30   12   30 1     
   31   12   31 1     
   32   13   14 1     
   33   13   15 1     
   34   14   32 1     
   35   14   33 1     
   36   14   34 1     
   37   15   35 1     
   38   15   36 1     
   39   15   37 1     
   40    3   39 1     
   41    4   40 1     
   42    4   41 1     
   43   16   42 1     
@<TRIPOS>SUBSTRUCTURE
      1 S1             1
@<TRIPOS>SET
LONE_PAIRS      STATIC     ATOMS    <user>   **** ""
4 39 40 41 42
DONOR_HYDROGENS      STATIC     ATOMS    <user>   **** ""
2 24 38
ATOM$BLUE        STATIC     ATOMS    COLORGROUP SYSTEM
4 39 40 41 42
ATOM$RED        STATIC     ATOMS    COLORGROUP SYSTEM
2 24 38
