AV-unprocessed.smi:3348|AV-procd|sdf|12924|dock3
  -GOLD-   2272019343D 1   1.00000     0.00000
 Structure written by MMmdl.
 46 47  0  0  0  0  0  0  0  0  1 V2000
  148.2238  138.9850  153.7987 C   0  0  0  0  0  0  0  0  0  0  0  0
  148.0645  140.5143  153.8517 C   0  0  1  0  0  0  0  0  0  0  0  0
  147.2918  140.9835  155.1097 C   0  0  0  0  0  0  0  0  0  0  0  0
  146.3725  142.0764  154.8461 N   0  0  0  0  0  0  0  0  0  0  0  0
  146.1686  142.7601  153.6657 C   0  0  0  0  0  0  0  0  0  0  0  0
  145.1973  143.6911  153.8980 C   0  0  0  0  0  0  0  0  0  0  0  0
  144.8609  143.4942  155.2663 C   0  0  0  0  0  0  0  0  0  0  0  0
  145.5626  142.5242  155.8300 N   0  0  0  0  0  0  0  0  0  0  0  0
  149.3909  141.1338  153.7661 N   0  0  0  0  0  0  0  0  0  0  0  0
  150.3377  140.7481  154.8115 C   0  0  0  0  0  0  0  0  0  0  0  0
  150.1795  141.6392  156.0546 C   0  0  0  0  0  0  0  0  0  0  0  0
  151.3127  141.5741  156.9125 O   0  0  0  0  0  0  0  0  0  0  0  0
  151.2253  142.3524  158.1014 C   0  0  2  0  0  0  0  0  0  0  0  0
  151.0450  143.8223  157.6780 C   0  0  0  0  0  0  0  0  0  0  0  0
  151.0542  144.7617  158.8922 C   0  0  0  0  0  0  0  0  0  0  0  0
  152.3405  144.5845  159.7119 C   0  0  0  0  0  0  0  0  0  0  0  0
  152.5297  143.1199  160.1371 C   0  0  0  0  0  0  0  0  0  0  0  0
  152.5181  142.1633  158.9271 C   0  0  1  0  0  0  0  0  0  0  0  0
  152.6973  140.7077  159.3872 C   0  0  0  0  0  0  0  0  0  0  0  0
  147.2592  138.4803  153.7410 H   0  0  0  0  0  0  0  0  0  0  0  0
  148.7451  138.6095  154.6798 H   0  0  0  0  0  0  0  0  0  0  0  0
  148.7943  138.6821  152.9201 H   0  0  0  0  0  0  0  0  0  0  0  0
  147.4885  140.8079  152.9732 H   0  0  0  0  0  0  0  0  0  0  0  0
  146.7213  140.1535  155.5293 H   0  0  0  0  0  0  0  0  0  0  0  0
  147.9776  141.3166  155.8890 H   0  0  0  0  0  0  0  0  0  0  0  0
  146.7260  142.5306  152.7695 H   0  0  0  0  0  0  0  0  0  0  0  0
  144.7882  144.4033  153.1969 H   0  0  0  0  0  0  0  0  0  0  0  0
  144.1309  144.0222  155.8619 H   0  0  0  0  0  0  0  0  0  0  0  0
  149.7984  140.9530  152.8542 H   0  0  0  0  0  0  0  0  0  0  0  0
  150.2203  139.6950  155.0666 H   0  0  0  0  0  0  0  0  0  0  0  0
  151.3580  140.8653  154.4488 H   0  0  0  0  0  0  0  0  0  0  0  0
  150.0030  142.6745  155.7597 H   0  0  0  0  0  0  0  0  0  0  0  0
  149.2998  141.3314  156.6208 H   0  0  0  0  0  0  0  0  0  0  0  0
  150.3725  142.0559  158.7156 H   0  0  0  0  0  0  0  0  0  0  0  0
  151.8459  144.1069  156.9943 H   0  0  0  0  0  0  0  0  0  0  0  0
  150.1128  143.9423  157.1254 H   0  0  0  0  0  0  0  0  0  0  0  0
  150.9625  145.7970  158.5626 H   0  0  0  0  0  0  0  0  0  0  0  0
  150.1865  144.5575  159.5205 H   0  0  0  0  0  0  0  0  0  0  0  0
  153.1985  144.9076  159.1214 H   0  0  0  0  0  0  0  0  0  0  0  0
  152.3113  145.2268  160.5924 H   0  0  0  0  0  0  0  0  0  0  0  0
  153.4684  143.0192  160.6831 H   0  0  0  0  0  0  0  0  0  0  0  0
  151.7379  142.8412  160.8339 H   0  0  0  0  0  0  0  0  0  0  0  0
  153.3676  142.4173  158.2912 H   0  0  0  0  0  0  0  0  0  0  0  0
  151.8648  140.3847  160.0131 H   0  0  0  0  0  0  0  0  0  0  0  0
  153.6143  140.5890  159.9648 H   0  0  0  0  0  0  0  0  0  0  0  0
  152.7582  140.0275  158.5375 H   0  0  0  0  0  0  0  0  0  0  0  0
  1  2  1  0  0  0  0
  1 20  1  0  0  0  0
  1 21  1  0  0  0  0
  1 22  1  0  0  0  0
  2  3  1  0  0  0  0
  2  9  1  0  0  0  0
  2 23  1  0  0  0  0
  3  4  1  0  0  0  0
  3 24  1  0  0  0  0
  3 25  1  0  0  0  0
  4  8  1  0  0  0  0
  4  5  1  0  0  0  0
  5  6  2  0  0  0  0
  5 26  1  0  0  0  0
  6  7  1  0  0  0  0
  6 27  1  0  0  0  0
  7  8  2  0  0  0  0
  7 28  1  0  0  0  0
  9 10  1  0  0  0  0
  9 29  1  0  0  0  0
 10 11  1  0  0  0  0
 10 30  1  0  0  0  0
 10 31  1  0  0  0  0
 11 12  1  0  0  0  0
 11 32  1  0  0  0  0
 11 33  1  0  0  0  0
 12 13  1  0  0  0  0
 13 18  1  0  0  0  0
 13 14  1  0  0  0  0
 13 34  1  0  0  0  0
 14 15  1  0  0  0  0
 14 35  1  0  0  0  0
 14 36  1  0  0  0  0
 15 16  1  0  0  0  0
 15 37  1  0  0  0  0
 15 38  1  0  0  0  0
 16 17  1  0  0  0  0
 16 39  1  0  0  0  0
 16 40  1  0  0  0  0
 17 18  1  0  0  0  0
 17 41  1  0  0  0  0
 17 42  1  0  0  0  0
 18 19  1  0  0  0  0
 18 43  1  0  0  0  0
 19 44  1  0  0  0  0
 19 45  1  0  0  0  0
 19 46  1  0  0  0  0
M  END
> <s_m_source_file>
AV-unprocessed.smi

> <i_m_source_file_index>
3348

> <i_lp_mmshare_version>
43012

> <i_f3d_flags>
0

> <s_epik_input>
bjFbY0hdW2NIXVtjSF1uMVtDSDJdW0NAQEhdKFtDSDNdKVtOSF1bQ0gyXVtDSDJdT1tDQEBIXTJbQ0gyXVtDSDJdW0NIMl1bQ0gyXVtDQEhdMltDSDNd

> <s_epik_cmdline>
J2VwaWtfcHl0aG9uJywgJy1waCcsICc3LjAnLCAnLXRuJywgJzgnLCAnLW1hJywgJzIwMCcsICctbWV0YWxfYmluZGluZycsICctaW1hZScsICc8aW5maWxlLm1hZT4nLCAnLW9tYWUnLCAnPG91dGZpbGUubWFlPic=

> <r_lp_tautomer_probability>
1

> <r_epik_Ionization_Penalty>
2.46945

> <r_epik_Ionization_Penalty_Charging>
0

> <r_epik_Ionization_Penalty_Neutral>
2.46945

> <r_epik_State_Penalty>
2.6322

> <r_epik_Charging_Adjusted_Penalty>
2.6322

> <i_epik_Tot_Q>
0

> <i_epik_Tot_abs_Q>
0

> <r_epik_Metal_State_Penalty>
2.63217

> <b_epik_Metal_Only>
0

> <s_lp_Force_Field>
OPLS_2005

> <r_lp_Energy>
18.9542

> <b_lp_Chiralities_Consistent>
1

> <s_lp_Variant>
AV-unprocessed.smi:3348-10

> <Gold.Version>
5.8.1

> <Gold.Id.Protein>
6NUR|6NUR_protein|mol2

> <Gold.PLP.Fitness>
45.2077

> <Gold.PLP.PLP>
-43.7283

> <Gold.PLP.part.hbond>
-3.0000

> <Gold.PLP.part.metal>
0.0000

> <Gold.PLP.part.buried>
-2.2844

> <Gold.PLP.part.nonpolar>
-37.6525

> <Gold.PLP.part.repulsive>
0.1913

> <Gold.PLP.ligand.clash>
0.0000

> <Gold.PLP.ligand.torsion>
0.7837

> <Gold.PLP.Chemscore.Hbond>
0.9920

> <Gold.PLP.Chemscore.CHOScore>
0.0000

> <Gold.PLP.Chemscore.Metal>
0.0000

> <Gold.Chemscore.Hbonds>
donor molecule, donor type, donor heavy atom, donor atom, acceptor molecule, acceptor atom, score
      L1  H     9    29       P1  7957  0.94

> <Gold.PLP.Chemscore.Internal.Correction>
0.0708

> <Gold.Rescore>
     Score         DG    S(hbond)    S(metal)    S(lipo)     H(rot)  DE(clash)    DE(int)     intcor
     17.54     -18.49       0.90        0.00     123.20       1.72       0.18       0.78       ----

> <Gold.Chemscore.Fitness>
17.5377

> <Gold.Chemscore.DG>
-18.4936

> <Gold.Chemscore.ZeroCoef>
-5.4800

> <Gold.Chemscore.Hbond>
0.9018

> <Gold.Chemscore.Metal>
0.0000

> <Gold.Chemscore.Lipo>
123.1985

> <Gold.Chemscore.Internal_Hbond>
0.0000

> <Gold.Chemscore.DEClash>
0.1785

> <Gold.Chemscore.DEInternal>
0.7775

> <Gold.Chemscore.Rot>
1.7237

> <Gold.Chemscore.Internal.Correction>
   9.000000E+99

> <Gold.Chemscore.Hbonds>
donor molecule, donor type, donor heavy atom, donor atom, acceptor molecule, acceptor atom, score
      L1  H     9    29       P1  7957  0.91

> <Gold.Chemscore.Hbond.Weighted>
-3.0120

> <Gold.Chemscore.Metal.Weighted>
-0.0000

> <Gold.Chemscore.Lipo.Weighted>
-14.4142

> <Gold.Chemscore.Internal_Hbond.Weighted>
0.0000

> <Gold.Chemscore.DEClash.Weighted>
0.1785

> <Gold.Chemscore.DEInternal.Weighted>
0.7775

> <Gold.Chemscore.Rot.Weighted>
4.4126

> <Gold.Chemscore.Internal.Correction.Weighted>
   9.000000E+99

> <Gold.Protein.RotatedTorsions>
[ 6907 6896 6895 6894 ] final -156.63 input  -60.11 | X-H torsion
[ 7974 7965 7964 7962 ] final -108.65 input  175.53 | X-H torsion
[ 8008 7997 7996 7995 ] final  152.58 input   59.86 | X-H torsion
[ 10167 10162 10161 10158 ] final -120.38 input  -65.29 | X-H torsion
[ 10718 10713 10712 10709 ] final  -59.68 input   66.30 | X-H torsion
[ 10763 10752 10751 10750 ] final   98.03 input  -60.55 | X-H torsion
[ 11005 11000 10999 10996 ] final  -39.15 input  -57.11 | X-H torsion

> <Gold.Protein.ActiveResidues>
 VAL166  LYS551  ARG553  GLY616  TRP617  ASP618  TYR619  PRO620  LYS621  CYS622 
 ASP623  PHE694  ASN695  SER759  ASP760  ASP761  ALA762  ILE779  LEU786  VAL792 
 PHE793  MET794  SER795  GLU796  ALA797  LYS798  CYS799  TRP800  GLU811  SER814 

> <Gold.Protein.RotatedAtoms>
  151.2905  133.4167  159.2632 H   0  0  0  0  0  0  0  0  0  0  0  0  # atno 6907 bound_to 6896
  151.0281  134.9520  159.8107 H   0  0  0  0  0  0  0  0  0  0  0  0  # atno 6908 bound_to 6896
  152.5339  134.2867  159.9080 H   0  0  0  0  0  0  0  0  0  0  0  0  # atno 6909 bound_to 6896
  145.1902  140.9011  143.3429 H   0  0  0  0  0  0  0  0  0  0  0  0  # atno 7974 bound_to 7965
  156.2622  140.2017  156.6356 H   0  0  0  0  0  0  0  0  0  0  0  0  # atno 8008 bound_to 7997
  154.6649  140.0556  157.0127 H   0  0  0  0  0  0  0  0  0  0  0  0  # atno 8009 bound_to 7997
  155.1222  140.3226  155.4497 H   0  0  0  0  0  0  0  0  0  0  0  0  # atno 8010 bound_to 7997
  140.0364  143.5196  152.2151 H   0  0  0  0  0  0  0  0  0  0  0  0  # atno 10167 bound_to 10162
  156.1044  130.4182  150.0749 H   0  0  0  0  0  0  0  0  0  0  0  0  # atno 10718 bound_to 10713
  153.2841  135.4162  155.1106 H   0  0  0  0  0  0  0  0  0  0  0  0  # atno 10763 bound_to 10752
  154.8499  135.3502  154.6072 H   0  0  0  0  0  0  0  0  0  0  0  0  # atno 10764 bound_to 10752
  153.6493  135.7053  153.5272 H   0  0  0  0  0  0  0  0  0  0  0  0  # atno 10765 bound_to 10752
  141.0080  133.6922  156.2148 H   0  0  0  0  0  0  0  0  0  0  0  0  # atno 11005 bound_to 11000
  145.0049  139.3564  143.6149 LP  0  0  0  0  0  0  0  0  0  0  0  0  # atno 17320 bound_to 7965
  146.3437  139.9287  142.8756 LP  0  0  0  0  0  0  0  0  0  0  0  0  # atno 17321 bound_to 7965
  139.6042  144.7591  151.3101 LP  0  0  0  0  0  0  0  0  0  0  0  0  # atno 17342 bound_to 10162
  140.7279  143.6949  150.7891 LP  0  0  0  0  0  0  0  0  0  0  0  0  # atno 17343 bound_to 10162
  156.8728  130.9530  151.3607 LP  0  0  0  0  0  0  0  0  0  0  0  0  # atno 17370 bound_to 10713
  157.6219  130.8661  149.9123 LP  0  0  0  0  0  0  0  0  0  0  0  0  # atno 17371 bound_to 10713
  140.6780  134.4797  157.5588 LP  0  0  0  0  0  0  0  0  0  0  0  0  # atno 17394 bound_to 11000
  139.9074  134.8419  156.1654 LP  0  0  0  0  0  0  0  0  0  0  0  0  # atno 17395 bound_to 11000

$$$$
