#       Name:                AV-unprocessed.smi:885
#       Creating user name   scv26
#       Creation time:       Fri Mar 27 01:53:35 2020


#       File generated by GOLD software.
#

@<TRIPOS>MOLECULE
AV-unprocessed.smi:885
    46    48     1
SMALL
NO_CHARGES


@<TRIPOS>ATOM
      1 ****        -4.6070  -0.7219  -0.4175 C.3            1 S1                 0.0000
      2 ****        -4.5606  -1.8882   0.5820 C.3            1 S1                 0.0000
      3 ****        -3.5449  -1.6593   1.7136 C.3            1 S1                 0.0000
      4 ****        -2.0738  -1.8289   1.3059 C.3            1 S1                 0.0000
      5 ****        -1.6013  -0.9211   0.1494 C.3            1 S1                 0.0000
      6 ****        -0.1029  -0.8626   0.1024 C.2            1 S1                 0.0000
      7 ****         0.6302  -1.9464  -0.1304 N.2            1 S1                 0.0000
      8 ****         1.9458  -1.4637  -0.0965 O.3            1 S1                 0.0000
      9 ****         1.8482  -0.1401   0.1732 C.2            1 S1                 0.0000
     10 ****         3.1013   0.6740   0.2247 C.3            1 S1                 0.0000
     11 ****         3.5224   1.1916  -1.1638 C.3            1 S1                 0.0000
     12 ****         4.7084   2.0615  -1.0394 N.4            1 S1                 1.0000
     13 ****         4.4756   3.1585  -0.0790 C.3            1 S1                 0.0000
     14 ****         4.0152   2.5888   1.2746 C.3            1 S1                 0.0000
     15 ****         2.8566   1.7821   1.0882 O.3            1 S1                 0.0000
     16 ****         0.5941   0.2933   0.2850 N.2            1 S1                 0.0000
     17 ****        -2.1826  -1.3411  -1.2176 C.3            1 S1                 0.0000
     18 ****        -3.5767  -0.7822  -1.5591 C.3            1 S1                 0.0000
     19 ****        -4.4996   0.2202   0.1214 H              1 S1                 0.0000
     20 ****        -5.6001  -0.6804  -0.8661 H              1 S1                 0.0000
     21 ****        -5.5471  -1.9764   1.0388 H              1 S1                 0.0000
     22 ****        -4.3814  -2.8367   0.0746 H              1 S1                 0.0000
     23 ****        -3.6943  -0.6709   2.1498 H              1 S1                 0.0000
     24 ****        -3.7557  -2.3672   2.5159 H              1 S1                 0.0000
     25 ****        -1.4704  -1.6146   2.1892 H              1 S1                 0.0000
     26 ****        -1.8766  -2.8736   1.0621 H              1 S1                 0.0000
     27 ****        -1.9384   0.0952   0.3603 H              1 S1                 0.0000
     28 ****         3.8914   0.0528   0.6506 H              1 S1                 0.0000
     29 ****         3.7515   0.3615  -1.8329 H              1 S1                 0.0000
     30 ****         2.7109   1.7598  -1.6212 H              1 S1                 0.0000
     31 ****         5.4857   1.5049  -0.7130 H              1 S1                 0.0000
     32 ****         5.3916   3.7377   0.0392 H              1 S1                 0.0000
     33 ****         3.7181   3.8327  -0.4812 H              1 S1                 0.0000
     34 ****         4.8086   2.0021   1.7403 H              1 S1                 0.0000
     35 ****         3.7743   3.3998   1.9622 H              1 S1                 0.0000
     36 ****        -1.5143  -1.0055  -2.0121 H              1 S1                 0.0000
     37 ****        -2.1864  -2.4292  -1.2917 H              1 S1                 0.0000
     38 ****        -3.9861  -1.3800  -2.3739 H              1 S1                 0.0000
     39 ****        -3.4669   0.2238  -1.9654 H              1 S1                 0.0000
     40 ****         4.9381   2.4491  -1.9436 H              1 S1                 0.0000
     41 ****         0.3179  -2.8826  -0.2913 LP             1 S1                 0.0000
     42 ****         2.3918  -1.6068  -0.9800 LP             1 S1                 0.0000
     43 ****         2.4681  -1.9270   0.6194 LP             1 S1                 0.0000
     44 ****         2.5588   1.4366   1.9781 LP             1 S1                 0.0000
     45 ****         2.1328   2.3460   0.6904 LP             1 S1                 0.0000
     46 ****         0.2552   1.2183   0.4568 LP             1 S1                 0.0000
@<TRIPOS>BOND
    1    1   18 1     
    2    1    2 1     
    3    1   19 1     
    4    1   20 1     
    5    2    3 1     
    6    2   21 1     
    7    2   22 1     
    8    3    4 1     
    9    3   23 1     
   10    3   24 1     
   11    4    5 1     
   12    4   25 1     
   13    4   26 1     
   14    5    6 1     
   15    5   17 1     
   16    5   27 1     
   17    6   16 1     
   18    6    7 2     
   19    7    8 1     
   20    8    9 1     
   21    9   10 1     
   22    9   16 2     
   23   10   15 1     
   24   10   11 1     
   25   10   28 1     
   26   11   12 1     
   27   11   29 1     
   28   11   30 1     
   29   12   13 1     
   30   12   31 1     
   31   12   40 1     
   32   13   14 1     
   33   13   32 1     
   34   13   33 1     
   35   14   15 1     
   36   14   34 1     
   37   14   35 1     
   38   17   18 1     
   39   17   36 1     
   40   17   37 1     
   41   18   38 1     
   42   18   39 1     
   43    7   41 1     
   44    8   42 1     
   45    8   43 1     
   46   15   44 1     
   47   15   45 1     
   48   16   46 1     
@<TRIPOS>SUBSTRUCTURE
      1 S1             1
@<TRIPOS>SET
LONE_PAIRS      STATIC     ATOMS    <user>   **** ""
6 41 42 43 44 45 46
DONOR_HYDROGENS      STATIC     ATOMS    <user>   **** ""
2 31 40
ATOM$BLUE        STATIC     ATOMS    COLORGROUP SYSTEM
6 41 42 43 44 45 46
ATOM$RED        STATIC     ATOMS    COLORGROUP SYSTEM
2 31 40
