AV-unprocessed.smi:1081|AV-procd|sdf|4710|dock5
  -GOLD-   22720 3233D 1   1.00000     0.00000
 Structure written by MMmdl.
 52 54  0  0  0  0  0  0  0  0  1 V2000
  146.7284  137.7629  155.4343 O   0  0  0  0  0  0  0  0  0  0  0  0
  147.4258  137.4727  154.4629 C   0  0  0  0  0  0  0  0  0  0  0  0
  147.0302  136.6262  153.5002 N   0  0  0  0  0  0  0  0  0  0  0  0
  145.7433  135.9322  153.4673 C   0  0  0  0  0  0  0  0  0  0  0  0
  145.8680  134.4004  153.3468 C   0  0  0  0  0  0  0  0  0  0  0  0
  145.9784  133.7271  154.3735 O   0  0  0  0  0  0  0  0  0  0  0  0
  145.8617  133.8364  152.1141 N   0  0  0  0  0  0  0  0  0  0  0  0
  145.8857  132.3933  151.8330 C   0  0  0  0  0  0  0  0  0  0  0  0
  144.5278  131.9773  151.2377 C   0  0  0  0  0  0  0  0  0  0  0  0
  144.1984  132.8056  149.9820 C   0  0  0  0  0  0  0  0  0  0  0  0
  144.3524  134.3151  150.2436 C   0  0  0  0  0  0  0  0  0  0  0  0
  145.7179  134.6256  150.8828 C   0  0  0  0  0  0  0  0  0  0  0  0
  148.6656  137.9334  154.2231 N   0  0  0  0  0  0  0  0  0  0  0  0
  149.4557  138.8327  154.9909 C   0  0  0  0  0  0  0  0  0  0  0  0
  150.8088  139.1503  154.7263 C   0  0  0  0  0  0  0  0  0  0  0  0
  151.4762  140.0534  155.5756 C   0  0  0  0  0  0  0  0  0  0  0  0
  150.7823  140.6154  156.6722 C   0  0  0  0  0  0  0  0  0  0  0  0
  151.4363  141.5255  157.5298 N   0  0  0  0  0  0  0  0  0  0  0  0
  151.0177  142.9215  157.3898 C   0  0  0  0  0  0  0  0  0  0  0  0
  152.0327  143.8743  158.0445 C   0  0  0  0  0  0  0  0  0  0  0  0
  152.3012  143.4799  159.5044 C   0  0  0  0  0  0  0  0  0  0  0  0
  152.7410  142.0104  159.5793 C   0  0  0  0  0  0  0  0  0  0  0  0
  151.7113  141.0905  158.9014 C   0  0  0  0  0  0  0  0  0  0  0  0
  149.4906  140.2983  156.9320 N   0  0  0  0  0  0  0  0  0  0  0  0
  148.8543  139.4342  156.1143 C   0  0  0  0  0  0  0  0  0  0  0  0
  147.6688  136.4347  152.7425 H   0  0  0  0  0  0  0  0  0  0  0  0
  145.1777  136.1885  154.3647 H   0  0  0  0  0  0  0  0  0  0  0  0
  145.1807  136.3096  152.6129 H   0  0  0  0  0  0  0  0  0  0  0  0
  146.6848  132.1829  151.1207 H   0  0  0  0  0  0  0  0  0  0  0  0
  146.1032  131.7758  152.7027 H   0  0  0  0  0  0  0  0  0  0  0  0
  144.5352  130.9152  150.9918 H   0  0  0  0  0  0  0  0  0  0  0  0
  143.7451  132.1172  151.9844 H   0  0  0  0  0  0  0  0  0  0  0  0
  144.8721  132.5133  149.1754 H   0  0  0  0  0  0  0  0  0  0  0  0
  143.1887  132.5832  149.6360 H   0  0  0  0  0  0  0  0  0  0  0  0
  144.2387  134.8695  149.3117 H   0  0  0  0  0  0  0  0  0  0  0  0
  143.5553  134.6553  150.9062 H   0  0  0  0  0  0  0  0  0  0  0  0
  145.8101  135.6992  151.0514 H   0  0  0  0  0  0  0  0  0  0  0  0
  146.5224  134.3654  150.1936 H   0  0  0  0  0  0  0  0  0  0  0  0
  149.1198  137.5608  153.4022 H   0  0  0  0  0  0  0  0  0  0  0  0
  151.3569  138.7184  153.9046 H   0  0  0  0  0  0  0  0  0  0  0  0
  152.5126  140.2918  155.3883 H   0  0  0  0  0  0  0  0  0  0  0  0
  150.8940  143.2017  156.3445 H   0  0  0  0  0  0  0  0  0  0  0  0
  150.0409  143.0391  157.8608 H   0  0  0  0  0  0  0  0  0  0  0  0
  152.9674  143.8517  157.4825 H   0  0  0  0  0  0  0  0  0  0  0  0
  151.6659  144.9000  157.9950 H   0  0  0  0  0  0  0  0  0  0  0  0
  153.0674  144.1255  159.9347 H   0  0  0  0  0  0  0  0  0  0  0  0
  151.3977  143.6249  160.0981 H   0  0  0  0  0  0  0  0  0  0  0  0
  153.7098  141.8946  159.0914 H   0  0  0  0  0  0  0  0  0  0  0  0
  152.8804  141.7126  160.6188 H   0  0  0  0  0  0  0  0  0  0  0  0
  150.7803  141.0895  159.4700 H   0  0  0  0  0  0  0  0  0  0  0  0
  152.0919  140.0682  158.9025 H   0  0  0  0  0  0  0  0  0  0  0  0
  147.8265  139.2181  156.3673 H   0  0  0  0  0  0  0  0  0  0  0  0
  1  2  2  0  0  0  0
  2  3  1  0  0  0  0
  2 13  1  0  0  0  0
  3  4  1  0  0  0  0
  3 26  1  0  0  0  0
  4  5  1  0  0  0  0
  4 27  1  0  0  0  0
  4 28  1  0  0  0  0
  5  6  2  0  0  0  0
  5  7  1  0  0  0  0
  7 12  1  0  0  0  0
  7  8  1  0  0  0  0
  8  9  1  0  0  0  0
  8 29  1  0  0  0  0
  8 30  1  0  0  0  0
  9 10  1  0  0  0  0
  9 31  1  0  0  0  0
  9 32  1  0  0  0  0
 10 11  1  0  0  0  0
 10 33  1  0  0  0  0
 10 34  1  0  0  0  0
 11 12  1  0  0  0  0
 11 35  1  0  0  0  0
 11 36  1  0  0  0  0
 12 37  1  0  0  0  0
 12 38  1  0  0  0  0
 13 14  1  0  0  0  0
 13 39  1  0  0  0  0
 14 25  1  0  0  0  0
 14 15  2  0  0  0  0
 15 16  1  0  0  0  0
 15 40  1  0  0  0  0
 16 17  2  0  0  0  0
 16 41  1  0  0  0  0
 17 18  1  0  0  0  0
 17 24  1  0  0  0  0
 18 23  1  0  0  0  0
 18 19  1  0  0  0  0
 19 20  1  0  0  0  0
 19 42  1  0  0  0  0
 19 43  1  0  0  0  0
 20 21  1  0  0  0  0
 20 44  1  0  0  0  0
 20 45  1  0  0  0  0
 21 22  1  0  0  0  0
 21 46  1  0  0  0  0
 21 47  1  0  0  0  0
 22 23  1  0  0  0  0
 22 48  1  0  0  0  0
 22 49  1  0  0  0  0
 23 50  1  0  0  0  0
 23 51  1  0  0  0  0
 24 25  2  0  0  0  0
 25 52  1  0  0  0  0
M  END
> <s_m_source_file>
AV-unprocessed.smi

> <i_m_source_file_index>
1081

> <i_lp_mmshare_version>
43012

> <i_f3d_flags>
0

> <s_epik_input>
W0NIMl0xW0NIMl1bQ0gyXVtDSDJdW0NIMl1OMUMoPU8pW0NIMl1bTkhdQyg9TylbTkhdYzJbY0hdW2NIXWMobltjSF0yKU4zW0NIMl1bQ0gyXVtDSDJdW0NIMl1bQ0gyXTM=

> <s_epik_cmdline>
J2VwaWtfcHl0aG9uJywgJy1waCcsICc3LjAnLCAnLXRuJywgJzgnLCAnLW1hJywgJzIwMCcsICctbWV0YWxfYmluZGluZycsICctaW1hZScsICc8aW5maWxlLm1hZT4nLCAnLW9tYWUnLCAnPG91dGZpbGUubWFlPic=

> <r_lp_tautomer_probability>
1

> <r_epik_Ionization_Penalty>
0.2566

> <r_epik_Ionization_Penalty_Charging>
0

> <r_epik_Ionization_Penalty_Neutral>
0.2566

> <r_epik_State_Penalty>
0.242651

> <r_epik_Charging_Adjusted_Penalty>
0.242651

> <i_epik_Tot_Q>
0

> <i_epik_Tot_abs_Q>
0

> <r_epik_Metal_State_Penalty>
0.169478

> <b_epik_Metal_Only>
0

> <s_lp_Force_Field>
OPLS_2005

> <r_lp_Energy>
36.1946

> <b_lp_Chiralities_Consistent>
1

> <s_lp_Variant>
AV-unprocessed.smi:1081-1

> <Gold.Version>
5.8.1

> <Gold.Id.Protein>
6NUR|6NUR_protein|mol2

> <Gold.PLP.Fitness>
48.7455

> <Gold.PLP.PLP>
-43.7917

> <Gold.PLP.part.hbond>
-1.9928

> <Gold.PLP.part.metal>
0.0000

> <Gold.PLP.part.buried>
-3.5706

> <Gold.PLP.part.nonpolar>
-38.2276

> <Gold.PLP.part.repulsive>
0.1469

> <Gold.PLP.ligand.clash>
0.0000

> <Gold.PLP.ligand.torsion>
0.6061

> <Gold.PLP.Chemscore.Hbond>
1.9120

> <Gold.PLP.Chemscore.CHOScore>
0.0000

> <Gold.PLP.Chemscore.Metal>
0.0000

> <Gold.Chemscore.Hbonds>
donor molecule, donor type, donor heavy atom, donor atom, acceptor molecule, acceptor atom, score
      L1  H     3    26       P1  7948  1.00
      L1  H    13    39       P1  7948  0.93

> <Gold.PLP.Chemscore.Internal.Correction>
0.4300

> <Gold.Rescore>
     Score         DG    S(hbond)    S(metal)    S(lipo)     H(rot)  DE(clash)    DE(int)     intcor
     19.40     -21.47       1.89        0.00     113.70       1.41       0.07       2.00       ----

> <Gold.Chemscore.Fitness>
19.3968

> <Gold.Chemscore.DG>
-21.4703

> <Gold.Chemscore.ZeroCoef>
-5.4800

> <Gold.Chemscore.Hbond>
1.8860

> <Gold.Chemscore.Metal>
0.0000

> <Gold.Chemscore.Lipo>
113.6986

> <Gold.Chemscore.Internal_Hbond>
0.0000

> <Gold.Chemscore.DEClash>
0.0731

> <Gold.Chemscore.DEInternal>
2.0004

> <Gold.Chemscore.Rot>
1.4109

> <Gold.Chemscore.Internal.Correction>
   9.000000E+99

> <Gold.Chemscore.Hbonds>
donor molecule, donor type, donor heavy atom, donor atom, acceptor molecule, acceptor atom, score
      L1  H     3    26       P1  7948  0.97
      L1  H    13    39       P1  7948  0.84

> <Gold.Chemscore.Hbond.Weighted>
-6.2994

> <Gold.Chemscore.Metal.Weighted>
-0.0000

> <Gold.Chemscore.Lipo.Weighted>
-13.3027

> <Gold.Chemscore.Internal_Hbond.Weighted>
0.0000

> <Gold.Chemscore.DEClash.Weighted>
0.0731

> <Gold.Chemscore.DEInternal.Weighted>
2.0004

> <Gold.Chemscore.Rot.Weighted>
3.6118

> <Gold.Chemscore.Internal.Correction.Weighted>
   9.000000E+99

> <Gold.Protein.RotatedTorsions>
[ 6907 6896 6895 6894 ] final -155.06 input  -60.11 | X-H torsion
[ 7974 7965 7964 7962 ] final  179.86 input  175.53 | X-H torsion
[ 8008 7997 7996 7995 ] final -119.38 input   59.86 | X-H torsion
[ 10167 10162 10161 10158 ] final -167.82 input  -65.29 | X-H torsion
[ 10718 10713 10712 10709 ] final  129.79 input   66.30 | X-H torsion
[ 10763 10752 10751 10750 ] final -141.03 input  -60.55 | X-H torsion
[ 11005 11000 10999 10996 ] final   80.88 input  -57.11 | X-H torsion

> <Gold.Protein.ActiveResidues>
 VAL166  LYS551  ARG553  GLY616  TRP617  ASP618  TYR619  PRO620  LYS621  CYS622 
 ASP623  PHE694  ASN695  SER759  ASP760  ASP761  ALA762  ILE779  LEU786  VAL792 
 PHE793  MET794  SER795  GLU796  ALA797  LYS798  CYS799  TRP800  GLU811  SER814 

> <Gold.Protein.RotatedAtoms>
  151.2669  133.4274  159.2618 H   0  0  0  0  0  0  0  0  0  0  0  0  # atno 6907 bound_to 6896
  151.0480  134.9654  159.8207 H   0  0  0  0  0  0  0  0  0  0  0  0  # atno 6908 bound_to 6896
  152.5377  134.2624  159.8993 H   0  0  0  0  0  0  0  0  0  0  0  0  # atno 6909 bound_to 6896
  144.7142  140.0612  143.6432 H   0  0  0  0  0  0  0  0  0  0  0  0  # atno 7974 bound_to 7965
  155.1148  140.0397  157.2734 H   0  0  0  0  0  0  0  0  0  0  0  0  # atno 8008 bound_to 7997
  154.6658  140.2601  155.7034 H   0  0  0  0  0  0  0  0  0  0  0  0  # atno 8009 bound_to 7997
  156.2638  140.2808  156.1148 H   0  0  0  0  0  0  0  0  0  0  0  0  # atno 8010 bound_to 7997
  139.6025  144.0982  152.1757 H   0  0  0  0  0  0  0  0  0  0  0  0  # atno 10167 bound_to 10162
  157.5122  131.1097  150.9276 H   0  0  0  0  0  0  0  0  0  0  0  0  # atno 10718 bound_to 10713
  154.8559  135.3536  154.5803 H   0  0  0  0  0  0  0  0  0  0  0  0  # atno 10763 bound_to 10752
  153.6414  135.6998  153.5245 H   0  0  0  0  0  0  0  0  0  0  0  0  # atno 10764 bound_to 10752
  153.2968  135.4218  155.1175 H   0  0  0  0  0  0  0  0  0  0  0  0  # atno 10765 bound_to 10752
  139.9118  134.7954  156.1968 H   0  0  0  0  0  0  0  0  0  0  0  0  # atno 11005 bound_to 11000
  145.9862  139.2979  143.1012 LP  0  0  0  0  0  0  0  0  0  0  0  0  # atno 17320 bound_to 7965
  145.8954  140.9277  143.0530 LP  0  0  0  0  0  0  0  0  0  0  0  0  # atno 17321 bound_to 7965
  140.0581  144.5878  150.7284 LP  0  0  0  0  0  0  0  0  0  0  0  0  # atno 17342 bound_to 10162
  140.7260  143.2637  151.4119 LP  0  0  0  0  0  0  0  0  0  0  0  0  # atno 17343 bound_to 10162
  156.9913  130.5564  149.5303 LP  0  0  0  0  0  0  0  0  0  0  0  0  # atno 17370 bound_to 10713
  156.0297  130.5389  150.8500 LP  0  0  0  0  0  0  0  0  0  0  0  0  # atno 17371 bound_to 10713
  141.0550  133.6870  156.1842 LP  0  0  0  0  0  0  0  0  0  0  0  0  # atno 17394 bound_to 11000
  140.6752  134.4826  157.5588 LP  0  0  0  0  0  0  0  0  0  0  0  0  # atno 17395 bound_to 11000

$$$$
