AV-unprocessed.smi:911|AV-procd|sdf|4139|dock7
  -GOLD-   22720 2 43D 1   1.00000     0.00000
 Structure written by MMmdl.
 47 49  0  0  0  0  0  0  0  0  3 V2000
  152.0433  146.0201  160.1620 C   0  0  0  0  0  0  0  0  0  0  0  0
  151.3445  144.7115  159.6971 C   0  0  0  0  0  0  0  0  0  0  0  0
  149.9622  144.7072  160.4076 C   0  0  0  0  0  0  0  0  0  0  0  0
  151.2739  144.5478  158.1658 C   0  0  1  0  0  0  0  0  0  0  0  0
  152.7564  144.4493  157.7402 C   0  0  0  0  0  0  0  0  0  0  0  0
  153.3944  143.6912  158.9206 C   0  0  0  0  0  0  0  0  0  0  0  0
  152.1762  143.4080  159.8438 C   0  0  1  0  0  0  0  0  0  0  0  0
  152.5878  143.0397  161.2803 C   0  0  0  0  0  0  0  0  0  0  0  0
  151.2689  142.3398  159.1491 C   0  0  2  0  0  0  0  0  0  0  0  0
  151.9921  141.1703  158.6534 N   0  0  0  0  0  0  0  0  0  0  0  0
  151.4536  139.9670  158.4071 C   0  0  0  0  0  0  0  0  0  0  0  0
  150.2491  139.7281  158.4856 O   0  0  0  0  0  0  0  0  0  0  0  0
  152.4371  138.8540  158.0375 C   0  0  0  0  0  0  0  0  0  0  0  0
  151.9862  138.1490  156.8279 N   0  0  0  0  0  0  0  0  0  0  0  0
  151.4343  136.8666  157.0170 C   0  0  0  0  0  0  0  0  0  0  0  0
  150.9377  136.1419  155.9962 C   0  0  0  0  0  0  0  0  0  0  0  0
  150.3526  134.8382  156.2174 N   0  3  0  0  0  0  0  0  0  0  0  0
  150.4417  134.3355  157.3326 O   0  0  0  0  0  0  0  0  0  0  0  0
  149.7887  134.2732  155.2847 O   0  5  0  0  0  0  0  0  0  0  0  0
  150.9955  136.7205  154.6682 C   0  0  0  0  0  0  0  0  0  0  0  0
  151.5227  137.9466  154.4797 C   0  0  0  0  0  0  0  0  0  0  0  0
  152.0528  138.7386  155.5951 C   0  0  0  0  0  0  0  0  0  0  0  0
  152.5229  139.8640  155.4300 O   0  0  0  0  0  0  0  0  0  0  0  0
  150.6573  143.1444  157.9790 C   0  0  0  0  0  0  0  0  0  0  0  0
  151.4478  146.8902  159.8840 H   0  0  0  0  0  0  0  0  0  0  0  0
  153.0362  146.1872  159.7512 H   0  0  0  0  0  0  0  0  0  0  0  0
  152.1485  146.0397  161.2470 H   0  0  0  0  0  0  0  0  0  0  0  0
  149.3279  143.8529  160.1838 H   0  0  0  0  0  0  0  0  0  0  0  0
  149.3891  145.5943  160.1358 H   0  0  0  0  0  0  0  0  0  0  0  0
  150.0847  144.7258  161.4908 H   0  0  0  0  0  0  0  0  0  0  0  0
  150.7258  145.3323  157.6430 H   0  0  0  0  0  0  0  0  0  0  0  0
  152.8817  143.9184  156.7958 H   0  0  0  0  0  0  0  0  0  0  0  0
  153.2060  145.4348  157.6154 H   0  0  0  0  0  0  0  0  0  0  0  0
  153.9263  142.7969  158.5987 H   0  0  0  0  0  0  0  0  0  0  0  0
  154.1392  144.3094  159.4217 H   0  0  0  0  0  0  0  0  0  0  0  0
  153.2179  142.1504  161.2931 H   0  0  0  0  0  0  0  0  0  0  0  0
  151.7169  142.8371  161.9037 H   0  0  0  0  0  0  0  0  0  0  0  0
  153.1543  143.8430  161.7510 H   0  0  0  0  0  0  0  0  0  0  0  0
  150.4742  142.0069  159.8183 H   0  0  0  0  0  0  0  0  0  0  0  0
  152.9916  141.2690  158.5510 H   0  0  0  0  0  0  0  0  0  0  0  0
  153.4320  139.2818  157.9026 H   0  0  0  0  0  0  0  0  0  0  0  0
  152.5373  138.1584  158.8725 H   0  0  0  0  0  0  0  0  0  0  0  0
  151.4297  136.5293  158.0437 H   0  0  0  0  0  0  0  0  0  0  0  0
  150.6142  136.1767  153.8164 H   0  0  0  0  0  0  0  0  0  0  0  0
  151.5534  138.3603  153.4823 H   0  0  0  0  0  0  0  0  0  0  0  0
  149.5697  143.1744  158.0496 H   0  0  0  0  0  0  0  0  0  0  0  0
  150.8938  142.7246  157.0000 H   0  0  0  0  0  0  0  0  0  0  0  0
  1  2  1  0  0  0  0
  1 25  1  0  0  0  0
  1 26  1  0  0  0  0
  1 27  1  0  0  0  0
  2  7  1  0  0  0  0
  2  3  1  0  0  0  0
  2  4  1  0  0  0  0
  3 28  1  0  0  0  0
  3 29  1  0  0  0  0
  3 30  1  0  0  0  0
  4 24  1  0  0  0  0
  4  5  1  0  0  0  0
  4 31  1  0  0  0  0
  5  6  1  0  0  0  0
  5 32  1  0  0  0  0
  5 33  1  0  0  0  0
  6  7  1  0  0  0  0
  6 34  1  0  0  0  0
  6 35  1  0  0  0  0
  7  8  1  0  0  0  0
  7  9  1  0  0  0  0
  8 36  1  0  0  0  0
  8 37  1  0  0  0  0
  8 38  1  0  0  0  0
  9 10  1  0  0  0  0
  9 24  1  0  0  0  0
  9 39  1  0  0  0  0
 10 11  1  0  0  0  0
 10 40  1  0  0  0  0
 11 12  2  0  0  0  0
 11 13  1  0  0  0  0
 13 14  1  0  0  0  0
 13 41  1  0  0  0  0
 13 42  1  0  0  0  0
 14 22  1  0  0  0  0
 14 15  1  0  0  0  0
 15 16  2  0  0  0  0
 15 43  1  0  0  0  0
 16 17  1  0  0  0  0
 16 20  1  0  0  0  0
 17 18  2  0  0  0  0
 17 19  1  0  0  0  0
 20 21  2  0  0  0  0
 20 44  1  0  0  0  0
 21 22  1  0  0  0  0
 21 45  1  0  0  0  0
 22 23  2  0  0  0  0
 24 46  1  0  0  0  0
 24 47  1  0  0  0  0
M  CHG  1  17   1
M  CHG  1  19  -1
M  END
> <s_m_source_file>
AV-unprocessed.smi

> <i_m_source_file_index>
911

> <i_lp_mmshare_version>
43012

> <i_f3d_flags>
0

> <s_epik_input>
W0NIM11bQ0BdMTJDKFtDSDNdKShbQ0gzXSlbQ0BIXShbQ0gyXVtDSDJdMSlbQ0gyXVtDQEBIXTJbTkhdQyg9TylbQ0gyXW4zW2NIXWMoW04rXSg9TylbTy1dKVtjSF1bY0hdYzM9Tw==

> <s_epik_cmdline>
J2VwaWtfcHl0aG9uJywgJy1waCcsICc3LjAnLCAnLXRuJywgJzgnLCAnLW1hJywgJzIwMCcsICctbWV0YWxfYmluZGluZycsICctaW1hZScsICc8aW5maWxlLm1hZT4nLCAnLW9tYWUnLCAnPG91dGZpbGUubWFlPic=

> <r_lp_tautomer_probability>
1

> <r_epik_Ionization_Penalty>
2.04092e-08

> <r_epik_Ionization_Penalty_Charging>
8.54191e-11

> <r_epik_Ionization_Penalty_Neutral>
2.03238e-08

> <r_epik_State_Penalty>
-0

> <r_epik_Charging_Adjusted_Penalty>
8.54191e-11

> <i_epik_Tot_Q>
0

> <i_epik_Tot_abs_Q>
2

> <r_epik_Metal_State_Penalty>
-0

> <b_epik_Metal_Only>
0

> <s_lp_Force_Field>
OPLS_2005

> <r_lp_Energy>
68.3511

> <b_lp_Chiralities_Consistent>
1

> <s_lp_Variant>
AV-unprocessed.smi:911-4

> <Gold.Version>
5.8.1

> <Gold.Id.Protein>
6NUR|6NUR_protein|mol2

> <Gold.PLP.Fitness>
51.1789

> <Gold.PLP.PLP>
-47.0572

> <Gold.PLP.part.hbond>
-2.8021

> <Gold.PLP.part.metal>
0.0000

> <Gold.PLP.part.buried>
-5.9319

> <Gold.PLP.part.nonpolar>
-38.6657

> <Gold.PLP.part.repulsive>
0.1955

> <Gold.PLP.ligand.clash>
0.0000

> <Gold.PLP.ligand.torsion>
0.6177

> <Gold.PLP.Chemscore.Hbond>
1.7775

> <Gold.PLP.Chemscore.CHOScore>
0.0000

> <Gold.PLP.Chemscore.Metal>
0.0000

> <Gold.Chemscore.Hbonds>
donor molecule, donor type, donor heavy atom, donor atom, acceptor molecule, acceptor atom, score
      P1  H  6896  6908       L1    18  0.62
      P1  H  7989  7998       L1    23  0.16
      P1  H  7997  8010       L1    23  0.99

> <Gold.PLP.Chemscore.Internal.Correction>
0.0247

> <Gold.Rescore>
     Score         DG    S(hbond)    S(metal)    S(lipo)     H(rot)  DE(clash)    DE(int)     intcor
     22.90     -23.83       2.00        0.00     133.31       1.53       0.05       0.89       ----

> <Gold.Chemscore.Fitness>
22.8986

> <Gold.Chemscore.DG>
-23.8350

> <Gold.Chemscore.ZeroCoef>
-5.4800

> <Gold.Chemscore.Hbond>
1.9968

> <Gold.Chemscore.Metal>
0.0000

> <Gold.Chemscore.Lipo>
133.3063

> <Gold.Chemscore.Internal_Hbond>
0.0000

> <Gold.Chemscore.DEClash>
0.0471

> <Gold.Chemscore.DEInternal>
0.8892

> <Gold.Chemscore.Rot>
1.5277

> <Gold.Chemscore.Internal.Correction>
   9.000000E+99

> <Gold.Chemscore.Hbonds>
donor molecule, donor type, donor heavy atom, donor atom, acceptor molecule, acceptor atom, score
      P1  H  6896  6908       L1    18  0.58
      P1  H  7989  7998       L1    23  0.13
      P1  H  7997  8010       L1    23  0.89

> <Gold.Chemscore.Hbond.Weighted>
-6.6692

> <Gold.Chemscore.Metal.Weighted>
-0.0000

> <Gold.Chemscore.Lipo.Weighted>
-15.5968

> <Gold.Chemscore.Internal_Hbond.Weighted>
0.0000

> <Gold.Chemscore.DEClash.Weighted>
0.0471

> <Gold.Chemscore.DEInternal.Weighted>
0.8892

> <Gold.Chemscore.Rot.Weighted>
3.9110

> <Gold.Chemscore.Internal.Correction.Weighted>
   9.000000E+99

> <Gold.Protein.RotatedTorsions>
[ 6907 6896 6895 6894 ] final  113.90 input  -60.11 | X-H torsion
[ 7974 7965 7964 7962 ] final    9.28 input  175.53 | X-H torsion
[ 8008 7997 7996 7995 ] final  109.63 input   59.86 | X-H torsion
[ 10167 10162 10161 10158 ] final -130.06 input  -65.29 | X-H torsion
[ 10718 10713 10712 10709 ] final   81.40 input   66.30 | X-H torsion
[ 10763 10752 10751 10750 ] final  163.15 input  -60.55 | X-H torsion
[ 11005 11000 10999 10996 ] final  -80.85 input  -57.11 | X-H torsion

> <Gold.Protein.ActiveResidues>
 VAL166  LYS551  ARG553  GLY616  TRP617  ASP618  TYR619  PRO620  LYS621  CYS622 
 ASP623  PHE694  ASN695  SER759  ASP760  ASP761  ALA762  ILE779  LEU786  VAL792 
 PHE793  MET794  SER795  GLU796  ALA797  LYS798  CYS799  TRP800  GLU811  SER814 

> <Gold.Protein.RotatedAtoms>
  152.4834  133.8311  159.7103 H   0  0  0  0  0  0  0  0  0  0  0  0  # atno 6907 bound_to 6896
  150.8901  133.7246  159.2914 H   0  0  0  0  0  0  0  0  0  0  0  0  # atno 6908 bound_to 6896
  151.4721  135.1050  159.9806 H   0  0  0  0  0  0  0  0  0  0  0  0  # atno 6909 bound_to 6896
  146.2405  139.9807  142.8436 H   0  0  0  0  0  0  0  0  0  0  0  0  # atno 7974 bound_to 7965
  156.1993  140.3054  155.9493 H   0  0  0  0  0  0  0  0  0  0  0  0  # atno 8008 bound_to 7997
  155.2991  140.0445  157.3045 H   0  0  0  0  0  0  0  0  0  0  0  0  # atno 8009 bound_to 7997
  154.5550  140.2303  155.8433 H   0  0  0  0  0  0  0  0  0  0  0  0  # atno 8010 bound_to 7997
  139.9333  143.6247  152.2524 H   0  0  0  0  0  0  0  0  0  0  0  0  # atno 10167 bound_to 10162
  157.6832  131.0002  150.2221 H   0  0  0  0  0  0  0  0  0  0  0  0  # atno 10718 bound_to 10713
  154.2894  135.2761  155.2662 H   0  0  0  0  0  0  0  0  0  0  0  0  # atno 10763 bound_to 10752
  154.5147  135.5772  153.6636 H   0  0  0  0  0  0  0  0  0  0  0  0  # atno 10764 bound_to 10752
  152.9916  135.6190  154.3057 H   0  0  0  0  0  0  0  0  0  0  0  0  # atno 10765 bound_to 10752
  141.1667  133.7169  156.8334 H   0  0  0  0  0  0  0  0  0  0  0  0  # atno 11005 bound_to 11000
  145.1595  140.9665  143.4385 LP  0  0  0  0  0  0  0  0  0  0  0  0  # atno 17320 bound_to 7965
  145.0130  139.3493  143.6111 LP  0  0  0  0  0  0  0  0  0  0  0  0  # atno 17321 bound_to 7965
  139.6764  144.7658  151.1688 LP  0  0  0  0  0  0  0  0  0  0  0  0  # atno 17342 bound_to 10162
  140.7631  143.5788  150.8916 LP  0  0  0  0  0  0  0  0  0  0  0  0  # atno 17343 bound_to 10162
  156.2870  130.3740  149.7879 LP  0  0  0  0  0  0  0  0  0  0  0  0  # atno 17370 bound_to 10713
  156.5549  130.8358  151.3311 LP  0  0  0  0  0  0  0  0  0  0  0  0  # atno 17371 bound_to 10713
  140.2035  134.8880  157.3195 LP  0  0  0  0  0  0  0  0  0  0  0  0  # atno 17394 bound_to 11000
  140.2162  134.4078  155.7588 LP  0  0  0  0  0  0  0  0  0  0  0  0  # atno 17395 bound_to 11000

$$$$
