AV-unprocessed.smi:1381|AV-procd|sdf|5612|dock3
  -GOLD-   22720 5223D 1   1.00000     0.00000
 Structure written by MMmdl.
 42 43  0  0  0  0  0  0  0  0  3 V2000
  152.7569  137.9457  158.3457 C   0  0  0  0  0  0  0  0  0  0  0  0
  152.3574  138.4972  157.0197 C   0  0  0  0  0  0  0  0  0  0  0  0
  151.1479  138.6364  156.4005 C   0  0  0  0  0  0  0  0  0  0  0  0
  151.4860  139.2388  155.1581 C   0  0  0  0  0  0  0  0  0  0  0  0
  150.6250  139.5647  154.1815 N   0  5  0  0  0  0  0  0  0  0  0  0
  149.3000  139.6444  154.4408 C   0  0  0  0  0  0  0  0  0  0  0  0
  148.7771  139.8094  155.5454 O   0  0  0  0  0  0  0  0  0  0  0  0
  148.5309  139.5198  153.3512 N   0  0  0  0  0  0  0  0  0  0  0  0
  147.0746  139.5467  153.3419 C   0  0  0  0  0  0  0  0  0  0  0  0
  146.5169  138.3349  154.1050 C   0  0  0  0  0  0  0  0  0  0  0  0
  146.6105  137.0754  153.3252 N   0  3  1  0  0  0  0  0  0  0  0  0
  146.6344  135.8779  154.1982 C   0  0  0  0  0  0  0  0  0  0  0  0
  146.7864  134.5948  153.3595 C   0  0  1  0  0  0  0  0  0  0  0  0
  146.7297  133.3300  154.2237 C   0  0  0  0  0  0  0  0  0  0  0  0
  145.7262  134.5301  152.4123 O   0  0  0  0  0  0  0  0  0  0  0  0
  145.7390  135.6249  151.5029 C   0  0  1  0  0  0  0  0  0  0  0  0
  144.6222  135.4065  150.4761 C   0  0  0  0  0  0  0  0  0  0  0  0
  145.5560  136.9361  152.2900 C   0  0  0  0  0  0  0  0  0  0  0  0
  152.7877  139.4339  155.0283 N   0  0  0  0  0  0  0  0  0  0  0  0
  153.3534  138.9669  156.2208 O   0  0  0  0  0  0  0  0  0  0  0  0
  152.5244  136.8825  158.4057 H   0  0  0  0  0  0  0  0  0  0  0  0
  152.2251  138.4537  159.1500 H   0  0  0  0  0  0  0  0  0  0  0  0
  153.8264  138.0679  158.5178 H   0  0  0  0  0  0  0  0  0  0  0  0
  150.1758  138.3550  156.7765 H   0  0  0  0  0  0  0  0  0  0  0  0
  148.9978  139.3904  152.4654 H   0  0  0  0  0  0  0  0  0  0  0  0
  146.7355  140.4783  153.7953 H   0  0  0  0  0  0  0  0  0  0  0  0
  146.7246  139.5407  152.3087 H   0  0  0  0  0  0  0  0  0  0  0  0
  147.0879  138.2232  155.0283 H   0  0  0  0  0  0  0  0  0  0  0  0
  145.4812  138.5093  154.4011 H   0  0  0  0  0  0  0  0  0  0  0  0
  147.4624  135.9541  154.9045 H   0  0  0  0  0  0  0  0  0  0  0  0
  145.7148  135.8387  154.7849 H   0  0  0  0  0  0  0  0  0  0  0  0
  147.7409  134.6114  152.8303 H   0  0  0  0  0  0  0  0  0  0  0  0
  147.5333  133.3205  154.9603 H   0  0  0  0  0  0  0  0  0  0  0  0
  146.8309  132.4340  153.6105 H   0  0  0  0  0  0  0  0  0  0  0  0
  145.7826  133.2601  154.7599 H   0  0  0  0  0  0  0  0  0  0  0  0
  146.6943  135.6426  150.9755 H   0  0  0  0  0  0  0  0  0  0  0  0
  144.5947  136.2175  149.7477 H   0  0  0  0  0  0  0  0  0  0  0  0
  143.6456  135.3564  150.9583 H   0  0  0  0  0  0  0  0  0  0  0  0
  144.7720  134.4749  149.9297 H   0  0  0  0  0  0  0  0  0  0  0  0
  144.5741  136.9563  152.7660 H   0  0  0  0  0  0  0  0  0  0  0  0
  145.5910  137.7747  151.5957 H   0  0  0  0  0  0  0  0  0  0  0  0
  147.4991  137.0970  152.8453 H   0  0  0  0  0  0  0  0  0  0  0  0
  1  2  1  0  0  0  0
  1 21  1  0  0  0  0
  1 22  1  0  0  0  0
  1 23  1  0  0  0  0
  2 20  1  0  0  0  0
  2  3  2  0  0  0  0
  3  4  1  0  0  0  0
  3 24  1  0  0  0  0
  4  5  1  0  0  0  0
  4 19  2  0  0  0  0
  5  6  1  0  0  0  0
  6  7  2  0  0  0  0
  6  8  1  0  0  0  0
  8  9  1  0  0  0  0
  8 25  1  0  0  0  0
  9 10  1  0  0  0  0
  9 26  1  0  0  0  0
  9 27  1  0  0  0  0
 10 11  1  0  0  0  0
 10 28  1  0  0  0  0
 10 29  1  0  0  0  0
 11 18  1  0  0  0  0
 11 12  1  0  0  0  0
 11 42  1  0  0  0  0
 12 13  1  0  0  0  0
 12 30  1  0  0  0  0
 12 31  1  0  0  0  0
 13 14  1  0  0  0  0
 13 15  1  0  0  0  0
 13 32  1  0  0  0  0
 14 33  1  0  0  0  0
 14 34  1  0  0  0  0
 14 35  1  0  0  0  0
 15 16  1  0  0  0  0
 16 17  1  0  0  0  0
 16 18  1  0  0  0  0
 16 36  1  0  0  0  0
 17 37  1  0  0  0  0
 17 38  1  0  0  0  0
 17 39  1  0  0  0  0
 18 40  1  0  0  0  0
 18 41  1  0  0  0  0
 19 20  1  0  0  0  0
M  CHG  1   5  -1
M  CHG  1  11   1
M  END
> <s_m_source_file>
AV-unprocessed.smi

> <i_m_source_file_index>
1381

> <i_lp_mmshare_version>
43012

> <i_f3d_flags>
0

> <s_epik_input>
W0NIM11jMVtjSF1jKG5vMSlbTkhdQyg9TylbTkhdW0NIMl1bQ0gyXU4yW0NIMl1bQ0BASF0oW0NIM10pT1tDQEBIXShbQ0gzXSlbQ0gyXTI=

> <s_epik_cmdline>
J2VwaWtfcHl0aG9uJywgJy1waCcsICc3LjAnLCAnLXRuJywgJzgnLCAnLW1hJywgJzIwMCcsICctbWV0YWxfYmluZGluZycsICctaW1hZScsICc8aW5maWxlLm1hZT4nLCAnLW9tYWUnLCAnPG91dGZpbGUubWFlPic=

> <r_epik_Ionization_Penalty>
6.73511

> <r_epik_Ionization_Penalty_Charging>
6.73502

> <r_epik_Ionization_Penalty_Neutral>
9.26583e-05

> <r_epik_State_Penalty>
6.93549

> <r_epik_Charging_Adjusted_Penalty>
13.6705

> <i_epik_Tot_Q>
0

> <i_epik_Tot_abs_Q>
2

> <r_epik_Metal_State_Penalty>
2.87211

> <b_epik_Metal_Only>
1

> <s_lp_Force_Field>
OPLS_2005

> <r_lp_Energy>
2.9367

> <b_lp_Chiralities_Consistent>
1

> <s_lp_Variant>
AV-unprocessed.smi:1381-11

> <Gold.Version>
5.8.1

> <Gold.Id.Protein>
6NUR|6NUR_protein|mol2

> <Gold.PLP.Fitness>
39.5859

> <Gold.PLP.PLP>
-25.8624

> <Gold.PLP.part.hbond>
-5.4432

> <Gold.PLP.part.metal>
0.0000

> <Gold.PLP.part.buried>
-3.8337

> <Gold.PLP.part.nonpolar>
-17.7728

> <Gold.PLP.part.repulsive>
0.3897

> <Gold.PLP.ligand.clash>
0.0000

> <Gold.PLP.ligand.torsion>
0.4494

> <Gold.PLP.Chemscore.Hbond>
4.8420

> <Gold.PLP.Chemscore.CHOScore>
0.0000

> <Gold.PLP.Chemscore.Metal>
0.0000

> <Gold.Chemscore.Hbonds>
donor molecule, donor type, donor heavy atom, donor atom, acceptor molecule, acceptor atom, score
      L1  H     8    25       P1  7957  0.98
      L1  H    11    42       P1  7948  2.00
      P1  H  7989  7998       L1     5  0.80
      P1  H  7997  8010       L1    20  0.99

> <Gold.PLP.Chemscore.Internal.Correction>
0.0962

> <Gold.Rescore>
     Score         DG    S(hbond)    S(metal)    S(lipo)     H(rot)  DE(clash)    DE(int)     intcor
     13.83     -15.70       2.61        0.00      47.40       1.58       0.04       1.83       ----

> <Gold.Chemscore.Fitness>
13.8274

> <Gold.Chemscore.DG>
-15.6978

> <Gold.Chemscore.ZeroCoef>
-5.4800

> <Gold.Chemscore.Hbond>
2.6092

> <Gold.Chemscore.Metal>
0.0000

> <Gold.Chemscore.Lipo>
47.3998

> <Gold.Chemscore.Internal_Hbond>
0.0000

> <Gold.Chemscore.DEClash>
0.0369

> <Gold.Chemscore.DEInternal>
1.8335

> <Gold.Chemscore.Rot>
1.5792

> <Gold.Chemscore.Internal.Correction>
   9.000000E+99

> <Gold.Chemscore.Hbonds>
donor molecule, donor type, donor heavy atom, donor atom, acceptor molecule, acceptor atom, score
      L1  H     8    25       P1  7957  0.91
      L1  H    11    42       P1  7948  0.95
      P1  H  7989  7998       L1     5  0.12
      P1  H  7997  8010       L1    20  0.31

> <Gold.Chemscore.Hbond.Weighted>
-8.7148

> <Gold.Chemscore.Metal.Weighted>
-0.0000

> <Gold.Chemscore.Lipo.Weighted>
-5.5458

> <Gold.Chemscore.Internal_Hbond.Weighted>
0.0000

> <Gold.Chemscore.DEClash.Weighted>
0.0369

> <Gold.Chemscore.DEInternal.Weighted>
1.8335

> <Gold.Chemscore.Rot.Weighted>
4.0428

> <Gold.Chemscore.Internal.Correction.Weighted>
   9.000000E+99

> <Gold.Protein.RotatedTorsions>
[ 6907 6896 6895 6894 ] final  -29.33 input  -60.11 | X-H torsion
[ 7974 7965 7964 7962 ] final -165.18 input  175.53 | X-H torsion
[ 8008 7997 7996 7995 ] final   63.99 input   59.86 | X-H torsion
[ 10167 10162 10161 10158 ] final -111.44 input  -65.29 | X-H torsion
[ 10718 10713 10712 10709 ] final -134.44 input   66.30 | X-H torsion
[ 10763 10752 10751 10750 ] final  107.55 input  -60.55 | X-H torsion
[ 11005 11000 10999 10996 ] final -140.70 input  -57.11 | X-H torsion

> <Gold.Protein.ActiveResidues>
 VAL166  LYS551  ARG553  GLY616  TRP617  ASP618  TYR619  PRO620  LYS621  CYS622 
 ASP623  PHE694  ASN695  SER759  ASP760  ASP761  ALA762  ILE779  LEU786  VAL792 
 PHE793  MET794  SER795  GLU796  ALA797  LYS798  CYS799  TRP800  GLU811  SER814 

> <Gold.Protein.RotatedAtoms>
  151.1206  135.0077  159.8536 H   0  0  0  0  0  0  0  0  0  0  0  0  # atno 6907 bound_to 6896
  152.5447  134.1726  159.8613 H   0  0  0  0  0  0  0  0  0  0  0  0  # atno 6908 bound_to 6896
  151.1784  133.4695  159.2627 H   0  0  0  0  0  0  0  0  0  0  0  0  # atno 6909 bound_to 6896
  144.7277  140.2851  143.6229 H   0  0  0  0  0  0  0  0  0  0  0  0  # atno 7974 bound_to 7965
  155.6389  140.3496  155.4708 H   0  0  0  0  0  0  0  0  0  0  0  0  # atno 8008 bound_to 7997
  155.9942  140.1200  157.0633 H   0  0  0  0  0  0  0  0  0  0  0  0  # atno 8009 bound_to 7997
  154.4228  140.1113  156.5593 H   0  0  0  0  0  0  0  0  0  0  0  0  # atno 8010 bound_to 7997
  140.1335  143.4340  152.1611 H   0  0  0  0  0  0  0  0  0  0  0  0  # atno 10167 bound_to 10162
  156.2555  130.7178  151.1093 H   0  0  0  0  0  0  0  0  0  0  0  0  # atno 10718 bound_to 10713
  153.4083  135.3840  155.2034 H   0  0  0  0  0  0  0  0  0  0  0  0  # atno 10763 bound_to 10752
  154.8735  135.3788  154.4532 H   0  0  0  0  0  0  0  0  0  0  0  0  # atno 10764 bound_to 10752
  153.5037  135.7088  153.5880 H   0  0  0  0  0  0  0  0  0  0  0  0  # atno 10765 bound_to 10752
  140.8397  134.2417  157.4816 H   0  0  0  0  0  0  0  0  0  0  0  0  # atno 11005 bound_to 11000
  145.7910  139.1927  143.2103 LP  0  0  0  0  0  0  0  0  0  0  0  0  # atno 17320 bound_to 7965
  146.0755  140.7821  142.9667 LP  0  0  0  0  0  0  0  0  0  0  0  0  # atno 17321 bound_to 7965
  139.5507  144.7335  151.4443 LP  0  0  0  0  0  0  0  0  0  0  0  0  # atno 17342 bound_to 10162
  140.6803  143.8098  150.7112 LP  0  0  0  0  0  0  0  0  0  0  0  0  # atno 17343 bound_to 10162
  157.7231  131.0668  150.6051 LP  0  0  0  0  0  0  0  0  0  0  0  0  # atno 17370 bound_to 10713
  156.6135  130.4386  149.5850 LP  0  0  0  0  0  0  0  0  0  0  0  0  # atno 17371 bound_to 10713
  139.8703  134.9629  156.4444 LP  0  0  0  0  0  0  0  0  0  0  0  0  # atno 17394 bound_to 11000
  140.8909  133.7849  155.9570 LP  0  0  0  0  0  0  0  0  0  0  0  0  # atno 17395 bound_to 11000

$$$$
