AV-unprocessed.smi:1005|AV-procd|sdf|4366|dock3
  -GOLD-   22720 2273D 1   1.00000     0.00000
 Structure written by MMmdl.
 57 59  0  0  0  0  0  0  0  0  3 V2000
  152.3664  143.1848  160.9291 C   0  0  0  0  0  0  0  0  0  0  0  0
  151.9840  142.3549  159.7161 C   0  0  0  0  0  0  0  0  0  0  0  0
  152.6890  141.1589  159.4518 C   0  0  0  0  0  0  0  0  0  0  0  0
  152.3660  140.3601  158.3334 C   0  0  0  0  0  0  0  0  0  0  0  0
  152.9178  139.1709  157.8886 N   0  0  0  0  0  0  0  0  0  0  0  0
  152.1914  138.9279  156.8020 C   0  0  0  0  0  0  0  0  0  0  0  0
  151.2356  139.8228  156.4861 N   0  0  0  0  0  0  0  0  0  0  0  0
  150.3324  139.7709  155.3502 C   0  0  0  0  0  0  0  0  0  0  0  0
  150.1346  138.3367  154.8238 C   0  0  2  0  0  0  0  0  0  0  0  0
  150.2031  138.3405  153.4102 O   0  0  0  0  0  0  0  0  0  0  0  0
  148.7713  137.7545  155.2446 C   0  0  0  0  0  0  0  0  0  0  0  0
  148.5206  136.4172  154.6492 N   0  3  1  0  0  0  0  0  0  0  0  0
  149.5193  135.3938  155.0434 C   0  0  0  0  0  0  0  0  0  0  0  0
  149.2180  134.0589  154.3440 C   0  0  0  0  0  0  0  0  0  0  0  0
  147.8932  133.6456  154.6573 O   0  0  0  0  0  0  0  0  0  0  0  0
  146.9118  134.5719  154.2018 C   0  0  1  0  0  0  0  0  0  0  0  0
  145.5209  133.9955  154.5292 C   0  0  0  0  0  0  0  0  0  0  0  0
  145.1168  132.8974  153.6133 N   0  3  0  0  0  0  0  0  0  0  0  0
  145.9549  131.6823  153.7408 C   0  0  0  0  0  0  0  0  0  0  0  0
  145.0346  133.3507  152.2068 C   0  0  0  0  0  0  0  0  0  0  0  0
  147.1472  135.9230  154.9078 C   0  0  0  0  0  0  0  0  0  0  0  0
  151.3102  140.7938  157.4792 C   0  0  0  0  0  0  0  0  0  0  0  0
  150.6009  141.9811  157.7320 C   0  0  0  0  0  0  0  0  0  0  0  0
  150.9357  142.7669  158.8545 C   0  0  0  0  0  0  0  0  0  0  0  0
  150.1626  144.0463  159.1203 C   0  0  0  0  0  0  0  0  0  0  0  0
  153.1943  142.7330  161.4762 H   0  0  0  0  0  0  0  0  0  0  0  0
  151.5220  143.2734  161.6130 H   0  0  0  0  0  0  0  0  0  0  0  0
  152.6736  144.1858  160.6255 H   0  0  0  0  0  0  0  0  0  0  0  0
  153.4874  140.8447  160.1080 H   0  0  0  0  0  0  0  0  0  0  0  0
  152.3673  138.0503  156.1966 H   0  0  0  0  0  0  0  0  0  0  0  0
  149.3752  140.1941  155.6583 H   0  0  0  0  0  0  0  0  0  0  0  0
  150.7199  140.4200  154.5639 H   0  0  0  0  0  0  0  0  0  0  0  0
  150.9465  137.7161  155.2022 H   0  0  0  0  0  0  0  0  0  0  0  0
  149.8427  137.5267  153.0899 H   0  0  0  0  0  0  0  0  0  0  0  0
  148.7010  137.6852  156.3313 H   0  0  0  0  0  0  0  0  0  0  0  0
  147.9888  138.4491  154.9345 H   0  0  0  0  0  0  0  0  0  0  0  0
  150.5259  135.7193  154.7833 H   0  0  0  0  0  0  0  0  0  0  0  0
  149.4978  135.2578  156.1261 H   0  0  0  0  0  0  0  0  0  0  0  0
  149.3407  134.1474  153.2633 H   0  0  0  0  0  0  0  0  0  0  0  0
  149.9159  133.2926  154.6819 H   0  0  0  0  0  0  0  0  0  0  0  0
  147.0152  134.7150  153.1257 H   0  0  0  0  0  0  0  0  0  0  0  0
  145.5404  133.6221  155.5544 H   0  0  0  0  0  0  0  0  0  0  0  0
  144.7645  134.7817  154.5049 H   0  0  0  0  0  0  0  0  0  0  0  0
  146.9967  131.8979  153.4993 H   0  0  0  0  0  0  0  0  0  0  0  0
  145.6054  130.9041  153.0612 H   0  0  0  0  0  0  0  0  0  0  0  0
  145.9152  131.2691  154.7478 H   0  0  0  0  0  0  0  0  0  0  0  0
  146.0117  133.6691  151.8409 H   0  0  0  0  0  0  0  0  0  0  0  0
  144.3419  134.1871  152.1075 H   0  0  0  0  0  0  0  0  0  0  0  0
  144.6731  132.5481  151.5627 H   0  0  0  0  0  0  0  0  0  0  0  0
  146.9944  135.8226  155.9838 H   0  0  0  0  0  0  0  0  0  0  0  0
  146.4221  136.6539  154.5472 H   0  0  0  0  0  0  0  0  0  0  0  0
  149.8057  142.2852  157.0676 H   0  0  0  0  0  0  0  0  0  0  0  0
  149.3930  144.2102  158.3654 H   0  0  0  0  0  0  0  0  0  0  0  0
  150.8315  144.9069  159.1083 H   0  0  0  0  0  0  0  0  0  0  0  0
  149.6726  144.0013  160.0931 H   0  0  0  0  0  0  0  0  0  0  0  0
  144.1766  132.6349  153.8738 H   0  0  0  0  0  0  0  0  0  0  0  0
  148.5952  136.5387  153.6486 H   0  0  0  0  0  0  0  0  0  0  0  0
  1  2  1  0  0  0  0
  1 26  1  0  0  0  0
  1 27  1  0  0  0  0
  1 28  1  0  0  0  0
  2 24  1  0  0  0  0
  2  3  2  0  0  0  0
  3  4  1  0  0  0  0
  3 29  1  0  0  0  0
  4 22  2  0  0  0  0
  4  5  1  0  0  0  0
  5  6  2  0  0  0  0
  6  7  1  0  0  0  0
  6 30  1  0  0  0  0
  7  8  1  0  0  0  0
  7 22  1  0  0  0  0
  8  9  1  0  0  0  0
  8 31  1  0  0  0  0
  8 32  1  0  0  0  0
  9 10  1  0  0  0  0
  9 11  1  0  0  0  0
  9 33  1  0  0  0  0
 10 34  1  0  0  0  0
 11 12  1  0  0  0  0
 11 35  1  0  0  0  0
 11 36  1  0  0  0  0
 12 21  1  0  0  0  0
 12 13  1  0  0  0  0
 12 57  1  0  0  0  0
 13 14  1  0  0  0  0
 13 37  1  0  0  0  0
 13 38  1  0  0  0  0
 14 15  1  0  0  0  0
 14 39  1  0  0  0  0
 14 40  1  0  0  0  0
 15 16  1  0  0  0  0
 16 17  1  0  0  0  0
 16 21  1  0  0  0  0
 16 41  1  0  0  0  0
 17 18  1  0  0  0  0
 17 42  1  0  0  0  0
 17 43  1  0  0  0  0
 18 19  1  0  0  0  0
 18 20  1  0  0  0  0
 18 56  1  0  0  0  0
 19 44  1  0  0  0  0
 19 45  1  0  0  0  0
 19 46  1  0  0  0  0
 20 47  1  0  0  0  0
 20 48  1  0  0  0  0
 20 49  1  0  0  0  0
 21 50  1  0  0  0  0
 21 51  1  0  0  0  0
 22 23  1  0  0  0  0
 23 24  2  0  0  0  0
 23 52  1  0  0  0  0
 24 25  1  0  0  0  0
 25 53  1  0  0  0  0
 25 54  1  0  0  0  0
 25 55  1  0  0  0  0
M  CHG  1  12   1
M  CHG  1  18   1
M  END
> <s_m_source_file>
AV-unprocessed.smi

> <i_m_source_file_index>
1005

> <i_lp_mmshare_version>
43012

> <i_f3d_flags>
0

> <s_epik_input>
W0NIM11jKFtjSF0xKWMoW0NIM10pW2NIXWMoYzEyKW4oW2NIXW4yKVtDSDJdW0NASF0oW09IXSlbQ0gyXU4zW0NIMl1bQ0gyXU9bQ0BIXShbQ0gyXTMpW0NIMl1OKFtDSDNdKVtDSDNd

> <s_epik_cmdline>
J2VwaWtfcHl0aG9uJywgJy1waCcsICc3LjAnLCAnLXRuJywgJzgnLCAnLW1hJywgJzIwMCcsICctbWV0YWxfYmluZGluZycsICctaW1hZScsICc8aW5maWxlLm1hZT4nLCAnLW9tYWUnLCAnPG91dGZpbGUubWFlPic=

> <r_epik_Ionization_Penalty>
1.0968

> <r_epik_Ionization_Penalty_Charging>
1.0096

> <r_epik_Ionization_Penalty_Neutral>
0.0871956

> <r_epik_State_Penalty>
1.31185

> <r_epik_Charging_Adjusted_Penalty>
2.32145

> <i_epik_Tot_Q>
2

> <i_epik_Tot_abs_Q>
2

> <r_epik_Metal_State_Penalty>
1.22442

> <b_epik_Metal_Only>
0

> <s_lp_Force_Field>
OPLS_2005

> <r_lp_Energy>
32.7622

> <b_lp_Chiralities_Consistent>
1

> <s_lp_Variant>
AV-unprocessed.smi:1005-5

> <Gold.Version>
5.8.1

> <Gold.Id.Protein>
6NUR|6NUR_protein|mol2

> <Gold.PLP.Fitness>
56.2019

> <Gold.PLP.PLP>
-40.2295

> <Gold.PLP.part.hbond>
-5.6148

> <Gold.PLP.part.metal>
0.0000

> <Gold.PLP.part.buried>
-3.9500

> <Gold.PLP.part.nonpolar>
-31.5523

> <Gold.PLP.part.repulsive>
0.0563

> <Gold.PLP.ligand.clash>
0.0000

> <Gold.PLP.ligand.torsion>
1.1163

> <Gold.PLP.Chemscore.Hbond>
6.0000

> <Gold.PLP.Chemscore.CHOScore>
0.0000

> <Gold.PLP.Chemscore.Metal>
0.0000

> <Gold.Chemscore.Hbonds>
donor molecule, donor type, donor heavy atom, donor atom, acceptor molecule, acceptor atom, score
      L1  H    10    34       P1  7948  1.00
      L1  H    12    57       P1  7948  2.00
      L1  H    18    56       P1 10957  2.00
      P1  H  7997  8008       L1     5  0.68

> <Gold.PLP.Chemscore.Internal.Correction>
0.2050

> <Gold.Rescore>
     Score         DG    S(hbond)    S(metal)    S(lipo)     H(rot)  DE(clash)    DE(int)     intcor
     18.37     -20.69       2.77        0.00     105.25       2.48       0.01       2.30       ----

> <Gold.Chemscore.Fitness>
18.3740

> <Gold.Chemscore.DG>
-20.6885

> <Gold.Chemscore.ZeroCoef>
-5.4800

> <Gold.Chemscore.Hbond>
2.7684

> <Gold.Chemscore.Metal>
0.0000

> <Gold.Chemscore.Lipo>
105.2512

> <Gold.Chemscore.Internal_Hbond>
0.0000

> <Gold.Chemscore.DEClash>
0.0117

> <Gold.Chemscore.DEInternal>
2.3028

> <Gold.Chemscore.Rot>
2.4814

> <Gold.Chemscore.Internal.Correction>
   9.000000E+99

> <Gold.Chemscore.Hbonds>
donor molecule, donor type, donor heavy atom, donor atom, acceptor molecule, acceptor atom, score
      L1  H    10    34       P1  7948  0.44
      L1  H    12    57       P1  7948  1.00
      L1  H    18    56       P1 10957  0.69
      P1  H  7997  8008       L1     5  0.03

> <Gold.Chemscore.Hbond.Weighted>
-9.2465

> <Gold.Chemscore.Metal.Weighted>
-0.0000

> <Gold.Chemscore.Lipo.Weighted>
-12.3144

> <Gold.Chemscore.Internal_Hbond.Weighted>
0.0000

> <Gold.Chemscore.DEClash.Weighted>
0.0117

> <Gold.Chemscore.DEInternal.Weighted>
2.3028

> <Gold.Chemscore.Rot.Weighted>
6.3524

> <Gold.Chemscore.Internal.Correction.Weighted>
   9.000000E+99

> <Gold.Protein.RotatedTorsions>
[ 6907 6896 6895 6894 ] final  -80.43 input  -60.11 | X-H torsion
[ 7974 7965 7964 7962 ] final -128.15 input  175.53 | X-H torsion
[ 8008 7997 7996 7995 ] final  -91.07 input   59.86 | X-H torsion
[ 10167 10162 10161 10158 ] final  -45.00 input  -65.29 | X-H torsion
[ 10718 10713 10712 10709 ] final  -69.49 input   66.30 | X-H torsion
[ 10763 10752 10751 10750 ] final  147.15 input  -60.55 | X-H torsion
[ 11005 11000 10999 10996 ] final  -96.68 input  -57.11 | X-H torsion

> <Gold.Protein.ActiveResidues>
 VAL166  LYS551  ARG553  GLY616  TRP617  ASP618  TYR619  PRO620  LYS621  CYS622 
 ASP623  PHE694  ASN695  SER759  ASP760  ASP761  ALA762  ILE779  LEU786  VAL792 
 PHE793  MET794  SER795  GLU796  ALA797  LYS798  CYS799  TRP800  GLU811  SER814 

> <Gold.Protein.RotatedAtoms>
  150.6930  134.3971  159.5101 H   0  0  0  0  0  0  0  0  0  0  0  0  # atno 6907 bound_to 6896
  152.1750  134.8799  160.0540 H   0  0  0  0  0  0  0  0  0  0  0  0  # atno 6908 bound_to 6896
  151.9811  133.3723  159.4145 H   0  0  0  0  0  0  0  0  0  0  0  0  # atno 6909 bound_to 6896
  144.9699  140.7535  143.4677 H   0  0  0  0  0  0  0  0  0  0  0  0  # atno 7974 bound_to 7965
  154.7063  140.0523  157.0507 H   0  0  0  0  0  0  0  0  0  0  0  0  # atno 8008 bound_to 7997
  155.0616  140.3190  155.4640 H   0  0  0  0  0  0  0  0  0  0  0  0  # atno 8009 bound_to 7997
  156.2775  140.2098  156.5743 H   0  0  0  0  0  0  0  0  0  0  0  0  # atno 8010 bound_to 7997
  140.6875  143.2902  151.3576 H   0  0  0  0  0  0  0  0  0  0  0  0  # atno 10167 bound_to 10162
  156.0453  130.4313  150.2155 H   0  0  0  0  0  0  0  0  0  0  0  0  # atno 10718 bound_to 10713
  154.0336  135.2895  155.3365 H   0  0  0  0  0  0  0  0  0  0  0  0  # atno 10763 bound_to 10752
  154.6972  135.5203  153.8479 H   0  0  0  0  0  0  0  0  0  0  0  0  # atno 10764 bound_to 10752
  153.0629  135.6620  154.0547 H   0  0  0  0  0  0  0  0  0  0  0  0  # atno 10765 bound_to 10752
  141.1404  133.8115  157.0604 H   0  0  0  0  0  0  0  0  0  0  0  0  # atno 11005 bound_to 11000
  145.2574  139.2006  143.4910 LP  0  0  0  0  0  0  0  0  0  0  0  0  # atno 17320 bound_to 7965
  146.3379  140.2498  142.8598 LP  0  0  0  0  0  0  0  0  0  0  0  0  # atno 17321 bound_to 7965
  139.6247  144.0838  152.2423 LP  0  0  0  0  0  0  0  0  0  0  0  0  # atno 17342 bound_to 10162
  140.0293  144.6093  150.7501 LP  0  0  0  0  0  0  0  0  0  0  0  0  # atno 17343 bound_to 10162
  157.0245  130.9989  151.3330 LP  0  0  0  0  0  0  0  0  0  0  0  0  # atno 17370 bound_to 10713
  157.5321  130.8065  149.7928 LP  0  0  0  0  0  0  0  0  0  0  0  0  # atno 17371 bound_to 10713
  140.0575  134.9772  157.1246 LP  0  0  0  0  0  0  0  0  0  0  0  0  # atno 17394 bound_to 11000
  140.3897  134.2197  155.7166 LP  0  0  0  0  0  0  0  0  0  0  0  0  # atno 17395 bound_to 11000

$$$$
