AV-unprocessed.smi:2086|AV-procd|sdf|8519|dock3
  -GOLD-   2272011233D 1   1.00000     0.00000
 Structure written by MMmdl.
 33 34  0  0  0  0  0  0  0  0  2 V2000
  151.8707  139.0603  158.8554 O   0  0  0  0  0  0  0  0  0  0  0  0
  152.7696  139.9076  158.8973 C   0  0  0  0  0  0  0  0  0  0  0  0
  154.1123  139.7463  159.0584 N   0  5  0  0  0  0  0  0  0  0  0  0
  154.8450  140.1530  160.2569 C   0  0  0  0  0  0  0  0  0  0  0  0
  155.3217  138.9199  161.0468 C   0  0  0  0  0  0  0  0  0  0  0  0
  155.8329  139.3180  162.2119 F   0  0  0  0  0  0  0  0  0  0  0  0
  154.3048  138.0921  161.2926 F   0  0  0  0  0  0  0  0  0  0  0  0
  156.2680  138.2643  160.3727 F   0  0  0  0  0  0  0  0  0  0  0  0
  152.3833  141.3492  158.6813 C   0  0  0  0  0  0  0  0  0  0  0  0
  152.8661  142.3140  159.5933 C   0  0  0  0  0  0  0  0  0  0  0  0
  152.5179  143.6660  159.4278 C   0  0  0  0  0  0  0  0  0  0  0  0
  151.6968  144.0105  158.3412 C   0  0  0  0  0  0  0  0  0  0  0  0
  151.2426  143.1116  157.4456 N   0  0  0  0  0  0  0  0  0  0  0  0
  151.5770  141.8044  157.5917 C   0  0  0  0  0  0  0  0  0  0  0  0
  151.1234  140.9298  156.5825 N   0  0  0  0  0  0  0  0  0  0  0  0
  150.1466  141.4390  155.6265 C   0  0  0  0  0  0  0  0  0  0  0  0
  149.5687  140.2742  154.8049 C   0  0  0  0  0  0  0  0  0  0  0  0
  150.6287  139.5557  154.1790 O   0  0  0  0  0  0  0  0  0  0  0  0
  151.5329  138.9990  155.1303 C   0  0  0  0  0  0  0  0  0  0  0  0
  152.1684  140.1255  155.9626 C   0  0  0  0  0  0  0  0  0  0  0  0
  155.7141  140.7649  160.0097 H   0  0  0  0  0  0  0  0  0  0  0  0
  154.2250  140.7718  160.9072 H   0  0  0  0  0  0  0  0  0  0  0  0
  153.4903  142.0215  160.4255 H   0  0  0  0  0  0  0  0  0  0  0  0
  152.8679  144.4177  160.1193 H   0  0  0  0  0  0  0  0  0  0  0  0
  151.4035  145.0375  158.1810 H   0  0  0  0  0  0  0  0  0  0  0  0
  149.3460  141.9587  156.1543 H   0  0  0  0  0  0  0  0  0  0  0  0
  150.6243  142.1601  154.9620 H   0  0  0  0  0  0  0  0  0  0  0  0
  148.9859  139.6039  155.4387 H   0  0  0  0  0  0  0  0  0  0  0  0
  148.8942  140.6539  154.0376 H   0  0  0  0  0  0  0  0  0  0  0  0
  151.0103  138.2894  155.7740 H   0  0  0  0  0  0  0  0  0  0  0  0
  152.3056  138.4405  154.6022 H   0  0  0  0  0  0  0  0  0  0  0  0
  152.7785  140.7655  155.3241 H   0  0  0  0  0  0  0  0  0  0  0  0
  152.8326  139.7009  156.7152 H   0  0  0  0  0  0  0  0  0  0  0  0
  1  2  2  0  0  0  0
  2  3  1  0  0  0  0
  2  9  1  0  0  0  0
  3  4  1  0  0  0  0
  4  5  1  0  0  0  0
  4 21  1  0  0  0  0
  4 22  1  0  0  0  0
  5  6  1  0  0  0  0
  5  7  1  0  0  0  0
  5  8  1  0  0  0  0
  9 14  1  0  0  0  0
  9 10  2  0  0  0  0
 10 11  1  0  0  0  0
 10 23  1  0  0  0  0
 11 12  2  0  0  0  0
 11 24  1  0  0  0  0
 12 13  1  0  0  0  0
 12 25  1  0  0  0  0
 13 14  2  0  0  0  0
 14 15  1  0  0  0  0
 15 20  1  0  0  0  0
 15 16  1  0  0  0  0
 16 17  1  0  0  0  0
 16 26  1  0  0  0  0
 16 27  1  0  0  0  0
 17 18  1  0  0  0  0
 17 28  1  0  0  0  0
 17 29  1  0  0  0  0
 18 19  1  0  0  0  0
 19 20  1  0  0  0  0
 19 30  1  0  0  0  0
 19 31  1  0  0  0  0
 20 32  1  0  0  0  0
 20 33  1  0  0  0  0
M  CHG  1   3  -1
M  END
> <s_m_source_file>
AV-unprocessed.smi

> <i_m_source_file_index>
2086

> <i_lp_mmshare_version>
43012

> <i_f3d_flags>
0

> <s_epik_input>
RkMoRikoRilbQ0gyXVtOSF1DKD1PKWMxW2NIXVtjSF1bY0hdbmMxTjJbQ0gyXVtDSDJdT1tDSDJdW0NIMl0y

> <s_epik_cmdline>
J2VwaWtfcHl0aG9uJywgJy1waCcsICc3LjAnLCAnLXRuJywgJzgnLCAnLW1hJywgJzIwMCcsICctbWV0YWxfYmluZGluZycsICctaW1hZScsICc8aW5maWxlLm1hZT4nLCAnLW9tYWUnLCAnPG91dGZpbGUubWFlPic=

> <r_lp_tautomer_probability>
1

> <r_epik_Ionization_Penalty>
6.70774

> <r_epik_Ionization_Penalty_Charging>
6.70732

> <r_epik_Ionization_Penalty_Neutral>
0.000422769

> <r_epik_State_Penalty>
6.70731

> <r_epik_Charging_Adjusted_Penalty>
13.4146

> <i_epik_Tot_Q>
-1

> <i_epik_Tot_abs_Q>
1

> <r_epik_Metal_State_Penalty>
2.62875

> <b_epik_Metal_Only>
1

> <s_lp_Force_Field>
OPLS_2005

> <r_lp_Energy>
34.3175

> <b_lp_Chiralities_Consistent>
1

> <s_lp_Variant>
AV-unprocessed.smi:2086-2

> <Gold.Version>
5.8.1

> <Gold.Id.Protein>
6NUR|6NUR_protein|mol2

> <Gold.PLP.Fitness>
43.4154

> <Gold.PLP.PLP>
-37.1159

> <Gold.PLP.part.hbond>
-2.0000

> <Gold.PLP.part.metal>
0.0000

> <Gold.PLP.part.buried>
-4.3792

> <Gold.PLP.part.nonpolar>
-30.7654

> <Gold.PLP.part.repulsive>
0.4394

> <Gold.PLP.ligand.clash>
0.0000

> <Gold.PLP.ligand.torsion>
1.7925

> <Gold.PLP.Chemscore.Hbond>
3.0000

> <Gold.PLP.Chemscore.CHOScore>
0.0000

> <Gold.PLP.Chemscore.Metal>
0.0000

> <Gold.Chemscore.Hbonds>
donor molecule, donor type, donor heavy atom, donor atom, acceptor molecule, acceptor atom, score
      P1  H  7989  7998       L1    18  1.00
      P1  H  7997  8008       L1     3  2.00

> <Gold.PLP.Chemscore.Internal.Correction>
0.8846

> <Gold.Rescore>
     Score         DG    S(hbond)    S(metal)    S(lipo)     H(rot)  DE(clash)    DE(int)     intcor
     12.86     -14.88       0.85        0.00      84.86       1.32       0.01       2.01       ----

> <Gold.Chemscore.Fitness>
12.8617

> <Gold.Chemscore.DG>
-14.8764

> <Gold.Chemscore.ZeroCoef>
-5.4800

> <Gold.Chemscore.Hbond>
0.8488

> <Gold.Chemscore.Metal>
0.0000

> <Gold.Chemscore.Lipo>
84.8628

> <Gold.Chemscore.Internal_Hbond>
0.0000

> <Gold.Chemscore.DEClash>
0.0090

> <Gold.Chemscore.DEInternal>
2.0056

> <Gold.Chemscore.Rot>
1.3154

> <Gold.Chemscore.Internal.Correction>
   9.000000E+99

> <Gold.Chemscore.Hbonds>
donor molecule, donor type, donor heavy atom, donor atom, acceptor molecule, acceptor atom, score
      P1  H  7989  7998       L1    18  0.12
      P1  H  7997  8008       L1     3  0.52

> <Gold.Chemscore.Hbond.Weighted>
-2.8349

> <Gold.Chemscore.Metal.Weighted>
-0.0000

> <Gold.Chemscore.Lipo.Weighted>
-9.9290

> <Gold.Chemscore.Internal_Hbond.Weighted>
0.0000

> <Gold.Chemscore.DEClash.Weighted>
0.0090

> <Gold.Chemscore.DEInternal.Weighted>
2.0056

> <Gold.Chemscore.Rot.Weighted>
3.3675

> <Gold.Chemscore.Internal.Correction.Weighted>
   9.000000E+99

> <Gold.Protein.RotatedTorsions>
[ 6907 6896 6895 6894 ] final    9.95 input  -60.11 | X-H torsion
[ 7974 7965 7964 7962 ] final   33.28 input  175.53 | X-H torsion
[ 8008 7997 7996 7995 ] final -108.83 input   59.86 | X-H torsion
[ 10167 10162 10161 10158 ] final  128.29 input  -65.29 | X-H torsion
[ 10718 10713 10712 10709 ] final   87.59 input   66.30 | X-H torsion
[ 10763 10752 10751 10750 ] final  -39.35 input  -60.55 | X-H torsion
[ 11005 11000 10999 10996 ] final -117.96 input  -57.11 | X-H torsion

> <Gold.Protein.ActiveResidues>
 VAL166  LYS551  ARG553  GLY616  TRP617  ASP618  TYR619  PRO620  LYS621  CYS622 
 ASP623  PHE694  ASN695  SER759  ASP760  ASP761  ALA762  ILE779  LEU786  VAL792 
 PHE793  MET794  SER795  GLU796  ALA797  LYS798  CYS799  TRP800  GLU811  SER814 

> <Gold.Protein.RotatedAtoms>
  151.7305  135.0876  160.0298 H   0  0  0  0  0  0  0  0  0  0  0  0  # atno 6907 bound_to 6896
  152.3544  133.6215  159.5977 H   0  0  0  0  0  0  0  0  0  0  0  0  # atno 6908 bound_to 6896
  150.7561  133.9439  159.3506 H   0  0  0  0  0  0  0  0  0  0  0  0  # atno 6909 bound_to 6896
  146.1431  139.6417  142.9150 H   0  0  0  0  0  0  0  0  0  0  0  0  # atno 7974 bound_to 7965
  154.9502  140.0401  157.2140 H   0  0  0  0  0  0  0  0  0  0  0  0  # atno 8008 bound_to 7997
  154.7985  140.2848  155.5917 H   0  0  0  0  0  0  0  0  0  0  0  0  # atno 8009 bound_to 7997
  156.2958  140.2559  156.2848 H   0  0  0  0  0  0  0  0  0  0  0  0  # atno 8010 bound_to 7997
  139.5534  144.6831  151.4254 H   0  0  0  0  0  0  0  0  0  0  0  0  # atno 10167 bound_to 10162
  157.6941  131.0261  150.3146 H   0  0  0  0  0  0  0  0  0  0  0  0  # atno 10718 bound_to 10713
  153.9279  135.6775  153.4746 H   0  0  0  0  0  0  0  0  0  0  0  0  # atno 10763 bound_to 10752
  153.0995  135.4835  154.8837 H   0  0  0  0  0  0  0  0  0  0  0  0  # atno 10764 bound_to 10752
  154.7444  135.3168  154.8629 H   0  0  0  0  0  0  0  0  0  0  0  0  # atno 10765 bound_to 10752
  141.0319  133.9968  157.3130 H   0  0  0  0  0  0  0  0  0  0  0  0  # atno 11005 bound_to 11000
  145.5001  141.0437  143.2545 LP  0  0  0  0  0  0  0  0  0  0  0  0  # atno 17320 bound_to 7965
  144.7815  139.6517  143.7152 LP  0  0  0  0  0  0  0  0  0  0  0  0  # atno 17321 bound_to 7965
  140.6802  143.8098  150.7112 LP  0  0  0  0  0  0  0  0  0  0  0  0  # atno 17342 bound_to 10162
  140.1549  143.4325  152.2106 LP  0  0  0  0  0  0  0  0  0  0  0  0  # atno 17343 bound_to 10162
  156.3642  130.3852  149.7227 LP  0  0  0  0  0  0  0  0  0  0  0  0  # atno 17370 bound_to 10713
  156.4663  130.7975  151.2994 LP  0  0  0  0  0  0  0  0  0  0  0  0  # atno 17371 bound_to 10713
  139.9214  135.0200  156.8076 LP  0  0  0  0  0  0  0  0  0  0  0  0  # atno 17394 bound_to 11000
  140.6391  133.9834  155.7699 LP  0  0  0  0  0  0  0  0  0  0  0  0  # atno 17395 bound_to 11000

$$$$
