AV-unprocessed.smi:1247|AV-procd|sdf|5246|dock5
  -GOLD-   22720 4353D 1   1.00000     0.00000
 Structure written by MMmdl.
 47 48  0  0  0  0  0  0  0  0  2 V2000
  136.5665  139.8420  153.3382 C   0  0  0  0  0  0  0  0  0  0  0  0
  138.0647  139.8446  153.4130 C   0  0  0  0  0  0  0  0  0  0  0  0
  138.9761  138.9317  152.8074 C   0  0  0  0  0  0  0  0  0  0  0  0
  140.1937  139.4104  153.2080 C   0  0  0  0  0  0  0  0  0  0  0  0
  141.4331  138.9345  152.9144 N   0  0  0  0  0  0  0  0  0  0  0  0
  141.9121  137.6877  153.0680 C   0  0  0  0  0  0  0  0  0  0  0  0
  141.2941  136.7373  153.5484 O   0  0  0  0  0  0  0  0  0  0  0  0
  143.1789  137.5982  152.6379 N   0  0  0  0  0  0  0  0  0  0  0  0
  143.9866  136.3845  152.6724 C   0  0  0  0  0  0  0  0  0  0  0  0
  145.4036  136.6367  152.1235 C   0  0  0  0  0  0  0  0  0  0  0  0
  146.1393  135.3751  151.8607 N   0  3  1  0  0  0  0  0  0  0  0  0
  146.3191  134.5589  153.0846 C   0  0  0  0  0  0  0  0  0  0  0  0
  147.1438  133.2952  152.7750 C   0  0  1  0  0  0  0  0  0  0  0  0
  147.2898  132.3847  153.9992 C   0  0  0  0  0  0  0  0  0  0  0  0
  146.4927  132.5570  151.7471 O   0  0  0  0  0  0  0  0  0  0  0  0
  146.3843  133.2897  150.5316 C   0  0  1  0  0  0  0  0  0  0  0  0
  145.7563  132.3729  149.4763 C   0  0  0  0  0  0  0  0  0  0  0  0
  145.5405  134.5548  150.7792 C   0  0  0  0  0  0  0  0  0  0  0  0
  139.9967  140.5303  153.9878 N   0  0  0  0  0  0  0  0  0  0  0  0
  140.9572  141.3955  154.6452 C   0  0  0  0  0  0  0  0  0  0  0  0
  138.6782  140.7908  154.1147 N   0  0  0  0  0  0  0  0  0  0  0  0
  136.2076  139.0855  152.6402 H   0  0  0  0  0  0  0  0  0  0  0  0
  136.1875  140.8080  153.0033 H   0  0  0  0  0  0  0  0  0  0  0  0
  136.1264  139.6303  154.3129 H   0  0  0  0  0  0  0  0  0  0  0  0
  138.7526  138.0788  152.1845 H   0  0  0  0  0  0  0  0  0  0  0  0
  142.0760  139.6161  152.5392 H   0  0  0  0  0  0  0  0  0  0  0  0
  143.6135  138.4261  152.2565 H   0  0  0  0  0  0  0  0  0  0  0  0
  144.0145  136.0006  153.6926 H   0  0  0  0  0  0  0  0  0  0  0  0
  143.4848  135.6266  152.0704 H   0  0  0  0  0  0  0  0  0  0  0  0
  145.3092  137.1972  151.1921 H   0  0  0  0  0  0  0  0  0  0  0  0
  145.9837  137.2644  152.8020 H   0  0  0  0  0  0  0  0  0  0  0  0
  146.8259  135.1490  153.8493 H   0  0  0  0  0  0  0  0  0  0  0  0
  145.3418  134.2846  153.4858 H   0  0  0  0  0  0  0  0  0  0  0  0
  148.1415  133.5803  152.4356 H   0  0  0  0  0  0  0  0  0  0  0  0
  147.8026  132.8989  154.8125 H   0  0  0  0  0  0  0  0  0  0  0  0
  147.8674  131.4929  153.7545 H   0  0  0  0  0  0  0  0  0  0  0  0
  146.3169  132.0596  154.3689 H   0  0  0  0  0  0  0  0  0  0  0  0
  147.3825  133.5740  150.1934 H   0  0  0  0  0  0  0  0  0  0  0  0
  145.6588  132.8857  148.5190 H   0  0  0  0  0  0  0  0  0  0  0  0
  144.7633  132.0410  149.7814 H   0  0  0  0  0  0  0  0  0  0  0  0
  146.3694  131.4856  149.3168 H   0  0  0  0  0  0  0  0  0  0  0  0
  144.5210  134.2784  151.0541 H   0  0  0  0  0  0  0  0  0  0  0  0
  145.4759  135.1314  149.8571 H   0  0  0  0  0  0  0  0  0  0  0  0
  141.9745  141.1375  154.3511 H   0  0  0  0  0  0  0  0  0  0  0  0
  140.8648  141.2898  155.7266 H   0  0  0  0  0  0  0  0  0  0  0  0
  140.7664  142.4337  154.3712 H   0  0  0  0  0  0  0  0  0  0  0  0
  147.0663  135.6373  151.5571 H   0  0  0  0  0  0  0  0  0  0  0  0
  1  2  1  0  0  0  0
  1 22  1  0  0  0  0
  1 23  1  0  0  0  0
  1 24  1  0  0  0  0
  2 21  2  0  0  0  0
  2  3  1  0  0  0  0
  3  4  2  0  0  0  0
  3 25  1  0  0  0  0
  4  5  1  0  0  0  0
  4 19  1  0  0  0  0
  5  6  1  0  0  0  0
  5 26  1  0  0  0  0
  6  7  2  0  0  0  0
  6  8  1  0  0  0  0
  8  9  1  0  0  0  0
  8 27  1  0  0  0  0
  9 10  1  0  0  0  0
  9 28  1  0  0  0  0
  9 29  1  0  0  0  0
 10 11  1  0  0  0  0
 10 30  1  0  0  0  0
 10 31  1  0  0  0  0
 11 18  1  0  0  0  0
 11 12  1  0  0  0  0
 11 47  1  0  0  0  0
 12 13  1  0  0  0  0
 12 32  1  0  0  0  0
 12 33  1  0  0  0  0
 13 14  1  0  0  0  0
 13 15  1  0  0  0  0
 13 34  1  0  0  0  0
 14 35  1  0  0  0  0
 14 36  1  0  0  0  0
 14 37  1  0  0  0  0
 15 16  1  0  0  0  0
 16 17  1  0  0  0  0
 16 18  1  0  0  0  0
 16 38  1  0  0  0  0
 17 39  1  0  0  0  0
 17 40  1  0  0  0  0
 17 41  1  0  0  0  0
 18 42  1  0  0  0  0
 18 43  1  0  0  0  0
 19 20  1  0  0  0  0
 19 21  1  0  0  0  0
 20 44  1  0  0  0  0
 20 45  1  0  0  0  0
 20 46  1  0  0  0  0
M  CHG  1  11   1
M  END
> <s_m_source_file>
AV-unprocessed.smi

> <i_m_source_file_index>
1247

> <i_lp_mmshare_version>
43012

> <i_f3d_flags>
0

> <s_epik_input>
W0NIM11jMVtjSF1jKG4objEpW0NIM10pW05IXUMoPU8pW05IXVtDSDJdW0NIMl1OMltDSDJdW0NAQEhdKFtDSDNdKU9bQ0BASF0oW0NIM10pW0NIMl0y

> <s_epik_cmdline>
J2VwaWtfcHl0aG9uJywgJy1waCcsICc3LjAnLCAnLXRuJywgJzgnLCAnLW1hJywgJzIwMCcsICctbWV0YWxfYmluZGluZycsICctaW1hZScsICc8aW5maWxlLm1hZT4nLCAnLW9tYWUnLCAnPG91dGZpbGUubWFlPic=

> <r_lp_tautomer_probability>
1

> <r_epik_Ionization_Penalty>
0.663902

> <r_epik_Ionization_Penalty_Charging>
0.663826

> <r_epik_Ionization_Penalty_Neutral>
7.65444e-05

> <r_epik_State_Penalty>
0.683414

> <r_epik_Charging_Adjusted_Penalty>
1.34724

> <i_epik_Tot_Q>
1

> <i_epik_Tot_abs_Q>
1

> <r_epik_Metal_State_Penalty>
0.683419

> <b_epik_Metal_Only>
0

> <s_lp_Force_Field>
OPLS_2005

> <r_lp_Energy>
16.001

> <b_lp_Chiralities_Consistent>
1

> <s_lp_Variant>
AV-unprocessed.smi:1247-4

> <Gold.Version>
5.8.1

> <Gold.Id.Protein>
6NUR|6NUR_protein|mol2

> <Gold.PLP.Fitness>
44.2778

> <Gold.PLP.PLP>
-33.8510

> <Gold.PLP.part.hbond>
-4.6340

> <Gold.PLP.part.metal>
0.0000

> <Gold.PLP.part.buried>
-0.5106

> <Gold.PLP.part.nonpolar>
-28.0261

> <Gold.PLP.part.repulsive>
0.4069

> <Gold.PLP.ligand.clash>
0.0000

> <Gold.PLP.ligand.torsion>
0.5235

> <Gold.PLP.Chemscore.Hbond>
3.8160

> <Gold.PLP.Chemscore.CHOScore>
0.0000

> <Gold.PLP.Chemscore.Metal>
0.0000

> <Gold.Chemscore.Hbonds>
donor molecule, donor type, donor heavy atom, donor atom, acceptor molecule, acceptor atom, score
      L1  H     5    26       P1 10175  1.00
      L1  H     8    27       P1 10175  0.83
      L1  H    11    47       P1  7948  2.00

> <Gold.PLP.Chemscore.Internal.Correction>
0.0257

> <Gold.Rescore>
     Score         DG    S(hbond)    S(metal)    S(lipo)     H(rot)  DE(clash)    DE(int)     intcor
     17.91     -18.51       2.78        0.00      65.45       1.52       0.06       0.54       ----

> <Gold.Chemscore.Fitness>
17.9111

> <Gold.Chemscore.DG>
-18.5106

> <Gold.Chemscore.ZeroCoef>
-5.4800

> <Gold.Chemscore.Hbond>
2.7754

> <Gold.Chemscore.Metal>
0.0000

> <Gold.Chemscore.Lipo>
65.4475

> <Gold.Chemscore.Internal_Hbond>
0.0000

> <Gold.Chemscore.DEClash>
0.0622

> <Gold.Chemscore.DEInternal>
0.5374

> <Gold.Chemscore.Rot>
1.5221

> <Gold.Chemscore.Internal.Correction>
   9.000000E+99

> <Gold.Chemscore.Hbonds>
donor molecule, donor type, donor heavy atom, donor atom, acceptor molecule, acceptor atom, score
      L1  H     5    26       P1 10175  0.34
      L1  H     8    27       P1 10175  0.79
      L1  H    11    47       P1  7948  0.96

> <Gold.Chemscore.Hbond.Weighted>
-9.2700

> <Gold.Chemscore.Metal.Weighted>
-0.0000

> <Gold.Chemscore.Lipo.Weighted>
-7.6574

> <Gold.Chemscore.Internal_Hbond.Weighted>
0.0000

> <Gold.Chemscore.DEClash.Weighted>
0.0622

> <Gold.Chemscore.DEInternal.Weighted>
0.5374

> <Gold.Chemscore.Rot.Weighted>
3.8967

> <Gold.Chemscore.Internal.Correction.Weighted>
   9.000000E+99

> <Gold.Protein.RotatedTorsions>
[ 6907 6896 6895 6894 ] final  -50.51 input  -60.11 | X-H torsion
[ 7974 7965 7964 7962 ] final  101.92 input  175.53 | X-H torsion
[ 8008 7997 7996 7995 ] final  151.34 input   59.86 | X-H torsion
[ 10167 10162 10161 10158 ] final  -22.64 input  -65.29 | X-H torsion
[ 10718 10713 10712 10709 ] final  168.69 input   66.30 | X-H torsion
[ 10763 10752 10751 10750 ] final -141.63 input  -60.55 | X-H torsion
[ 11005 11000 10999 10996 ] final  -51.30 input  -57.11 | X-H torsion

> <Gold.Protein.ActiveResidues>
 VAL166  LYS551  ARG553  GLY616  TRP617  ASP618  TYR619  PRO620  LYS621  CYS622 
 ASP623  PHE694  ASN695  SER759  ASP760  ASP761  ALA762  ILE779  LEU786  VAL792 
 PHE793  MET794  SER795  GLU796  ALA797  LYS798  CYS799  TRP800  GLU811  SER814 

> <Gold.Protein.RotatedAtoms>
  150.8700  134.8072  159.7147 H   0  0  0  0  0  0  0  0  0  0  0  0  # atno 6907 bound_to 6896
  152.4708  134.4962  159.9720 H   0  0  0  0  0  0  0  0  0  0  0  0  # atno 6908 bound_to 6896
  151.5052  133.3457  159.2911 H   0  0  0  0  0  0  0  0  0  0  0  0  # atno 6909 bound_to 6896
  145.3660  139.2408  143.3481 H   0  0  0  0  0  0  0  0  0  0  0  0  # atno 7974 bound_to 7965
  156.2678  140.2050  156.6161 H   0  0  0  0  0  0  0  0  0  0  0  0  # atno 8008 bound_to 7997
  154.6794  140.0541  157.0273 H   0  0  0  0  0  0  0  0  0  0  0  0  # atno 8009 bound_to 7997
  155.1023  140.3207  155.4546 H   0  0  0  0  0  0  0  0  0  0  0  0  # atno 8010 bound_to 7997
  140.7286  143.4516  151.0508 H   0  0  0  0  0  0  0  0  0  0  0  0  # atno 10167 bound_to 10162
  157.0334  131.0266  151.2737 H   0  0  0  0  0  0  0  0  0  0  0  0  # atno 10718 bound_to 10713
  154.8538  135.3519  154.5899 H   0  0  0  0  0  0  0  0  0  0  0  0  # atno 10763 bound_to 10752
  153.6509  135.6994  153.5214 H   0  0  0  0  0  0  0  0  0  0  0  0  # atno 10764 bound_to 10752
  153.2895  135.4239  155.1111 H   0  0  0  0  0  0  0  0  0  0  0  0  # atno 10765 bound_to 10752
  141.0863  133.6642  156.3857 H   0  0  0  0  0  0  0  0  0  0  0  0  # atno 11005 bound_to 11000
  146.2906  140.4303  142.8741 LP  0  0  0  0  0  0  0  0  0  0  0  0  # atno 17320 bound_to 7965
  144.8611  140.7141  143.6107 LP  0  0  0  0  0  0  0  0  0  0  0  0  # atno 17321 bound_to 7965
  139.8193  143.7842  152.3176 LP  0  0  0  0  0  0  0  0  0  0  0  0  # atno 17342 bound_to 10162
  139.7919  144.7407  150.9943 LP  0  0  0  0  0  0  0  0  0  0  0  0  # atno 17343 bound_to 10162
  157.5160  130.7968  149.7757 LP  0  0  0  0  0  0  0  0  0  0  0  0  # atno 17370 bound_to 10713
  156.0062  130.3854  150.2424 LP  0  0  0  0  0  0  0  0  0  0  0  0  # atno 17371 bound_to 10713
  140.5354  134.6172  157.5363 LP  0  0  0  0  0  0  0  0  0  0  0  0  # atno 17394 bound_to 11000
  139.9682  134.7337  156.0095 LP  0  0  0  0  0  0  0  0  0  0  0  0  # atno 17395 bound_to 11000

$$$$
