#       Name:                AV-unprocessed.smi:688
#       Creating user name   scv26
#       Creation time:       Fri Mar 27 00:33:29 2020


#       File generated by GOLD software.
#

@<TRIPOS>MOLECULE
AV-unprocessed.smi:688
    44    45     1
SMALL
NO_CHARGES


@<TRIPOS>ATOM
      1 ****        -0.2263   2.2611   3.5248 O.2            1 S1                 0.0000
      2 ****        -0.7299   1.9557   2.4450 C.2            1 S1                 0.0000
      3 ****        -1.8340   1.1593   2.3466 N.pl3          1 S1                -1.0000
      4 ****        -2.4046   0.8023   1.1549 C.2            1 S1                 0.0000
      5 ****        -3.4011   0.0822   1.0938 O.2            1 S1                 0.0000
      6 ****        -1.8478   1.2598  -0.0063 N.am           1 S1                 0.0000
      7 ****        -2.3899   0.9105  -1.3312 C.3            1 S1                 0.0000
      8 ****        -2.0285  -0.5298  -1.7614 C.3            1 S1                 0.0000
      9 ****        -2.7425  -0.8328  -2.9422 O.3            1 S1                 0.0000
     10 ****        -0.5244  -0.7404  -2.0231 C.3            1 S1                 0.0000
     11 ****        -0.1504  -2.0298  -1.5562 O.3            1 S1                 0.0000
     12 ****         1.2441  -2.1730  -1.3264 C.3            1 S1                 0.0000
     13 ****         1.7100  -1.4319  -0.0835 C.ar           1 S1                 0.0000
     14 ****         0.9904  -1.5571   1.1237 C.ar           1 S1                 0.0000
     15 ****         1.4103  -0.8619   2.2739 C.ar           1 S1                 0.0000
     16 ****         2.5500  -0.0364   2.2213 C.ar           1 S1                 0.0000
     17 ****         3.0556   0.8284   3.6257 Cl             1 S1                 0.0000
     18 ****         3.2745   0.0862   1.0196 C.ar           1 S1                 0.0000
     19 ****         2.8580  -0.6134  -0.1299 C.ar           1 S1                 0.0000
     20 ****        -0.7139   2.0902   0.0415 C.2            1 S1                 0.0000
     21 ****        -0.1360   2.4482   1.2043 C.2            1 S1                 0.0000
     22 ****         1.2722   3.4490   1.2288 Cl             1 S1                 0.0000
     23 ****        -3.4750   1.0284  -1.3091 H              1 S1                 0.0000
     24 ****        -2.0453   1.6178  -2.0870 H              1 S1                 0.0000
     25 ****        -2.3651  -1.2240  -0.9907 H              1 S1                 0.0000
     26 ****        -2.5804  -1.7374  -3.1622 H              1 S1                 0.0000
     27 ****        -0.2702  -0.6266  -3.0781 H              1 S1                 0.0000
     28 ****         0.0497   0.0185  -1.4954 H              1 S1                 0.0000
     29 ****         1.4578  -3.2326  -1.1855 H              1 S1                 0.0000
     30 ****         1.8060  -1.8541  -2.2060 H              1 S1                 0.0000
     31 ****         0.1077  -2.1785   1.1683 H              1 S1                 0.0000
     32 ****         0.8492  -0.9532   3.1924 H              1 S1                 0.0000
     33 ****         4.1484   0.7195   0.9773 H              1 S1                 0.0000
     34 ****         3.4172  -0.5110  -1.0484 H              1 S1                 0.0000
     35 ****        -0.3360   2.4054  -0.9200 H              1 S1                 0.0000
     36 ****         0.5859   2.8440   3.5507 LP             1 S1                 0.0000
     37 ****        -0.6290   1.9266   4.3768 LP             1 S1                 0.0000
     38 ****        -2.2482   0.8184   3.1905 LP             1 S1                 0.0000
     39 ****        -3.8210  -0.2626   1.9333 LP             1 S1                 0.0000
     40 ****        -3.7907  -0.1579   0.2047 LP             1 S1                 0.0000
     41 ****        -2.4310  -0.2424  -3.6868 LP             1 S1                 0.0000
     42 ****        -3.7209  -0.6913  -2.7917 LP             1 S1                 0.0000
     43 ****        -0.4286  -2.7054  -2.2388 LP             1 S1                 0.0000
     44 ****        -0.6314  -2.2061  -0.6974 LP             1 S1                 0.0000
@<TRIPOS>BOND
    1    1    2 2     
    2    2   21 1     
    3    2    3 1     
    4    3    4 1     
    5    4    5 2     
    6    4    6 am    
    7    6    7 1     
    8    6   20 1     
    9    7    8 1     
   10    7   23 1     
   11    7   24 1     
   12    8    9 1     
   13    8   10 1     
   14    8   25 1     
   15    9   26 1     
   16   10   11 1     
   17   10   27 1     
   18   10   28 1     
   19   11   12 1     
   20   12   13 1     
   21   12   29 1     
   22   12   30 1     
   23   13   19 ar    
   24   13   14 ar    
   25   14   15 ar    
   26   14   31 1     
   27   15   16 ar    
   28   15   32 1     
   29   16   17 1     
   30   16   18 ar    
   31   18   19 ar    
   32   18   33 1     
   33   19   34 1     
   34   20   21 2     
   35   20   35 1     
   36   21   22 1     
   37    1   36 1     
   38    1   37 1     
   39    3   38 1     
   40    5   39 1     
   41    5   40 1     
   42    9   41 1     
   43    9   42 1     
   44   11   43 1     
   45   11   44 1     
@<TRIPOS>SUBSTRUCTURE
      1 S1             1
@<TRIPOS>SET
LONE_PAIRS      STATIC     ATOMS    <user>   **** ""
9 36 37 38 39 40 41 42 43 44
DONOR_HYDROGENS      STATIC     ATOMS    <user>   **** ""
1 26
ATOM$BLUE        STATIC     ATOMS    COLORGROUP SYSTEM
9 36 37 38 39 40 41 42 43 44
ATOM$RED        STATIC     ATOMS    COLORGROUP SYSTEM
1 26
