AV-unprocessed.smi:3214|AV-procd|sdf|12284|dock8
  -GOLD-   2272018123D 1   1.00000     0.00000
 Structure written by MMmdl.
 37 37  0  0  0  0  0  0  0  0  2 V2000
  146.3649  140.5967  154.0252 C   0  0  0  0  0  0  0  0  0  0  0  0
  147.6201  140.3008  153.1984 C   0  0  0  0  0  0  0  0  0  0  0  0
  148.8218  140.5952  153.9667 N   0  0  0  0  0  0  0  0  0  0  0  0
  149.2392  141.8315  154.2746 C   0  0  0  0  0  0  0  0  0  0  0  0
  148.6400  142.8500  153.9292 O   0  0  0  0  0  0  0  0  0  0  0  0
  150.5324  141.9299  155.0898 C   0  0  0  0  0  0  0  0  0  0  0  0
  150.2992  142.4593  156.5147 C   0  0  0  0  0  0  0  0  0  0  0  0
  150.6170  143.9006  156.6017 N   0  3  0  0  0  0  0  0  0  0  0  0
  151.5347  144.2875  157.6989 C   0  0  1  0  0  0  0  0  0  0  0  0
  151.6743  145.8158  157.7191 C   0  0  0  0  0  0  0  0  0  0  0  0
  151.0351  143.7765  159.0700 C   0  0  0  0  0  0  0  0  0  0  0  0
  152.1045  143.4409  159.9928 N   0  0  0  0  0  0  0  0  0  0  0  0
  152.2936  143.8849  161.2851 C   0  0  0  0  0  0  0  0  0  0  0  0
  153.4384  143.3041  161.7505 C   0  0  0  0  0  0  0  0  0  0  0  0
  153.8919  142.5215  160.6520 C   0  0  0  0  0  0  0  0  0  0  0  0
  153.0940  142.6097  159.5999 N   0  0  0  0  0  0  0  0  0  0  0  0
  145.4639  140.3752  153.4530 H   0  0  0  0  0  0  0  0  0  0  0  0
  146.3223  141.6467  154.3170 H   0  0  0  0  0  0  0  0  0  0  0  0
  146.3382  139.9936  154.9332 H   0  0  0  0  0  0  0  0  0  0  0  0
  147.6279  139.2521  152.8970 H   0  0  0  0  0  0  0  0  0  0  0  0
  147.6130  140.8994  152.2862 H   0  0  0  0  0  0  0  0  0  0  0  0
  149.3694  139.8079  154.2826 H   0  0  0  0  0  0  0  0  0  0  0  0
  151.0075  140.9485  155.1356 H   0  0  0  0  0  0  0  0  0  0  0  0
  151.2198  142.5878  154.5564 H   0  0  0  0  0  0  0  0  0  0  0  0
  149.2635  142.2932  156.8067 H   0  0  0  0  0  0  0  0  0  0  0  0
  150.9243  141.9131  157.2231 H   0  0  0  0  0  0  0  0  0  0  0  0
  151.0635  144.1538  155.7319 H   0  0  0  0  0  0  0  0  0  0  0  0
  152.5269  143.8818  157.4946 H   0  0  0  0  0  0  0  0  0  0  0  0
  152.3776  146.1352  158.4889 H   0  0  0  0  0  0  0  0  0  0  0  0
  150.7188  146.3015  157.9202 H   0  0  0  0  0  0  0  0  0  0  0  0
  152.0444  146.1905  156.7641 H   0  0  0  0  0  0  0  0  0  0  0  0
  150.4191  144.5386  159.5495 H   0  0  0  0  0  0  0  0  0  0  0  0
  150.3957  142.9019  158.9411 H   0  0  0  0  0  0  0  0  0  0  0  0
  151.6048  144.5659  161.7631 H   0  0  0  0  0  0  0  0  0  0  0  0
  153.8871  143.4234  162.7255 H   0  0  0  0  0  0  0  0  0  0  0  0
  154.7714  141.8980  160.5875 H   0  0  0  0  0  0  0  0  0  0  0  0
  149.7624  144.4318  156.6874 H   0  0  0  0  0  0  0  0  0  0  0  0
  1  2  1  0  0  0  0
  1 17  1  0  0  0  0
  1 18  1  0  0  0  0
  1 19  1  0  0  0  0
  2  3  1  0  0  0  0
  2 20  1  0  0  0  0
  2 21  1  0  0  0  0
  3  4  1  0  0  0  0
  3 22  1  0  0  0  0
  4  5  2  0  0  0  0
  4  6  1  0  0  0  0
  6  7  1  0  0  0  0
  6 23  1  0  0  0  0
  6 24  1  0  0  0  0
  7  8  1  0  0  0  0
  7 25  1  0  0  0  0
  7 26  1  0  0  0  0
  8  9  1  0  0  0  0
  8 27  1  0  0  0  0
  8 37  1  0  0  0  0
  9 10  1  0  0  0  0
  9 11  1  0  0  0  0
  9 28  1  0  0  0  0
 10 29  1  0  0  0  0
 10 30  1  0  0  0  0
 10 31  1  0  0  0  0
 11 12  1  0  0  0  0
 11 32  1  0  0  0  0
 11 33  1  0  0  0  0
 12 16  1  0  0  0  0
 12 13  1  0  0  0  0
 13 14  2  0  0  0  0
 13 34  1  0  0  0  0
 14 15  1  0  0  0  0
 14 35  1  0  0  0  0
 15 16  2  0  0  0  0
 15 36  1  0  0  0  0
M  CHG  1   8   1
M  END
> <s_m_source_file>
AV-unprocessed.smi

> <i_m_source_file_index>
3214

> <i_lp_mmshare_version>
43012

> <i_f3d_flags>
0

> <s_epik_input>
W0NIM11bQ0gyXVtOSF1DKD1PKVtDSDJdW0NIMl1bTkhdW0NASF0oW0NIM10pW0NIMl1uMVtjSF1bY0hdW2NIXW4x

> <s_epik_cmdline>
J2VwaWtfcHl0aG9uJywgJy1waCcsICc3LjAnLCAnLXRuJywgJzgnLCAnLW1hJywgJzIwMCcsICctbWV0YWxfYmluZGluZycsICctaW1hZScsICc8aW5maWxlLm1hZT4nLCAnLW9tYWUnLCAnPG91dGZpbGUubWFlPic=

> <r_lp_tautomer_probability>
1

> <r_epik_Ionization_Penalty>
0.00598156

> <r_epik_Ionization_Penalty_Charging>
0.00597743

> <r_epik_Ionization_Penalty_Neutral>
4.12922e-06

> <r_epik_State_Penalty>
0.00439883

> <r_epik_Charging_Adjusted_Penalty>
0.0103763

> <i_epik_Tot_Q>
1

> <i_epik_Tot_abs_Q>
1

> <r_epik_Metal_State_Penalty>
-0

> <b_epik_Metal_Only>
0

> <s_lp_Force_Field>
OPLS_2005

> <r_lp_Energy>
6.42892

> <b_lp_Chiralities_Consistent>
1

> <s_lp_Variant>
AV-unprocessed.smi:3214-2

> <Gold.Version>
5.8.1

> <Gold.Id.Protein>
6NUR|6NUR_protein|mol2

> <Gold.PLP.Fitness>
43.4785

> <Gold.PLP.PLP>
-38.1686

> <Gold.PLP.part.hbond>
-2.6470

> <Gold.PLP.part.metal>
0.0000

> <Gold.PLP.part.buried>
-3.9033

> <Gold.PLP.part.nonpolar>
-30.6488

> <Gold.PLP.part.repulsive>
0.3105

> <Gold.PLP.ligand.clash>
0.0000

> <Gold.PLP.ligand.torsion>
1.2319

> <Gold.PLP.Chemscore.Hbond>
2.5280

> <Gold.PLP.Chemscore.CHOScore>
0.0000

> <Gold.PLP.Chemscore.Metal>
0.0000

> <Gold.Chemscore.Hbonds>
donor molecule, donor type, donor heavy atom, donor atom, acceptor molecule, acceptor atom, score
      L1  H     8    37       P1  8028  0.60
      P1  H  8022  8030       L1     5  1.00

> <Gold.PLP.Chemscore.Internal.Correction>
0.1898

> <Gold.Rescore>
     Score         DG    S(hbond)    S(metal)    S(lipo)     H(rot)  DE(clash)    DE(int)     intcor
     12.77     -14.20       1.19        0.00      92.92       2.39       0.41       1.03       ----

> <Gold.Chemscore.Fitness>
12.7650

> <Gold.Chemscore.DG>
-14.1999

> <Gold.Chemscore.ZeroCoef>
-5.4800

> <Gold.Chemscore.Hbond>
1.1912

> <Gold.Chemscore.Metal>
0.0000

> <Gold.Chemscore.Lipo>
92.9222

> <Gold.Chemscore.Internal_Hbond>
0.0000

> <Gold.Chemscore.DEClash>
0.4075

> <Gold.Chemscore.DEInternal>
1.0274

> <Gold.Chemscore.Rot>
2.3948

> <Gold.Chemscore.Internal.Correction>
   9.000000E+99

> <Gold.Chemscore.Hbonds>
donor molecule, donor type, donor heavy atom, donor atom, acceptor molecule, acceptor atom, score
      L1  H     8    37       P1  8028  0.24
      P1  H  8022  8030       L1     5  0.96

> <Gold.Chemscore.Hbond.Weighted>
-3.9786

> <Gold.Chemscore.Metal.Weighted>
-0.0000

> <Gold.Chemscore.Lipo.Weighted>
-10.8719

> <Gold.Chemscore.Internal_Hbond.Weighted>
0.0000

> <Gold.Chemscore.DEClash.Weighted>
0.4075

> <Gold.Chemscore.DEInternal.Weighted>
1.0274

> <Gold.Chemscore.Rot.Weighted>
6.1306

> <Gold.Chemscore.Internal.Correction.Weighted>
   9.000000E+99

> <Gold.Protein.RotatedTorsions>
[ 6907 6896 6895 6894 ] final   52.33 input  -60.11 | X-H torsion
[ 7974 7965 7964 7962 ] final -121.87 input  175.53 | X-H torsion
[ 8008 7997 7996 7995 ] final   67.66 input   59.86 | X-H torsion
[ 10167 10162 10161 10158 ] final   36.76 input  -65.29 | X-H torsion
[ 10718 10713 10712 10709 ] final  -41.18 input   66.30 | X-H torsion
[ 10763 10752 10751 10750 ] final   26.99 input  -60.55 | X-H torsion
[ 11005 11000 10999 10996 ] final   -2.25 input  -57.11 | X-H torsion

> <Gold.Protein.ActiveResidues>
 VAL166  LYS551  ARG553  GLY616  TRP617  ASP618  TYR619  PRO620  LYS621  CYS622 
 ASP623  PHE694  ASN695  SER759  ASP760  ASP761  ALA762  ILE779  LEU786  VAL792 
 PHE793  MET794  SER795  GLU796  ALA797  LYS798  CYS799  TRP800  GLU811  SER814 

> <Gold.Protein.RotatedAtoms>
  152.3221  134.7366  160.0310 H   0  0  0  0  0  0  0  0  0  0  0  0  # atno 6907 bound_to 6896
  151.7811  133.3344  159.3480 H   0  0  0  0  0  0  0  0  0  0  0  0  # atno 6908 bound_to 6896
  150.7376  134.5861  159.6008 H   0  0  0  0  0  0  0  0  0  0  0  0  # atno 6909 bound_to 6896
  145.0356  140.8103  143.4297 H   0  0  0  0  0  0  0  0  0  0  0  0  # atno 7974 bound_to 7965
  155.6963  140.3495  155.4914 H   0  0  0  0  0  0  0  0  0  0  0  0  # atno 8008 bound_to 7997
  155.9480  140.1114  157.1023 H   0  0  0  0  0  0  0  0  0  0  0  0  # atno 8009 bound_to 7997
  154.4116  140.1200  156.5001 H   0  0  0  0  0  0  0  0  0  0  0  0  # atno 8010 bound_to 7997
  140.4097  144.1609  150.6138 H   0  0  0  0  0  0  0  0  0  0  0  0  # atno 10167 bound_to 10162
  156.2732  130.4209  149.8415 H   0  0  0  0  0  0  0  0  0  0  0  0  # atno 10718 bound_to 10713
  153.0586  135.6547  154.0518 H   0  0  0  0  0  0  0  0  0  0  0  0  # atno 10763 bound_to 10752
  154.0191  135.2921  155.3384 H   0  0  0  0  0  0  0  0  0  0  0  0  # atno 10764 bound_to 10752
  154.6913  135.5281  153.8464 H   0  0  0  0  0  0  0  0  0  0  0  0  # atno 10765 bound_to 10752
  140.6563  133.9359  155.8410 H   0  0  0  0  0  0  0  0  0  0  0  0  # atno 11005 bound_to 11000
  145.1714  139.2402  143.5340 LP  0  0  0  0  0  0  0  0  0  0  0  0  # atno 17320 bound_to 7965
  146.3503  140.1466  142.8593 LP  0  0  0  0  0  0  0  0  0  0  0  0  # atno 17321 bound_to 7965
  140.4651  143.2434  151.9167 LP  0  0  0  0  0  0  0  0  0  0  0  0  # atno 17342 bound_to 10162
  139.4783  144.5428  151.8503 LP  0  0  0  0  0  0  0  0  0  0  0  0  # atno 17343 bound_to 10162
  156.5889  130.8498  151.3403 LP  0  0  0  0  0  0  0  0  0  0  0  0  # atno 17370 bound_to 10713
  157.7291  130.9666  150.1771 LP  0  0  0  0  0  0  0  0  0  0  0  0  # atno 17371 bound_to 10713
  141.0499  134.0500  157.3797 LP  0  0  0  0  0  0  0  0  0  0  0  0  # atno 17394 bound_to 11000
  139.9028  135.0170  156.7349 LP  0  0  0  0  0  0  0  0  0  0  0  0  # atno 17395 bound_to 11000

$$$$
