AV-unprocessed.smi:1783|AV-procd|sdf|7194|dock3
  -GOLD-   22720 8433D 1   1.00000     0.00000
 Structure written by MMmdl.
 29 30  0  0  0  0  0  0  0  0  2 V2000
  152.5439  140.0605  155.3423 O   0  0  0  0  0  0  0  0  0  0  0  0
  152.0889  139.1542  156.0404 C   0  0  0  0  0  0  0  0  0  0  0  0
  151.9773  139.1846  157.3829 N   0  0  0  0  0  0  0  0  0  0  0  0
  152.3027  140.2077  158.2906 C   0  0  0  0  0  0  0  0  0  0  0  0
  151.9947  141.5244  158.1269 C   0  0  0  0  0  0  0  0  0  0  0  0
  152.3517  142.5379  159.1118 C   0  0  0  0  0  0  0  0  0  0  0  0
  151.9568  143.9997  158.9969 C   0  0  0  0  0  0  0  0  0  0  0  0
  152.5816  144.5878  157.9766 F   0  0  0  0  0  0  0  0  0  0  0  0
  150.6440  144.1000  158.7934 F   0  0  0  0  0  0  0  0  0  0  0  0
  152.2563  144.6646  160.1127 F   0  0  0  0  0  0  0  0  0  0  0  0
  152.9931  141.9986  160.2100 C   0  0  0  0  0  0  0  0  0  0  0  0
  153.3417  140.7150  160.4462 N   0  5  0  0  0  0  0  0  0  0  0  0
  153.0103  139.7769  159.5146 C   0  0  0  0  0  0  0  0  0  0  0  0
  153.2878  138.5873  159.6721 O   0  0  0  0  0  0  0  0  0  0  0  0
  151.6024  137.8621  155.3737 C   0  0  2  0  0  0  0  0  0  0  0  0
  150.4928  138.0762  154.3266 C   0  0  0  0  0  0  0  0  0  0  0  0
  149.2689  137.4437  154.9608 C   0  0  0  0  0  0  0  0  0  0  0  0
  149.8910  136.3745  155.8471 C   0  0  0  0  0  0  0  0  0  0  0  0
  151.0297  137.0300  156.3809 O   0  0  0  0  0  0  0  0  0  0  0  0
  151.6362  138.3400  157.8189 H   0  0  0  0  0  0  0  0  0  0  0  0
  151.4567  141.8653  157.2584 H   0  0  0  0  0  0  0  0  0  0  0  0
  153.2635  142.7049  161.0239 H   0  0  0  0  0  0  0  0  0  0  0  0
  152.4395  137.3336  154.9138 H   0  0  0  0  0  0  0  0  0  0  0  0
  150.3214  139.1213  154.0639 H   0  0  0  0  0  0  0  0  0  0  0  0
  150.7511  137.5496  153.4071 H   0  0  0  0  0  0  0  0  0  0  0  0
  148.7435  138.1768  155.5744 H   0  0  0  0  0  0  0  0  0  0  0  0
  148.5673  137.0399  154.2308 H   0  0  0  0  0  0  0  0  0  0  0  0
  149.2183  136.0319  156.6334 H   0  0  0  0  0  0  0  0  0  0  0  0
  150.2067  135.5120  155.2580 H   0  0  0  0  0  0  0  0  0  0  0  0
  1  2  2  0  0  0  0
  2  3  1  0  0  0  0
  2 15  1  0  0  0  0
  3  4  1  0  0  0  0
  3 20  1  0  0  0  0
  4 13  1  0  0  0  0
  4  5  2  0  0  0  0
  5  6  1  0  0  0  0
  5 21  1  0  0  0  0
  6  7  1  0  0  0  0
  6 11  2  0  0  0  0
  7  8  1  0  0  0  0
  7  9  1  0  0  0  0
  7 10  1  0  0  0  0
 11 12  1  0  0  0  0
 11 22  1  0  0  0  0
 12 13  1  0  0  0  0
 13 14  2  0  0  0  0
 15 19  1  0  0  0  0
 15 16  1  0  0  0  0
 15 23  1  0  0  0  0
 16 17  1  0  0  0  0
 16 24  1  0  0  0  0
 16 25  1  0  0  0  0
 17 18  1  0  0  0  0
 17 26  1  0  0  0  0
 17 27  1  0  0  0  0
 18 19  1  0  0  0  0
 18 28  1  0  0  0  0
 18 29  1  0  0  0  0
M  CHG  1  12  -1
M  END
> <s_m_source_file>
AV-unprocessed.smi

> <i_m_source_file_index>
1783

> <i_lp_mmshare_version>
43012

> <i_f3d_flags>
0

> <s_epik_input>
TzFbQ0gyXVtDSDJdW0NIMl1bQ0BIXTFDKD1PKVtOSF1jMltjSF1jKEMoRikoRilGKVtjSF1bbkhdYzI9Tw==

> <s_epik_cmdline>
J2VwaWtfcHl0aG9uJywgJy1waCcsICc3LjAnLCAnLXRuJywgJzgnLCAnLW1hJywgJzIwMCcsICctbWV0YWxfYmluZGluZycsICctaW1hZScsICc8aW5maWxlLm1hZT4nLCAnLW9tYWUnLCAnPG91dGZpbGUubWFlPic=

> <r_epik_Ionization_Penalty>
2.55264

> <r_epik_Ionization_Penalty_Charging>
0.0580859

> <r_epik_Ionization_Penalty_Neutral>
2.49455

> <r_epik_State_Penalty>
2.65913

> <r_epik_Charging_Adjusted_Penalty>
2.71721

> <i_epik_Tot_Q>
-1

> <i_epik_Tot_abs_Q>
1

> <r_epik_Metal_State_Penalty>
0.516671

> <b_epik_Metal_Only>
0

> <s_lp_Force_Field>
OPLS_2005

> <r_lp_Energy>
34.3394

> <b_lp_Chiralities_Consistent>
1

> <s_lp_Variant>
AV-unprocessed.smi:1783-3

> <Gold.Version>
5.8.1

> <Gold.Id.Protein>
6NUR|6NUR_protein|mol2

> <Gold.PLP.Fitness>
41.4129

> <Gold.PLP.PLP>
-38.3750

> <Gold.PLP.part.hbond>
-2.0000

> <Gold.PLP.part.metal>
0.0000

> <Gold.PLP.part.buried>
-5.0804

> <Gold.PLP.part.nonpolar>
-32.2359

> <Gold.PLP.part.repulsive>
0.0751

> <Gold.PLP.ligand.clash>
0.0000

> <Gold.PLP.ligand.torsion>
0.4940

> <Gold.PLP.Chemscore.Hbond>
1.3233

> <Gold.PLP.Chemscore.CHOScore>
0.0000

> <Gold.PLP.Chemscore.Metal>
0.0000

> <Gold.Chemscore.Hbonds>
donor molecule, donor type, donor heavy atom, donor atom, acceptor molecule, acceptor atom, score
      P1  H  7989  7998       L1     1  0.35
      P1  H  7997  8009       L1     1  1.00

> <Gold.PLP.Chemscore.Internal.Correction>
0.0560

> <Gold.Rescore>
     Score         DG    S(hbond)    S(metal)    S(lipo)     H(rot)  DE(clash)    DE(int)     intcor
     13.14     -13.64       0.86        0.00      67.23       1.00       0.06       0.44       ----

> <Gold.Chemscore.Fitness>
13.1429

> <Gold.Chemscore.DG>
-13.6427

> <Gold.Chemscore.ZeroCoef>
-5.4800

> <Gold.Chemscore.Hbond>
0.8553

> <Gold.Chemscore.Metal>
0.0000

> <Gold.Chemscore.Lipo>
67.2301

> <Gold.Chemscore.Internal_Hbond>
0.0000

> <Gold.Chemscore.DEClash>
0.0636

> <Gold.Chemscore.DEInternal>
0.4362

> <Gold.Chemscore.Rot>
1.0000

> <Gold.Chemscore.Internal.Correction>
   9.000000E+99

> <Gold.Chemscore.Hbonds>
donor molecule, donor type, donor heavy atom, donor atom, acceptor molecule, acceptor atom, score
      P1  H  7989  7998       L1     1  0.35
      P1  H  7997  8009       L1     1  0.25

> <Gold.Chemscore.Hbond.Weighted>
-2.8568

> <Gold.Chemscore.Metal.Weighted>
-0.0000

> <Gold.Chemscore.Lipo.Weighted>
-7.8659

> <Gold.Chemscore.Internal_Hbond.Weighted>
0.0000

> <Gold.Chemscore.DEClash.Weighted>
0.0636

> <Gold.Chemscore.DEInternal.Weighted>
0.4362

> <Gold.Chemscore.Rot.Weighted>
2.5600

> <Gold.Chemscore.Internal.Correction.Weighted>
   9.000000E+99

> <Gold.Protein.RotatedTorsions>
[ 6907 6896 6895 6894 ] final   51.38 input  -60.11 | X-H torsion
[ 7974 7965 7964 7962 ] final   91.40 input  175.53 | X-H torsion
[ 8008 7997 7996 7995 ] final -149.28 input   59.86 | X-H torsion
[ 10167 10162 10161 10158 ] final  105.48 input  -65.29 | X-H torsion
[ 10718 10713 10712 10709 ] final -173.74 input   66.30 | X-H torsion
[ 10763 10752 10751 10750 ] final  124.18 input  -60.55 | X-H torsion
[ 11005 11000 10999 10996 ] final -176.38 input  -57.11 | X-H torsion

> <Gold.Protein.ActiveResidues>
 VAL166  LYS551  ARG553  GLY616  TRP617  ASP618  TYR619  PRO620  LYS621  CYS622 
 ASP623  PHE694  ASN695  SER759  ASP760  ASP761  ALA762  ILE779  LEU786  VAL792 
 PHE793  MET794  SER795  GLU796  ALA797  LYS798  CYS799  TRP800  GLU811  SER814 

> <Gold.Protein.RotatedAtoms>
  152.3121  134.7485  160.0333 H   0  0  0  0  0  0  0  0  0  0  0  0  # atno 6907 bound_to 6896
  151.7962  133.3359  159.3522 H   0  0  0  0  0  0  0  0  0  0  0  0  # atno 6908 bound_to 6896
  150.7325  134.5726  159.5942 H   0  0  0  0  0  0  0  0  0  0  0  0  # atno 6909 bound_to 6896
  145.5061  139.2276  143.2750 H   0  0  0  0  0  0  0  0  0  0  0  0  # atno 7974 bound_to 7965
  155.6051  140.0666  157.2722 H   0  0  0  0  0  0  0  0  0  0  0  0  # atno 8008 bound_to 7997
  154.4268  140.1811  156.1262 H   0  0  0  0  0  0  0  0  0  0  0  0  # atno 8009 bound_to 7997
  156.0128  140.3325  155.6962 H   0  0  0  0  0  0  0  0  0  0  0  0  # atno 8010 bound_to 7997
  139.7089  144.7081  151.1060 H   0  0  0  0  0  0  0  0  0  0  0  0  # atno 10167 bound_to 10162
  156.7747  130.9461  151.3120 H   0  0  0  0  0  0  0  0  0  0  0  0  # atno 10718 bound_to 10713
  153.6573  135.3352  155.3117 H   0  0  0  0  0  0  0  0  0  0  0  0  # atno 10763 bound_to 10752
  154.8523  135.4355  154.1841 H   0  0  0  0  0  0  0  0  0  0  0  0  # atno 10764 bound_to 10752
  153.2799  135.7008  153.7471 H   0  0  0  0  0  0  0  0  0  0  0  0  # atno 10765 bound_to 10752
  140.4527  134.6328  157.4808 H   0  0  0  0  0  0  0  0  0  0  0  0  # atno 11005 bound_to 11000
  146.2195  140.5865  142.9023 LP  0  0  0  0  0  0  0  0  0  0  0  0  # atno 17320 bound_to 7965
  144.7753  140.5725  143.6642 LP  0  0  0  0  0  0  0  0  0  0  0  0  # atno 17321 bound_to 7965
  140.7728  143.5320  150.9412 LP  0  0  0  0  0  0  0  0  0  0  0  0  # atno 17342 bound_to 10162
  139.9005  143.6842  152.3132 LP  0  0  0  0  0  0  0  0  0  0  0  0  # atno 17343 bound_to 10162
  157.6674  130.9020  149.9964 LP  0  0  0  0  0  0  0  0  0  0  0  0  # atno 17370 bound_to 10713
  156.1255  130.3644  149.9816 LP  0  0  0  0  0  0  0  0  0  0  0  0  # atno 17371 bound_to 10713
  139.9996  134.6857  155.9552 LP  0  0  0  0  0  0  0  0  0  0  0  0  # atno 17394 bound_to 11000
  141.1657  133.6537  156.4471 LP  0  0  0  0  0  0  0  0  0  0  0  0  # atno 17395 bound_to 11000

$$$$
