#       Name:                AV-unprocessed.smi:2282
#       Creating user name   scv26
#       Creation time:       Fri Mar 27 12:41:28 2020


#       File generated by GOLD software.
#

@<TRIPOS>MOLECULE
AV-unprocessed.smi:2282
    37    38     1
SMALL
NO_CHARGES


@<TRIPOS>ATOM
      1 ****        -5.2650   1.3450   1.9297 C.3            1 S1                 0.0000
      2 ****        -4.2778   0.6462   1.0136 C.ar           1 S1                 0.0000
      3 ****        -4.8222  -0.1218   0.0447 N.ar           1 S1                 0.0000
      4 ****        -3.9890  -0.7723  -0.7927 C.ar           1 S1                 0.0000
      5 ****        -2.5861  -0.6860  -0.7116 C.ar           1 S1                 0.0000
      6 ****        -2.0121   0.1309   0.2916 C.ar           1 S1                 0.0000
      7 ****        -0.6085   0.2716   0.4756 N.am           1 S1                 0.0000
      8 ****         0.3792   0.1232  -0.4261 C.2            1 S1                 0.0000
      9 ****         0.2088  -0.1693  -1.6100 O.2            1 S1                 0.0000
     10 ****         1.7989   0.3516   0.1057 C.3            1 S1                 0.0000
     11 ****         2.7019   1.1603  -0.8440 C.3            1 S1                 0.0000
     12 ****         3.6799   0.1294  -1.3705 C.3            1 S1                 0.0000
     13 ****         3.7699  -0.8413  -0.1986 C.3            1 S1                 0.0000
     14 ****         4.2961  -2.2303  -0.5743 C.3            1 S1                 0.0000
     15 ****         2.4258  -0.9216   0.2512 O.3            1 S1                 0.0000
     16 ****        -2.8818   0.8017   1.1835 C.ar           1 S1                 0.0000
     17 ****        -2.2524   1.7983   2.4529 Cl             1 S1                 0.0000
     18 ****        -5.1317   2.4256   1.8766 H              1 S1                 0.0000
     19 ****        -5.1137   1.0284   2.9618 H              1 S1                 0.0000
     20 ****        -6.2964   1.1191   1.6561 H              1 S1                 0.0000
     21 ****        -4.4549  -1.3877  -1.5479 H              1 S1                 0.0000
     22 ****        -1.9852  -1.2540  -1.4045 H              1 S1                 0.0000
     23 ****        -0.3250   0.5945   1.3894 H              1 S1                 0.0000
     24 ****         1.7618   0.8426   1.0798 H              1 S1                 0.0000
     25 ****         2.1659   1.6658  -1.6485 H              1 S1                 0.0000
     26 ****         3.2358   1.9256  -0.2792 H              1 S1                 0.0000
     27 ****         3.2608  -0.3673  -2.2468 H              1 S1                 0.0000
     28 ****         4.6440   0.5571  -1.6466 H              1 S1                 0.0000
     29 ****         4.3796  -0.4087   0.5965 H              1 S1                 0.0000
     30 ****         5.3175  -2.1724  -0.9506 H              1 S1                 0.0000
     31 ****         3.6793  -2.6913  -1.3464 H              1 S1                 0.0000
     32 ****         4.2964  -2.8934   0.2909 H              1 S1                 0.0000
     33 ****        -5.8143  -0.2055  -0.0489 LP             1 S1                 0.0000
     34 ****        -0.7163  -0.3142  -1.9611 LP             1 S1                 0.0000
     35 ****         0.9955  -0.2619  -2.2204 LP             1 S1                 0.0000
     36 ****         1.9323  -1.6003  -0.2927 LP             1 S1                 0.0000
     37 ****         2.4120  -1.1919   1.2138 LP             1 S1                 0.0000
@<TRIPOS>BOND
    1    1    2 1     
    2    1   18 1     
    3    1   19 1     
    4    1   20 1     
    5    2   16 ar    
    6    2    3 ar    
    7    3    4 ar    
    8    4    5 ar    
    9    4   21 1     
   10    5    6 ar    
   11    5   22 1     
   12    6    7 1     
   13    6   16 ar    
   14    7    8 am    
   15    7   23 1     
   16    8    9 2     
   17    8   10 1     
   18   10   15 1     
   19   10   11 1     
   20   10   24 1     
   21   11   12 1     
   22   11   25 1     
   23   11   26 1     
   24   12   13 1     
   25   12   27 1     
   26   12   28 1     
   27   13   14 1     
   28   13   15 1     
   29   13   29 1     
   30   14   30 1     
   31   14   31 1     
   32   14   32 1     
   33   16   17 1     
   34    3   33 1     
   35    9   34 1     
   36    9   35 1     
   37   15   36 1     
   38   15   37 1     
@<TRIPOS>SUBSTRUCTURE
      1 S1             1
@<TRIPOS>SET
LONE_PAIRS      STATIC     ATOMS    <user>   **** ""
5 33 34 35 36 37
DONOR_HYDROGENS      STATIC     ATOMS    <user>   **** ""
1 23
ATOM$BLUE        STATIC     ATOMS    COLORGROUP SYSTEM
5 33 34 35 36 37
ATOM$RED        STATIC     ATOMS    COLORGROUP SYSTEM
1 23
