#       Name:                AV-unprocessed.smi:2881
#       Creating user name   scv26
#       Creation time:       Fri Mar 27 15:54:27 2020


#       File generated by GOLD software.
#

@<TRIPOS>MOLECULE
AV-unprocessed.smi:2881
    45    47     1
SMALL
NO_CHARGES


@<TRIPOS>ATOM
      1 ****        -3.5927   5.6346  -1.0051 C.3            1 S1                 0.0000
      2 ****        -3.0747   4.3381  -0.4558 C.2            1 S1                 0.0000
      3 ****        -2.8870   3.1030  -1.1429 C.2            1 S1                 0.0000
      4 ****        -2.3902   2.2576  -0.1903 C.2            1 S1                 0.0000
      5 ****        -1.9804   0.8204  -0.2616 C.3            1 S1                 0.0000
      6 ****        -0.4775   0.6672  -0.5157 C.2            1 S1                 0.0000
      7 ****         0.0993   1.4006  -1.3194 O.2            1 S1                 0.0000
      8 ****         0.1463  -0.3018   0.1715 N.am           1 S1                 0.0000
      9 ****         1.5719  -0.6168   0.0682 C.3            1 S1                 0.0000
     10 ****         1.9443  -1.3793  -1.2304 C.3            1 S1                 0.0000
     11 ****         1.0212  -2.5967  -1.4500 C.3            1 S1                 0.0000
     12 ****         1.4690  -3.5613  -0.3374 C.3            1 S1                 0.0000
     13 ****         2.6083  -2.7851   0.3564 C.3            1 S1                 0.0000
     14 ****         3.2436  -2.0712  -0.8309 C.3            1 S1                 0.0000
     15 ****         2.0816  -1.5812   1.1762 C.3            1 S1                 0.0000
     16 ****         1.1051  -1.9162   2.3261 C.3            1 S1                 0.0000
     17 ****         1.7347  -2.7524   3.2735 O.3            1 S1                 0.0000
     18 ****        -2.3151   2.9925   0.9715 N.pl3          1 S1                 0.0000
     19 ****        -2.7288   4.2644   0.8208 N.2            1 S1                 0.0000
     20 ****        -1.9856   2.6453   1.8610 H              1 S1                 0.0000
     21 ****        -3.9073   5.5249  -2.0431 H              1 S1                 0.0000
     22 ****        -2.8261   6.4091  -0.9708 H              1 S1                 0.0000
     23 ****        -4.4516   5.9888  -0.4346 H              1 S1                 0.0000
     24 ****        -3.0826   2.8745  -2.1802 H              1 S1                 0.0000
     25 ****        -2.5191   0.3217  -1.0676 H              1 S1                 0.0000
     26 ****        -2.2584   0.3102   0.6619 H              1 S1                 0.0000
     27 ****        -0.4019  -0.8659   0.8042 H              1 S1                 0.0000
     28 ****         2.1416   0.3131   0.1255 H              1 S1                 0.0000
     29 ****         2.0235  -0.7341  -2.1061 H              1 S1                 0.0000
     30 ****        -0.0410  -2.3582  -1.3986 H              1 S1                 0.0000
     31 ****         1.2035  -3.0401  -2.4298 H              1 S1                 0.0000
     32 ****         0.6581  -3.8337   0.3362 H              1 S1                 0.0000
     33 ****         1.8492  -4.4859  -0.7735 H              1 S1                 0.0000
     34 ****         3.2920  -3.4250   0.9151 H              1 S1                 0.0000
     35 ****         3.6257  -2.7523  -1.5936 H              1 S1                 0.0000
     36 ****         4.0355  -1.3751  -0.5483 H              1 S1                 0.0000
     37 ****         2.9480  -1.1041   1.6386 H              1 S1                 0.0000
     38 ****         0.7986  -1.0013   2.8339 H              1 S1                 0.0000
     39 ****         0.1958  -2.3989   1.9700 H              1 S1                 0.0000
     40 ****         1.1244  -2.9275   3.9733 H              1 S1                 0.0000
     41 ****        -0.4137   2.1032  -1.8124 LP             1 S1                 0.0000
     42 ****         1.0806   1.2934  -1.4789 LP             1 S1                 0.0000
     43 ****         2.5454  -2.2959   3.6399 LP             1 S1                 0.0000
     44 ****         2.0040  -3.6116   2.8384 LP             1 S1                 0.0000
     45 ****        -2.7664   4.9861   1.5120 LP             1 S1                 0.0000
@<TRIPOS>BOND
    1    1   21 1     
    2    1   22 1     
    3    1   23 1     
    4    1    2 1     
    5    2   19 2     
    6    2    3 1     
    7    3    4 2     
    8    3   24 1     
    9    4   18 1     
   10    4    5 1     
   11    5    6 1     
   12    5   25 1     
   13    5   26 1     
   14    6    7 2     
   15    6    8 am    
   16    8    9 1     
   17    8   27 1     
   18    9   15 1     
   19    9   10 1     
   20    9   28 1     
   21   10   14 1     
   22   10   11 1     
   23   10   29 1     
   24   11   12 1     
   25   11   30 1     
   26   11   31 1     
   27   12   13 1     
   28   12   32 1     
   29   12   33 1     
   30   13   14 1     
   31   13   15 1     
   32   13   34 1     
   33   14   35 1     
   34   14   36 1     
   35   15   16 1     
   36   15   37 1     
   37   16   17 1     
   38   16   38 1     
   39   16   39 1     
   40   17   40 1     
   41   18   19 1     
   42   18   20 1     
   43    7   41 1     
   44    7   42 1     
   45   17   43 1     
   46   17   44 1     
   47   19   45 1     
@<TRIPOS>SUBSTRUCTURE
      1 S1             1
@<TRIPOS>SET
LONE_PAIRS      STATIC     ATOMS    <user>   **** ""
5 41 42 43 44 45
DONOR_HYDROGENS      STATIC     ATOMS    <user>   **** ""
3 27 40 20
ATOM$BLUE        STATIC     ATOMS    COLORGROUP SYSTEM
5 41 42 43 44 45
ATOM$RED        STATIC     ATOMS    COLORGROUP SYSTEM
3 27 40 20
