AV-unprocessed.smi:1697|AV-procd|sdf|6810|dock2
  -GOLD-   22720 7583D 1   1.00000     0.00000
 Structure written by MMmdl.
 55 57  0  0  0  0  0  0  0  0  3 V2000
  147.9652  134.5152  162.5419 C   0  0  0  0  0  0  0  0  0  0  0  0
  147.3293  135.8999  162.4044 C   0  0  0  0  0  0  0  0  0  0  0  0
  147.8628  136.5349  161.2516 O   0  0  0  0  0  0  0  0  0  0  0  0
  147.7839  135.7612  160.0595 C   0  0  2  0  0  0  0  0  0  0  0  0
  149.1782  135.5253  159.4496 C   0  0  0  0  0  0  0  0  0  0  0  0
  149.8162  136.8435  158.9800 C   0  0  0  0  0  0  0  0  0  0  0  0
  148.9424  137.5439  158.0009 N   0  3  2  0  0  0  0  0  0  0  0  0
  149.5640  138.7622  157.4189 C   0  0  0  0  0  0  0  0  0  0  0  0
  150.6685  138.4419  156.3911 C   0  0  1  0  0  0  0  0  0  0  0  0
  150.1105  138.4709  155.0919 O   0  0  0  0  0  0  0  0  0  0  0  0
  151.8267  139.4563  156.4631 C   0  0  0  0  0  0  0  0  0  0  0  0
  151.3912  140.7896  156.9004 N   0  0  0  0  0  0  0  0  0  0  0  0
  150.5534  141.6801  156.3022 C   0  0  0  0  0  0  0  0  0  0  0  0
  150.4711  142.7727  157.1115 N   0  3  0  0  0  0  0  0  0  0  0  0
  151.2625  142.5745  158.2453 C   0  0  0  0  0  0  0  0  0  0  0  0
  151.5008  143.3896  159.3457 C   0  0  0  0  0  0  0  0  0  0  0  0
  152.3680  142.8894  160.3436 C   0  0  0  0  0  0  0  0  0  0  0  0
  152.6505  143.7556  161.5592 C   0  0  0  0  0  0  0  0  0  0  0  0
  152.9640  141.6077  160.2178 C   0  0  0  0  0  0  0  0  0  0  0  0
  153.8947  141.0799  161.2965 C   0  0  0  0  0  0  0  0  0  0  0  0
  152.7082  140.7933  159.0915 C   0  0  0  0  0  0  0  0  0  0  0  0
  151.8532  141.3026  158.1172 C   0  0  0  0  0  0  0  0  0  0  0  0
  147.5990  137.8204  158.5728 C   0  0  0  0  0  0  0  0  0  0  0  0
  146.9139  136.5277  159.0519 C   0  0  0  0  0  0  0  0  0  0  0  0
  147.5804  133.9955  163.4197 H   0  0  0  0  0  0  0  0  0  0  0  0
  149.0478  134.5896  162.6456 H   0  0  0  0  0  0  0  0  0  0  0  0
  147.7528  133.8991  161.6680 H   0  0  0  0  0  0  0  0  0  0  0  0
  146.2472  135.7969  162.3285 H   0  0  0  0  0  0  0  0  0  0  0  0
  147.5429  136.4941  163.2940 H   0  0  0  0  0  0  0  0  0  0  0  0
  147.3028  134.8054  160.2743 H   0  0  0  0  0  0  0  0  0  0  0  0
  149.8364  135.0232  160.1577 H   0  0  0  0  0  0  0  0  0  0  0  0
  149.0873  134.8495  158.5982 H   0  0  0  0  0  0  0  0  0  0  0  0
  150.0040  137.4952  159.8350 H   0  0  0  0  0  0  0  0  0  0  0  0
  150.7860  136.6196  158.5385 H   0  0  0  0  0  0  0  0  0  0  0  0
  148.7999  139.3645  156.9245 H   0  0  0  0  0  0  0  0  0  0  0  0
  149.9608  139.3800  158.2261 H   0  0  0  0  0  0  0  0  0  0  0  0
  151.0699  137.4445  156.5627 H   0  0  0  0  0  0  0  0  0  0  0  0
  150.3771  139.2730  154.6681 H   0  0  0  0  0  0  0  0  0  0  0  0
  152.5916  139.1143  157.1620 H   0  0  0  0  0  0  0  0  0  0  0  0
  152.3173  139.5589  155.4942 H   0  0  0  0  0  0  0  0  0  0  0  0
  150.0481  141.5465  155.3561 H   0  0  0  0  0  0  0  0  0  0  0  0
  151.0431  144.3641  159.4353 H   0  0  0  0  0  0  0  0  0  0  0  0
  153.7101  144.0076  161.6108 H   0  0  0  0  0  0  0  0  0  0  0  0
  152.3727  143.2345  162.4756 H   0  0  0  0  0  0  0  0  0  0  0  0
  152.0868  144.6884  161.5244 H   0  0  0  0  0  0  0  0  0  0  0  0
  154.2843  140.0941  161.0405 H   0  0  0  0  0  0  0  0  0  0  0  0
  153.3682  140.9927  162.2474 H   0  0  0  0  0  0  0  0  0  0  0  0
  154.7447  141.7490  161.4309 H   0  0  0  0  0  0  0  0  0  0  0  0
  153.1605  139.8174  158.9963 H   0  0  0  0  0  0  0  0  0  0  0  0
  147.6931  138.5270  159.3990 H   0  0  0  0  0  0  0  0  0  0  0  0
  146.9691  138.2964  157.8204 H   0  0  0  0  0  0  0  0  0  0  0  0
  146.7082  135.8890  158.1918 H   0  0  0  0  0  0  0  0  0  0  0  0
  145.9460  136.7614  159.4968 H   0  0  0  0  0  0  0  0  0  0  0  0
  148.7933  136.9095  157.2288 H   0  0  0  0  0  0  0  0  0  0  0  0
  149.9124  143.5909  156.9042 H   0  0  0  0  0  0  0  0  0  0  0  0
  1  2  1  0  0  0  0
  1 25  1  0  0  0  0
  1 26  1  0  0  0  0
  1 27  1  0  0  0  0
  2  3  1  0  0  0  0
  2 28  1  0  0  0  0
  2 29  1  0  0  0  0
  3  4  1  0  0  0  0
  4 24  1  0  0  0  0
  4  5  1  0  0  0  0
  4 30  1  0  0  0  0
  5  6  1  0  0  0  0
  5 31  1  0  0  0  0
  5 32  1  0  0  0  0
  6  7  1  0  0  0  0
  6 33  1  0  0  0  0
  6 34  1  0  0  0  0
  7  8  1  0  0  0  0
  7 23  1  0  0  0  0
  7 54  1  0  0  0  0
  8  9  1  0  0  0  0
  8 35  1  0  0  0  0
  8 36  1  0  0  0  0
  9 10  1  0  0  0  0
  9 11  1  0  0  0  0
  9 37  1  0  0  0  0
 10 38  1  0  0  0  0
 11 12  1  0  0  0  0
 11 39  1  0  0  0  0
 11 40  1  0  0  0  0
 12 22  1  0  0  0  0
 12 13  1  0  0  0  0
 13 14  2  0  0  0  0
 13 41  1  0  0  0  0
 14 15  1  0  0  0  0
 14 55  1  0  0  0  0
 15 22  2  0  0  0  0
 15 16  1  0  0  0  0
 16 17  2  0  0  0  0
 16 42  1  0  0  0  0
 17 18  1  0  0  0  0
 17 19  1  0  0  0  0
 18 43  1  0  0  0  0
 18 44  1  0  0  0  0
 18 45  1  0  0  0  0
 19 20  1  0  0  0  0
 19 21  2  0  0  0  0
 20 46  1  0  0  0  0
 20 47  1  0  0  0  0
 20 48  1  0  0  0  0
 21 22  1  0  0  0  0
 21 49  1  0  0  0  0
 23 24  1  0  0  0  0
 23 50  1  0  0  0  0
 23 51  1  0  0  0  0
 24 52  1  0  0  0  0
 24 53  1  0  0  0  0
M  CHG  1   7   1
M  CHG  1  14   1
M  END
> <s_m_source_file>
AV-unprocessed.smi

> <i_m_source_file_index>
1697

> <i_lp_mmshare_version>
43012

> <i_f3d_flags>
0

> <s_epik_input>
W0NIM11bQ0gyXU9bQ0hdMVtDSDJdW0NIMl1OKFtDSDJdW0NIMl0xKVtDSDJdW0NASF0oW09IXSlbQ0gyXW4oW2NIXW4yKWMoYzIzKVtjSF1jKFtDSDNdKWMoW2NIXTMpW0NIM10=

> <s_epik_cmdline>
J2VwaWtfcHl0aG9uJywgJy1waCcsICc3LjAnLCAnLXRuJywgJzgnLCAnLW1hJywgJzIwMCcsICctbWV0YWxfYmluZGluZycsICctaW1hZScsICc8aW5maWxlLm1hZT4nLCAnLW9tYWUnLCAnPG91dGZpbGUubWFlPic=

> <r_epik_Ionization_Penalty>
1.20016

> <r_epik_Ionization_Penalty_Charging>
1.20016

> <r_epik_Ionization_Penalty_Neutral>
1.70998e-06

> <r_epik_State_Penalty>
1.27959

> <r_epik_Charging_Adjusted_Penalty>
2.47975

> <i_epik_Tot_Q>
2

> <i_epik_Tot_abs_Q>
2

> <r_epik_Metal_State_Penalty>
5.29682

> <b_epik_Metal_Only>
0

> <s_lp_Force_Field>
OPLS_2005

> <r_lp_Energy>
32.2175

> <b_lp_Chiralities_Consistent>
1

> <s_lp_Variant>
AV-unprocessed.smi:1697-8

> <Gold.Version>
5.8.1

> <Gold.Id.Protein>
6NUR|6NUR_protein|mol2

> <Gold.PLP.Fitness>
56.6993

> <Gold.PLP.PLP>
-48.4823

> <Gold.PLP.part.hbond>
-3.0000

> <Gold.PLP.part.metal>
0.0000

> <Gold.PLP.part.buried>
-6.0444

> <Gold.PLP.part.nonpolar>
-40.0368

> <Gold.PLP.part.repulsive>
0.1638

> <Gold.PLP.ligand.clash>
0.0000

> <Gold.PLP.ligand.torsion>
1.8097

> <Gold.PLP.Chemscore.Hbond>
3.8560

> <Gold.PLP.Chemscore.CHOScore>
0.0000

> <Gold.PLP.Chemscore.Metal>
0.0000

> <Gold.Chemscore.Hbonds>
donor molecule, donor type, donor heavy atom, donor atom, acceptor molecule, acceptor atom, score
      L1  H    14    55       P1  8028  2.00
      P1  H  6931  6943       L1     3  0.63

> <Gold.PLP.Chemscore.Internal.Correction>
0.2683

> <Gold.Rescore>
     Score         DG    S(hbond)    S(metal)    S(lipo)     H(rot)  DE(clash)    DE(int)     intcor
     20.68     -22.85       2.53        0.00     127.64       2.35       0.22       1.95       ----

> <Gold.Chemscore.Fitness>
20.6811

> <Gold.Chemscore.DG>
-22.8532

> <Gold.Chemscore.ZeroCoef>
-5.4800

> <Gold.Chemscore.Hbond>
2.5289

> <Gold.Chemscore.Metal>
0.0000

> <Gold.Chemscore.Lipo>
127.6436

> <Gold.Chemscore.Internal_Hbond>
0.0000

> <Gold.Chemscore.DEClash>
0.2230

> <Gold.Chemscore.DEInternal>
1.9492

> <Gold.Chemscore.Rot>
2.3468

> <Gold.Chemscore.Internal.Correction>
   9.000000E+99

> <Gold.Chemscore.Hbonds>
donor molecule, donor type, donor heavy atom, donor atom, acceptor molecule, acceptor atom, score
      L1  H    14    55       P1  8028  0.95
      P1  H  6931  6943       L1     3  0.41

> <Gold.Chemscore.Hbond.Weighted>
-8.4467

> <Gold.Chemscore.Metal.Weighted>
-0.0000

> <Gold.Chemscore.Lipo.Weighted>
-14.9343

> <Gold.Chemscore.Internal_Hbond.Weighted>
0.0000

> <Gold.Chemscore.DEClash.Weighted>
0.2230

> <Gold.Chemscore.DEInternal.Weighted>
1.9492

> <Gold.Chemscore.Rot.Weighted>
6.0077

> <Gold.Chemscore.Internal.Correction.Weighted>
   9.000000E+99

> <Gold.Protein.RotatedTorsions>
[ 6907 6896 6895 6894 ] final   54.83 input  -60.11 | X-H torsion
[ 7974 7965 7964 7962 ] final  -25.22 input  175.53 | X-H torsion
[ 8008 7997 7996 7995 ] final  120.66 input   59.86 | X-H torsion
[ 10167 10162 10161 10158 ] final  109.66 input  -65.29 | X-H torsion
[ 10718 10713 10712 10709 ] final   -4.89 input   66.30 | X-H torsion
[ 10763 10752 10751 10750 ] final   69.32 input  -60.55 | X-H torsion
[ 11005 11000 10999 10996 ] final   51.24 input  -57.11 | X-H torsion

> <Gold.Protein.ActiveResidues>
 VAL166  LYS551  ARG553  GLY616  TRP617  ASP618  TYR619  PRO620  LYS621  CYS622 
 ASP623  PHE694  ASN695  SER759  ASP760  ASP761  ALA762  ILE779  LEU786  VAL792 
 PHE793  MET794  SER795  GLU796  ALA797  LYS798  CYS799  TRP800  GLU811  SER814 

> <Gold.Protein.RotatedAtoms>
  152.3478  134.7047  160.0244 H   0  0  0  0  0  0  0  0  0  0  0  0  # atno 6907 bound_to 6896
  151.7411  133.3316  159.3374 H   0  0  0  0  0  0  0  0  0  0  0  0  # atno 6908 bound_to 6896
  150.7520  134.6210  159.6181 H   0  0  0  0  0  0  0  0  0  0  0  0  # atno 6909 bound_to 6896
  146.1505  140.4857  142.8613 H   0  0  0  0  0  0  0  0  0  0  0  0  # atno 7974 bound_to 7965
  156.2652  140.2826  156.1184 H   0  0  0  0  0  0  0  0  0  0  0  0  # atno 8008 bound_to 7997
  155.1182  140.0392  157.2760 H   0  0  0  0  0  0  0  0  0  0  0  0  # atno 8009 bound_to 7997
  154.6691  140.2583  155.7033 H   0  0  0  0  0  0  0  0  0  0  0  0  # atno 8010 bound_to 7997
  139.6749  144.7123  151.1620 H   0  0  0  0  0  0  0  0  0  0  0  0  # atno 10167 bound_to 10162
  156.7546  130.5250  149.5797 H   0  0  0  0  0  0  0  0  0  0  0  0  # atno 10718 bound_to 10713
  153.0281  135.5215  154.7270 H   0  0  0  0  0  0  0  0  0  0  0  0  # atno 10763 bound_to 10752
  154.6309  135.2900  155.0220 H   0  0  0  0  0  0  0  0  0  0  0  0  # atno 10764 bound_to 10752
  154.1172  135.6613  153.4948 H   0  0  0  0  0  0  0  0  0  0  0  0  # atno 10765 bound_to 10752
  140.0950  134.5158  155.8816 H   0  0  0  0  0  0  0  0  0  0  0  0  # atno 11005 bound_to 11000
  144.7898  140.6009  143.6549 LP  0  0  0  0  0  0  0  0  0  0  0  0  # atno 17320 bound_to 7965
  145.4835  139.1493  143.3749 LP  0  0  0  0  0  0  0  0  0  0  0  0  # atno 17321 bound_to 7965
  140.7632  143.5787  150.8918 LP  0  0  0  0  0  0  0  0  0  0  0  0  # atno 17342 bound_to 10162
  139.9455  143.6333  152.3043 LP  0  0  0  0  0  0  0  0  0  0  0  0  # atno 17343 bound_to 10162
  156.1378  130.6224  151.0425 LP  0  0  0  0  0  0  0  0  0  0  0  0  # atno 17370 bound_to 10713
  157.6762  131.0850  150.7489 LP  0  0  0  0  0  0  0  0  0  0  0  0  # atno 17371 bound_to 10713
  141.2089  133.6678  156.6403 LP  0  0  0  0  0  0  0  0  0  0  0  0  # atno 17394 bound_to 11000
  140.3299  134.7937  157.4318 LP  0  0  0  0  0  0  0  0  0  0  0  0  # atno 17395 bound_to 11000

$$$$
