#       Name:                AV-unprocessed.smi:2768
#       Creating user name   scv26
#       Creation time:       Fri Mar 27 15:10:10 2020


#       File generated by GOLD software.
#

@<TRIPOS>MOLECULE
AV-unprocessed.smi:2768
    40    41     1
SMALL
NO_CHARGES


@<TRIPOS>ATOM
      1 ****        -0.1462   2.8401  -0.1902 O.2            1 S1                 0.0000
      2 ****         0.5594   1.8893  -0.5290 C.2            1 S1                 0.0000
      3 ****         0.0614   0.6898  -0.8726 N.am           1 S1                 0.0000
      4 ****        -1.3502   0.3124  -0.8531 C.3            1 S1                 0.0000
      5 ****        -1.6288  -0.5181  -2.1237 C.3            1 S1                 0.0000
      6 ****        -3.0381  -1.1267  -2.1293 C.3            1 S1                 0.0000
      7 ****        -3.2681  -1.9806  -0.8765 C.3            1 S1                 0.0000
      8 ****        -3.0567  -1.1431   0.3910 C.3            1 S1                 0.0000
      9 ****        -1.6568  -0.5001   0.4301 C.3            1 S1                 0.0000
     10 ****        -1.6247   0.3521   1.5578 O.3            1 S1                 0.0000
     11 ****         2.0891   2.0251  -0.5492 C.3            1 S1                 0.0000
     12 ****         2.5390   1.5780  -1.7239 F              1 S1                 0.0000
     13 ****         2.4209   3.3142  -0.4466 F              1 S1                 0.0000
     14 ****         2.7053   1.2395   0.6066 C.ar           1 S1                 0.0000
     15 ****         3.3583   0.0047   0.3866 C.ar           1 S1                 0.0000
     16 ****         3.8906  -0.6846   1.4932 C.ar           1 S1                 0.0000
     17 ****         3.7518  -0.1208   2.7754 C.ar           1 S1                 0.0000
     18 ****         3.0837   1.1133   2.8948 C.ar           1 S1                 0.0000
     19 ****         2.5695   1.7817   1.8407 N.ar           1 S1                 0.0000
     20 ****        -1.9910   1.1961  -0.8835 H              1 S1                 0.0000
     21 ****        -0.9076  -1.2824   0.5613 H              1 S1                 0.0000
     22 ****         0.7172  -0.0306  -1.1387 H              1 S1                 0.0000
     23 ****        -1.4953   0.1033  -3.0100 H              1 S1                 0.0000
     24 ****        -0.8990  -1.3254  -2.2034 H              1 S1                 0.0000
     25 ****        -3.7831  -0.3314  -2.1764 H              1 S1                 0.0000
     26 ****        -3.1764  -1.7345  -3.0239 H              1 S1                 0.0000
     27 ****        -4.2779  -2.3917  -0.8864 H              1 S1                 0.0000
     28 ****        -2.5853  -2.8311  -0.8764 H              1 S1                 0.0000
     29 ****        -3.8204  -0.3647   0.4313 H              1 S1                 0.0000
     30 ****        -3.2061  -1.7663   1.2735 H              1 S1                 0.0000
     31 ****        -0.7832   0.7819   1.5859 H              1 S1                 0.0000
     32 ****         3.4487  -0.4133  -0.6049 H              1 S1                 0.0000
     33 ****         4.3948  -1.6304   1.3610 H              1 S1                 0.0000
     34 ****         4.1468  -0.6217   3.6469 H              1 S1                 0.0000
     35 ****         2.9579   1.5753   3.8628 H              1 S1                 0.0000
     36 ****        -1.1407   2.7395  -0.1615 LP             1 S1                 0.0000
     37 ****         0.2754   3.7128   0.0562 LP             1 S1                 0.0000
     38 ****        -1.7566  -0.1855   2.3905 LP             1 S1                 0.0000
     39 ****        -2.3504   1.0362   1.4842 LP             1 S1                 0.0000
     40 ****         2.1000   2.6555   1.9676 LP             1 S1                 0.0000
@<TRIPOS>BOND
    1    1    2 2     
    2    2    3 am    
    3    2   11 1     
    4    3    4 1     
    5    3   22 1     
    6    4   20 1     
    7    4    9 1     
    8    4    5 1     
    9    5    6 1     
   10    5   23 1     
   11    5   24 1     
   12    6    7 1     
   13    6   25 1     
   14    6   26 1     
   15    7    8 1     
   16    7   27 1     
   17    7   28 1     
   18    8    9 1     
   19    8   29 1     
   20    8   30 1     
   21    9   21 1     
   22    9   10 1     
   23   10   31 1     
   24   11   12 1     
   25   11   13 1     
   26   11   14 1     
   27   14   19 ar    
   28   14   15 ar    
   29   15   16 ar    
   30   15   32 1     
   31   16   17 ar    
   32   16   33 1     
   33   17   18 ar    
   34   17   34 1     
   35   18   19 ar    
   36   18   35 1     
   37    1   36 1     
   38    1   37 1     
   39   10   38 1     
   40   10   39 1     
   41   19   40 1     
@<TRIPOS>SUBSTRUCTURE
      1 S1             1
@<TRIPOS>SET
LONE_PAIRS      STATIC     ATOMS    <user>   **** ""
5 36 37 38 39 40
DONOR_HYDROGENS      STATIC     ATOMS    <user>   **** ""
2 22 31
ATOM$BLUE        STATIC     ATOMS    COLORGROUP SYSTEM
5 36 37 38 39 40
ATOM$RED        STATIC     ATOMS    COLORGROUP SYSTEM
2 22 31
