AV-unprocessed.smi:1918|AV-procd|sdf|7769|dock9
  -GOLD-   22720 9513D 1   1.00000     0.00000
 Structure written by MMmdl.
 35 37  0  0  0  0  0  0  0  0  1 V2000
  153.6437  141.7639  162.8921 C   0  0  0  0  0  0  0  0  0  0  0  0
  153.0466  142.5001  161.7350 C   0  0  0  0  0  0  0  0  0  0  0  0
  152.7115  143.7885  161.8099 N   0  0  0  0  0  0  0  0  0  0  0  0
  152.2114  144.0454  160.5478 C   0  0  0  0  0  0  0  0  0  0  0  0
  151.6888  145.2344  159.9903 C   0  0  0  0  0  0  0  0  0  0  0  0
  151.2292  145.2558  158.6570 C   0  0  0  0  0  0  0  0  0  0  0  0
  151.2857  144.0917  157.8632 C   0  0  0  0  0  0  0  0  0  0  0  0
  151.8039  142.8969  158.3987 C   0  0  0  0  0  0  0  0  0  0  0  0
  152.2609  142.8810  159.7299 C   0  0  0  0  0  0  0  0  0  0  0  0
  152.8129  141.8969  160.5433 N   0  0  0  0  0  0  0  0  0  0  0  0
  153.0748  140.5164  160.1603 C   0  0  0  0  0  0  0  0  0  0  0  0
  154.5427  140.1055  160.3897 C   0  0  2  0  0  0  0  0  0  0  0  0
  155.1369  139.7312  159.1609 O   0  0  0  0  0  0  0  0  0  0  0  0
  154.6480  139.0130  161.4453 C   0  0  0  0  0  0  0  0  0  0  0  0
  155.3514  139.2461  162.6487 C   0  0  0  0  0  0  0  0  0  0  0  0
  155.4564  138.2322  163.6203 C   0  0  0  0  0  0  0  0  0  0  0  0
  154.8631  136.9760  163.3943 C   0  0  0  0  0  0  0  0  0  0  0  0
  154.9642  136.0008  164.3282 F   0  0  0  0  0  0  0  0  0  0  0  0
  154.1674  136.7337  162.1947 C   0  0  0  0  0  0  0  0  0  0  0  0
  154.0612  137.7464  161.2213 C   0  0  0  0  0  0  0  0  0  0  0  0
  153.3957  137.4922  160.0688 F   0  0  0  0  0  0  0  0  0  0  0  0
  153.6729  142.4002  163.7771 H   0  0  0  0  0  0  0  0  0  0  0  0
  154.6626  141.4558  162.6571 H   0  0  0  0  0  0  0  0  0  0  0  0
  153.0514  140.8794  163.1264 H   0  0  0  0  0  0  0  0  0  0  0  0
  151.6415  146.1313  160.5900 H   0  0  0  0  0  0  0  0  0  0  0  0
  150.8307  146.1699  158.2414 H   0  0  0  0  0  0  0  0  0  0  0  0
  150.9307  144.1163  156.8433 H   0  0  0  0  0  0  0  0  0  0  0  0
  151.8484  142.0028  157.7944 H   0  0  0  0  0  0  0  0  0  0  0  0
  152.4160  139.8778  160.7500 H   0  0  0  0  0  0  0  0  0  0  0  0
  152.7907  140.3632  159.1193 H   0  0  0  0  0  0  0  0  0  0  0  0
  155.1001  140.9753  160.7387 H   0  0  0  0  0  0  0  0  0  0  0  0
  155.4361  138.8377  159.2326 H   0  0  0  0  0  0  0  0  0  0  0  0
  155.8170  140.2036  162.8311 H   0  0  0  0  0  0  0  0  0  0  0  0
  155.9941  138.4177  164.5386 H   0  0  0  0  0  0  0  0  0  0  0  0
  153.7159  135.7684  162.0192 H   0  0  0  0  0  0  0  0  0  0  0  0
  1  2  1  0  0  0  0
  1 22  1  0  0  0  0
  1 23  1  0  0  0  0
  1 24  1  0  0  0  0
  2 10  1  0  0  0  0
  2  3  2  0  0  0  0
  3  4  1  0  0  0  0
  4  9  2  0  0  0  0
  4  5  1  0  0  0  0
  5  6  2  0  0  0  0
  5 25  1  0  0  0  0
  6  7  1  0  0  0  0
  6 26  1  0  0  0  0
  7  8  2  0  0  0  0
  7 27  1  0  0  0  0
  8  9  1  0  0  0  0
  8 28  1  0  0  0  0
  9 10  1  0  0  0  0
 10 11  1  0  0  0  0
 11 12  1  0  0  0  0
 11 29  1  0  0  0  0
 11 30  1  0  0  0  0
 12 13  1  0  0  0  0
 12 14  1  0  0  0  0
 12 31  1  0  0  0  0
 13 32  1  0  0  0  0
 14 20  1  0  0  0  0
 14 15  2  0  0  0  0
 15 16  1  0  0  0  0
 15 33  1  0  0  0  0
 16 17  2  0  0  0  0
 16 34  1  0  0  0  0
 17 18  1  0  0  0  0
 17 19  1  0  0  0  0
 19 20  2  0  0  0  0
 19 35  1  0  0  0  0
 20 21  1  0  0  0  0
M  END
> <s_m_source_file>
AV-unprocessed.smi

> <i_m_source_file_index>
1918

> <i_lp_mmshare_version>
43012

> <i_f3d_flags>
0

> <s_epik_input>
W2NIXTFbY0hdW2NIXVtjSF1jKGMxMiluKGMobjIpW0NIM10pW0NIMl1bQ0BIXShbT0hdKWMzW2NIXVtjSF1jKEYpW2NIXWMzRg==

> <s_epik_cmdline>
J2VwaWtfcHl0aG9uJywgJy1waCcsICc3LjAnLCAnLXRuJywgJzgnLCAnLW1hJywgJzIwMCcsICctbWV0YWxfYmluZGluZycsICctaW1hZScsICc8aW5maWxlLm1hZT4nLCAnLW9tYWUnLCAnPG91dGZpbGUubWFlPic=

> <r_epik_Ionization_Penalty>
0.129663

> <r_epik_Ionization_Penalty_Charging>
0

> <r_epik_Ionization_Penalty_Neutral>
0.129663

> <r_epik_State_Penalty>
0.119073

> <r_epik_Charging_Adjusted_Penalty>
0.119073

> <i_epik_Tot_Q>
0

> <i_epik_Tot_abs_Q>
0

> <r_epik_Metal_State_Penalty>
0.000131867

> <b_epik_Metal_Only>
0

> <s_lp_Force_Field>
OPLS_2005

> <r_lp_Energy>
11.5863

> <b_lp_Chiralities_Consistent>
1

> <s_lp_Variant>
AV-unprocessed.smi:1918-1

> <Gold.Version>
5.8.1

> <Gold.Id.Protein>
6NUR|6NUR_protein|mol2

> <Gold.PLP.Fitness>
53.6988

> <Gold.PLP.PLP>
-52.2320

> <Gold.PLP.part.hbond>
-1.0000

> <Gold.PLP.part.metal>
0.0000

> <Gold.PLP.part.buried>
-3.1644

> <Gold.PLP.part.nonpolar>
-47.4217

> <Gold.PLP.part.repulsive>
0.1304

> <Gold.PLP.ligand.clash>
0.0000

> <Gold.PLP.ligand.torsion>
0.7794

> <Gold.PLP.Chemscore.Hbond>
1.0000

> <Gold.PLP.Chemscore.CHOScore>
0.0000

> <Gold.PLP.Chemscore.Metal>
0.0000

> <Gold.Chemscore.Hbonds>
donor molecule, donor type, donor heavy atom, donor atom, acceptor molecule, acceptor atom, score
      P1  H  7997  8009       L1    13  1.00

> <Gold.PLP.Chemscore.Internal.Correction>
0.0256

> <Gold.Rescore>
     Score         DG    S(hbond)    S(metal)    S(lipo)     H(rot)  DE(clash)    DE(int)     intcor
     16.10     -19.20       0.90        0.00     132.81       1.88       0.49       2.60       ----

> <Gold.Chemscore.Fitness>
16.1043

> <Gold.Chemscore.DG>
-19.2032

> <Gold.Chemscore.ZeroCoef>
-5.4800

> <Gold.Chemscore.Hbond>
0.9005

> <Gold.Chemscore.Metal>
0.0000

> <Gold.Chemscore.Lipo>
132.8070

> <Gold.Chemscore.Internal_Hbond>
0.0000

> <Gold.Chemscore.DEClash>
0.4946

> <Gold.Chemscore.DEInternal>
2.6043

> <Gold.Chemscore.Rot>
1.8839

> <Gold.Chemscore.Internal.Correction>
   9.000000E+99

> <Gold.Chemscore.Hbonds>
donor molecule, donor type, donor heavy atom, donor atom, acceptor molecule, acceptor atom, score
      P1  H  7997  8009       L1    13  0.39

> <Gold.Chemscore.Hbond.Weighted>
-3.0075

> <Gold.Chemscore.Metal.Weighted>
-0.0000

> <Gold.Chemscore.Lipo.Weighted>
-15.5384

> <Gold.Chemscore.Internal_Hbond.Weighted>
0.0000

> <Gold.Chemscore.DEClash.Weighted>
0.4946

> <Gold.Chemscore.DEInternal.Weighted>
2.6043

> <Gold.Chemscore.Rot.Weighted>
4.8227

> <Gold.Chemscore.Internal.Correction.Weighted>
   9.000000E+99

> <Gold.Protein.RotatedTorsions>
[ 6907 6896 6895 6894 ] final -110.01 input  -60.11 | X-H torsion
[ 7974 7965 7964 7962 ] final   -5.50 input  175.53 | X-H torsion
[ 8008 7997 7996 7995 ] final  119.26 input   59.86 | X-H torsion
[ 10167 10162 10161 10158 ] final  131.64 input  -65.29 | X-H torsion
[ 10718 10713 10712 10709 ] final  132.24 input   66.30 | X-H torsion
[ 10763 10752 10751 10750 ] final  -72.12 input  -60.55 | X-H torsion
[ 11005 11000 10999 10996 ] final -147.72 input  -57.11 | X-H torsion

> <Gold.Protein.ActiveResidues>
 VAL166  LYS551  ARG553  GLY616  TRP617  ASP618  TYR619  PRO620  LYS621  CYS622 
 ASP623  PHE694  ASN695  SER759  ASP760  ASP761  ALA762  ILE779  LEU786  VAL792 
 PHE793  MET794  SER795  GLU796  ALA797  LYS798  CYS799  TRP800  GLU811  SER814 

> <Gold.Protein.RotatedAtoms>
  150.7598  133.9444  159.3465 H   0  0  0  0  0  0  0  0  0  0  0  0  # atno 6907 bound_to 6896
  151.7356  135.0863  160.0316 H   0  0  0  0  0  0  0  0  0  0  0  0  # atno 6908 bound_to 6896
  152.3562  133.6202  159.6017 H   0  0  0  0  0  0  0  0  0  0  0  0  # atno 6909 bound_to 6896
  146.2351  140.2031  142.8334 H   0  0  0  0  0  0  0  0  0  0  0  0  # atno 7974 bound_to 7965
  156.2587  140.2857  156.0964 H   0  0  0  0  0  0  0  0  0  0  0  0  # atno 8008 bound_to 7997
  155.1407  140.0395  157.2815 H   0  0  0  0  0  0  0  0  0  0  0  0  # atno 8009 bound_to 7997
  154.6532  140.2549  155.7197 H   0  0  0  0  0  0  0  0  0  0  0  0  # atno 8010 bound_to 7997
  139.5375  144.6697  151.4737 H   0  0  0  0  0  0  0  0  0  0  0  0  # atno 10167 bound_to 10162
  157.4890  131.1089  150.9582 H   0  0  0  0  0  0  0  0  0  0  0  0  # atno 10718 bound_to 10713
  154.4412  135.5940  153.6131 H   0  0  0  0  0  0  0  0  0  0  0  0  # atno 10763 bound_to 10752
  152.9805  135.5998  154.3719 H   0  0  0  0  0  0  0  0  0  0  0  0  # atno 10764 bound_to 10752
  154.3570  135.2841  155.2320 H   0  0  0  0  0  0  0  0  0  0  0  0  # atno 10765 bound_to 10752
  140.7687  134.3215  157.5081 H   0  0  0  0  0  0  0  0  0  0  0  0  # atno 11005 bound_to 11000
  144.9766  140.8420  143.5422 LP  0  0  0  0  0  0  0  0  0  0  0  0  # atno 17320 bound_to 7965
  145.2019  139.2248  143.5188 LP  0  0  0  0  0  0  0  0  0  0  0  0  # atno 17321 bound_to 7965
  140.6588  143.8542  150.6865 LP  0  0  0  0  0  0  0  0  0  0  0  0  # atno 17342 bound_to 10162
  140.1930  143.4021  152.1849 LP  0  0  0  0  0  0  0  0  0  0  0  0  # atno 17343 bound_to 10162
  157.0290  130.5704  149.5340 LP  0  0  0  0  0  0  0  0  0  0  0  0  # atno 17370 bound_to 10713
  156.0163  130.5257  150.8143 LP  0  0  0  0  0  0  0  0  0  0  0  0  # atno 17371 bound_to 10713
  139.8759  134.9247  156.3356 LP  0  0  0  0  0  0  0  0  0  0  0  0  # atno 17394 bound_to 11000
  140.9595  133.7398  156.0381 LP  0  0  0  0  0  0  0  0  0  0  0  0  # atno 17395 bound_to 11000

$$$$
