#       Name:                AV-unprocessed.smi:3081
#       Creating user name   scv26
#       Creation time:       Fri Mar 27 17:13:48 2020


#       File generated by GOLD software.
#

@<TRIPOS>MOLECULE
AV-unprocessed.smi:3081
    28    29     1
SMALL
NO_CHARGES


@<TRIPOS>ATOM
      1 ****        -3.5235  -1.5768   0.0087 C.ar           1 S1                 0.0000
      2 ****        -2.1157  -1.6518  -0.0069 C.ar           1 S1                 0.0000
      3 ****        -1.4233  -0.4217  -0.0023 C.ar           1 S1                 0.0000
      4 ****         0.0981  -0.3704  -0.0145 C.3            1 S1                 0.0000
      5 ****         0.6503   0.3028  -1.2868 C.3            1 S1                 0.0000
      6 ****         2.1861   0.3371  -1.2528 C.3            1 S1                 0.0000
      7 ****         2.6929   1.0014   0.0383 C.3            1 S1                 0.0000
      8 ****         2.1470   0.3139   1.2288 N.4            1 S1                 1.0000
      9 ****         0.6676   0.2930   1.2575 C.3            1 S1                 0.0000
     10 ****        -2.0823   0.7599   0.0172 N.ar           1 S1                 0.0000
     11 ****        -3.4173   0.7083   0.0299 C.ar           1 S1                 0.0000
     12 ****        -4.1724  -0.3926   0.0281 N.ar           1 S1                 0.0000
     13 ****        -4.1305  -2.4700   0.0066 H              1 S1                 0.0000
     14 ****        -1.6034  -2.6026  -0.0222 H              1 S1                 0.0000
     15 ****         0.4481  -1.4041  -0.0215 H              1 S1                 0.0000
     16 ****         0.3098  -0.2306  -2.1751 H              1 S1                 0.0000
     17 ****         0.2693   1.3217  -1.3698 H              1 S1                 0.0000
     18 ****         2.5775  -0.6788  -1.3208 H              1 S1                 0.0000
     19 ****         2.5663   0.8732  -2.1228 H              1 S1                 0.0000
     20 ****         3.7817   0.9701   0.0774 H              1 S1                 0.0000
     21 ****         2.4024   2.0525   0.0649 H              1 S1                 0.0000
     22 ****         2.4826  -0.6388   1.2317 H              1 S1                 0.0000
     23 ****         0.3043   1.3171   1.3550 H              1 S1                 0.0000
     24 ****         0.3404  -0.2473   2.1462 H              1 S1                 0.0000
     25 ****        -3.9386   1.6539   0.0450 H              1 S1                 0.0000
     26 ****         2.4834   0.7798   2.0597 H              1 S1                 0.0000
     27 ****        -1.5926   1.6318   0.0219 LP             1 S1                 0.0000
     28 ****        -5.1711  -0.3427   0.0405 LP             1 S1                 0.0000
@<TRIPOS>BOND
    1    1   12 ar    
    2    1    2 ar    
    3    1   13 1     
    4    2    3 ar    
    5    2   14 1     
    6    3    4 1     
    7    3   10 ar    
    8    4    9 1     
    9    4    5 1     
   10    4   15 1     
   11    5    6 1     
   12    5   16 1     
   13    5   17 1     
   14    6    7 1     
   15    6   18 1     
   16    6   19 1     
   17    7    8 1     
   18    7   20 1     
   19    7   21 1     
   20    8    9 1     
   21    8   22 1     
   22    8   26 1     
   23    9   23 1     
   24    9   24 1     
   25   10   11 ar    
   26   11   12 ar    
   27   11   25 1     
   28   10   27 1     
   29   12   28 1     
@<TRIPOS>SUBSTRUCTURE
      1 S1             1
@<TRIPOS>SET
LONE_PAIRS      STATIC     ATOMS    <user>   **** ""
2 27 28
DONOR_HYDROGENS      STATIC     ATOMS    <user>   **** ""
2 22 26
ATOM$BLUE        STATIC     ATOMS    COLORGROUP SYSTEM
2 27 28
ATOM$RED        STATIC     ATOMS    COLORGROUP SYSTEM
2 22 26
