AV-unprocessed.smi:3282|AV-procd|sdf|12565|dock4
  -GOLD-   2272018483D 1   1.00000     0.00000
 Structure written by MMmdl.
 34 35  0  0  0  0  0  0  0  0  1 V2000
  152.2295  139.3563  158.3357 C   0  0  0  0  0  0  0  0  0  0  0  0
  151.8850  140.6249  157.5385 C   0  0  0  0  0  0  0  0  0  0  0  0
  151.6084  140.3643  156.0481 C   0  0  0  0  0  0  0  0  0  0  0  0
  152.4965  139.9006  155.3312 O   0  0  0  0  0  0  0  0  0  0  0  0
  150.3823  140.6585  155.5673 N   0  0  0  0  0  0  0  0  0  0  0  0
  149.3012  141.1946  156.3899 C   0  0  0  0  0  0  0  0  0  0  0  0
  148.0461  141.1475  155.5186 C   0  0  0  0  0  0  0  0  0  0  0  0
  148.5702  141.1638  154.0854 C   0  0  2  0  0  0  0  0  0  0  0  0
  147.6733  140.4573  153.1761 N   0  0  0  0  0  0  0  0  0  0  0  0
  147.3369  139.1623  153.2732 C   0  0  0  0  0  0  0  0  0  0  0  0
  147.7852  138.4375  154.1671 O   0  0  0  0  0  0  0  0  0  0  0  0
  146.4939  138.8001  152.2360 N   0  0  0  0  0  0  0  0  0  0  0  0
  145.9594  137.6190  152.2655 C   0  0  0  0  0  0  0  0  0  0  0  0
  145.0780  137.0619  151.3529 N   0  0  0  0  0  0  0  0  0  0  0  0
  144.7831  135.7925  151.7678 C   0  0  0  0  0  0  0  0  0  0  0  0
  145.4509  135.5589  152.8940 C   0  0  0  0  0  0  0  0  0  0  0  0
  146.1827  136.6589  153.2261 O   0  0  0  0  0  0  0  0  0  0  0  0
  149.9480  140.4941  154.1814 C   0  0  0  0  0  0  0  0  0  0  0  0
  152.4274  139.6007  159.3794 H   0  0  0  0  0  0  0  0  0  0  0  0
  153.1191  138.8656  157.9388 H   0  0  0  0  0  0  0  0  0  0  0  0
  151.4091  138.6379  158.3171 H   0  0  0  0  0  0  0  0  0  0  0  0
  151.0082  141.0983  157.9814 H   0  0  0  0  0  0  0  0  0  0  0  0
  152.7093  141.3331  157.6283 H   0  0  0  0  0  0  0  0  0  0  0  0
  149.1654  140.6259  157.3112 H   0  0  0  0  0  0  0  0  0  0  0  0
  149.5400  142.2244  156.6596 H   0  0  0  0  0  0  0  0  0  0  0  0
  147.5138  140.2150  155.7141 H   0  0  0  0  0  0  0  0  0  0  0  0
  147.3598  141.9690  155.7258 H   0  0  0  0  0  0  0  0  0  0  0  0
  148.6920  142.2018  153.7702 H   0  0  0  0  0  0  0  0  0  0  0  0
  147.2823  140.9913  152.4133 H   0  0  0  0  0  0  0  0  0  0  0  0
  144.6978  137.4791  150.5155 H   0  0  0  0  0  0  0  0  0  0  0  0
  144.1079  135.1739  151.1954 H   0  0  0  0  0  0  0  0  0  0  0  0
  145.5096  134.7015  153.5482 H   0  0  0  0  0  0  0  0  0  0  0  0
  150.6466  140.9436  153.4745 H   0  0  0  0  0  0  0  0  0  0  0  0
  149.8831  139.4269  153.9615 H   0  0  0  0  0  0  0  0  0  0  0  0
  1  2  1  0  0  0  0
  1 19  1  0  0  0  0
  1 20  1  0  0  0  0
  1 21  1  0  0  0  0
  2  3  1  0  0  0  0
  2 22  1  0  0  0  0
  2 23  1  0  0  0  0
  3  4  2  0  0  0  0
  3  5  1  0  0  0  0
  5 18  1  0  0  0  0
  5  6  1  0  0  0  0
  6  7  1  0  0  0  0
  6 24  1  0  0  0  0
  6 25  1  0  0  0  0
  7  8  1  0  0  0  0
  7 26  1  0  0  0  0
  7 27  1  0  0  0  0
  8  9  1  0  0  0  0
  8 18  1  0  0  0  0
  8 28  1  0  0  0  0
  9 29  1  0  0  0  0
  9 10  1  0  0  0  0
 10 12  1  0  0  0  0
 10 11  2  0  0  0  0
 12 13  2  0  0  0  0
 13 17  1  0  0  0  0
 13 14  1  0  0  0  0
 14 30  1  0  0  0  0
 14 15  1  0  0  0  0
 15 31  1  0  0  0  0
 15 16  2  0  0  0  0
 16 32  1  0  0  0  0
 16 17  1  0  0  0  0
 18 33  1  0  0  0  0
 18 34  1  0  0  0  0
M  END
> <s_m_source_file>
AV-unprocessed.smi

> <i_m_source_file_index>
3282

> <i_lp_mmshare_version>
43012

> <i_f3d_flags>
0

> <s_epik_input>
W0NIM11bQ0gyXUMoPU8pTjFbQ0gyXVtDSDJdW0NASF0oW0NIMl0xKVtOSF1DKD1PKVtOSF1jMm5bY0hdW2NIXW8y

> <s_epik_cmdline>
J2VwaWtfcHl0aG9uJywgJy1waCcsICc3LjAnLCAnLXRuJywgJzgnLCAnLW1hJywgJzIwMCcsICctbWV0YWxfYmluZGluZycsICctaW1hZScsICc8aW5maWxlLm1hZT4nLCAnLW9tYWUnLCAnPG91dGZpbGUubWFlPic=

> <r_lp_tautomer_probability>
0.107061

> <r_epik_Ionization_Penalty>
0.434703

> <r_epik_Ionization_Penalty_Charging>
0.434345

> <r_epik_Ionization_Penalty_Neutral>
0.000358141

> <r_epik_State_Penalty>
2.49584

> <r_epik_Charging_Adjusted_Penalty>
2.93019

> <i_epik_Tot_Q>
0

> <i_epik_Tot_abs_Q>
0

> <r_epik_Metal_State_Penalty>
4.06361

> <b_epik_Metal_Only>
0

> <s_lp_Force_Field>
OPLS_2005

> <r_lp_Energy>
49.1525

> <b_lp_Chiralities_Consistent>
1

> <s_lp_Variant>
AV-unprocessed.smi:3282-6

> <Gold.Version>
5.8.1

> <Gold.Id.Protein>
6NUR|6NUR_protein|mol2

> <Gold.PLP.Fitness>
33.1414

> <Gold.PLP.PLP>
-26.5758

> <Gold.PLP.part.hbond>
-3.8532

> <Gold.PLP.part.metal>
0.0000

> <Gold.PLP.part.buried>
-0.0365

> <Gold.PLP.part.nonpolar>
-23.6295

> <Gold.PLP.part.repulsive>
0.9499

> <Gold.PLP.ligand.clash>
0.0000

> <Gold.PLP.ligand.torsion>
0.0280

> <Gold.PLP.Chemscore.Hbond>
2.2043

> <Gold.PLP.Chemscore.CHOScore>
0.0000

> <Gold.PLP.Chemscore.Metal>
0.0000

> <Gold.Chemscore.Hbonds>
donor molecule, donor type, donor heavy atom, donor atom, acceptor molecule, acceptor atom, score
      L1  H    14    30       P1 10171  1.00
      P1  H  7989  7998       L1     4  0.21
      P1  H  7997  8010       L1     4  0.99

> <Gold.PLP.Chemscore.Internal.Correction>
0.0087

> <Gold.Rescore>
     Score         DG    S(hbond)    S(metal)    S(lipo)     H(rot)  DE(clash)    DE(int)     intcor
      9.83     -13.15       1.94        0.00      39.14       1.32       0.36       2.95       ----

> <Gold.Chemscore.Fitness>
9.8313

> <Gold.Chemscore.DG>
-13.1476

> <Gold.Chemscore.ZeroCoef>
-5.4800

> <Gold.Chemscore.Hbond>
1.9364

> <Gold.Chemscore.Metal>
0.0000

> <Gold.Chemscore.Lipo>
39.1376

> <Gold.Chemscore.Internal_Hbond>
0.0000

> <Gold.Chemscore.DEClash>
0.3648

> <Gold.Chemscore.DEInternal>
2.9516

> <Gold.Chemscore.Rot>
1.3199

> <Gold.Chemscore.Internal.Correction>
   9.000000E+99

> <Gold.Chemscore.Hbonds>
donor molecule, donor type, donor heavy atom, donor atom, acceptor molecule, acceptor atom, score
      L1  H    14    30       P1 10171  0.92
      P1  H  7989  7998       L1     4  0.02
      P1  H  7997  8010       L1     4  0.84

> <Gold.Chemscore.Hbond.Weighted>
-6.4675

> <Gold.Chemscore.Metal.Weighted>
-0.0000

> <Gold.Chemscore.Lipo.Weighted>
-4.5791

> <Gold.Chemscore.Internal_Hbond.Weighted>
0.0000

> <Gold.Chemscore.DEClash.Weighted>
0.3648

> <Gold.Chemscore.DEInternal.Weighted>
2.9516

> <Gold.Chemscore.Rot.Weighted>
3.3789

> <Gold.Chemscore.Internal.Correction.Weighted>
   9.000000E+99

> <Gold.Protein.RotatedTorsions>
[ 6907 6896 6895 6894 ] final    7.71 input  -60.11 | X-H torsion
[ 7974 7965 7964 7962 ] final  154.22 input  175.53 | X-H torsion
[ 8008 7997 7996 7995 ] final   94.75 input   59.86 | X-H torsion
[ 10167 10162 10161 10158 ] final  -80.00 input  -65.29 | X-H torsion
[ 10718 10713 10712 10709 ] final -153.13 input   66.30 | X-H torsion
[ 10763 10752 10751 10750 ] final -137.37 input  -60.55 | X-H torsion
[ 11005 11000 10999 10996 ] final -147.94 input  -57.11 | X-H torsion

> <Gold.Protein.ActiveResidues>
 VAL166  LYS551  ARG553  GLY616  TRP617  ASP618  TYR619  PRO620  LYS621  CYS622 
 ASP623  PHE694  ASN695  SER759  ASP760  ASP761  ALA762  ILE779  LEU786  VAL792 
 PHE793  MET794  SER795  GLU796  ALA797  LYS798  CYS799  TRP800  GLU811  SER814 

> <Gold.Protein.RotatedAtoms>
  151.6943  135.0941  160.0239 H   0  0  0  0  0  0  0  0  0  0  0  0  # atno 6907 bound_to 6896
  152.3760  133.6477  159.6132 H   0  0  0  0  0  0  0  0  0  0  0  0  # atno 6908 bound_to 6896
  150.7709  133.9110  159.3410 H   0  0  0  0  0  0  0  0  0  0  0  0  # atno 6909 bound_to 6896
  144.8103  139.6905  143.6144 H   0  0  0  0  0  0  0  0  0  0  0  0  # atno 7974 bound_to 7965
  156.0613  140.3295  155.7465 H   0  0  0  0  0  0  0  0  0  0  0  0  # atno 8008 bound_to 7997
  155.5450  140.0605  157.2879 H   0  0  0  0  0  0  0  0  0  0  0  0  # atno 8009 bound_to 7997
  154.4483  140.1904  156.0617 H   0  0  0  0  0  0  0  0  0  0  0  0  # atno 8010 bound_to 7997
  140.4542  143.2473  151.8444 H   0  0  0  0  0  0  0  0  0  0  0  0  # atno 10167 bound_to 10162
  156.4817  130.8306  151.2533 H   0  0  0  0  0  0  0  0  0  0  0  0  # atno 10718 bound_to 10713
  154.8663  135.3644  154.5212 H   0  0  0  0  0  0  0  0  0  0  0  0  # atno 10763 bound_to 10752
  153.5842  135.7017  153.5455 H   0  0  0  0  0  0  0  0  0  0  0  0  # atno 10764 bound_to 10752
  153.3430  135.4093  155.1549 H   0  0  0  0  0  0  0  0  0  0  0  0  # atno 10765 bound_to 10752
  140.7664  134.3239  157.5087 H   0  0  0  0  0  0  0  0  0  0  0  0  # atno 11005 bound_to 11000
  146.2400  139.5982  142.9498 LP  0  0  0  0  0  0  0  0  0  0  0  0  # atno 17320 bound_to 7965
  145.5341  141.0425  143.2367 LP  0  0  0  0  0  0  0  0  0  0  0  0  # atno 17321 bound_to 7965
  139.4799  144.5084  151.8966 LP  0  0  0  0  0  0  0  0  0  0  0  0  # atno 17342 bound_to 10162
  140.4171  144.2293  150.5887 LP  0  0  0  0  0  0  0  0  0  0  0  0  # atno 17343 bound_to 10162
  157.7482  131.0043  150.3069 LP  0  0  0  0  0  0  0  0  0  0  0  0  # atno 17370 bound_to 10713
  156.3515  130.3832  149.7325 LP  0  0  0  0  0  0  0  0  0  0  0  0  # atno 17371 bound_to 10713
  139.8762  134.9234  156.3323 LP  0  0  0  0  0  0  0  0  0  0  0  0  # atno 17394 bound_to 11000
  140.9615  133.7385  156.0408 LP  0  0  0  0  0  0  0  0  0  0  0  0  # atno 17395 bound_to 11000

$$$$
