AV-unprocessed.smi:212|AV-procd|sdf|1629|dock9
  -GOLD-   2262019583D 1   1.00000     0.00000
 Structure written by MMmdl.
 65 68  0  0  0  0  0  0  0  0  2 V2000
  148.7444  140.3563  154.0552 C   0  0  0  0  0  0  0  0  0  0  0  0
  148.8156  141.3457  155.2342 C   0  0  2  0  0  0  0  0  0  0  0  0
  150.2563  141.6302  155.7133 C   0  0  0  0  0  0  0  0  0  0  0  0
  150.2680  142.6370  156.8067 N   0  3  2  0  0  0  0  0  0  0  0  0
  151.6396  142.9941  157.2571 C   0  0  0  0  0  0  0  0  0  0  0  0
  151.6560  144.2068  158.2174 C   0  0  0  0  0  0  0  0  0  0  0  0
  151.4993  143.7314  159.6717 C   0  0  0  0  0  0  0  0  0  0  0  0
  152.9344  145.0526  158.0686 C   0  0  0  0  0  0  0  0  0  0  0  0
  150.5416  145.0326  157.9428 O   0  0  0  0  0  0  0  0  0  0  0  0
  149.3576  142.2730  157.9244 C   0  0  0  0  0  0  0  0  0  0  0  0
  147.9279  142.0143  157.4135 C   0  0  0  0  0  0  0  0  0  0  0  0
  147.9296  141.0081  156.3557 N   0  0  0  0  0  0  0  0  0  0  0  0
  147.8589  139.7414  156.8399 C   0  0  0  0  0  0  0  0  0  0  0  0
  148.8011  138.8178  156.5137 N   0  0  0  0  0  0  0  0  0  0  0  0
  148.7386  137.5833  157.0222 C   0  0  0  0  0  0  0  0  0  0  0  0
  147.8415  137.0738  157.8688 N   0  0  0  0  0  0  0  0  0  0  0  0
  146.9003  138.0006  158.2069 C   0  0  0  0  0  0  0  0  0  0  0  0
  146.8353  139.3435  157.7419 C   0  0  0  0  0  0  0  0  0  0  0  0
  145.7381  139.9886  158.2991 N   0  0  0  0  0  0  0  0  0  0  0  0
  145.1867  139.0784  159.0552 C   0  0  0  0  0  0  0  0  0  0  0  0
  145.8257  137.8588  159.0660 N   0  0  0  0  0  0  0  0  0  0  0  0
  145.4411  136.6787  159.8193 C   0  0  0  0  0  0  0  0  0  0  0  0
  146.5979  135.6675  160.0409 C   0  0  1  0  0  0  0  0  0  0  0  0
  147.8822  136.3455  160.5847 C   0  0  0  0  0  0  0  0  0  0  0  0
  147.6000  137.2539  161.6299 O   0  0  0  0  0  0  0  0  0  0  0  0
  146.1385  134.5182  160.9760 C   0  0  1  0  0  0  0  0  0  0  0  0
  147.2377  133.5589  161.4023 C   0  0  0  0  0  0  0  0  0  0  0  0
  146.6204  132.8855  162.6212 C   0  0  0  0  0  0  0  0  0  0  0  0
  145.8512  133.8982  163.2553 O   0  0  0  0  0  0  0  0  0  0  0  0
  145.6166  134.9705  162.3473 C   0  0  0  0  0  0  0  0  0  0  0  0
  149.2888  140.7458  153.1945 H   0  0  0  0  0  0  0  0  0  0  0  0
  147.7126  140.1949  153.7420 H   0  0  0  0  0  0  0  0  0  0  0  0
  149.1780  139.3859  154.2947 H   0  0  0  0  0  0  0  0  0  0  0  0
  148.4266  142.2884  154.8463 H   0  0  0  0  0  0  0  0  0  0  0  0
  150.7454  140.7176  156.0543 H   0  0  0  0  0  0  0  0  0  0  0  0
  150.8466  142.0064  154.8765 H   0  0  0  0  0  0  0  0  0  0  0  0
  152.1213  142.1295  157.7177 H   0  0  0  0  0  0  0  0  0  0  0  0
  152.2573  143.2397  156.3914 H   0  0  0  0  0  0  0  0  0  0  0  0
  152.3289  143.0882  159.9681 H   0  0  0  0  0  0  0  0  0  0  0  0
  150.5783  143.1631  159.8093 H   0  0  0  0  0  0  0  0  0  0  0  0
  151.4732  144.5720  160.3663 H   0  0  0  0  0  0  0  0  0  0  0  0
  153.8263  144.4544  158.2590 H   0  0  0  0  0  0  0  0  0  0  0  0
  152.9422  145.8850  158.7734 H   0  0  0  0  0  0  0  0  0  0  0  0
  153.0290  145.4760  157.0681 H   0  0  0  0  0  0  0  0  0  0  0  0
  150.1337  144.7333  157.1440 H   0  0  0  0  0  0  0  0  0  0  0  0
  149.7403  141.3839  158.4283 H   0  0  0  0  0  0  0  0  0  0  0  0
  149.3383  143.0706  158.6667 H   0  0  0  0  0  0  0  0  0  0  0  0
  147.2828  141.7164  158.2414 H   0  0  0  0  0  0  0  0  0  0  0  0
  147.5037  142.9359  157.0134 H   0  0  0  0  0  0  0  0  0  0  0  0
  149.5205  136.9076  156.7082 H   0  0  0  0  0  0  0  0  0  0  0  0
  144.2988  139.2762  159.6378 H   0  0  0  0  0  0  0  0  0  0  0  0
  145.0372  137.0008  160.7799 H   0  0  0  0  0  0  0  0  0  0  0  0
  144.6177  136.2094  159.2810 H   0  0  0  0  0  0  0  0  0  0  0  0
  146.8413  135.2173  159.0769 H   0  0  0  0  0  0  0  0  0  0  0  0
  148.5982  135.5988  160.9300 H   0  0  0  0  0  0  0  0  0  0  0  0
  148.3836  136.9233  159.8098 H   0  0  0  0  0  0  0  0  0  0  0  0
  147.3351  136.7621  162.3924 H   0  0  0  0  0  0  0  0  0  0  0  0
  145.3559  133.9405  160.4808 H   0  0  0  0  0  0  0  0  0  0  0  0
  147.5099  132.8405  160.6289 H   0  0  0  0  0  0  0  0  0  0  0  0
  148.1350  134.1083  161.6915 H   0  0  0  0  0  0  0  0  0  0  0  0
  145.9518  132.0806  162.3129 H   0  0  0  0  0  0  0  0  0  0  0  0
  147.3688  132.4679  163.2953 H   0  0  0  0  0  0  0  0  0  0  0  0
  146.1650  135.8430  162.7047 H   0  0  0  0  0  0  0  0  0  0  0  0
  144.5572  135.2266  162.3236 H   0  0  0  0  0  0  0  0  0  0  0  0
  149.8865  143.4795  156.4009 H   0  0  0  0  0  0  0  0  0  0  0  0
  1  2  1  0  0  0  0
  1 31  1  0  0  0  0
  1 32  1  0  0  0  0
  1 33  1  0  0  0  0
  2 12  1  0  0  0  0
  2  3  1  0  0  0  0
  2 34  1  0  0  0  0
  3  4  1  0  0  0  0
  3 35  1  0  0  0  0
  3 36  1  0  0  0  0
  4  5  1  0  0  0  0
  4 10  1  0  0  0  0
  4 65  1  0  0  0  0
  5  6  1  0  0  0  0
  5 37  1  0  0  0  0
  5 38  1  0  0  0  0
  6  7  1  0  0  0  0
  6  8  1  0  0  0  0
  6  9  1  0  0  0  0
  7 39  1  0  0  0  0
  7 40  1  0  0  0  0
  7 41  1  0  0  0  0
  8 42  1  0  0  0  0
  8 43  1  0  0  0  0
  8 44  1  0  0  0  0
  9 45  1  0  0  0  0
 10 11  1  0  0  0  0
 10 46  1  0  0  0  0
 10 47  1  0  0  0  0
 11 12  1  0  0  0  0
 11 48  1  0  0  0  0
 11 49  1  0  0  0  0
 12 13  1  0  0  0  0
 13 18  1  0  0  0  0
 13 14  2  0  0  0  0
 14 15  1  0  0  0  0
 15 16  2  0  0  0  0
 15 50  1  0  0  0  0
 16 17  1  0  0  0  0
 17 21  1  0  0  0  0
 17 18  2  0  0  0  0
 18 19  1  0  0  0  0
 19 20  2  0  0  0  0
 20 21  1  0  0  0  0
 20 51  1  0  0  0  0
 21 22  1  0  0  0  0
 22 23  1  0  0  0  0
 22 52  1  0  0  0  0
 22 53  1  0  0  0  0
 23 24  1  0  0  0  0
 23 26  1  0  0  0  0
 23 54  1  0  0  0  0
 24 25  1  0  0  0  0
 24 55  1  0  0  0  0
 24 56  1  0  0  0  0
 25 57  1  0  0  0  0
 26 30  1  0  0  0  0
 26 27  1  0  0  0  0
 26 58  1  0  0  0  0
 27 28  1  0  0  0  0
 27 59  1  0  0  0  0
 27 60  1  0  0  0  0
 28 29  1  0  0  0  0
 28 61  1  0  0  0  0
 28 62  1  0  0  0  0
 29 30  1  0  0  0  0
 30 63  1  0  0  0  0
 30 64  1  0  0  0  0
M  CHG  1   4   1
M  END
> <s_m_source_file>
AV-unprocessed.smi

> <i_m_source_file_index>
212

> <i_lp_mmshare_version>
43012

> <i_f3d_flags>
0

> <s_epik_input>
W0NIM11bQ0BASF0xW0NIMl1OKFtDSDJdQyhbQ0gzXSkoW0NIM10pW09IXSlbQ0gyXVtDSDJdTjFjKG5bY0hdbjIpYyhjMjMpbltjSF1uM1tDSDJdW0NASF0oW0NIMl1bT0hdKVtDQEBIXTRbQ0gyXVtDSDJdT1tDSDJdNA==

> <s_epik_cmdline>
J2VwaWtfcHl0aG9uJywgJy1waCcsICc3LjAnLCAnLXRuJywgJzgnLCAnLW1hJywgJzIwMCcsICctbWV0YWxfYmluZGluZycsICctaW1hZScsICc8aW5maWxlLm1hZT4nLCAnLW9tYWUnLCAnPG91dGZpbGUubWFlPic=

> <r_lp_tautomer_probability>
1

> <r_epik_Ionization_Penalty>
0.00182193

> <r_epik_Ionization_Penalty_Charging>
0.00173996

> <r_epik_Ionization_Penalty_Neutral>
8.19718e-05

> <r_epik_State_Penalty>
-0

> <r_epik_Charging_Adjusted_Penalty>
0.00173996

> <i_epik_Tot_Q>
1

> <i_epik_Tot_abs_Q>
1

> <r_epik_Metal_State_Penalty>
-0

> <b_epik_Metal_Only>
0

> <s_lp_Force_Field>
OPLS_2005

> <r_lp_Energy>
57.8479

> <b_lp_Chiralities_Consistent>
1

> <s_lp_Variant>
AV-unprocessed.smi:212-13

> <Gold.Version>
5.8.1

> <Gold.Id.Protein>
6NUR|6NUR_protein|mol2

> <Gold.PLP.Fitness>
49.7917

> <Gold.PLP.PLP>
-36.8548

> <Gold.PLP.part.hbond>
-6.0000

> <Gold.PLP.part.metal>
0.0000

> <Gold.PLP.part.buried>
-4.1013

> <Gold.PLP.part.nonpolar>
-25.4924

> <Gold.PLP.part.repulsive>
0.1405

> <Gold.PLP.ligand.clash>
0.0000

> <Gold.PLP.ligand.torsion>
1.3687

> <Gold.PLP.Chemscore.Hbond>
4.7920

> <Gold.PLP.Chemscore.CHOScore>
0.0000

> <Gold.PLP.Chemscore.Metal>
0.0000

> <Gold.Chemscore.Hbonds>
donor molecule, donor type, donor heavy atom, donor atom, acceptor molecule, acceptor atom, score
      L1  H     4    65       P1  8028  2.00
      L1  H     9    45       P1  8028  1.00
      P1  H  6931  6943       L1    25  0.94
      P1  H  6934  6947       L1    25  0.75

> <Gold.PLP.Chemscore.Internal.Correction>
1.2982

> <Gold.Rescore>
     Score         DG    S(hbond)    S(metal)    S(lipo)     H(rot)  DE(clash)    DE(int)     intcor
     10.55     -18.65       2.95        0.00     108.95       3.68       1.96       6.14       ----

> <Gold.Chemscore.Fitness>
10.5539

> <Gold.Chemscore.DG>
-18.6506

> <Gold.Chemscore.ZeroCoef>
-5.4800

> <Gold.Chemscore.Hbond>
2.9484

> <Gold.Chemscore.Metal>
0.0000

> <Gold.Chemscore.Lipo>
108.9486

> <Gold.Chemscore.Internal_Hbond>
0.0000

> <Gold.Chemscore.DEClash>
1.9577

> <Gold.Chemscore.DEInternal>
6.1390

> <Gold.Chemscore.Rot>
3.6812

> <Gold.Chemscore.Internal.Correction>
   9.000000E+99

> <Gold.Chemscore.Hbonds>
donor molecule, donor type, donor heavy atom, donor atom, acceptor molecule, acceptor atom, score
      L1  H     4    65       P1  8028  1.00
      L1  H     9    45       P1  8028  0.29
      P1  H  6931  6943       L1    25  0.55
      P1  H  6934  6947       L1    25  0.62

> <Gold.Chemscore.Hbond.Weighted>
-9.8476

> <Gold.Chemscore.Metal.Weighted>
-0.0000

> <Gold.Chemscore.Lipo.Weighted>
-12.7470

> <Gold.Chemscore.Internal_Hbond.Weighted>
0.0000

> <Gold.Chemscore.DEClash.Weighted>
1.9577

> <Gold.Chemscore.DEInternal.Weighted>
6.1390

> <Gold.Chemscore.Rot.Weighted>
9.4239

> <Gold.Chemscore.Internal.Correction.Weighted>
   9.000000E+99

> <Gold.Protein.RotatedTorsions>
[ 6907 6896 6895 6894 ] final  -37.80 input  -60.11 | X-H torsion
[ 7974 7965 7964 7962 ] final  -25.55 input  175.53 | X-H torsion
[ 8008 7997 7996 7995 ] final  -69.18 input   59.86 | X-H torsion
[ 10167 10162 10161 10158 ] final  114.40 input  -65.29 | X-H torsion
[ 10718 10713 10712 10709 ] final  179.12 input   66.30 | X-H torsion
[ 10763 10752 10751 10750 ] final   91.04 input  -60.55 | X-H torsion
[ 11005 11000 10999 10996 ] final -119.57 input  -57.11 | X-H torsion

> <Gold.Protein.ActiveResidues>
 VAL166  LYS551  ARG553  GLY616  TRP617  ASP618  TYR619  PRO620  LYS621  CYS622 
 ASP623  PHE694  ASN695  SER759  ASP760  ASP761  ALA762  ILE779  LEU786  VAL792 
 PHE793  MET794  SER795  GLU796  ALA797  LYS798  CYS799  TRP800  GLU811  SER814 

> <Gold.Protein.RotatedAtoms>
  151.0102  134.9391  159.8002 H   0  0  0  0  0  0  0  0  0  0  0  0  # atno 6907 bound_to 6896
  152.5300  134.3038  159.9098 H   0  0  0  0  0  0  0  0  0  0  0  0  # atno 6908 bound_to 6896
  151.3044  133.4066  159.2676 H   0  0  0  0  0  0  0  0  0  0  0  0  # atno 6909 bound_to 6896
  146.1483  140.4902  142.8622 H   0  0  0  0  0  0  0  0  0  0  0  0  # atno 7974 bound_to 7965
  154.4920  140.0858  156.7615 H   0  0  0  0  0  0  0  0  0  0  0  0  # atno 8008 bound_to 7997
  155.4207  140.3445  155.4253 H   0  0  0  0  0  0  0  0  0  0  0  0  # atno 8009 bound_to 7997
  156.1343  140.1510  156.9006 H   0  0  0  0  0  0  0  0  0  0  0  0  # atno 8010 bound_to 7997
  139.6391  144.7122  151.2273 H   0  0  0  0  0  0  0  0  0  0  0  0  # atno 10167 bound_to 10162
  156.8805  130.9814  151.3062 H   0  0  0  0  0  0  0  0  0  0  0  0  # atno 10718 bound_to 10713
  153.2040  135.4412  155.0300 H   0  0  0  0  0  0  0  0  0  0  0  0  # atno 10763 bound_to 10752
  154.8163  135.3316  154.7169 H   0  0  0  0  0  0  0  0  0  0  0  0  # atno 10764 bound_to 10752
  153.7612  135.6991  153.4980 H   0  0  0  0  0  0  0  0  0  0  0  0  # atno 10765 bound_to 10752
  141.0206  134.0130  157.3288 H   0  0  0  0  0  0  0  0  0  0  0  0  # atno 11005 bound_to 11000
  144.7873  140.5962  143.6565 LP  0  0  0  0  0  0  0  0  0  0  0  0  # atno 17320 bound_to 7965
  145.4884  139.1490  143.3723 LP  0  0  0  0  0  0  0  0  0  0  0  0  # atno 17321 bound_to 7965
  140.7481  143.6343  150.8394 LP  0  0  0  0  0  0  0  0  0  0  0  0  # atno 17342 bound_to 10162
  139.9978  143.5777  152.2887 LP  0  0  0  0  0  0  0  0  0  0  0  0  # atno 17343 bound_to 10162
  157.6143  130.8607  149.9003 LP  0  0  0  0  0  0  0  0  0  0  0  0  # atno 17370 bound_to 10713
  156.0680  130.3689  150.0837 LP  0  0  0  0  0  0  0  0  0  0  0  0  # atno 17371 bound_to 10713
  139.9143  135.0195  156.7820 LP  0  0  0  0  0  0  0  0  0  0  0  0  # atno 17394 bound_to 11000
  140.6580  133.9671  155.7789 LP  0  0  0  0  0  0  0  0  0  0  0  0  # atno 17395 bound_to 11000

$$$$
