AV-unprocessed.smi:1624|AV-procd|sdf|6504|dock3
  -GOLD-   22720 7173D 1   1.00000     0.00000
 Structure written by MMmdl.
 35 36  0  0  0  0  0  0  0  0  2 V2000
  148.3602  135.2217  159.5542 O   0  0  0  0  0  0  0  0  0  0  0  0
  148.3563  136.3896  159.9511 C   0  0  0  0  0  0  0  0  0  0  0  0
  148.9032  137.3537  159.1963 N   0  0  0  0  0  0  0  0  0  0  0  0
  149.5235  137.1631  157.8900 C   0  0  0  0  0  0  0  0  0  0  0  0
  150.9316  137.7843  157.8381 C   0  0  0  0  0  0  0  0  0  0  0  0
  150.9700  138.9487  156.9470 N   0  0  0  0  0  0  0  0  0  0  0  0
  151.5982  138.7316  155.6348 C   0  0  0  0  0  0  0  0  0  0  0  0
  150.5918  138.7207  154.4625 C   0  0  0  0  0  0  0  0  0  0  0  0
  149.3566  139.6290  154.6222 C   0  0  0  0  0  0  0  0  0  0  0  0
  149.6659  141.0890  155.0149 C   0  0  0  0  0  0  0  0  0  0  0  0
  150.5079  141.3015  156.2974 C   0  0  0  0  0  0  0  0  0  0  0  0
  150.4440  140.1443  157.3086 C   0  0  0  0  0  0  0  0  0  0  0  0
  149.9218  140.3446  158.4055 O   0  0  0  0  0  0  0  0  0  0  0  0
  147.8340  136.8372  161.1158 N   0  5  0  0  0  0  0  0  0  0  0  0
  146.8579  136.1424  161.7232 C   0  0  0  0  0  0  0  0  0  0  0  0
  145.5653  136.4972  161.6440 N   0  0  0  0  0  0  0  0  0  0  0  0
  144.7211  135.6435  162.3418 N   0  0  0  0  0  0  0  0  0  0  0  0
  145.4014  134.6564  162.9240 C   0  0  0  0  0  0  0  0  0  0  0  0
  147.1339  134.6787  162.6715 S   0  0  0  0  0  0  0  0  0  0  0  0
  148.8792  138.2960  159.5576 H   0  0  0  0  0  0  0  0  0  0  0  0
  149.5763  136.0920  157.6940 H   0  0  0  0  0  0  0  0  0  0  0  0
  148.8875  137.5887  157.1119 H   0  0  0  0  0  0  0  0  0  0  0  0
  151.2539  138.0759  158.8387 H   0  0  0  0  0  0  0  0  0  0  0  0
  151.6573  137.0362  157.5144 H   0  0  0  0  0  0  0  0  0  0  0  0
  152.3520  139.5008  155.4660 H   0  0  0  0  0  0  0  0  0  0  0  0
  152.1685  137.8017  155.6263 H   0  0  0  0  0  0  0  0  0  0  0  0
  151.1196  138.9789  153.5441 H   0  0  0  0  0  0  0  0  0  0  0  0
  150.2365  137.6997  154.3204 H   0  0  0  0  0  0  0  0  0  0  0  0
  148.7970  139.6265  153.6864 H   0  0  0  0  0  0  0  0  0  0  0  0
  148.6784  139.1914  155.3563 H   0  0  0  0  0  0  0  0  0  0  0  0
  150.1731  141.5778  154.1827 H   0  0  0  0  0  0  0  0  0  0  0  0
  148.7188  141.6174  155.1288 H   0  0  0  0  0  0  0  0  0  0  0  0
  151.5506  141.4797  156.0351 H   0  0  0  0  0  0  0  0  0  0  0  0
  150.1851  142.2208  156.7876 H   0  0  0  0  0  0  0  0  0  0  0  0
  144.8800  133.9089  163.5031 H   0  0  0  0  0  0  0  0  0  0  0  0
  1  2  2  0  0  0  0
  2  3  1  0  0  0  0
  2 14  1  0  0  0  0
  3  4  1  0  0  0  0
  3 20  1  0  0  0  0
  4  5  1  0  0  0  0
  4 21  1  0  0  0  0
  4 22  1  0  0  0  0
  5  6  1  0  0  0  0
  5 23  1  0  0  0  0
  5 24  1  0  0  0  0
  6 12  1  0  0  0  0
  6  7  1  0  0  0  0
  7  8  1  0  0  0  0
  7 25  1  0  0  0  0
  7 26  1  0  0  0  0
  8  9  1  0  0  0  0
  8 27  1  0  0  0  0
  8 28  1  0  0  0  0
  9 10  1  0  0  0  0
  9 29  1  0  0  0  0
  9 30  1  0  0  0  0
 10 11  1  0  0  0  0
 10 31  1  0  0  0  0
 10 32  1  0  0  0  0
 11 12  1  0  0  0  0
 11 33  1  0  0  0  0
 11 34  1  0  0  0  0
 12 13  2  0  0  0  0
 14 15  1  0  0  0  0
 15 19  1  0  0  0  0
 15 16  2  0  0  0  0
 16 17  1  0  0  0  0
 17 18  2  0  0  0  0
 18 19  1  0  0  0  0
 18 35  1  0  0  0  0
M  CHG  1  14  -1
M  END
> <s_m_source_file>
AV-unprocessed.smi

> <i_m_source_file_index>
1624

> <i_lp_mmshare_version>
43012

> <i_f3d_flags>
0

> <s_epik_input>
czFbY0hdbm5jMVtOSF1DKD1PKVtOSF1bQ0gyXVtDSDJdTjJbQ0gyXVtDSDJdW0NIMl1bQ0gyXVtDSDJdQzI9Tw==

> <s_epik_cmdline>
J2VwaWtfcHl0aG9uJywgJy1waCcsICc3LjAnLCAnLXRuJywgJzgnLCAnLW1hJywgJzIwMCcsICctbWV0YWxfYmluZGluZycsICctaW1hZScsICc8aW5maWxlLm1hZT4nLCAnLW9tYWUnLCAnPG91dGZpbGUubWFlPic=

> <r_lp_tautomer_probability>
1

> <r_epik_Ionization_Penalty>
3.35684

> <r_epik_Ionization_Penalty_Charging>
3.31562

> <r_epik_Ionization_Penalty_Neutral>
0.0412242

> <r_epik_State_Penalty>
3.31341

> <r_epik_Charging_Adjusted_Penalty>
6.62903

> <i_epik_Tot_Q>
-1

> <i_epik_Tot_abs_Q>
1

> <r_epik_Metal_State_Penalty>
0.484053

> <b_epik_Metal_Only>
1

> <s_lp_Force_Field>
OPLS_2005

> <r_lp_Energy>
19.6576

> <b_lp_Chiralities_Consistent>
1

> <s_lp_Variant>
AV-unprocessed.smi:1624-2

> <Gold.Version>
5.8.1

> <Gold.Id.Protein>
6NUR|6NUR_protein|mol2

> <Gold.PLP.Fitness>
43.0585

> <Gold.PLP.PLP>
-31.8882

> <Gold.PLP.part.hbond>
-3.0000

> <Gold.PLP.part.metal>
0.0000

> <Gold.PLP.part.buried>
-3.2737

> <Gold.PLP.part.nonpolar>
-27.0422

> <Gold.PLP.part.repulsive>
0.2305

> <Gold.PLP.ligand.clash>
0.0000

> <Gold.PLP.ligand.torsion>
1.4363

> <Gold.PLP.Chemscore.Hbond>
4.6480

> <Gold.PLP.Chemscore.CHOScore>
0.0000

> <Gold.PLP.Chemscore.Metal>
0.0000

> <Gold.Chemscore.Hbonds>
donor molecule, donor type, donor heavy atom, donor atom, acceptor molecule, acceptor atom, score
      P1  H  6896  6907       L1     1  0.10
      P1  H  6931  6943       L1    14  2.00
      P1  H  6934  6947       L1    14  0.65

> <Gold.PLP.Chemscore.Internal.Correction>
0.0990

> <Gold.Rescore>
     Score         DG    S(hbond)    S(metal)    S(lipo)     H(rot)  DE(clash)    DE(int)     intcor
     13.29     -14.88       2.04        0.00      60.14       1.73       0.04       1.55       ----

> <Gold.Chemscore.Fitness>
13.2879

> <Gold.Chemscore.DG>
-14.8799

> <Gold.Chemscore.ZeroCoef>
-5.4800

> <Gold.Chemscore.Hbond>
2.0372

> <Gold.Chemscore.Metal>
0.0000

> <Gold.Chemscore.Lipo>
60.1392

> <Gold.Chemscore.Internal_Hbond>
0.0000

> <Gold.Chemscore.DEClash>
0.0392

> <Gold.Chemscore.DEInternal>
1.5528

> <Gold.Chemscore.Rot>
1.7346

> <Gold.Chemscore.Internal.Correction>
   9.000000E+99

> <Gold.Chemscore.Hbonds>
donor molecule, donor type, donor heavy atom, donor atom, acceptor molecule, acceptor atom, score
      P1  H  6896  6907       L1     1  0.06
      P1  H  6931  6943       L1    14  0.70
      P1  H  6934  6947       L1    14  0.17

> <Gold.Chemscore.Hbond.Weighted>
-6.8042

> <Gold.Chemscore.Metal.Weighted>
-0.0000

> <Gold.Chemscore.Lipo.Weighted>
-7.0363

> <Gold.Chemscore.Internal_Hbond.Weighted>
0.0000

> <Gold.Chemscore.DEClash.Weighted>
0.0392

> <Gold.Chemscore.DEInternal.Weighted>
1.5528

> <Gold.Chemscore.Rot.Weighted>
4.4406

> <Gold.Chemscore.Internal.Correction.Weighted>
   9.000000E+99

> <Gold.Protein.RotatedTorsions>
[ 6907 6896 6895 6894 ] final  -68.57 input  -60.11 | X-H torsion
[ 7974 7965 7964 7962 ] final  -24.98 input  175.53 | X-H torsion
[ 8008 7997 7996 7995 ] final  -17.33 input   59.86 | X-H torsion
[ 10167 10162 10161 10158 ] final -167.22 input  -65.29 | X-H torsion
[ 10718 10713 10712 10709 ] final  -99.10 input   66.30 | X-H torsion
[ 10763 10752 10751 10750 ] final  129.20 input  -60.55 | X-H torsion
[ 11005 11000 10999 10996 ] final  -76.85 input  -57.11 | X-H torsion

> <Gold.Protein.ActiveResidues>
 VAL166  LYS551  ARG553  GLY616  TRP617  ASP618  TYR619  PRO620  LYS621  CYS622 
 ASP623  PHE694  ASN695  SER759  ASP760  ASP761  ALA762  ILE779  LEU786  VAL792 
 PHE793  MET794  SER795  GLU796  ALA797  LYS798  CYS799  TRP800  GLU811  SER814 

> <Gold.Protein.RotatedAtoms>
  150.7349  134.5721  159.5895 H   0  0  0  0  0  0  0  0  0  0  0  0  # atno 6907 bound_to 6896
  152.3157  134.7440  160.0335 H   0  0  0  0  0  0  0  0  0  0  0  0  # atno 6908 bound_to 6896
  151.7973  133.3330  159.3553 H   0  0  0  0  0  0  0  0  0  0  0  0  # atno 6909 bound_to 6896
  146.1520  140.4824  142.8607 H   0  0  0  0  0  0  0  0  0  0  0  0  # atno 7974 bound_to 7965
  154.4986  140.2145  155.9393 H   0  0  0  0  0  0  0  0  0  0  0  0  # atno 8008 bound_to 7997
  156.1404  140.3180  155.8454 H   0  0  0  0  0  0  0  0  0  0  0  0  # atno 8009 bound_to 7997
  155.4131  140.0492  157.3021 H   0  0  0  0  0  0  0  0  0  0  0  0  # atno 8010 bound_to 7997
  139.6064  144.0905  152.1797 H   0  0  0  0  0  0  0  0  0  0  0  0  # atno 10167 bound_to 10162
  156.0125  130.5267  150.6620 H   0  0  0  0  0  0  0  0  0  0  0  0  # atno 10718 bound_to 10713
  153.7379  135.3228  155.3298 H   0  0  0  0  0  0  0  0  0  0  0  0  # atno 10763 bound_to 10752
  154.8305  135.4537  154.1056 H   0  0  0  0  0  0  0  0  0  0  0  0  # atno 10764 bound_to 10752
  153.2223  135.6949  153.8068 H   0  0  0  0  0  0  0  0  0  0  0  0  # atno 10765 bound_to 10752
  141.1657  133.7000  156.7732 H   0  0  0  0  0  0  0  0  0  0  0  0  # atno 11005 bound_to 11000
  144.7916  140.6043  143.6537 LP  0  0  0  0  0  0  0  0  0  0  0  0  # atno 17320 bound_to 7965
  145.4799  139.1496  143.3767 LP  0  0  0  0  0  0  0  0  0  0  0  0  # atno 17321 bound_to 7965
  140.0513  144.5930  150.7334 LP  0  0  0  0  0  0  0  0  0  0  0  0  # atno 17342 bound_to 10162
  140.7287  143.2665  151.4027 LP  0  0  0  0  0  0  0  0  0  0  0  0  # atno 17343 bound_to 10162
  157.4360  131.0855  151.0991 LP  0  0  0  0  0  0  0  0  0  0  0  0  # atno 17370 bound_to 10713
  157.1549  130.6200  149.5593 LP  0  0  0  0  0  0  0  0  0  0  0  0  # atno 17371 bound_to 10713
  140.2449  134.8585  157.3610 LP  0  0  0  0  0  0  0  0  0  0  0  0  # atno 17394 bound_to 11000
  140.1760  134.4549  155.7802 LP  0  0  0  0  0  0  0  0  0  0  0  0  # atno 17395 bound_to 11000

$$$$
