AV-unprocessed.smi:2570|AV-procd|sdf|10107|dock5
  -GOLD-   2272014123D 1   1.00000     0.00000
 Structure written by MMmdl.
 32 33  0  0  0  0  0  0  0  0  1 V2000
  147.5804  140.9005  153.7988 C   0  0  0  0  0  0  0  0  0  0  0  0
  148.5987  139.9127  153.6508 O   0  0  0  0  0  0  0  0  0  0  0  0
  149.6269  139.9331  154.5769 C   0  0  0  0  0  0  0  0  0  0  0  0
  150.7373  139.0217  154.3971 C   0  0  0  0  0  0  0  0  0  0  0  0
  151.7397  139.0235  155.3025 C   0  0  0  0  0  0  0  0  0  0  0  0
  151.7313  139.9184  156.4593 C   0  0  0  0  0  0  0  0  0  0  0  0
  152.6198  139.9293  157.3107 O   0  0  0  0  0  0  0  0  0  0  0  0
  150.6381  140.7350  156.5161 N   0  0  0  0  0  0  0  0  0  0  0  0
  150.4490  141.6707  157.6331 C   0  0  0  0  0  0  0  0  0  0  0  0
  151.6312  142.6554  157.7931 C   0  0  1  0  0  0  0  0  0  0  0  0
  151.3145  143.8590  157.1241 O   0  0  0  0  0  0  0  0  0  0  0  0
  152.0275  142.8857  159.2483 C   0  0  0  0  0  0  0  0  0  0  0  0
  152.7917  141.9097  159.9245 C   0  0  0  0  0  0  0  0  0  0  0  0
  153.1385  142.0872  161.2776 C   0  0  0  0  0  0  0  0  0  0  0  0
  152.7232  143.2431  161.9649 C   0  0  0  0  0  0  0  0  0  0  0  0
  153.0539  143.4128  163.2669 F   0  0  0  0  0  0  0  0  0  0  0  0
  151.9616  144.2210  161.2982 C   0  0  0  0  0  0  0  0  0  0  0  0
  151.6124  144.0452  159.9450 C   0  0  0  0  0  0  0  0  0  0  0  0
  150.8658  144.9908  159.3258 F   0  0  0  0  0  0  0  0  0  0  0  0
  149.6119  140.7445  155.5865 N   0  0  0  0  0  0  0  0  0  0  0  0
  146.8319  140.7603  153.0192 H   0  0  0  0  0  0  0  0  0  0  0  0
  147.9763  141.9120  153.6918 H   0  0  0  0  0  0  0  0  0  0  0  0
  147.0694  140.8157  154.7597 H   0  0  0  0  0  0  0  0  0  0  0  0
  150.7528  138.3541  153.5484 H   0  0  0  0  0  0  0  0  0  0  0  0
  152.5694  138.3445  155.1721 H   0  0  0  0  0  0  0  0  0  0  0  0
  149.5149  142.2216  157.5091 H   0  0  0  0  0  0  0  0  0  0  0  0
  150.3222  141.1016  158.5564 H   0  0  0  0  0  0  0  0  0  0  0  0
  152.4938  142.2405  157.2705 H   0  0  0  0  0  0  0  0  0  0  0  0
  150.4958  143.7416  156.6669 H   0  0  0  0  0  0  0  0  0  0  0  0
  153.1079  141.0139  159.4101 H   0  0  0  0  0  0  0  0  0  0  0  0
  153.7204  141.3346  161.7886 H   0  0  0  0  0  0  0  0  0  0  0  0
  151.6399  145.1062  161.8267 H   0  0  0  0  0  0  0  0  0  0  0  0
  1  2  1  0  0  0  0
  1 21  1  0  0  0  0
  1 22  1  0  0  0  0
  1 23  1  0  0  0  0
  2  3  1  0  0  0  0
  3 20  2  0  0  0  0
  3  4  1  0  0  0  0
  4  5  2  0  0  0  0
  4 24  1  0  0  0  0
  5  6  1  0  0  0  0
  5 25  1  0  0  0  0
  6  7  2  0  0  0  0
  6  8  1  0  0  0  0
  8  9  1  0  0  0  0
  8 20  1  0  0  0  0
  9 10  1  0  0  0  0
  9 26  1  0  0  0  0
  9 27  1  0  0  0  0
 10 11  1  0  0  0  0
 10 12  1  0  0  0  0
 10 28  1  0  0  0  0
 11 29  1  0  0  0  0
 12 18  1  0  0  0  0
 12 13  2  0  0  0  0
 13 14  1  0  0  0  0
 13 30  1  0  0  0  0
 14 15  2  0  0  0  0
 14 31  1  0  0  0  0
 15 16  1  0  0  0  0
 15 17  1  0  0  0  0
 17 18  2  0  0  0  0
 17 32  1  0  0  0  0
 18 19  1  0  0  0  0
M  END
> <s_m_source_file>
AV-unprocessed.smi

> <i_m_source_file_index>
2570

> <i_lp_mmshare_version>
43012

> <i_f3d_flags>
0

> <s_epik_input>
W0NIM11PYzFbY0hdW2NIXWMoPU8pbihuMSlbQ0gyXVtDQEhdKFtPSF0pYzJbY0hdW2NIXWMoRilbY0hdYzJG

> <s_epik_cmdline>
J2VwaWtfcHl0aG9uJywgJy1waCcsICc3LjAnLCAnLXRuJywgJzgnLCAnLW1hJywgJzIwMCcsICctbWV0YWxfYmluZGluZycsICctaW1hZScsICc8aW5maWxlLm1hZT4nLCAnLW9tYWUnLCAnPG91dGZpbGUubWFlPic=

> <r_lp_tautomer_probability>
1

> <r_epik_Ionization_Penalty>
6.40224e-06

> <r_epik_Ionization_Penalty_Charging>
4.38647e-06

> <r_epik_Ionization_Penalty_Neutral>
2.01577e-06

> <r_epik_State_Penalty>
-0

> <r_epik_Charging_Adjusted_Penalty>
4.38647e-06

> <i_epik_Tot_Q>
0

> <i_epik_Tot_abs_Q>
0

> <r_epik_Metal_State_Penalty>
-0

> <b_epik_Metal_Only>
0

> <s_lp_Force_Field>
OPLS_2005

> <r_lp_Energy>
26.7666

> <b_lp_Chiralities_Consistent>
1

> <s_lp_Variant>
AV-unprocessed.smi:2570-2

> <Gold.Version>
5.8.1

> <Gold.Id.Protein>
6NUR|6NUR_protein|mol2

> <Gold.PLP.Fitness>
56.6143

> <Gold.PLP.PLP>
-53.3865

> <Gold.PLP.part.hbond>
-2.0000

> <Gold.PLP.part.metal>
0.0000

> <Gold.PLP.part.buried>
-4.5440

> <Gold.PLP.part.nonpolar>
-46.3940

> <Gold.PLP.part.repulsive>
0.6365

> <Gold.PLP.ligand.clash>
0.0000

> <Gold.PLP.ligand.torsion>
1.1431

> <Gold.PLP.Chemscore.Hbond>
1.8288

> <Gold.PLP.Chemscore.CHOScore>
0.0000

> <Gold.PLP.Chemscore.Metal>
0.0000

> <Gold.Chemscore.Hbonds>
donor molecule, donor type, donor heavy atom, donor atom, acceptor molecule, acceptor atom, score
      L1  H    11    29       P1  8028  0.69
      P1  H  7997  8010       L1     7  1.00

> <Gold.PLP.Chemscore.Internal.Correction>
0.0278

> <Gold.Rescore>
     Score         DG    S(hbond)    S(metal)    S(lipo)     H(rot)  DE(clash)    DE(int)     intcor
     13.49     -17.66       1.81        0.00     105.99       2.45       0.26       3.91       ----

> <Gold.Chemscore.Fitness>
13.4910

> <Gold.Chemscore.DG>
-17.6606

> <Gold.Chemscore.ZeroCoef>
-5.4800

> <Gold.Chemscore.Hbond>
1.8143

> <Gold.Chemscore.Metal>
0.0000

> <Gold.Chemscore.Lipo>
105.9934

> <Gold.Chemscore.Internal_Hbond>
0.0000

> <Gold.Chemscore.DEClash>
0.2619

> <Gold.Chemscore.DEInternal>
3.9078

> <Gold.Chemscore.Rot>
2.4533

> <Gold.Chemscore.Internal.Correction>
   9.000000E+99

> <Gold.Chemscore.Hbonds>
donor molecule, donor type, donor heavy atom, donor atom, acceptor molecule, acceptor atom, score
      L1  H    11    29       P1  8028  0.66
      P1  H  7997  8010       L1     7  0.84

> <Gold.Chemscore.Hbond.Weighted>
-6.0598

> <Gold.Chemscore.Metal.Weighted>
-0.0000

> <Gold.Chemscore.Lipo.Weighted>
-12.4012

> <Gold.Chemscore.Internal_Hbond.Weighted>
0.0000

> <Gold.Chemscore.DEClash.Weighted>
0.2619

> <Gold.Chemscore.DEInternal.Weighted>
3.9078

> <Gold.Chemscore.Rot.Weighted>
6.2804

> <Gold.Chemscore.Internal.Correction.Weighted>
   9.000000E+99

> <Gold.Protein.RotatedTorsions>
[ 6907 6896 6895 6894 ] final  117.36 input  -60.11 | X-H torsion
[ 7974 7965 7964 7962 ] final   41.61 input  175.53 | X-H torsion
[ 8008 7997 7996 7995 ] final   64.51 input   59.86 | X-H torsion
[ 10167 10162 10161 10158 ] final -129.22 input  -65.29 | X-H torsion
[ 10718 10713 10712 10709 ] final   30.16 input   66.30 | X-H torsion
[ 10763 10752 10751 10750 ] final  -51.05 input  -60.55 | X-H torsion
[ 11005 11000 10999 10996 ] final -101.46 input  -57.11 | X-H torsion

> <Gold.Protein.ActiveResidues>
 VAL166  LYS551  ARG553  GLY616  TRP617  ASP618  TYR619  PRO620  LYS621  CYS622 
 ASP623  PHE694  ASN695  SER759  ASP760  ASP761  ALA762  ILE779  LEU786  VAL792 
 PHE793  MET794  SER795  GLU796  ALA797  LYS798  CYS799  TRP800  GLU811  SER814 

> <Gold.Protein.RotatedAtoms>
  152.4617  133.7836  159.6863 H   0  0  0  0  0  0  0  0  0  0  0  0  # atno 6907 bound_to 6896
  150.8563  133.7700  159.3014 H   0  0  0  0  0  0  0  0  0  0  0  0  # atno 6908 bound_to 6896
  151.5280  135.1071  159.9947 H   0  0  0  0  0  0  0  0  0  0  0  0  # atno 6909 bound_to 6896
  146.0809  139.5396  142.9537 H   0  0  0  0  0  0  0  0  0  0  0  0  # atno 7974 bound_to 7965
  155.6472  140.3497  155.4735 H   0  0  0  0  0  0  0  0  0  0  0  0  # atno 8008 bound_to 7997
  155.9878  140.1187  157.0690 H   0  0  0  0  0  0  0  0  0  0  0  0  # atno 8009 bound_to 7997
  154.4210  140.1125  156.5510 H   0  0  0  0  0  0  0  0  0  0  0  0  # atno 8010 bound_to 7997
  139.9420  143.6152  152.2500 H   0  0  0  0  0  0  0  0  0  0  0  0  # atno 10167 bound_to 10162
  157.2559  130.7137  149.6429 H   0  0  0  0  0  0  0  0  0  0  0  0  # atno 10718 bound_to 10713
  154.1202  135.6536  153.4901 H   0  0  0  0  0  0  0  0  0  0  0  0  # atno 10763 bound_to 10752
  153.0228  135.5268  154.7104 H   0  0  0  0  0  0  0  0  0  0  0  0  # atno 10764 bound_to 10752
  154.6309  135.2976  155.0187 H   0  0  0  0  0  0  0  0  0  0  0  0  # atno 10765 bound_to 10752
  141.1230  133.8480  157.1235 H   0  0  0  0  0  0  0  0  0  0  0  0  # atno 11005 bound_to 11000
  145.6219  141.0321  143.1910 LP  0  0  0  0  0  0  0  0  0  0  0  0  # atno 17320 bound_to 7965
  144.7293  139.7777  143.7353 LP  0  0  0  0  0  0  0  0  0  0  0  0  # atno 17321 bound_to 7965
  139.6696  144.7661  151.1807 LP  0  0  0  0  0  0  0  0  0  0  0  0  # atno 17342 bound_to 10162
  140.7608  143.5884  150.8821 LP  0  0  0  0  0  0  0  0  0  0  0  0  # atno 17343 bound_to 10162
  155.9665  130.4413  150.5334 LP  0  0  0  0  0  0  0  0  0  0  0  0  # atno 17370 bound_to 10713
  157.3228  131.0685  151.1919 LP  0  0  0  0  0  0  0  0  0  0  0  0  # atno 17371 bound_to 10713
  140.0203  134.9949  157.0577 LP  0  0  0  0  0  0  0  0  0  0  0  0  # atno 17394 bound_to 11000
  140.4451  134.1640  155.7177 LP  0  0  0  0  0  0  0  0  0  0  0  0  # atno 17395 bound_to 11000

$$$$
