AV-unprocessed.smi:1172|AV-procd|sdf|4944|dock8
  -GOLD-   22720 3533D 1   1.00000     0.00000
 Structure written by MMmdl.
 36 37  0  0  0  0  0  0  0  0  1 V2000
  144.9610  141.7675  154.5103 N   0  0  0  0  0  0  0  0  0  0  0  0
  146.1692  141.4820  155.0035 C   0  0  0  0  0  0  0  0  0  0  0  0
  146.5152  141.8243  156.1322 O   0  0  0  0  0  0  0  0  0  0  0  0
  147.1237  140.6922  154.1055 C   0  0  0  0  0  0  0  0  0  0  0  0
  146.5400  139.4275  153.6944 N   0  0  0  0  0  0  0  0  0  0  0  0
  147.0175  138.5322  152.7572 C   0  0  0  0  0  0  0  0  0  0  0  0
  146.1186  137.5037  152.7358 C   0  0  0  0  0  0  0  0  0  0  0  0
  146.1189  136.3227  151.9512 N   0  0  0  0  0  0  0  0  0  0  0  0
  145.0560  135.6626  151.4529 C   0  0  0  0  0  0  0  0  0  0  0  0
  143.9013  136.0814  151.5452 O   0  0  0  0  0  0  0  0  0  0  0  0
  145.3716  134.5264  150.7802 N   0  0  0  0  0  0  0  0  0  0  0  0
  146.5099  133.6361  151.0718 C   0  0  0  0  0  0  0  0  0  0  0  0
  145.9890  132.3927  151.8165 C   0  0  0  0  0  0  0  0  0  0  0  0
  144.8977  131.6786  150.9969 C   0  0  0  0  0  0  0  0  0  0  0  0
  143.8041  132.6618  150.5327 C   0  0  2  0  0  0  0  0  0  0  0  0
  142.9321  132.0082  149.6354 O   0  0  0  0  0  0  0  0  0  0  0  0
  144.4293  133.8929  149.8478 C   0  0  0  0  0  0  0  0  0  0  0  0
  145.1190  137.8435  153.6838 C   0  0  0  0  0  0  0  0  0  0  0  0
  145.3804  139.0068  154.2597 N   0  0  0  0  0  0  0  0  0  0  0  0
  144.3033  142.2904  155.0704 H   0  0  0  0  0  0  0  0  0  0  0  0
  144.7092  141.4645  153.5807 H   0  0  0  0  0  0  0  0  0  0  0  0
  147.3752  141.2786  153.2202 H   0  0  0  0  0  0  0  0  0  0  0  0
  148.0574  140.4953  154.6338 H   0  0  0  0  0  0  0  0  0  0  0  0
  147.9303  138.7105  152.2085 H   0  0  0  0  0  0  0  0  0  0  0  0
  147.0250  135.9165  151.7696 H   0  0  0  0  0  0  0  0  0  0  0  0
  146.9791  133.3370  150.1334 H   0  0  0  0  0  0  0  0  0  0  0  0
  147.3037  134.1057  151.6523 H   0  0  0  0  0  0  0  0  0  0  0  0
  146.8099  131.7053  152.0221 H   0  0  0  0  0  0  0  0  0  0  0  0
  145.5842  132.6905  152.7848 H   0  0  0  0  0  0  0  0  0  0  0  0
  145.3629  131.2148  150.1258 H   0  0  0  0  0  0  0  0  0  0  0  0
  144.4585  130.8686  151.5801 H   0  0  0  0  0  0  0  0  0  0  0  0
  143.2191  132.9861  151.3945 H   0  0  0  0  0  0  0  0  0  0  0  0
  142.2159  132.5907  149.4336 H   0  0  0  0  0  0  0  0  0  0  0  0
  143.6489  134.5779  149.5122 H   0  0  0  0  0  0  0  0  0  0  0  0
  144.9651  133.5944  148.9454 H   0  0  0  0  0  0  0  0  0  0  0  0
  144.2316  137.2974  153.9675 H   0  0  0  0  0  0  0  0  0  0  0  0
  1  2  1  0  0  0  0
  1 20  1  0  0  0  0
  1 21  1  0  0  0  0
  2  3  2  0  0  0  0
  2  4  1  0  0  0  0
  4  5  1  0  0  0  0
  4 22  1  0  0  0  0
  4 23  1  0  0  0  0
  5 19  1  0  0  0  0
  5  6  1  0  0  0  0
  6  7  2  0  0  0  0
  6 24  1  0  0  0  0
  7  8  1  0  0  0  0
  7 18  1  0  0  0  0
  8  9  1  0  0  0  0
  8 25  1  0  0  0  0
  9 10  2  0  0  0  0
  9 11  1  0  0  0  0
 11 17  1  0  0  0  0
 11 12  1  0  0  0  0
 12 13  1  0  0  0  0
 12 26  1  0  0  0  0
 12 27  1  0  0  0  0
 13 14  1  0  0  0  0
 13 28  1  0  0  0  0
 13 29  1  0  0  0  0
 14 15  1  0  0  0  0
 14 30  1  0  0  0  0
 14 31  1  0  0  0  0
 15 16  1  0  0  0  0
 15 17  1  0  0  0  0
 15 32  1  0  0  0  0
 16 33  1  0  0  0  0
 17 34  1  0  0  0  0
 17 35  1  0  0  0  0
 18 19  2  0  0  0  0
 18 36  1  0  0  0  0
M  END
> <s_m_source_file>
AV-unprocessed.smi

> <i_m_source_file_index>
1172

> <i_lp_mmshare_version>
43012

> <i_f3d_flags>
0

> <s_epik_input>
W05IMl1DKD1PKVtDSDJdbjFbY0hdYyhbY0hdbjEpW05IXUMoPU8pTjJbQ0gyXVtDSDJdW0NIMl1bQ0BASF0oW09IXSlbQ0gyXTI=

> <s_epik_cmdline>
J2VwaWtfcHl0aG9uJywgJy1waCcsICc3LjAnLCAnLXRuJywgJzgnLCAnLW1hJywgJzIwMCcsICctbWV0YWxfYmluZGluZycsICctaW1hZScsICc8aW5maWxlLm1hZT4nLCAnLW9tYWUnLCAnPG91dGZpbGUubWFlPic=

> <r_lp_tautomer_probability>
1

> <r_epik_Ionization_Penalty>
4.44977e-05

> <r_epik_Ionization_Penalty_Charging>
0

> <r_epik_Ionization_Penalty_Neutral>
4.44977e-05

> <r_epik_State_Penalty>
-0

> <r_epik_Charging_Adjusted_Penalty>
0

> <i_epik_Tot_Q>
0

> <i_epik_Tot_abs_Q>
0

> <r_epik_Metal_State_Penalty>
-0

> <b_epik_Metal_Only>
0

> <s_lp_Force_Field>
OPLS_2005

> <r_lp_Energy>
32.958

> <b_lp_Chiralities_Consistent>
1

> <s_lp_Variant>
AV-unprocessed.smi:1172-2

> <Gold.Version>
5.8.1

> <Gold.Id.Protein>
6NUR|6NUR_protein|mol2

> <Gold.PLP.Fitness>
42.8325

> <Gold.PLP.PLP>
-29.1742

> <Gold.PLP.part.hbond>
-4.6341

> <Gold.PLP.part.metal>
0.0000

> <Gold.PLP.part.buried>
-2.5304

> <Gold.PLP.part.nonpolar>
-23.3450

> <Gold.PLP.part.repulsive>
1.4363

> <Gold.PLP.ligand.clash>
0.0000

> <Gold.PLP.ligand.torsion>
0.5734

> <Gold.PLP.Chemscore.Hbond>
3.4565

> <Gold.PLP.Chemscore.CHOScore>
1.4630

> <Gold.PLP.Chemscore.Metal>
0.0000

> <Gold.Chemscore.Hbonds>
donor molecule, donor type, donor heavy atom, donor atom, acceptor molecule, acceptor atom, score
      L1  H     1    21       P1 10175  0.75
      L1  H     8    25       P1  7948  0.91
      L1  H    16    33       P1 10186  0.62
      P1  H 10785 10796       L1    16  0.86
      L1  C     6    24       P1  7948  0.32
      L1  C     6    24       P1  7957  1.00

> <Gold.PLP.Chemscore.Internal.Correction>
0.0467

> <Gold.Rescore>
     Score         DG    S(hbond)    S(metal)    S(lipo)     H(rot)  DE(clash)    DE(int)     intcor
     15.41     -17.88       3.27        0.00      60.76       2.20       0.12       2.36       ----

> <Gold.Chemscore.Fitness>
15.4070

> <Gold.Chemscore.DG>
-17.8824

> <Gold.Chemscore.ZeroCoef>
-5.4800

> <Gold.Chemscore.Hbond>
3.2686

> <Gold.Chemscore.Metal>
0.0000

> <Gold.Chemscore.Lipo>
60.7573

> <Gold.Chemscore.Internal_Hbond>
0.0000

> <Gold.Chemscore.DEClash>
0.1171

> <Gold.Chemscore.DEInternal>
2.3583

> <Gold.Chemscore.Rot>
2.1966

> <Gold.Chemscore.Internal.Correction>
   9.000000E+99

> <Gold.Chemscore.Hbonds>
donor molecule, donor type, donor heavy atom, donor atom, acceptor molecule, acceptor atom, score
      L1  H     1    21       P1 10175  0.09
      L1  H     8    25       P1  7948  0.88
      L1  H    16    33       P1 10186  0.60
      P1  H 10785 10796       L1    16  0.83

> <Gold.Chemscore.Hbond.Weighted>
-10.9170

> <Gold.Chemscore.Metal.Weighted>
-0.0000

> <Gold.Chemscore.Lipo.Weighted>
-7.1086

> <Gold.Chemscore.Internal_Hbond.Weighted>
0.0000

> <Gold.Chemscore.DEClash.Weighted>
0.1171

> <Gold.Chemscore.DEInternal.Weighted>
2.3583

> <Gold.Chemscore.Rot.Weighted>
5.6232

> <Gold.Chemscore.Internal.Correction.Weighted>
   9.000000E+99

> <Gold.Protein.RotatedTorsions>
[ 6907 6896 6895 6894 ] final   38.59 input  -60.11 | X-H torsion
[ 7974 7965 7964 7962 ] final   -9.43 input  175.53 | X-H torsion
[ 8008 7997 7996 7995 ] final -118.64 input   59.86 | X-H torsion
[ 10167 10162 10161 10158 ] final   25.25 input  -65.29 | X-H torsion
[ 10718 10713 10712 10709 ] final   35.42 input   66.30 | X-H torsion
[ 10763 10752 10751 10750 ] final  137.35 input  -60.55 | X-H torsion
[ 11005 11000 10999 10996 ] final   47.27 input  -57.11 | X-H torsion

> <Gold.Protein.ActiveResidues>
 VAL166  LYS551  ARG553  GLY616  TRP617  ASP618  TYR619  PRO620  LYS621  CYS622 
 ASP623  PHE694  ASN695  SER759  ASP760  ASP761  ALA762  ILE779  LEU786  VAL792 
 PHE793  MET794  SER795  GLU796  ALA797  LYS798  CYS799  TRP800  GLU811  SER814 

> <Gold.Protein.RotatedAtoms>
  152.1585  134.8931  160.0543 H   0  0  0  0  0  0  0  0  0  0  0  0  # atno 6907 bound_to 6896
  151.9936  133.3795  159.4162 H   0  0  0  0  0  0  0  0  0  0  0  0  # atno 6908 bound_to 6896
  150.6884  134.3832  159.5087 H   0  0  0  0  0  0  0  0  0  0  0  0  # atno 6909 bound_to 6896
  146.2252  140.2615  142.8352 H   0  0  0  0  0  0  0  0  0  0  0  0  # atno 7974 bound_to 7965
  155.1029  140.0396  157.2702 H   0  0  0  0  0  0  0  0  0  0  0  0  # atno 8008 bound_to 7997
  154.6744  140.2619  155.6948 H   0  0  0  0  0  0  0  0  0  0  0  0  # atno 8009 bound_to 7997
  156.2671  140.2791  156.1265 H   0  0  0  0  0  0  0  0  0  0  0  0  # atno 8010 bound_to 7997
  140.5121  144.0142  150.6377 H   0  0  0  0  0  0  0  0  0  0  0  0  # atno 10167 bound_to 10162
  157.3224  130.7455  149.6794 H   0  0  0  0  0  0  0  0  0  0  0  0  # atno 10718 bound_to 10713
  153.8716  135.3055  155.3442 H   0  0  0  0  0  0  0  0  0  0  0  0  # atno 10763 bound_to 10752
  154.7803  135.4839  153.9833 H   0  0  0  0  0  0  0  0  0  0  0  0  # atno 10764 bound_to 10752
  153.1403  135.6822  153.9134 H   0  0  0  0  0  0  0  0  0  0  0  0  # atno 10765 bound_to 10752
  140.1294  134.4725  155.8533 H   0  0  0  0  0  0  0  0  0  0  0  0  # atno 11005 bound_to 11000
  144.9336  140.8002  143.5674 LP  0  0  0  0  0  0  0  0  0  0  0  0  # atno 17320 bound_to 7965
  145.2561  139.2011  143.4917 LP  0  0  0  0  0  0  0  0  0  0  0  0  # atno 17321 bound_to 7965
  140.3468  143.2987  152.0530 LP  0  0  0  0  0  0  0  0  0  0  0  0  # atno 17342 bound_to 10162
  139.4899  144.6403  151.6891 LP  0  0  0  0  0  0  0  0  0  0  0  0  # atno 17343 bound_to 10162
  155.9687  130.4219  150.4492 LP  0  0  0  0  0  0  0  0  0  0  0  0  # atno 17370 bound_to 10713
  157.2509  131.0546  151.2379 LP  0  0  0  0  0  0  0  0  0  0  0  0  # atno 17371 bound_to 10713
  141.2167  133.6790  156.7040 LP  0  0  0  0  0  0  0  0  0  0  0  0  # atno 17394 bound_to 11000
  140.2862  134.8277  157.3976 LP  0  0  0  0  0  0  0  0  0  0  0  0  # atno 17395 bound_to 11000

$$$$
