AV-unprocessed.smi:1868|AV-procd|sdf|7590|dock7
  -GOLD-   22720 9303D 1   1.00000     0.00000
 Structure written by MMmdl.
 48 50  0  0  0  0  0  0  0  0  3 V2000
  146.3642  142.2311  153.9485 C   0  0  0  0  0  0  0  0  0  0  0  0
  147.6570  141.6283  154.3854 C   0  0  0  0  0  0  0  0  0  0  0  0
  148.5699  142.2071  155.2154 N   0  3  0  0  0  0  0  0  0  0  0  0
  149.6524  141.3459  155.4013 C   0  0  0  0  0  0  0  0  0  0  0  0
  150.8139  141.4905  156.1539 C   0  0  0  0  0  0  0  0  0  0  0  0
  151.7229  140.4126  156.1278 C   0  0  0  0  0  0  0  0  0  0  0  0
  151.4614  139.2491  155.3750 C   0  0  0  0  0  0  0  0  0  0  0  0
  150.2801  139.1139  154.6156 C   0  0  0  0  0  0  0  0  0  0  0  0
  149.3873  140.1847  154.6466 C   0  0  0  0  0  0  0  0  0  0  0  0
  148.1482  140.4047  154.0344 N   0  0  0  0  0  0  0  0  0  0  0  0
  147.5806  139.3633  153.1636 C   0  0  0  0  0  0  0  0  0  0  0  0
  146.9145  138.2151  153.9492 C   0  0  2  0  0  0  0  0  0  0  0  0
  147.8655  137.1885  154.1597 O   0  0  0  0  0  0  0  0  0  0  0  0
  145.7062  137.6384  153.1821 C   0  0  0  0  0  0  0  0  0  0  0  0
  146.0132  136.3755  152.4605 N   0  3  2  0  0  0  0  0  0  0  0  0
  145.2743  136.2774  151.1749 C   0  0  0  0  0  0  0  0  0  0  0  0
  145.6993  135.0328  150.3749 C   0  0  0  0  0  0  0  0  0  0  0  0
  145.5433  133.7353  151.1881 C   0  0  2  0  0  0  0  0  0  0  0  0
  144.0749  133.3018  151.3443 C   0  0  0  0  0  0  0  0  0  0  0  0
  146.2646  133.8907  152.5390 C   0  0  0  0  0  0  0  0  0  0  0  0
  145.8225  135.1575  153.2934 C   0  0  0  0  0  0  0  0  0  0  0  0
  146.2379  143.2237  154.3817 H   0  0  0  0  0  0  0  0  0  0  0  0
  145.5303  141.6054  154.2672 H   0  0  0  0  0  0  0  0  0  0  0  0
  146.3379  142.3220  152.8628 H   0  0  0  0  0  0  0  0  0  0  0  0
  151.0162  142.3802  156.7321 H   0  0  0  0  0  0  0  0  0  0  0  0
  152.6387  140.4792  156.6975 H   0  0  0  0  0  0  0  0  0  0  0  0
  152.1818  138.4439  155.3812 H   0  0  0  0  0  0  0  0  0  0  0  0
  150.0891  138.2184  154.0435 H   0  0  0  0  0  0  0  0  0  0  0  0
  146.8695  139.8353  152.4844 H   0  0  0  0  0  0  0  0  0  0  0  0
  148.3874  138.9773  152.5392 H   0  0  0  0  0  0  0  0  0  0  0  0
  146.6072  138.5964  154.9217 H   0  0  0  0  0  0  0  0  0  0  0  0
  148.2474  136.9466  153.3300 H   0  0  0  0  0  0  0  0  0  0  0  0
  144.8721  137.4625  153.8631 H   0  0  0  0  0  0  0  0  0  0  0  0
  145.3616  138.3922  152.4724 H   0  0  0  0  0  0  0  0  0  0  0  0
  144.2012  136.2603  151.3692 H   0  0  0  0  0  0  0  0  0  0  0  0
  145.4687  137.1653  150.5721 H   0  0  0  0  0  0  0  0  0  0  0  0
  145.1267  134.9697  149.4488 H   0  0  0  0  0  0  0  0  0  0  0  0
  146.7428  135.1445  150.0763 H   0  0  0  0  0  0  0  0  0  0  0  0
  146.0429  132.9375  150.6366 H   0  0  0  0  0  0  0  0  0  0  0  0
  143.4800  134.0427  151.8776 H   0  0  0  0  0  0  0  0  0  0  0  0
  144.0023  132.3633  151.8949 H   0  0  0  0  0  0  0  0  0  0  0  0
  143.6081  133.1447  150.3714 H   0  0  0  0  0  0  0  0  0  0  0  0
  146.0998  133.0086  153.1587 H   0  0  0  0  0  0  0  0  0  0  0  0
  147.3407  133.9400  152.3663 H   0  0  0  0  0  0  0  0  0  0  0  0
  146.4017  135.2303  154.2126 H   0  0  0  0  0  0  0  0  0  0  0  0
  144.7766  135.0771  153.5924 H   0  0  0  0  0  0  0  0  0  0  0  0
  146.9918  136.4163  152.2145 H   0  0  0  0  0  0  0  0  0  0  0  0
  148.4572  143.1253  155.6260 H   0  0  0  0  0  0  0  0  0  0  0  0
  1  2  1  0  0  0  0
  1 22  1  0  0  0  0
  1 23  1  0  0  0  0
  1 24  1  0  0  0  0
  2 10  1  0  0  0  0
  2  3  2  0  0  0  0
  3  4  1  0  0  0  0
  3 48  1  0  0  0  0
  4  9  2  0  0  0  0
  4  5  1  0  0  0  0
  5  6  2  0  0  0  0
  5 25  1  0  0  0  0
  6  7  1  0  0  0  0
  6 26  1  0  0  0  0
  7  8  2  0  0  0  0
  7 27  1  0  0  0  0
  8  9  1  0  0  0  0
  8 28  1  0  0  0  0
  9 10  1  0  0  0  0
 10 11  1  0  0  0  0
 11 12  1  0  0  0  0
 11 29  1  0  0  0  0
 11 30  1  0  0  0  0
 12 13  1  0  0  0  0
 12 14  1  0  0  0  0
 12 31  1  0  0  0  0
 13 32  1  0  0  0  0
 14 15  1  0  0  0  0
 14 33  1  0  0  0  0
 14 34  1  0  0  0  0
 15 21  1  0  0  0  0
 15 16  1  0  0  0  0
 15 47  1  0  0  0  0
 16 17  1  0  0  0  0
 16 35  1  0  0  0  0
 16 36  1  0  0  0  0
 17 18  1  0  0  0  0
 17 37  1  0  0  0  0
 17 38  1  0  0  0  0
 18 19  1  0  0  0  0
 18 20  1  0  0  0  0
 18 39  1  0  0  0  0
 19 40  1  0  0  0  0
 19 41  1  0  0  0  0
 19 42  1  0  0  0  0
 20 21  1  0  0  0  0
 20 43  1  0  0  0  0
 20 44  1  0  0  0  0
 21 45  1  0  0  0  0
 21 46  1  0  0  0  0
M  CHG  1   3   1
M  CHG  1  15   1
M  END
> <s_m_source_file>
AV-unprocessed.smi

> <i_m_source_file_index>
1868

> <i_lp_mmshare_version>
43012

> <i_f3d_flags>
0

> <s_epik_input>
W2NIXTFbY0hdW2NIXVtjSF1jKGMxMiluKGMobjIpW0NIM10pW0NIMl1bQ0BIXShbT0hdKVtDSDJdTjNbQ0gyXVtDSDJdW0NIXShbQ0gzXSlbQ0gyXVtDSDJdMw==

> <s_epik_cmdline>
J2VwaWtfcHl0aG9uJywgJy1waCcsICc3LjAnLCAnLXRuJywgJzgnLCAnLW1hJywgJzIwMCcsICctbWV0YWxfYmluZGluZycsICctaW1hZScsICc8aW5maWxlLm1hZT4nLCAnLW9tYWUnLCAnPG91dGZpbGUubWFlPic=

> <r_epik_Ionization_Penalty>
1.10901

> <r_epik_Ionization_Penalty_Charging>
1.10901

> <r_epik_Ionization_Penalty_Neutral>
6.90208e-07

> <r_epik_State_Penalty>
1.18788

> <r_epik_Charging_Adjusted_Penalty>
2.29689

> <i_epik_Tot_Q>
2

> <i_epik_Tot_abs_Q>
2

> <r_epik_Metal_State_Penalty>
5.19353

> <b_epik_Metal_Only>
0

> <s_lp_Force_Field>
OPLS_2005

> <r_lp_Energy>
32.3741

> <b_lp_Chiralities_Consistent>
1

> <s_lp_Variant>
AV-unprocessed.smi:1868-7

> <Gold.Version>
5.8.1

> <Gold.Id.Protein>
6NUR|6NUR_protein|mol2

> <Gold.PLP.Fitness>
52.5262

> <Gold.PLP.PLP>
-40.8247

> <Gold.PLP.part.hbond>
-3.0000

> <Gold.PLP.part.metal>
0.0000

> <Gold.PLP.part.buried>
-2.3885

> <Gold.PLP.part.nonpolar>
-35.2862

> <Gold.PLP.part.repulsive>
0.1928

> <Gold.PLP.ligand.clash>
0.0000

> <Gold.PLP.ligand.torsion>
1.6672

> <Gold.PLP.Chemscore.Hbond>
5.0000

> <Gold.PLP.Chemscore.CHOScore>
0.0000

> <Gold.PLP.Chemscore.Metal>
0.0000

> <Gold.Chemscore.Hbonds>
donor molecule, donor type, donor heavy atom, donor atom, acceptor molecule, acceptor atom, score
      L1  H     3    48       P1  8028  1.95
      L1  H    13    32       P1  7948  1.00
      L1  H    15    47       P1  7948  2.00

> <Gold.PLP.Chemscore.Internal.Correction>
0.0359

> <Gold.Rescore>
     Score         DG    S(hbond)    S(metal)    S(lipo)     H(rot)  DE(clash)    DE(int)     intcor
     18.21     -20.94       2.88        0.00      93.40       1.99       0.90       1.84       ----

> <Gold.Chemscore.Fitness>
18.2067

> <Gold.Chemscore.DG>
-20.9426

> <Gold.Chemscore.ZeroCoef>
-5.4800

> <Gold.Chemscore.Hbond>
2.8803

> <Gold.Chemscore.Metal>
0.0000

> <Gold.Chemscore.Lipo>
93.3956

> <Gold.Chemscore.Internal_Hbond>
0.0000

> <Gold.Chemscore.DEClash>
0.8996

> <Gold.Chemscore.DEInternal>
1.8363

> <Gold.Chemscore.Rot>
1.9863

> <Gold.Chemscore.Internal.Correction>
   9.000000E+99

> <Gold.Chemscore.Hbonds>
donor molecule, donor type, donor heavy atom, donor atom, acceptor molecule, acceptor atom, score
      L1  H     3    48       P1  8028  0.92
      L1  H    13    32       P1  7948  1.00
      L1  H    15    47       P1  7948  0.97

> <Gold.Chemscore.Hbond.Weighted>
-9.6204

> <Gold.Chemscore.Metal.Weighted>
-0.0000

> <Gold.Chemscore.Lipo.Weighted>
-10.9273

> <Gold.Chemscore.Internal_Hbond.Weighted>
0.0000

> <Gold.Chemscore.DEClash.Weighted>
0.8996

> <Gold.Chemscore.DEInternal.Weighted>
1.8363

> <Gold.Chemscore.Rot.Weighted>
5.0850

> <Gold.Chemscore.Internal.Correction.Weighted>
   9.000000E+99

> <Gold.Protein.RotatedTorsions>
[ 6907 6896 6895 6894 ] final -170.54 input  -60.11 | X-H torsion
[ 7974 7965 7964 7962 ] final  -32.46 input  175.53 | X-H torsion
[ 8008 7997 7996 7995 ] final   46.51 input   59.86 | X-H torsion
[ 10167 10162 10161 10158 ] final  109.89 input  -65.29 | X-H torsion
[ 10718 10713 10712 10709 ] final -160.75 input   66.30 | X-H torsion
[ 10763 10752 10751 10750 ] final  144.33 input  -60.55 | X-H torsion
[ 11005 11000 10999 10996 ] final   67.81 input  -57.11 | X-H torsion

> <Gold.Protein.ActiveResidues>
 VAL166  LYS551  ARG553  GLY616  TRP617  ASP618  TYR619  PRO620  LYS621  CYS622 
 ASP623  PHE694  ASN695  SER759  ASP760  ASP761  ALA762  ILE779  LEU786  VAL792 
 PHE793  MET794  SER795  GLU796  ALA797  LYS798  CYS799  TRP800  GLU811  SER814 

> <Gold.Protein.RotatedAtoms>
  151.5094  133.3488  159.2882 H   0  0  0  0  0  0  0  0  0  0  0  0  # atno 6907 bound_to 6896
  150.8722  134.8100  159.7174 H   0  0  0  0  0  0  0  0  0  0  0  0  # atno 6908 bound_to 6896
  152.4706  134.4979  159.9767 H   0  0  0  0  0  0  0  0  0  0  0  0  # atno 6909 bound_to 6896
  146.0988  140.5795  142.8830 H   0  0  0  0  0  0  0  0  0  0  0  0  # atno 7974 bound_to 7965
  155.3537  140.3415  155.4239 H   0  0  0  0  0  0  0  0  0  0  0  0  # atno 8008 bound_to 7997
  156.1750  140.1644  156.8414 H   0  0  0  0  0  0  0  0  0  0  0  0  # atno 8009 bound_to 7997
  154.5272  140.0753  156.8263 H   0  0  0  0  0  0  0  0  0  0  0  0  # atno 8010 bound_to 7997
  139.6731  144.7124  151.1651 H   0  0  0  0  0  0  0  0  0  0  0  0  # atno 10167 bound_to 10162
  156.5866  130.8752  151.2879 H   0  0  0  0  0  0  0  0  0  0  0  0  # atno 10718 bound_to 10713
  153.9871  135.2935  155.3415 H   0  0  0  0  0  0  0  0  0  0  0  0  # atno 10763 bound_to 10752
  154.7236  135.5098  153.8854 H   0  0  0  0  0  0  0  0  0  0  0  0  # atno 10764 bound_to 10752
  153.0827  135.6684  154.0127 H   0  0  0  0  0  0  0  0  0  0  0  0  # atno 10765 bound_to 10752
  139.9748  134.6840  156.0375 H   0  0  0  0  0  0  0  0  0  0  0  0  # atno 11005 bound_to 11000
  144.7416  140.4958  143.6865 LP  0  0  0  0  0  0  0  0  0  0  0  0  # atno 17320 bound_to 7965
  145.5895  139.1494  143.3190 LP  0  0  0  0  0  0  0  0  0  0  0  0  # atno 17321 bound_to 7965
  140.7625  143.5813  150.8891 LP  0  0  0  0  0  0  0  0  0  0  0  0  # atno 17342 bound_to 10162
  139.9480  143.6305  152.3036 LP  0  0  0  0  0  0  0  0  0  0  0  0  # atno 17343 bound_to 10162
  157.7314  130.9699  150.1877 LP  0  0  0  0  0  0  0  0  0  0  0  0  # atno 17370 bound_to 10713
  156.2586  130.3708  149.8155 LP  0  0  0  0  0  0  0  0  0  0  0  0  # atno 17371 bound_to 10713
  141.1426  133.6562  156.3774 LP  0  0  0  0  0  0  0  0  0  0  0  0  # atno 17394 bound_to 11000
  140.5217  134.6298  157.5320 LP  0  0  0  0  0  0  0  0  0  0  0  0  # atno 17395 bound_to 11000

$$$$
