AV-unprocessed.smi:3176|AV-procd|sdf|12125|dock10
  -GOLD-   2272017563D 1   1.00000     0.00000
 Structure written by MMmdl.
 32 33  0  0  0  0  0  0  0  0  1 V2000
  150.4508  140.4597  154.9468 O   0  0  0  0  0  0  0  0  0  0  0  0
  149.7994  141.4856  155.1443 C   0  0  0  0  0  0  0  0  0  0  0  0
  150.1995  142.4500  155.9878 N   0  0  0  0  0  0  0  0  0  0  0  0
  151.3782  142.3867  156.8460 C   0  0  0  0  0  0  0  0  0  0  0  0
  151.5431  143.6475  157.7188 C   0  0  0  0  0  0  0  0  0  0  0  0
  151.9992  143.3462  159.1372 C   0  0  0  0  0  0  0  0  0  0  0  0
  151.8342  144.3004  160.1643 C   0  0  0  0  0  0  0  0  0  0  0  0
  152.2990  143.9850  161.4552 C   0  0  0  0  0  0  0  0  0  0  0  0
  152.9035  142.7316  161.6700 C   0  0  0  0  0  0  0  0  0  0  0  0
  153.0171  141.8464  160.5793 C   0  0  0  0  0  0  0  0  0  0  0  0
  152.5774  142.1404  159.3365 N   0  0  0  0  0  0  0  0  0  0  0  0
  148.4645  141.7119  154.4152 C   0  0  1  0  0  0  0  0  0  0  0  0
  147.9780  140.4945  153.6068 C   0  0  0  0  0  0  0  0  0  0  0  0
  146.8779  139.9160  154.4714 C   0  0  0  0  0  0  0  0  0  0  0  0
  146.2960  141.1728  155.1003 C   0  0  0  0  0  0  0  0  0  0  0  0
  147.4362  141.9732  155.3762 O   0  0  0  0  0  0  0  0  0  0  0  0
  149.6087  143.2639  156.0829 H   0  0  0  0  0  0  0  0  0  0  0  0
  151.3503  141.4906  157.4676 H   0  0  0  0  0  0  0  0  0  0  0  0
  152.2462  142.2831  156.1947 H   0  0  0  0  0  0  0  0  0  0  0  0
  152.2632  144.3220  157.2540 H   0  0  0  0  0  0  0  0  0  0  0  0
  150.6011  144.1957  157.7550 H   0  0  0  0  0  0  0  0  0  0  0  0
  151.3731  145.2568  159.9656 H   0  0  0  0  0  0  0  0  0  0  0  0
  152.1957  144.6926  162.2645 H   0  0  0  0  0  0  0  0  0  0  0  0
  153.2714  142.4550  162.6468 H   0  0  0  0  0  0  0  0  0  0  0  0
  153.4751  140.8770  160.7080 H   0  0  0  0  0  0  0  0  0  0  0  0
  148.5726  142.5763  153.7593 H   0  0  0  0  0  0  0  0  0  0  0  0
  147.5628  140.8301  152.6557 H   0  0  0  0  0  0  0  0  0  0  0  0
  148.7499  139.7577  153.3809 H   0  0  0  0  0  0  0  0  0  0  0  0
  146.1441  139.3417  153.9058 H   0  0  0  0  0  0  0  0  0  0  0  0
  147.3015  139.2706  155.2413 H   0  0  0  0  0  0  0  0  0  0  0  0
  145.6511  141.6955  154.3925 H   0  0  0  0  0  0  0  0  0  0  0  0
  145.7225  140.9670  156.0040 H   0  0  0  0  0  0  0  0  0  0  0  0
  1  2  2  0  0  0  0
  2  3  1  0  0  0  0
  2 12  1  0  0  0  0
  3  4  1  0  0  0  0
  3 17  1  0  0  0  0
  4  5  1  0  0  0  0
  4 18  1  0  0  0  0
  4 19  1  0  0  0  0
  5  6  1  0  0  0  0
  5 20  1  0  0  0  0
  5 21  1  0  0  0  0
  6 11  1  0  0  0  0
  6  7  2  0  0  0  0
  7  8  1  0  0  0  0
  7 22  1  0  0  0  0
  8  9  2  0  0  0  0
  8 23  1  0  0  0  0
  9 10  1  0  0  0  0
  9 24  1  0  0  0  0
 10 11  2  0  0  0  0
 10 25  1  0  0  0  0
 12 16  1  0  0  0  0
 12 13  1  0  0  0  0
 12 26  1  0  0  0  0
 13 14  1  0  0  0  0
 13 27  1  0  0  0  0
 13 28  1  0  0  0  0
 14 15  1  0  0  0  0
 14 29  1  0  0  0  0
 14 30  1  0  0  0  0
 15 16  1  0  0  0  0
 15 31  1  0  0  0  0
 15 32  1  0  0  0  0
M  END
> <s_m_source_file>
AV-unprocessed.smi

> <i_m_source_file_index>
3176

> <i_lp_mmshare_version>
43012

> <i_f3d_flags>
0

> <s_epik_input>
TzFbQ0gyXVtDSDJdW0NIMl1bQ0BIXTFDKD1PKVtOSF1bQ0gyXVtDSDJdYzJbY0hdW2NIXVtjSF1bY0hdbjI=

> <s_epik_cmdline>
J2VwaWtfcHl0aG9uJywgJy1waCcsICc3LjAnLCAnLXRuJywgJzgnLCAnLW1hJywgJzIwMCcsICctbWV0YWxfYmluZGluZycsICctaW1hZScsICc8aW5maWxlLm1hZT4nLCAnLW9tYWUnLCAnPG91dGZpbGUubWFlPic=

> <r_epik_Ionization_Penalty>
0.0282744

> <r_epik_Ionization_Penalty_Charging>
0

> <r_epik_Ionization_Penalty_Neutral>
0.0282744

> <r_epik_State_Penalty>
0.0231919

> <r_epik_Charging_Adjusted_Penalty>
0.0231919

> <i_epik_Tot_Q>
0

> <i_epik_Tot_abs_Q>
0

> <r_epik_Metal_State_Penalty>
0.02213

> <b_epik_Metal_Only>
0

> <s_lp_Force_Field>
OPLS_2005

> <r_lp_Energy>
16.341

> <b_lp_Chiralities_Consistent>
1

> <s_lp_Variant>
AV-unprocessed.smi:3176-2

> <Gold.Version>
5.8.1

> <Gold.Id.Protein>
6NUR|6NUR_protein|mol2

> <Gold.PLP.Fitness>
42.4480

> <Gold.PLP.PLP>
-37.6910

> <Gold.PLP.part.hbond>
-2.0000

> <Gold.PLP.part.metal>
0.0000

> <Gold.PLP.part.buried>
-3.7085

> <Gold.PLP.part.nonpolar>
-31.4584

> <Gold.PLP.part.repulsive>
0.6204

> <Gold.PLP.ligand.clash>
0.0000

> <Gold.PLP.ligand.torsion>
0.6269

> <Gold.PLP.Chemscore.Hbond>
2.0000

> <Gold.PLP.Chemscore.CHOScore>
0.0000

> <Gold.PLP.Chemscore.Metal>
0.0000

> <Gold.Chemscore.Hbonds>
donor molecule, donor type, donor heavy atom, donor atom, acceptor molecule, acceptor atom, score
      L1  H     3    17       P1  8028  1.00
      P1  H  7989  7998       L1     1  1.00

> <Gold.PLP.Chemscore.Internal.Correction>
0.0107

> <Gold.Rescore>
     Score         DG    S(hbond)    S(metal)    S(lipo)     H(rot)  DE(clash)    DE(int)     intcor
     18.37     -19.21       1.69        0.00     102.27       1.52       0.39       0.45       ----

> <Gold.Chemscore.Fitness>
18.3738

> <Gold.Chemscore.DG>
-19.2134

> <Gold.Chemscore.ZeroCoef>
-5.4800

> <Gold.Chemscore.Hbond>
1.6912

> <Gold.Chemscore.Metal>
0.0000

> <Gold.Chemscore.Lipo>
102.2680

> <Gold.Chemscore.Internal_Hbond>
0.0000

> <Gold.Chemscore.DEClash>
0.3888

> <Gold.Chemscore.DEInternal>
0.4507

> <Gold.Chemscore.Rot>
1.5159

> <Gold.Chemscore.Internal.Correction>
   9.000000E+99

> <Gold.Chemscore.Hbonds>
donor molecule, donor type, donor heavy atom, donor atom, acceptor molecule, acceptor atom, score
      L1  H     3    17       P1  8028  0.99
      P1  H  7989  7998       L1     1  0.48

> <Gold.Chemscore.Hbond.Weighted>
-5.6487

> <Gold.Chemscore.Metal.Weighted>
-0.0000

> <Gold.Chemscore.Lipo.Weighted>
-11.9654

> <Gold.Chemscore.Internal_Hbond.Weighted>
0.0000

> <Gold.Chemscore.DEClash.Weighted>
0.3888

> <Gold.Chemscore.DEInternal.Weighted>
0.4507

> <Gold.Chemscore.Rot.Weighted>
3.8807

> <Gold.Chemscore.Internal.Correction.Weighted>
   9.000000E+99

> <Gold.Protein.RotatedTorsions>
[ 6907 6896 6895 6894 ] final  -36.27 input  -60.11 | X-H torsion
[ 7974 7965 7964 7962 ] final  -42.04 input  175.53 | X-H torsion
[ 8008 7997 7996 7995 ] final  -61.38 input   59.86 | X-H torsion
[ 10167 10162 10161 10158 ] final   22.41 input  -65.29 | X-H torsion
[ 10718 10713 10712 10709 ] final  130.63 input   66.30 | X-H torsion
[ 10763 10752 10751 10750 ] final  154.18 input  -60.55 | X-H torsion
[ 11005 11000 10999 10996 ] final -169.08 input  -57.11 | X-H torsion

> <Gold.Protein.ActiveResidues>
 VAL166  LYS551  ARG553  GLY616  TRP617  ASP618  TYR619  PRO620  LYS621  CYS622 
 ASP623  PHE694  ASN695  SER759  ASP760  ASP761  ALA762  ILE779  LEU786  VAL792 
 PHE793  MET794  SER795  GLU796  ALA797  LYS798  CYS799  TRP800  GLU811  SER814 

> <Gold.Protein.RotatedAtoms>
  151.0292  134.9527  159.8101 H   0  0  0  0  0  0  0  0  0  0  0  0  # atno 6907 bound_to 6896
  152.5342  134.2802  159.9014 H   0  0  0  0  0  0  0  0  0  0  0  0  # atno 6908 bound_to 6896
  151.2811  133.4167  159.2661 H   0  0  0  0  0  0  0  0  0  0  0  0  # atno 6909 bound_to 6896
  146.0154  140.6914  142.9204 H   0  0  0  0  0  0  0  0  0  0  0  0  # atno 7974 bound_to 7965
  154.4445  140.1019  156.6421 H   0  0  0  0  0  0  0  0  0  0  0  0  # atno 8008 bound_to 7997
  155.5490  140.3485  155.4445 H   0  0  0  0  0  0  0  0  0  0  0  0  # atno 8009 bound_to 7997
  156.0543  140.1311  157.0004 H   0  0  0  0  0  0  0  0  0  0  0  0  # atno 8010 bound_to 7997
  140.5351  143.9775  150.6487 H   0  0  0  0  0  0  0  0  0  0  0  0  # atno 10167 bound_to 10162
  157.5044  131.1095  150.9382 H   0  0  0  0  0  0  0  0  0  0  0  0  # atno 10718 bound_to 10713
  154.1482  135.2816  155.3142 H   0  0  0  0  0  0  0  0  0  0  0  0  # atno 10763 bound_to 10752
  154.6237  135.5459  153.7607 H   0  0  0  0  0  0  0  0  0  0  0  0  # atno 10764 bound_to 10752
  153.0229  135.6445  154.1627 H   0  0  0  0  0  0  0  0  0  0  0  0  # atno 10765 bound_to 10752
  140.5348  134.5580  157.5084 H   0  0  0  0  0  0  0  0  0  0  0  0  # atno 11005 bound_to 11000
  144.6969  140.3472  143.7188 LP  0  0  0  0  0  0  0  0  0  0  0  0  # atno 17320 bound_to 7965
  145.7277  139.1727  143.2448 LP  0  0  0  0  0  0  0  0  0  0  0  0  # atno 17321 bound_to 7965
  140.3160  143.3167  152.0831 LP  0  0  0  0  0  0  0  0  0  0  0  0  # atno 17342 bound_to 10162
  139.4968  144.6605  151.6475 LP  0  0  0  0  0  0  0  0  0  0  0  0  # atno 17343 bound_to 10162
  157.0042  130.5612  149.5314 LP  0  0  0  0  0  0  0  0  0  0  0  0  # atno 17370 bound_to 10713
  156.0249  130.5343  150.8379 LP  0  0  0  0  0  0  0  0  0  0  0  0  # atno 17371 bound_to 10713
  139.9535  134.7576  156.0394 LP  0  0  0  0  0  0  0  0  0  0  0  0  # atno 17394 bound_to 11000
  141.1261  133.6599  156.3340 LP  0  0  0  0  0  0  0  0  0  0  0  0  # atno 17395 bound_to 11000

$$$$
