AV-unprocessed.smi:21|AV-procd|sdf|166|dock10
  -GOLD-   2262015413D 1   1.00000     0.00000
 Structure written by MMmdl.
 61 64  0  0  0  0  0  0  0  0  1 V2000
  150.0958  140.8405  156.0820 C   0  0  0  0  0  0  0  0  0  0  0  0
  149.9805  141.6779  157.2216 O   0  0  0  0  0  0  0  0  0  0  0  0
  151.1733  142.3866  157.5262 C   0  0  2  0  0  0  0  0  0  0  0  0
  152.2126  141.5226  158.2650 C   0  0  0  0  0  0  0  0  0  0  0  0
  152.3885  142.2096  159.6277 C   0  0  1  0  0  0  0  0  0  0  0  0
  153.7905  142.0093  160.2462 C   0  0  0  0  0  0  0  0  0  0  0  0
  153.7493  141.6170  161.6553 N   0  0  0  0  0  0  0  0  0  0  0  0
  153.0555  142.5031  162.5888 C   0  0  0  0  0  0  0  0  0  0  0  0
  154.6727  140.7390  162.1466 C   0  0  0  0  0  0  0  0  0  0  0  0
  155.6751  141.2237  162.9297 N   0  0  0  0  0  0  0  0  0  0  0  0
  156.6202  140.4162  163.4164 C   0  0  0  0  0  0  0  0  0  0  0  0
  156.7566  139.1014  163.2511 N   0  0  0  0  0  0  0  0  0  0  0  0
  155.7528  138.5956  162.4809 C   0  0  0  0  0  0  0  0  0  0  0  0
  154.6796  139.3309  161.8960 C   0  0  0  0  0  0  0  0  0  0  0  0
  153.8581  138.4571  161.1899 N   0  0  0  0  0  0  0  0  0  0  0  0
  154.4158  137.2877  161.3364 C   0  0  0  0  0  0  0  0  0  0  0  0
  155.5560  137.2786  162.1037 N   0  0  0  0  0  0  0  0  0  0  0  0
  156.3744  136.1213  162.4230 C   0  0  0  0  0  0  0  0  0  0  0  0
  155.6483  134.7722  162.1993 C   0  0  1  0  0  0  0  0  0  0  0  0
  155.9979  134.1963  160.8067 C   0  0  0  0  0  0  0  0  0  0  0  0
  155.2619  134.8556  159.7974 O   0  0  0  0  0  0  0  0  0  0  0  0
  155.8811  133.7659  163.3615 C   0  0  1  0  0  0  0  0  0  0  0  0
  155.5118  134.2788  164.7552 C   0  0  0  0  0  0  0  0  0  0  0  0
  154.5836  133.2029  165.3171 C   0  0  0  0  0  0  0  0  0  0  0  0
  154.9452  132.0349  164.5997 O   0  0  0  0  0  0  0  0  0  0  0  0
  155.1301  132.4309  163.2510 C   0  0  0  0  0  0  0  0  0  0  0  0
  152.0225  143.5965  159.3949 N   0  0  0  0  0  0  0  0  0  0  0  0
  151.7369  144.3396  160.6153 C   0  0  0  0  0  0  0  0  0  0  0  0
  150.8650  143.5051  158.5267 C   0  0  0  0  0  0  0  0  0  0  0  0
  151.6111  142.8196  156.6249 H   0  0  0  0  0  0  0  0  0  0  0  0
  151.6437  141.7793  160.2994 H   0  0  0  0  0  0  0  0  0  0  0  0
  149.1487  140.3309  155.9078 H   0  0  0  0  0  0  0  0  0  0  0  0
  150.8644  140.0786  156.2156 H   0  0  0  0  0  0  0  0  0  0  0  0
  150.3323  141.4210  155.1895 H   0  0  0  0  0  0  0  0  0  0  0  0
  151.8958  140.4867  158.3883 H   0  0  0  0  0  0  0  0  0  0  0  0
  153.1484  141.5194  157.7046 H   0  0  0  0  0  0  0  0  0  0  0  0
  154.3192  141.2428  159.6788 H   0  0  0  0  0  0  0  0  0  0  0  0
  154.4044  142.9009  160.1390 H   0  0  0  0  0  0  0  0  0  0  0  0
  152.5776  141.9299  163.3840 H   0  0  0  0  0  0  0  0  0  0  0  0
  152.2762  143.0745  162.0843 H   0  0  0  0  0  0  0  0  0  0  0  0
  153.7512  143.2107  163.0407 H   0  0  0  0  0  0  0  0  0  0  0  0
  157.3764  140.8933  164.0219 H   0  0  0  0  0  0  0  0  0  0  0  0
  154.0059  136.3932  160.8903 H   0  0  0  0  0  0  0  0  0  0  0  0
  157.2726  136.1766  161.8072 H   0  0  0  0  0  0  0  0  0  0  0  0
  156.7094  136.2014  163.4577 H   0  0  0  0  0  0  0  0  0  0  0  0
  154.5771  134.9811  162.1972 H   0  0  0  0  0  0  0  0  0  0  0  0
  157.0608  134.3050  160.5905 H   0  0  0  0  0  0  0  0  0  0  0  0
  155.7677  133.1339  160.7407 H   0  0  0  0  0  0  0  0  0  0  0  0
  155.5488  135.7554  159.7551 H   0  0  0  0  0  0  0  0  0  0  0  0
  156.9448  133.5306  163.4116 H   0  0  0  0  0  0  0  0  0  0  0  0
  156.4108  134.3539  165.3683 H   0  0  0  0  0  0  0  0  0  0  0  0
  155.0406  135.2615  164.7591 H   0  0  0  0  0  0  0  0  0  0  0  0
  154.6977  133.0671  166.3927 H   0  0  0  0  0  0  0  0  0  0  0  0
  153.5400  133.4467  165.1108 H   0  0  0  0  0  0  0  0  0  0  0  0
  154.1517  132.5403  162.7837 H   0  0  0  0  0  0  0  0  0  0  0  0
  155.6880  131.6804  162.6918 H   0  0  0  0  0  0  0  0  0  0  0  0
  151.4066  145.3515  160.3789 H   0  0  0  0  0  0  0  0  0  0  0  0
  152.6257  144.4224  161.2402 H   0  0  0  0  0  0  0  0  0  0  0  0
  150.9543  143.8552  161.2008 H   0  0  0  0  0  0  0  0  0  0  0  0
  150.6528  144.4552  158.0358 H   0  0  0  0  0  0  0  0  0  0  0  0
  149.9852  143.2334  159.1131 H   0  0  0  0  0  0  0  0  0  0  0  0
  1  2  1  0  0  0  0
  1 32  1  0  0  0  0
  1 33  1  0  0  0  0
  1 34  1  0  0  0  0
  2  3  1  0  0  0  0
  3 30  1  0  0  0  0
  3 29  1  0  0  0  0
  3  4  1  0  0  0  0
  4  5  1  0  0  0  0
  4 35  1  0  0  0  0
  4 36  1  0  0  0  0
  5 31  1  0  0  0  0
  5  6  1  0  0  0  0
  5 27  1  0  0  0  0
  6  7  1  0  0  0  0
  6 37  1  0  0  0  0
  6 38  1  0  0  0  0
  7  8  1  0  0  0  0
  7  9  1  0  0  0  0
  8 39  1  0  0  0  0
  8 40  1  0  0  0  0
  8 41  1  0  0  0  0
  9 14  1  0  0  0  0
  9 10  2  0  0  0  0
 10 11  1  0  0  0  0
 11 12  2  0  0  0  0
 11 42  1  0  0  0  0
 12 13  1  0  0  0  0
 13 17  1  0  0  0  0
 13 14  2  0  0  0  0
 14 15  1  0  0  0  0
 15 16  2  0  0  0  0
 16 17  1  0  0  0  0
 16 43  1  0  0  0  0
 17 18  1  0  0  0  0
 18 19  1  0  0  0  0
 18 44  1  0  0  0  0
 18 45  1  0  0  0  0
 19 20  1  0  0  0  0
 19 22  1  0  0  0  0
 19 46  1  0  0  0  0
 20 21  1  0  0  0  0
 20 47  1  0  0  0  0
 20 48  1  0  0  0  0
 21 49  1  0  0  0  0
 22 26  1  0  0  0  0
 22 23  1  0  0  0  0
 22 50  1  0  0  0  0
 23 24  1  0  0  0  0
 23 51  1  0  0  0  0
 23 52  1  0  0  0  0
 24 25  1  0  0  0  0
 24 53  1  0  0  0  0
 24 54  1  0  0  0  0
 25 26  1  0  0  0  0
 26 55  1  0  0  0  0
 26 56  1  0  0  0  0
 27 28  1  0  0  0  0
 27 29  1  0  0  0  0
 28 57  1  0  0  0  0
 28 58  1  0  0  0  0
 28 59  1  0  0  0  0
 29 60  1  0  0  0  0
 29 61  1  0  0  0  0
M  END
> <s_m_source_file>
AV-unprocessed.smi

> <i_m_source_file_index>
21

> <i_lp_mmshare_version>
43012

> <i_f3d_flags>
0

> <s_epik_input>
W0NIM11PW0NASF0xW0NIMl1bQ0BIXShOKFtDSDNdKVtDSDJdMSlbQ0gyXU4oW0NIM10pYyhuW2NIXW4yKWMoYzIzKW5bY0hdbjNbQ0gyXVtDQEhdKFtDSDJdW09IXSlbQ0BASF00W0NIMl1bQ0gyXU9bQ0gyXTQ=

> <s_epik_cmdline>
J2VwaWtfcHl0aG9uJywgJy1waCcsICc3LjAnLCAnLXRuJywgJzgnLCAnLW1hJywgJzIwMCcsICctbWV0YWxfYmluZGluZycsICctaW1hZScsICc8aW5maWxlLm1hZT4nLCAnLW9tYWUnLCAnPG91dGZpbGUubWFlPic=

> <r_lp_tautomer_probability>
1

> <r_epik_Ionization_Penalty>
2.17574

> <r_epik_Ionization_Penalty_Charging>
0

> <r_epik_Ionization_Penalty_Neutral>
2.17574

> <r_epik_State_Penalty>
2.31336

> <r_epik_Charging_Adjusted_Penalty>
2.31336

> <i_epik_Tot_Q>
0

> <i_epik_Tot_abs_Q>
0

> <r_epik_Metal_State_Penalty>
2.31025

> <b_epik_Metal_Only>
0

> <s_lp_Force_Field>
OPLS_2005

> <r_lp_Energy>
69.2807

> <b_lp_Chiralities_Consistent>
1

> <s_lp_Variant>
AV-unprocessed.smi:21-46

> <Gold.Version>
5.8.1

> <Gold.Id.Protein>
6NUR|6NUR_protein|mol2

> <Gold.PLP.Fitness>
49.5704

> <Gold.PLP.PLP>
-52.4125

> <Gold.PLP.part.hbond>
-1.8631

> <Gold.PLP.part.metal>
0.0000

> <Gold.PLP.part.buried>
-5.2252

> <Gold.PLP.part.nonpolar>
-45.4756

> <Gold.PLP.part.repulsive>
0.1492

> <Gold.PLP.ligand.clash>
0.0022

> <Gold.PLP.ligand.torsion>
3.1749

> <Gold.PLP.Chemscore.Hbond>
1.0000

> <Gold.PLP.Chemscore.CHOScore>
0.0000

> <Gold.PLP.Chemscore.Metal>
0.0000

> <Gold.PLP.Chemscore.Internal.Correction>
0.5100

> <Gold.Rescore>
     Score         DG    S(hbond)    S(metal)    S(lipo)     H(rot)  DE(clash)    DE(int)     intcor
     10.98     -15.86       0.98        0.00     126.58       3.00       1.53       3.36       ----

> <Gold.Chemscore.Fitness>
10.9796

> <Gold.Chemscore.DG>
-15.8626

> <Gold.Chemscore.ZeroCoef>
-5.4800

> <Gold.Chemscore.Hbond>
0.9764

> <Gold.Chemscore.Metal>
0.0000

> <Gold.Chemscore.Lipo>
126.5777

> <Gold.Chemscore.Internal_Hbond>
0.0000

> <Gold.Chemscore.DEClash>
1.5272

> <Gold.Chemscore.DEInternal>
3.3558

> <Gold.Chemscore.Rot>
3.0031

> <Gold.Chemscore.Internal.Correction>
   9.000000E+99

> <Gold.Chemscore.Hbond.Weighted>
-3.2610

> <Gold.Chemscore.Metal.Weighted>
-0.0000

> <Gold.Chemscore.Lipo.Weighted>
-14.8096

> <Gold.Chemscore.Internal_Hbond.Weighted>
0.0000

> <Gold.Chemscore.DEClash.Weighted>
1.5272

> <Gold.Chemscore.DEInternal.Weighted>
3.3558

> <Gold.Chemscore.Rot.Weighted>
7.6880

> <Gold.Chemscore.Internal.Correction.Weighted>
   9.000000E+99

> <Gold.Protein.RotatedTorsions>
[ 6907 6896 6895 6894 ] final -140.19 input  -60.11 | X-H torsion
[ 7974 7965 7964 7962 ] final   13.74 input  175.53 | X-H torsion
[ 8008 7997 7996 7995 ] final -123.08 input   59.86 | X-H torsion
[ 10167 10162 10161 10158 ] final  -80.45 input  -65.29 | X-H torsion
[ 10718 10713 10712 10709 ] final  141.06 input   66.30 | X-H torsion
[ 10763 10752 10751 10750 ] final   62.02 input  -60.55 | X-H torsion
[ 11005 11000 10999 10996 ] final -141.21 input  -57.11 | X-H torsion

> <Gold.Protein.ActiveResidues>
 VAL166  LYS551  ARG553  GLY616  TRP617  ASP618  TYR619  PRO620  LYS621  CYS622 
 ASP623  PHE694  ASN695  SER759  ASP760  ASP761  ALA762  ILE779  LEU786  VAL792 
 PHE793  MET794  SER795  GLU796  ALA797  LYS798  CYS799  TRP800  GLU811  SER814 

> <Gold.Protein.RotatedAtoms>
  151.0574  133.5572  159.2636 H   0  0  0  0  0  0  0  0  0  0  0  0  # atno 6907 bound_to 6896
  151.2560  135.0637  159.9090 H   0  0  0  0  0  0  0  0  0  0  0  0  # atno 6908 bound_to 6896
  152.5392  134.0327  159.8086 H   0  0  0  0  0  0  0  0  0  0  0  0  # atno 6909 bound_to 6896
  146.2322  139.9145  142.8519 H   0  0  0  0  0  0  0  0  0  0  0  0  # atno 7974 bound_to 7965
  155.1747  140.0409  157.2870 H   0  0  0  0  0  0  0  0  0  0  0  0  # atno 8008 bound_to 7997
  154.6245  140.2509  155.7481 H   0  0  0  0  0  0  0  0  0  0  0  0  # atno 8009 bound_to 7997
  156.2452  140.2888  156.0568 H   0  0  0  0  0  0  0  0  0  0  0  0  # atno 8010 bound_to 7997
  140.4502  143.2485  151.8500 H   0  0  0  0  0  0  0  0  0  0  0  0  # atno 10167 bound_to 10162
  157.3963  131.1011  151.0597 H   0  0  0  0  0  0  0  0  0  0  0  0  # atno 10718 bound_to 10713
  152.9969  135.5480  154.6127 H   0  0  0  0  0  0  0  0  0  0  0  0  # atno 10763 bound_to 10752
  154.5444  135.2822  155.1068 H   0  0  0  0  0  0  0  0  0  0  0  0  # atno 10764 bound_to 10752
  154.2333  135.6429  153.5235 H   0  0  0  0  0  0  0  0  0  0  0  0  # atno 10765 bound_to 10752
  140.8346  134.2475  157.4840 H   0  0  0  0  0  0  0  0  0  0  0  0  # atno 11005 bound_to 11000
  145.2197  140.9930  143.4052 LP  0  0  0  0  0  0  0  0  0  0  0  0  # atno 17320 bound_to 7965
  144.9620  139.3969  143.6351 LP  0  0  0  0  0  0  0  0  0  0  0  0  # atno 17321 bound_to 7965
  139.4796  144.5129  151.8908 LP  0  0  0  0  0  0  0  0  0  0  0  0  # atno 17342 bound_to 10162
  140.4216  144.2236  150.5887 LP  0  0  0  0  0  0  0  0  0  0  0  0  # atno 17343 bound_to 10162
  157.1612  130.6226  149.5611 LP  0  0  0  0  0  0  0  0  0  0  0  0  # atno 17370 bound_to 10713
  155.9811  130.4816  150.6810 LP  0  0  0  0  0  0  0  0  0  0  0  0  # atno 17371 bound_to 10713
  139.8704  134.9604  156.4363 LP  0  0  0  0  0  0  0  0  0  0  0  0  # atno 17394 bound_to 11000
  140.8961  133.7813  155.9626 LP  0  0  0  0  0  0  0  0  0  0  0  0  # atno 17395 bound_to 11000

$$$$
