AV-unprocessed.smi:794|AV-procd|sdf|3757|dock1
  -GOLD-   22720 1193D 1   1.00000     0.00000
 Structure written by MMmdl.
 41 43  0  0  0  0  0  0  0  0  1 V2000
  147.8334  137.3526  163.5671 C   0  0  0  0  0  0  0  0  0  0  0  0
  147.8567  136.7039  162.2170 C   0  0  0  0  0  0  0  0  0  0  0  0
  148.4445  137.3730  161.1390 N   0  0  0  0  0  0  0  0  0  0  0  0
  148.3856  136.6615  160.0089 C   0  0  0  0  0  0  0  0  0  0  0  0
  148.9078  137.0927  158.7617 N   0  0  0  0  0  0  0  0  0  0  0  0
  148.2406  137.6013  157.7112 C   0  0  0  0  0  0  0  0  0  0  0  0
  147.0213  137.7617  157.6509 O   0  0  0  0  0  0  0  0  0  0  0  0
  149.0792  137.9139  156.7131 N   0  0  0  0  0  0  0  0  0  0  0  0
  148.6933  138.5117  155.4337 C   0  0  1  0  0  0  0  0  0  0  0  0
  148.1682  139.9598  155.5979 C   0  0  1  0  0  0  0  0  0  0  0  0
  149.1422  140.8217  156.4300 C   0  0  0  0  0  0  0  0  0  0  0  0
  150.3405  140.9859  155.4783 C   0  0  0  0  0  0  0  0  0  0  0  0
  149.8840  140.2291  154.2132 C   0  0  2  0  0  0  0  0  0  0  0  0
  148.3917  140.5392  154.2047 C   0  0  0  0  0  0  0  0  0  0  0  0
  149.8659  138.6953  154.4264 C   0  0  1  0  0  0  0  0  0  0  0  0
  151.2221  138.0453  154.7824 C   0  0  0  0  0  0  0  0  0  0  0  0
  151.2852  136.7304  154.2724 O   0  0  0  0  0  0  0  0  0  0  0  0
  147.5933  135.1070  160.1958 S   0  0  0  0  0  0  0  0  0  0  0  0
  147.3461  135.4699  161.8858 C   0  0  0  0  0  0  0  0  0  0  0  0
  146.6575  134.4977  162.7849 C   0  0  0  0  0  0  0  0  0  0  0  0
  148.2215  136.6806  164.3328 H   0  0  0  0  0  0  0  0  0  0  0  0
  146.8175  137.6267  163.8523 H   0  0  0  0  0  0  0  0  0  0  0  0
  148.4386  138.2598  163.5902 H   0  0  0  0  0  0  0  0  0  0  0  0
  149.9092  137.0153  158.6620 H   0  0  0  0  0  0  0  0  0  0  0  0
  150.0643  137.7424  156.8500 H   0  0  0  0  0  0  0  0  0  0  0  0
  147.9110  137.9093  154.9669 H   0  0  0  0  0  0  0  0  0  0  0  0
  147.1378  140.0097  155.9512 H   0  0  0  0  0  0  0  0  0  0  0  0
  148.6980  141.7942  156.6459 H   0  0  0  0  0  0  0  0  0  0  0  0
  149.4204  140.3775  157.3853 H   0  0  0  0  0  0  0  0  0  0  0  0
  150.5003  142.0415  155.2547 H   0  0  0  0  0  0  0  0  0  0  0  0
  151.2687  140.6024  155.8994 H   0  0  0  0  0  0  0  0  0  0  0  0
  150.4123  140.5353  153.3097 H   0  0  0  0  0  0  0  0  0  0  0  0
  147.8415  140.0121  153.4230 H   0  0  0  0  0  0  0  0  0  0  0  0
  148.1700  141.6058  154.1368 H   0  0  0  0  0  0  0  0  0  0  0  0
  149.5478  138.2443  153.4844 H   0  0  0  0  0  0  0  0  0  0  0  0
  152.0675  138.6186  154.4040 H   0  0  0  0  0  0  0  0  0  0  0  0
  151.3370  137.9906  155.8652 H   0  0  0  0  0  0  0  0  0  0  0  0
  151.0811  136.7554  153.3500 H   0  0  0  0  0  0  0  0  0  0  0  0
  145.8519  134.9832  163.3365 H   0  0  0  0  0  0  0  0  0  0  0  0
  147.3576  134.0792  163.5083 H   0  0  0  0  0  0  0  0  0  0  0  0
  146.2252  133.6724  162.2183 H   0  0  0  0  0  0  0  0  0  0  0  0
  1  2  1  0  0  0  0
  1 21  1  0  0  0  0
  1 22  1  0  0  0  0
  1 23  1  0  0  0  0
  2 19  2  0  0  0  0
  2  3  1  0  0  0  0
  3  4  2  0  0  0  0
  4  5  1  0  0  0  0
  4 18  1  0  0  0  0
  5  6  1  0  0  0  0
  5 24  1  0  0  0  0
  6  7  2  0  0  0  0
  6  8  1  0  0  0  0
  8  9  1  0  0  0  0
  8 25  1  0  0  0  0
  9 15  1  0  0  0  0
  9 10  1  0  0  0  0
  9 26  1  0  0  0  0
 10 14  1  0  0  0  0
 10 11  1  0  0  0  0
 10 27  1  0  0  0  0
 11 12  1  0  0  0  0
 11 28  1  0  0  0  0
 11 29  1  0  0  0  0
 12 13  1  0  0  0  0
 12 30  1  0  0  0  0
 12 31  1  0  0  0  0
 13 14  1  0  0  0  0
 13 15  1  0  0  0  0
 13 32  1  0  0  0  0
 14 33  1  0  0  0  0
 14 34  1  0  0  0  0
 15 16  1  0  0  0  0
 15 35  1  0  0  0  0
 16 17  1  0  0  0  0
 16 36  1  0  0  0  0
 16 37  1  0  0  0  0
 17 38  1  0  0  0  0
 18 19  1  0  0  0  0
 19 20  1  0  0  0  0
 20 39  1  0  0  0  0
 20 40  1  0  0  0  0
 20 41  1  0  0  0  0
M  END
> <s_m_source_file>
AV-unprocessed.smi

> <i_m_source_file_index>
794

> <i_lp_mmshare_version>
43012

> <i_f3d_flags>
0

> <s_epik_input>
W0NIM11jMW5jKHNjMVtDSDNdKVtOSF1DKD1PKVtOSF1bQ0BIXShbQ0BASF0yMylbQ0BIXShbQ0gyXVtPSF0pW0NAQEhdKFtDSDJdMylbQ0gyXVtDSDJdMg==

> <s_epik_cmdline>
J2VwaWtfcHl0aG9uJywgJy1waCcsICc3LjAnLCAnLXRuJywgJzgnLCAnLW1hJywgJzIwMCcsICctbWV0YWxfYmluZGluZycsICctaW1hZScsICc8aW5maWxlLm1hZT4nLCAnLW9tYWUnLCAnPG91dGZpbGUubWFlPic=

> <r_lp_tautomer_probability>
0.999

> <r_epik_Ionization_Penalty>
0.000713029

> <r_epik_Ionization_Penalty_Charging>
0

> <r_epik_Ionization_Penalty_Neutral>
0.000713029

> <r_epik_State_Penalty>
0.000177984

> <r_epik_Charging_Adjusted_Penalty>
0.000177984

> <i_epik_Tot_Q>
0

> <i_epik_Tot_abs_Q>
0

> <r_epik_Metal_State_Penalty>
-0

> <b_epik_Metal_Only>
0

> <s_lp_Force_Field>
OPLS_2005

> <r_lp_Energy>
49.1423

> <b_lp_Chiralities_Consistent>
1

> <s_lp_Variant>
AV-unprocessed.smi:794-2

> <Gold.Version>
5.8.1

> <Gold.Id.Protein>
6NUR|6NUR_protein|mol2

> <Gold.PLP.Fitness>
42.1147

> <Gold.PLP.PLP>
-34.7815

> <Gold.PLP.part.hbond>
-4.0000

> <Gold.PLP.part.metal>
0.0000

> <Gold.PLP.part.buried>
-0.9837

> <Gold.PLP.part.nonpolar>
-30.1037

> <Gold.PLP.part.repulsive>
0.1435

> <Gold.PLP.ligand.clash>
0.0000

> <Gold.PLP.ligand.torsion>
1.1354

> <Gold.PLP.Chemscore.Hbond>
3.1971

> <Gold.PLP.Chemscore.CHOScore>
0.0000

> <Gold.PLP.Chemscore.Metal>
0.0000

> <Gold.Chemscore.Hbonds>
donor molecule, donor type, donor heavy atom, donor atom, acceptor molecule, acceptor atom, score
      L1  H    17    38       P1  7949  1.00
      P1  H  6931  6943       L1     3  0.28
      P1  H  6934  6947       L1     3  0.41
      P1  H 10752 10764       L1    17  1.00

> <Gold.PLP.Chemscore.Internal.Correction>
0.0125

> <Gold.Rescore>
     Score         DG    S(hbond)    S(metal)    S(lipo)     H(rot)  DE(clash)    DE(int)     intcor
     14.37     -17.02       2.00        0.00      80.49       1.78       1.50       1.16       ----

> <Gold.Chemscore.Fitness>
14.3677

> <Gold.Chemscore.DG>
-17.0189

> <Gold.Chemscore.ZeroCoef>
-5.4800

> <Gold.Chemscore.Hbond>
1.9994

> <Gold.Chemscore.Metal>
0.0000

> <Gold.Chemscore.Lipo>
80.4884

> <Gold.Chemscore.Internal_Hbond>
0.0000

> <Gold.Chemscore.DEClash>
1.4957

> <Gold.Chemscore.DEInternal>
1.1555

> <Gold.Chemscore.Rot>
1.7798

> <Gold.Chemscore.Internal.Correction>
   9.000000E+99

> <Gold.Chemscore.Hbonds>
donor molecule, donor type, donor heavy atom, donor atom, acceptor molecule, acceptor atom, score
      L1  H    17    38       P1  7949  0.36
      P1  H  6931  6943       L1     3  0.03
      P1  H  6934  6947       L1     3  0.10
      P1  H 10752 10764       L1    17  0.57

> <Gold.Chemscore.Hbond.Weighted>
-6.6780

> <Gold.Chemscore.Metal.Weighted>
-0.0000

> <Gold.Chemscore.Lipo.Weighted>
-9.4171

> <Gold.Chemscore.Internal_Hbond.Weighted>
0.0000

> <Gold.Chemscore.DEClash.Weighted>
1.4957

> <Gold.Chemscore.DEInternal.Weighted>
1.1555

> <Gold.Chemscore.Rot.Weighted>
4.5562

> <Gold.Chemscore.Internal.Correction.Weighted>
   9.000000E+99

> <Gold.Protein.RotatedTorsions>
[ 6907 6896 6895 6894 ] final   15.98 input  -60.11 | X-H torsion
[ 7974 7965 7964 7962 ] final  -61.67 input  175.53 | X-H torsion
[ 8008 7997 7996 7995 ] final  -12.80 input   59.86 | X-H torsion
[ 10167 10162 10161 10158 ] final  -45.51 input  -65.29 | X-H torsion
[ 10718 10713 10712 10709 ] final  -76.18 input   66.30 | X-H torsion
[ 10763 10752 10751 10750 ] final  -65.59 input  -60.55 | X-H torsion
[ 11005 11000 10999 10996 ] final   54.66 input  -57.11 | X-H torsion

> <Gold.Protein.ActiveResidues>
 VAL166  LYS551  ARG553  GLY616  TRP617  ASP618  TYR619  PRO620  LYS621  CYS622 
 ASP623  PHE694  ASN695  SER759  ASP760  ASP761  ALA762  ILE779  LEU786  VAL792 
 PHE793  MET794  SER795  GLU796  ALA797  LYS798  CYS799  TRP800  GLU811  SER814 

> <Gold.Protein.RotatedAtoms>
  151.8267  135.0634  160.0431 H   0  0  0  0  0  0  0  0  0  0  0  0  # atno 6907 bound_to 6896
  152.2911  133.5557  159.5566 H   0  0  0  0  0  0  0  0  0  0  0  0  # atno 6908 bound_to 6896
  150.7230  134.0344  159.3786 H   0  0  0  0  0  0  0  0  0  0  0  0  # atno 6909 bound_to 6896
  145.8007  140.8657  143.0233 H   0  0  0  0  0  0  0  0  0  0  0  0  # atno 7974 bound_to 7965
  154.5347  140.2266  155.8744 H   0  0  0  0  0  0  0  0  0  0  0  0  # atno 8008 bound_to 7997
  156.1799  140.3102  155.9092 H   0  0  0  0  0  0  0  0  0  0  0  0  # atno 8009 bound_to 7997
  155.3380  140.0449  157.3035 H   0  0  0  0  0  0  0  0  0  0  0  0  # atno 8010 bound_to 7997
  140.6855  143.2876  151.3650 H   0  0  0  0  0  0  0  0  0  0  0  0  # atno 10167 bound_to 10162
  156.0183  130.4459  150.3155 H   0  0  0  0  0  0  0  0  0  0  0  0  # atno 10718 bound_to 10713
  154.3473  135.6144  153.5625 H   0  0  0  0  0  0  0  0  0  0  0  0  # atno 10763 bound_to 10752
  152.9800  135.5784  154.4784 H   0  0  0  0  0  0  0  0  0  0  0  0  # atno 10764 bound_to 10752
  154.4498  135.2852  155.1766 H   0  0  0  0  0  0  0  0  0  0  0  0  # atno 10765 bound_to 10752
  140.0669  134.5524  155.9089 H   0  0  0  0  0  0  0  0  0  0  0  0  # atno 11005 bound_to 11000
  144.6769  140.0254  143.7483 LP  0  0  0  0  0  0  0  0  0  0  0  0  # atno 17320 bound_to 7965
  145.9881  139.2993  143.1001 LP  0  0  0  0  0  0  0  0  0  0  0  0  # atno 17321 bound_to 7965
  139.6210  144.0908  152.2391 LP  0  0  0  0  0  0  0  0  0  0  0  0  # atno 17342 bound_to 10162
  140.0352  144.6050  150.7456 LP  0  0  0  0  0  0  0  0  0  0  0  0  # atno 17343 bound_to 10162
  157.1256  131.0258  151.2991 LP  0  0  0  0  0  0  0  0  0  0  0  0  # atno 17370 bound_to 10713
  157.4592  130.7643  149.7221 LP  0  0  0  0  0  0  0  0  0  0  0  0  # atno 17371 bound_to 10713
  141.1996  133.6608  156.5853 LP  0  0  0  0  0  0  0  0  0  0  0  0  # atno 17394 bound_to 11000
  140.3686  134.7626  157.4583 LP  0  0  0  0  0  0  0  0  0  0  0  0  # atno 17395 bound_to 11000

$$$$
