AV-unprocessed.smi:2312|AV-procd|sdf|9263|dock4
  -GOLD-   2272012483D 1   1.00000     0.00000
 Structure written by MMmdl.
 34 35  0  0  0  0  0  0  0  0  1 V2000
  145.6064  137.4938  162.0787 C   0  0  0  0  0  0  0  0  0  0  0  0
  146.9112  137.4284  161.5178 O   0  0  0  0  0  0  0  0  0  0  0  0
  147.4595  136.1192  161.3607 C   0  0  0  0  0  0  0  0  0  0  0  0
  148.8749  136.1592  160.7682 C   0  0  0  0  0  0  0  0  0  0  0  0
  148.8971  136.9465  159.5429 N   0  0  0  0  0  0  0  0  0  0  0  0
  150.0111  137.3169  158.8996 C   0  0  0  0  0  0  0  0  0  0  0  0
  151.1449  137.0396  159.2915 O   0  0  0  0  0  0  0  0  0  0  0  0
  149.7218  138.0121  157.7867 N   0  0  0  0  0  0  0  0  0  0  0  0
  150.6305  138.5776  156.8526 C   0  0  0  0  0  0  0  0  0  0  0  0
  150.5628  138.4682  155.5294 N   0  0  0  0  0  0  0  0  0  0  0  0
  151.6716  139.1874  155.1844 C   0  0  0  0  0  0  0  0  0  0  0  0
  152.3728  139.7016  156.1951 N   0  0  0  0  0  0  0  0  0  0  0  0
  151.6750  139.2927  157.2804 N   0  0  0  0  0  0  0  0  0  0  0  0
  152.1069  139.6442  158.6195 C   0  0  0  0  0  0  0  0  0  0  0  0
  147.2606  135.3582  162.6852 C   0  0  0  0  0  0  0  0  0  0  0  0
  146.7580  134.1604  161.8771 C   0  0  0  0  0  0  0  0  0  0  0  0
  146.4275  135.1464  160.7558 C   0  0  0  0  0  0  0  0  0  0  0  0
  145.3392  138.5379  162.2393 H   0  0  0  0  0  0  0  0  0  0  0  0
  145.5495  136.9862  163.0418 H   0  0  0  0  0  0  0  0  0  0  0  0
  144.8572  137.0672  161.4123 H   0  0  0  0  0  0  0  0  0  0  0  0
  149.5703  136.5996  161.4843 H   0  0  0  0  0  0  0  0  0  0  0  0
  149.2489  135.1552  160.5651 H   0  0  0  0  0  0  0  0  0  0  0  0
  148.0031  137.2115  159.1558 H   0  0  0  0  0  0  0  0  0  0  0  0
  148.7433  138.1488  157.5810 H   0  0  0  0  0  0  0  0  0  0  0  0
  151.9722  139.3353  154.1575 H   0  0  0  0  0  0  0  0  0  0  0  0
  152.5267  138.7660  159.1106 H   0  0  0  0  0  0  0  0  0  0  0  0
  151.2568  140.0054  159.1986 H   0  0  0  0  0  0  0  0  0  0  0  0
  152.8646  140.4278  158.5831 H   0  0  0  0  0  0  0  0  0  0  0  0
  148.1742  135.1691  163.2496 H   0  0  0  0  0  0  0  0  0  0  0  0
  146.4834  135.7901  163.3186 H   0  0  0  0  0  0  0  0  0  0  0  0
  147.5541  133.4637  161.6094 H   0  0  0  0  0  0  0  0  0  0  0  0
  145.8957  133.6486  162.3053 H   0  0  0  0  0  0  0  0  0  0  0  0
  145.4006  135.5114  160.8153 H   0  0  0  0  0  0  0  0  0  0  0  0
  146.6678  134.7885  159.7542 H   0  0  0  0  0  0  0  0  0  0  0  0
  1  2  1  0  0  0  0
  1 18  1  0  0  0  0
  1 19  1  0  0  0  0
  1 20  1  0  0  0  0
  2  3  1  0  0  0  0
  3 17  1  0  0  0  0
  3  4  1  0  0  0  0
  3 15  1  0  0  0  0
  4  5  1  0  0  0  0
  4 21  1  0  0  0  0
  4 22  1  0  0  0  0
  5  6  1  0  0  0  0
  5 23  1  0  0  0  0
  6  7  2  0  0  0  0
  6  8  1  0  0  0  0
  8  9  1  0  0  0  0
  8 24  1  0  0  0  0
  9 13  1  0  0  0  0
  9 10  2  0  0  0  0
 10 11  1  0  0  0  0
 11 12  2  0  0  0  0
 11 25  1  0  0  0  0
 12 13  1  0  0  0  0
 13 14  1  0  0  0  0
 14 26  1  0  0  0  0
 14 27  1  0  0  0  0
 14 28  1  0  0  0  0
 15 16  1  0  0  0  0
 15 29  1  0  0  0  0
 15 30  1  0  0  0  0
 16 17  1  0  0  0  0
 16 31  1  0  0  0  0
 16 32  1  0  0  0  0
 17 33  1  0  0  0  0
 17 34  1  0  0  0  0
M  END
> <s_m_source_file>
AV-unprocessed.smi

> <i_m_source_file_index>
2312

> <i_lp_mmshare_version>
43012

> <i_f3d_flags>
0

> <s_epik_input>
W0NIMl0xW0NIMl1bQ0gyXUMxKE9bQ0gzXSlbQ0gyXVtOSF1DKD1PKVtOSF1jMm5bY0hdbm4yW0NIM10=

> <s_epik_cmdline>
J2VwaWtfcHl0aG9uJywgJy1waCcsICc3LjAnLCAnLXRuJywgJzgnLCAnLW1hJywgJzIwMCcsICctbWV0YWxfYmluZGluZycsICctaW1hZScsICc8aW5maWxlLm1hZT4nLCAnLW9tYWUnLCAnPG91dGZpbGUubWFlPic=

> <r_lp_tautomer_probability>
1

> <r_epik_Ionization_Penalty>
2.1066e-05

> <r_epik_Ionization_Penalty_Charging>
0

> <r_epik_Ionization_Penalty_Neutral>
2.1066e-05

> <r_epik_State_Penalty>
-0

> <r_epik_Charging_Adjusted_Penalty>
0

> <i_epik_Tot_Q>
0

> <i_epik_Tot_abs_Q>
0

> <r_epik_Metal_State_Penalty>
-0

> <b_epik_Metal_Only>
0

> <s_lp_Force_Field>
OPLS_2005

> <r_lp_Energy>
16.1455

> <b_lp_Chiralities_Consistent>
1

> <s_lp_Variant>
AV-unprocessed.smi:2312-1

> <Gold.Version>
5.8.1

> <Gold.Id.Protein>
6NUR|6NUR_protein|mol2

> <Gold.PLP.Fitness>
35.0954

> <Gold.PLP.PLP>
-26.4938

> <Gold.PLP.part.hbond>
-4.0000

> <Gold.PLP.part.metal>
0.0000

> <Gold.PLP.part.buried>
-2.3332

> <Gold.PLP.part.nonpolar>
-19.7385

> <Gold.PLP.part.repulsive>
0.3337

> <Gold.PLP.ligand.clash>
0.0000

> <Gold.PLP.ligand.torsion>
0.6431

> <Gold.PLP.Chemscore.Hbond>
3.2077

> <Gold.PLP.Chemscore.CHOScore>
0.0000

> <Gold.PLP.Chemscore.Metal>
0.0000

> <Gold.Chemscore.Hbonds>
donor molecule, donor type, donor heavy atom, donor atom, acceptor molecule, acceptor atom, score
      P1  H  6896  6907       L1     7  1.00
      P1  H  6931  6943       L1     2  0.11
      P1  H  6934  6947       L1     2  1.00
      P1  H  7997  8010       L1    12  1.00

> <Gold.PLP.Chemscore.Internal.Correction>
0.2647

> <Gold.Rescore>
     Score         DG    S(hbond)    S(metal)    S(lipo)     H(rot)  DE(clash)    DE(int)     intcor
     13.85     -14.56       2.45        0.00      45.07       1.71       0.02       0.69       ----

> <Gold.Chemscore.Fitness>
13.8528

> <Gold.Chemscore.DG>
-14.5594

> <Gold.Chemscore.ZeroCoef>
-5.4800

> <Gold.Chemscore.Hbond>
2.4470

> <Gold.Chemscore.Metal>
0.0000

> <Gold.Chemscore.Lipo>
45.0731

> <Gold.Chemscore.Internal_Hbond>
0.0000

> <Gold.Chemscore.DEClash>
0.0203

> <Gold.Chemscore.DEInternal>
0.6863

> <Gold.Chemscore.Rot>
1.7059

> <Gold.Chemscore.Internal.Correction>
   9.000000E+99

> <Gold.Chemscore.Hbonds>
donor molecule, donor type, donor heavy atom, donor atom, acceptor molecule, acceptor atom, score
      P1  H  6896  6907       L1     7  0.85
      P1  H  6931  6943       L1     2  0.01
      P1  H  6934  6947       L1     2  0.38
      P1  H  7997  8010       L1    12  0.94

> <Gold.Chemscore.Hbond.Weighted>
-8.1728

> <Gold.Chemscore.Metal.Weighted>
-0.0000

> <Gold.Chemscore.Lipo.Weighted>
-5.2735

> <Gold.Chemscore.Internal_Hbond.Weighted>
0.0000

> <Gold.Chemscore.DEClash.Weighted>
0.0203

> <Gold.Chemscore.DEInternal.Weighted>
0.6863

> <Gold.Chemscore.Rot.Weighted>
4.3670

> <Gold.Chemscore.Internal.Correction.Weighted>
   9.000000E+99

> <Gold.Protein.RotatedTorsions>
[ 6907 6896 6895 6894 ] final  -13.13 input  -60.11 | X-H torsion
[ 7974 7965 7964 7962 ] final   68.08 input  175.53 | X-H torsion
[ 8008 7997 7996 7995 ] final   78.27 input   59.86 | X-H torsion
[ 10167 10162 10161 10158 ] final   93.21 input  -65.29 | X-H torsion
[ 10718 10713 10712 10709 ] final  122.50 input   66.30 | X-H torsion
[ 10763 10752 10751 10750 ] final   98.76 input  -60.55 | X-H torsion
[ 11005 11000 10999 10996 ] final  131.81 input  -57.11 | X-H torsion

> <Gold.Protein.ActiveResidues>
 VAL166  LYS551  ARG553  GLY616  TRP617  ASP618  TYR619  PRO620  LYS621  CYS622 
 ASP623  PHE694  ASN695  SER759  ASP760  ASP761  ALA762  ILE779  LEU786  VAL792 
 PHE793  MET794  SER795  GLU796  ALA797  LYS798  CYS799  TRP800  GLU811  SER814 

> <Gold.Protein.RotatedAtoms>
  151.3598  135.0901  159.9430 H   0  0  0  0  0  0  0  0  0  0  0  0  # atno 6907 bound_to 6896
  152.5165  133.9270  159.7572 H   0  0  0  0  0  0  0  0  0  0  0  0  # atno 6908 bound_to 6896
  150.9662  133.6338  159.2775 H   0  0  0  0  0  0  0  0  0  0  0  0  # atno 6909 bound_to 6896
  145.8069  139.3012  143.1122 H   0  0  0  0  0  0  0  0  0  0  0  0  # atno 7974 bound_to 7965
  155.8533  140.3457  155.5708 H   0  0  0  0  0  0  0  0  0  0  0  0  # atno 8008 bound_to 7997
  155.8013  140.0885  157.1975 H   0  0  0  0  0  0  0  0  0  0  0  0  # atno 8009 bound_to 7997
  154.4008  140.1465  156.3265 H   0  0  0  0  0  0  0  0  0  0  0  0  # atno 8010 bound_to 7997
  139.8201  144.6735  150.9529 H   0  0  0  0  0  0  0  0  0  0  0  0  # atno 10167 bound_to 10162
  157.5737  131.1081  150.8319 H   0  0  0  0  0  0  0  0  0  0  0  0  # atno 10718 bound_to 10713
  153.2930  135.4137  155.1184 H   0  0  0  0  0  0  0  0  0  0  0  0  # atno 10763 bound_to 10752
  154.8526  135.3523  154.5955 H   0  0  0  0  0  0  0  0  0  0  0  0  # atno 10764 bound_to 10752
  153.6378  135.7058  153.5310 H   0  0  0  0  0  0  0  0  0  0  0  0  # atno 10765 bound_to 10752
  139.9752  134.9565  156.9491 H   0  0  0  0  0  0  0  0  0  0  0  0  # atno 11005 bound_to 11000
  145.9818  140.8676  143.0110 LP  0  0  0  0  0  0  0  0  0  0  0  0  # atno 17320 bound_to 7965
  144.6762  140.2091  143.7379 LP  0  0  0  0  0  0  0  0  0  0  0  0  # atno 17321 bound_to 7965
  140.7813  143.4100  151.1009 LP  0  0  0  0  0  0  0  0  0  0  0  0  # atno 17342 bound_to 10162
  139.7761  143.8424  152.3129 LP  0  0  0  0  0  0  0  0  0  0  0  0  # atno 17343 bound_to 10162
  156.8784  130.5170  149.5292 LP  0  0  0  0  0  0  0  0  0  0  0  0  # atno 17370 bound_to 10713
  156.0782  130.5799  150.9513 LP  0  0  0  0  0  0  0  0  0  0  0  0  # atno 17371 bound_to 10713
  140.5210  134.0908  155.7292 LP  0  0  0  0  0  0  0  0  0  0  0  0  # atno 17394 bound_to 11000
  141.1429  133.9106  157.2283 LP  0  0  0  0  0  0  0  0  0  0  0  0  # atno 17395 bound_to 11000

$$$$
