#       Name:                AV-unprocessed.smi:351
#       Creating user name   scv26
#       Creation time:       Thu Mar 26 22:33:19 2020


#       File generated by GOLD software.
#

@<TRIPOS>MOLECULE
AV-unprocessed.smi:351
    45    46     1
SMALL
NO_CHARGES


@<TRIPOS>ATOM
      1 ****        -1.7026   3.3185   2.9966 C.3            1 S1                 0.0000
      2 ****        -2.6850   2.5732   2.1127 C.ar           1 S1                 0.0000
      3 ****        -4.0603   2.8779   2.1894 C.ar           1 S1                 0.0000
      4 ****        -4.9841   2.1952   1.3777 C.ar           1 S1                 0.0000
      5 ****        -4.5343   1.2042   0.4875 C.ar           1 S1                 0.0000
      6 ****        -3.1630   0.8956   0.4077 C.ar           1 S1                 0.0000
      7 ****        -2.2216   1.5777   1.2207 C.ar           1 S1                 0.0000
      8 ****        -0.8648   1.3278   1.1967 O.3            1 S1                 0.0000
      9 ****        -0.3729   0.3383   0.3046 C.3            1 S1                 0.0000
     10 ****         1.1549   0.2514   0.4744 C.3            1 S1                 0.0000
     11 ****         1.7674  -0.7091  -0.4727 N.am           1 S1                 0.0000
     12 ****         2.4082  -0.2368  -1.6612 C.2            1 S1                 0.0000
     13 ****         2.4306   1.2689  -1.9615 C.3            1 S1                 0.0000
     14 ****         2.9021   1.5092  -3.1860 F              1 S1                 0.0000
     15 ****         1.2125   1.8071  -1.9125 F              1 S1                 0.0000
     16 ****         3.2290   1.9098  -1.1071 F              1 S1                 0.0000
     17 ****         2.9648  -1.1158  -2.5149 C.2            1 S1                 0.0000
     18 ****         2.9243  -2.5237  -2.2319 C.2            1 S1                 0.0000
     19 ****         2.3244  -2.9862  -1.1116 C.2            1 S1                 0.0000
     20 ****         2.2534  -4.4278  -0.7796 C.2            1 S1                 0.0000
     21 ****         2.8609  -5.2273  -1.6655 N.am           1 S1                 0.0000
     22 ****         1.7080  -4.9373   0.1993 O.2            1 S1                 0.0000
     23 ****         1.6952  -2.0451  -0.1490 C.2            1 S1                 0.0000
     24 ****         1.1317  -2.4007   0.8908 O.2            1 S1                 0.0000
     25 ****        -2.1938   4.1134   3.5586 H              1 S1                 0.0000
     26 ****        -0.9138   3.7692   2.3938 H              1 S1                 0.0000
     27 ****        -1.2420   2.6332   3.7085 H              1 S1                 0.0000
     28 ****        -4.4128   3.6364   2.8726 H              1 S1                 0.0000
     29 ****        -6.0363   2.4306   1.4391 H              1 S1                 0.0000
     30 ****        -5.2421   0.6780  -0.1359 H              1 S1                 0.0000
     31 ****        -2.8592   0.1282  -0.2874 H              1 S1                 0.0000
     32 ****        -0.8337  -0.6245   0.5289 H              1 S1                 0.0000
     33 ****        -0.6260   0.6003  -0.7230 H              1 S1                 0.0000
     34 ****         1.5822   1.2466   0.4021 H              1 S1                 0.0000
     35 ****         1.3854  -0.0301   1.5037 H              1 S1                 0.0000
     36 ****         3.4489  -0.7826  -3.4208 H              1 S1                 0.0000
     37 ****         3.3881  -3.1835  -2.9501 H              1 S1                 0.0000
     38 ****         2.8646  -6.2271  -1.5258 H              1 S1                 0.0000
     39 ****         3.3131  -4.8245  -2.4736 H              1 S1                 0.0000
     40 ****        -0.5995   1.0506   2.1201 LP             1 S1                 0.0000
     41 ****        -0.4106   2.1875   0.9632 LP             1 S1                 0.0000
     42 ****         1.2489  -4.3587   0.8734 LP             1 S1                 0.0000
     43 ****         1.7240  -5.9299   0.3204 LP             1 S1                 0.0000
     44 ****         0.7270  -1.7178   1.4989 LP             1 S1                 0.0000
     45 ****         1.0800  -3.3717   1.1246 LP             1 S1                 0.0000
@<TRIPOS>BOND
    1    1    2 1     
    2    1   25 1     
    3    1   26 1     
    4    1   27 1     
    5    2    7 ar    
    6    2    3 ar    
    7    3    4 ar    
    8    3   28 1     
    9    4    5 ar    
   10    4   29 1     
   11    5    6 ar    
   12    5   30 1     
   13    6    7 ar    
   14    6   31 1     
   15    7    8 1     
   16    8    9 1     
   17    9   10 1     
   18    9   32 1     
   19    9   33 1     
   20   10   11 1     
   21   10   34 1     
   22   10   35 1     
   23   11   23 am    
   24   11   12 1     
   25   12   13 1     
   26   12   17 2     
   27   13   14 1     
   28   13   15 1     
   29   13   16 1     
   30   17   18 1     
   31   17   36 1     
   32   18   19 2     
   33   18   37 1     
   34   19   20 1     
   35   19   23 1     
   36   20   21 am    
   37   20   22 2     
   38   21   38 1     
   39   21   39 1     
   40   23   24 2     
   41    8   40 1     
   42    8   41 1     
   43   22   42 1     
   44   22   43 1     
   45   24   44 1     
   46   24   45 1     
@<TRIPOS>SUBSTRUCTURE
      1 S1             1
@<TRIPOS>SET
LONE_PAIRS      STATIC     ATOMS    <user>   **** ""
6 40 41 42 43 44 45
DONOR_HYDROGENS      STATIC     ATOMS    <user>   **** ""
2 38 39
ATOM$BLUE        STATIC     ATOMS    COLORGROUP SYSTEM
6 40 41 42 43 44 45
ATOM$RED        STATIC     ATOMS    COLORGROUP SYSTEM
2 38 39
