AV-unprocessed.smi:72|AV-procd|sdf|668|dock5
  -GOLD-   2262016573D 1   1.00000     0.00000
 Structure written by MMmdl.
 29 30  0  0  0  0  0  0  0  0  1 V2000
  145.1127  140.9736  155.6597 N   0  0  0  0  0  0  0  0  0  0  0  0
  146.2778  140.6825  155.2014 C   0  0  0  0  0  0  0  0  0  0  0  0
  147.4801  140.7890  155.9164 N   0  0  0  0  0  0  0  0  0  0  0  0
  148.5879  140.4605  155.3262 C   0  0  0  0  0  0  0  0  0  0  0  0
  148.6220  139.9813  153.9510 N   0  0  0  0  0  0  0  0  0  0  0  0
  149.9149  139.5967  153.2523 C   0  0  1  0  0  0  0  0  0  0  0  0
  151.0094  139.8846  154.0743 O   0  0  0  0  0  0  0  0  0  0  0  0
  151.5707  138.6786  154.5841 C   0  0  2  0  0  0  0  0  0  0  0  0
  153.0295  138.8872  155.0253 C   0  0  0  0  0  0  0  0  0  0  0  0
  153.6151  139.9295  154.2749 O   0  0  0  0  0  0  0  0  0  0  0  0
  151.3592  137.6908  153.4308 C   0  0  2  0  0  0  0  0  0  0  0  0
  152.3534  137.8478  152.4343 O   0  0  0  0  0  0  0  0  0  0  0  0
  149.9944  138.0931  152.8867 C   0  0  1  0  0  0  0  0  0  0  0  0
  148.9881  137.2989  153.4914 O   0  0  0  0  0  0  0  0  0  0  0  0
  147.4160  139.8683  153.2172 C   0  0  0  0  0  0  0  0  0  0  0  0
  147.3878  139.4602  152.0564 O   0  0  0  0  0  0  0  0  0  0  0  0
  146.2934  140.2271  153.8764 N   0  0  0  0  0  0  0  0  0  0  0  0
  149.9797  140.2520  152.3819 H   0  0  0  0  0  0  0  0  0  0  0  0
  150.9728  138.3350  155.4301 H   0  0  0  0  0  0  0  0  0  0  0  0
  151.3874  136.6549  153.7721 H   0  0  0  0  0  0  0  0  0  0  0  0
  149.9249  137.9711  151.8050 H   0  0  0  0  0  0  0  0  0  0  0  0
  144.4057  140.8144  154.9572 H   0  0  0  0  0  0  0  0  0  0  0  0
  149.5539  140.5256  155.8262 H   0  0  0  0  0  0  0  0  0  0  0  0
  153.0667  139.1803  156.0749 H   0  0  0  0  0  0  0  0  0  0  0  0
  153.6127  137.9718  154.9200 H   0  0  0  0  0  0  0  0  0  0  0  0
  153.8323  139.5978  153.4171 H   0  0  0  0  0  0  0  0  0  0  0  0
  151.9325  138.0971  151.6261 H   0  0  0  0  0  0  0  0  0  0  0  0
  148.6599  137.7598  154.2483 H   0  0  0  0  0  0  0  0  0  0  0  0
  145.4186  140.1557  153.3781 H   0  0  0  0  0  0  0  0  0  0  0  0
  1  2  2  0  0  0  0
  1 22  1  0  0  0  0
  2 17  1  0  0  0  0
  2  3  1  0  0  0  0
  3  4  2  0  0  0  0
  4  5  1  0  0  0  0
  4 23  1  0  0  0  0
  5  6  1  0  0  0  0
  5 15  1  0  0  0  0
  6 18  1  0  0  0  0
  6 13  1  0  0  0  0
  6  7  1  0  0  0  0
  7  8  1  0  0  0  0
  8 19  1  0  0  0  0
  8  9  1  0  0  0  0
  8 11  1  0  0  0  0
  9 10  1  0  0  0  0
  9 24  1  0  0  0  0
  9 25  1  0  0  0  0
 10 26  1  0  0  0  0
 11 20  1  0  0  0  0
 11 12  1  0  0  0  0
 11 13  1  0  0  0  0
 12 27  1  0  0  0  0
 13 21  1  0  0  0  0
 13 14  1  0  0  0  0
 14 28  1  0  0  0  0
 15 16  2  0  0  0  0
 15 17  1  0  0  0  0
 17 29  1  0  0  0  0
M  END
> <s_m_source_file>
AV-unprocessed.smi

> <i_m_source_file_index>
72

> <i_lp_mmshare_version>
43012

> <i_f3d_flags>
0

> <s_epik_input>
W05IMl1jMW5bY0hdbihjKD1PKW4xKVtDQEBIXTJPW0NASF0oW0NIMl1bT0hdKVtDQEBIXShbT0hdKVtDQEhdMltPSF0=

> <s_epik_cmdline>
J2VwaWtfcHl0aG9uJywgJy1waCcsICc3LjAnLCAnLXRuJywgJzgnLCAnLW1hJywgJzIwMCcsICctbWV0YWxfYmluZGluZycsICctaW1hZScsICc8aW5maWxlLm1hZT4nLCAnLW9tYWUnLCAnPG91dGZpbGUubWFlPic=

> <r_lp_tautomer_probability>
7.17554e-07

> <r_epik_Ionization_Penalty>
0.0066451

> <r_epik_Ionization_Penalty_Charging>
0.00663793

> <r_epik_Ionization_Penalty_Neutral>
7.17052e-06

> <r_epik_State_Penalty>
0.419231

> <r_epik_Charging_Adjusted_Penalty>
0.425868

> <i_epik_Tot_Q>
0

> <i_epik_Tot_abs_Q>
0

> <r_epik_Metal_State_Penalty>
1.44144

> <b_epik_Metal_Only>
0

> <s_epik_Chemistry_Notes>
This compound contains an acetal/aminal-like group ( X-CH(R)-Y where X, Y are N, S, or O) that may be acid/base labile, releasing an aldehyde.

> <s_lp_Force_Field>
OPLS_2005

> <r_lp_Energy>
43.5158

> <b_lp_Chiralities_Consistent>
1

> <s_lp_Variant>
AV-unprocessed.smi:72-6

> <Gold.Version>
5.8.1

> <Gold.Id.Protein>
6NUR|6NUR_protein|mol2

> <Gold.PLP.Fitness>
37.5746

> <Gold.PLP.PLP>
-22.6811

> <Gold.PLP.part.hbond>
-6.4438

> <Gold.PLP.part.metal>
0.0000

> <Gold.PLP.part.buried>
4.0289

> <Gold.PLP.part.nonpolar>
-20.4994

> <Gold.PLP.part.repulsive>
1.3631

> <Gold.PLP.ligand.clash>
0.0000

> <Gold.PLP.ligand.torsion>
0.4373

> <Gold.PLP.Chemscore.Hbond>
5.2324

> <Gold.PLP.Chemscore.CHOScore>
0.0000

> <Gold.PLP.Chemscore.Metal>
0.0000

> <Gold.Chemscore.Hbonds>
donor molecule, donor type, donor heavy atom, donor atom, acceptor molecule, acceptor atom, score
      L1  H    17    29       P1 10175  1.00
      P1  H  7989  7998       L1     7  0.41
      P1  H  7997  8009       L1    10  0.65

> <Gold.PLP.Chemscore.Internal.Correction>
0.0709

> <Gold.Rescore>
     Score         DG    S(hbond)    S(metal)    S(lipo)     H(rot)  DE(clash)    DE(int)     intcor
      8.05     -10.92       3.89        0.00      24.18       4.06       2.04       0.83       ----

> <Gold.Chemscore.Fitness>
8.0476

> <Gold.Chemscore.DG>
-10.9220

> <Gold.Chemscore.ZeroCoef>
-5.4800

> <Gold.Chemscore.Hbond>
3.8941

> <Gold.Chemscore.Metal>
0.0000

> <Gold.Chemscore.Lipo>
24.1819

> <Gold.Chemscore.Internal_Hbond>
0.0000

> <Gold.Chemscore.DEClash>
2.0410

> <Gold.Chemscore.DEInternal>
0.8334

> <Gold.Chemscore.Rot>
4.0600

> <Gold.Chemscore.Internal.Correction>
   9.000000E+99

> <Gold.Chemscore.Hbonds>
donor molecule, donor type, donor heavy atom, donor atom, acceptor molecule, acceptor atom, score
      L1  H    17    29       P1 10175  0.97
      P1  H  7989  7998       L1     7  0.21
      P1  H  7997  8009       L1    10  0.06

> <Gold.Chemscore.Hbond.Weighted>
-13.0063

> <Gold.Chemscore.Metal.Weighted>
-0.0000

> <Gold.Chemscore.Lipo.Weighted>
-2.8293

> <Gold.Chemscore.Internal_Hbond.Weighted>
0.0000

> <Gold.Chemscore.DEClash.Weighted>
2.0410

> <Gold.Chemscore.DEInternal.Weighted>
0.8334

> <Gold.Chemscore.Rot.Weighted>
10.3936

> <Gold.Chemscore.Internal.Correction.Weighted>
   9.000000E+99

> <Gold.Protein.RotatedTorsions>
[ 6907 6896 6895 6894 ] final   47.89 input  -60.11 | X-H torsion
[ 7974 7965 7964 7962 ] final  -51.35 input  175.53 | X-H torsion
[ 8008 7997 7996 7995 ] final -106.39 input   59.86 | X-H torsion
[ 10167 10162 10161 10158 ] final   75.09 input  -65.29 | X-H torsion
[ 10718 10713 10712 10709 ] final   31.28 input   66.30 | X-H torsion
[ 10763 10752 10751 10750 ] final   39.89 input  -60.55 | X-H torsion
[ 11005 11000 10999 10996 ] final  -93.59 input  -57.11 | X-H torsion

> <Gold.Protein.ActiveResidues>
 VAL166  LYS551  ARG553  GLY616  TRP617  ASP618  TYR619  PRO620  LYS621  CYS622 
 ASP623  PHE694  ASN695  SER759  ASP760  ASP761  ALA762  ILE779  LEU786  VAL792 
 PHE793  MET794  SER795  GLU796  ALA797  LYS798  CYS799  TRP800  GLU811  SER814 

> <Gold.Protein.RotatedAtoms>
  152.2732  134.7910  160.0410 H   0  0  0  0  0  0  0  0  0  0  0  0  # atno 6907 bound_to 6896
  151.8515  133.3435  159.3683 H   0  0  0  0  0  0  0  0  0  0  0  0  # atno 6908 bound_to 6896
  150.7160  134.5222  159.5703 H   0  0  0  0  0  0  0  0  0  0  0  0  # atno 6909 bound_to 6896
  145.9199  140.7842  142.9652 H   0  0  0  0  0  0  0  0  0  0  0  0  # atno 7974 bound_to 7965
  154.9138  140.0409  157.1960 H   0  0  0  0  0  0  0  0  0  0  0  0  # atno 8008 bound_to 7997
  154.8322  140.2901  155.5693 H   0  0  0  0  0  0  0  0  0  0  0  0  # atno 8009 bound_to 7997
  156.2987  140.2498  156.3249 H   0  0  0  0  0  0  0  0  0  0  0  0  # atno 8010 bound_to 7997
  140.0067  144.5645  150.7692 H   0  0  0  0  0  0  0  0  0  0  0  0  # atno 10167 bound_to 10162
  157.2705  130.7205  149.6501 H   0  0  0  0  0  0  0  0  0  0  0  0  # atno 10718 bound_to 10713
  152.9953  135.6207  154.2537 H   0  0  0  0  0  0  0  0  0  0  0  0  # atno 10763 bound_to 10752
  154.2275  135.2793  155.2904 H   0  0  0  0  0  0  0  0  0  0  0  0  # atno 10764 bound_to 10752
  154.5477  135.5742  153.6953 H   0  0  0  0  0  0  0  0  0  0  0  0  # atno 10765 bound_to 10752
  141.1493  133.7898  157.0180 H   0  0  0  0  0  0  0  0  0  0  0  0  # atno 11005 bound_to 11000
  144.6752  140.1959  143.7392 LP  0  0  0  0  0  0  0  0  0  0  0  0  # atno 17320 bound_to 7965
  145.8563  139.2200  143.1743 LP  0  0  0  0  0  0  0  0  0  0  0  0  # atno 17321 bound_to 7965
  140.7397  143.2795  151.3640 LP  0  0  0  0  0  0  0  0  0  0  0  0  # atno 17342 bound_to 10162
  139.6233  144.0863  152.2412 LP  0  0  0  0  0  0  0  0  0  0  0  0  # atno 17343 bound_to 10162
  155.9663  130.4369  150.5153 LP  0  0  0  0  0  0  0  0  0  0  0  0  # atno 17370 bound_to 10713
  157.3077  131.0657  151.2023 LP  0  0  0  0  0  0  0  0  0  0  0  0  # atno 17371 bound_to 10713
  140.0834  134.9635  157.1661 LP  0  0  0  0  0  0  0  0  0  0  0  0  # atno 17394 bound_to 11000
  140.3545  134.2562  155.7194 LP  0  0  0  0  0  0  0  0  0  0  0  0  # atno 17395 bound_to 11000

$$$$
