AV-unprocessed.smi:471|AV-procd|sdf|2659|dock1
  -GOLD-   2262023 73D 1   1.00000     0.00000
 Structure written by MMmdl.
 16 16  0  0  0  0  0  0  0  0  3 V2000
  152.8878  139.5950  155.1747 O   0  0  0  0  0  0  0  0  0  0  0  0
  151.6880  139.7579  155.4875 C   0  0  0  0  0  0  0  0  0  0  0  0
  150.7794  140.1304  154.7125 O   0  5  0  0  0  0  0  0  0  0  0  0
  151.2968  139.4730  156.9414 C   0  0  0  0  0  0  0  0  0  0  0  0
  151.6605  140.5790  157.8447 N   0  0  0  0  0  0  0  0  0  0  0  0
  150.7742  141.6699  157.9185 C   0  0  0  0  0  0  0  0  0  0  0  0
  150.9978  142.7181  158.7335 C   0  0  0  0  0  0  0  0  0  0  0  0
  152.1948  142.7018  159.5639 C   0  0  0  0  0  0  0  0  0  0  0  0
  152.4195  143.6526  160.3108 O   0  0  0  0  0  0  0  0  0  0  0  0
  153.0151  141.6148  159.4724 N   0  5  0  0  0  0  0  0  0  0  0  0
  152.7731  140.5531  158.6407 C   0  0  0  0  0  0  0  0  0  0  0  0
  153.5270  139.5809  158.5918 O   0  0  0  0  0  0  0  0  0  0  0  0
  150.2177  139.3218  156.9963 H   0  0  0  0  0  0  0  0  0  0  0  0
  151.7343  138.5176  157.2336 H   0  0  0  0  0  0  0  0  0  0  0  0
  149.9080  141.5989  157.2770 H   0  0  0  0  0  0  0  0  0  0  0  0
  150.3061  143.5464  158.7751 H   0  0  0  0  0  0  0  0  0  0  0  0
  1  2  2  0  0  0  0
  2  3  1  0  0  0  0
  2  4  1  0  0  0  0
  4  5  1  0  0  0  0
  4 13  1  0  0  0  0
  4 14  1  0  0  0  0
  5 11  1  0  0  0  0
  5  6  1  0  0  0  0
  6  7  2  0  0  0  0
  6 15  1  0  0  0  0
  7  8  1  0  0  0  0
  7 16  1  0  0  0  0
  8  9  2  0  0  0  0
  8 10  1  0  0  0  0
 10 11  1  0  0  0  0
 11 12  2  0  0  0  0
M  CHG  1   3  -1
M  CHG  1  10  -1
M  END
> <s_m_source_file>
AV-unprocessed.smi

> <i_m_source_file_index>
471

> <i_lp_mmshare_version>
43012

> <i_f3d_flags>
0

> <s_epik_input>
Tz1DKFtPSF0pW0NIMl1uMVtjSF1bY0hdYyg9TylbbkhdYzE9Tw==

> <s_epik_cmdline>
J2VwaWtfcHl0aG9uJywgJy1waCcsICc3LjAnLCAnLXRuJywgJzgnLCAnLW1hJywgJzIwMCcsICctbWV0YWxfYmluZGluZycsICctaW1hZScsICc8aW5maWxlLm1hZT4nLCAnLW9tYWUnLCAnPG91dGZpbGUubWFlPic=

> <r_lp_tautomer_probability>
1

> <r_epik_Ionization_Penalty>
3.94908

> <r_epik_Ionization_Penalty_Charging>
0.000183212

> <r_epik_Ionization_Penalty_Neutral>
3.94889

> <r_epik_State_Penalty>
3.94814

> <r_epik_Charging_Adjusted_Penalty>
3.94832

> <i_epik_Tot_Q>
-2

> <i_epik_Tot_abs_Q>
2

> <r_epik_Metal_State_Penalty>
0.342776

> <b_epik_Metal_Only>
1

> <s_lp_Force_Field>
OPLS_2005

> <r_lp_Energy>
13.443

> <b_lp_Chiralities_Consistent>
1

> <s_lp_Variant>
AV-unprocessed.smi:471-2

> <Gold.Version>
5.8.1

> <Gold.Id.Protein>
6NUR|6NUR_protein|mol2

> <Gold.PLP.Fitness>
31.5778

> <Gold.PLP.PLP>
-21.0925

> <Gold.PLP.part.hbond>
-3.8492

> <Gold.PLP.part.metal>
0.0000

> <Gold.PLP.part.buried>
-4.0011

> <Gold.PLP.part.nonpolar>
-13.3045

> <Gold.PLP.part.repulsive>
0.1105

> <Gold.PLP.ligand.clash>
0.0000

> <Gold.PLP.ligand.torsion>
0.5557

> <Gold.PLP.Chemscore.Hbond>
3.8640

> <Gold.PLP.Chemscore.CHOScore>
0.0000

> <Gold.PLP.Chemscore.Metal>
0.0000

> <Gold.Chemscore.Hbonds>
donor molecule, donor type, donor heavy atom, donor atom, acceptor molecule, acceptor atom, score
      P1  H  7989  7998       L1     3  1.00
      P1  H  7997  8008       L1    12  0.84
      P1  H  7997  8009       L1     1  1.98

> <Gold.PLP.Chemscore.Internal.Correction>
0.0048

> <Gold.Rescore>
     Score         DG    S(hbond)    S(metal)    S(lipo)     H(rot)  DE(clash)    DE(int)     intcor
     11.25     -11.95       2.52        0.00      19.40       1.64       0.04       0.66       ----

> <Gold.Chemscore.Fitness>
11.2546

> <Gold.Chemscore.DG>
-11.9544

> <Gold.Chemscore.ZeroCoef>
-5.4800

> <Gold.Chemscore.Hbond>
2.5163

> <Gold.Chemscore.Metal>
0.0000

> <Gold.Chemscore.Lipo>
19.3965

> <Gold.Chemscore.Internal_Hbond>
0.0000

> <Gold.Chemscore.DEClash>
0.0417

> <Gold.Chemscore.DEInternal>
0.6581

> <Gold.Chemscore.Rot>
1.6404

> <Gold.Chemscore.Internal.Correction>
   9.000000E+99

> <Gold.Chemscore.Hbonds>
donor molecule, donor type, donor heavy atom, donor atom, acceptor molecule, acceptor atom, score
      P1  H  7989  7998       L1     3  0.35
      P1  H  7997  8008       L1    12  0.52
      P1  H  7997  8009       L1     1  0.94

> <Gold.Chemscore.Hbond.Weighted>
-8.4044

> <Gold.Chemscore.Metal.Weighted>
-0.0000

> <Gold.Chemscore.Lipo.Weighted>
-2.2694

> <Gold.Chemscore.Internal_Hbond.Weighted>
0.0000

> <Gold.Chemscore.DEClash.Weighted>
0.0417

> <Gold.Chemscore.DEInternal.Weighted>
0.6581

> <Gold.Chemscore.Rot.Weighted>
4.1994

> <Gold.Chemscore.Internal.Correction.Weighted>
   9.000000E+99

> <Gold.Protein.RotatedTorsions>
[ 6907 6896 6895 6894 ] final -110.26 input  -60.11 | X-H torsion
[ 7974 7965 7964 7962 ] final  169.22 input  175.53 | X-H torsion
[ 8008 7997 7996 7995 ] final -118.73 input   59.86 | X-H torsion
[ 10167 10162 10161 10158 ] final -116.21 input  -65.29 | X-H torsion
[ 10718 10713 10712 10709 ] final    6.59 input   66.30 | X-H torsion
[ 10763 10752 10751 10750 ] final   11.70 input  -60.55 | X-H torsion
[ 11005 11000 10999 10996 ] final   47.83 input  -57.11 | X-H torsion

> <Gold.Protein.ActiveResidues>
 VAL166  LYS551  ARG553  GLY616  TRP617  ASP618  TYR619  PRO620  LYS621  CYS622 
 ASP623  PHE694  ASN695  SER759  ASP760  ASP761  ALA762  ILE779  LEU786  VAL792 
 PHE793  MET794  SER795  GLU796  ALA797  LYS798  CYS799  TRP800  GLU811  SER814 

> <Gold.Protein.RotatedAtoms>
  150.7614  133.9408  159.3455 H   0  0  0  0  0  0  0  0  0  0  0  0  # atno 6907 bound_to 6896
  151.7315  135.0871  160.0310 H   0  0  0  0  0  0  0  0  0  0  0  0  # atno 6908 bound_to 6896
  152.3586  133.6231  159.6034 H   0  0  0  0  0  0  0  0  0  0  0  0  # atno 6909 bound_to 6896
  144.7362  139.9023  143.6410 H   0  0  0  0  0  0  0  0  0  0  0  0  # atno 7974 bound_to 7965
  155.1043  140.0396  157.2706 H   0  0  0  0  0  0  0  0  0  0  0  0  # atno 8008 bound_to 7997
  154.6734  140.2617  155.6958 H   0  0  0  0  0  0  0  0  0  0  0  0  # atno 8009 bound_to 7997
  156.2667  140.2793  156.1251 H   0  0  0  0  0  0  0  0  0  0  0  0  # atno 8010 bound_to 7997
  140.0817  143.4782  152.1922 H   0  0  0  0  0  0  0  0  0  0  0  0  # atno 10167 bound_to 10162
  156.9245  130.5803  149.5648 H   0  0  0  0  0  0  0  0  0  0  0  0  # atno 10718 bound_to 10713
  153.1899  135.6840  153.8367 H   0  0  0  0  0  0  0  0  0  0  0  0  # atno 10763 bound_to 10752
  153.7670  135.3201  155.3347 H   0  0  0  0  0  0  0  0  0  0  0  0  # atno 10764 bound_to 10752
  154.8111  135.4717  154.0616 H   0  0  0  0  0  0  0  0  0  0  0  0  # atno 10765 bound_to 10752
  140.1244  134.4787  155.8571 H   0  0  0  0  0  0  0  0  0  0  0  0  # atno 11005 bound_to 11000
  146.1063  139.4063  143.0316 LP  0  0  0  0  0  0  0  0  0  0  0  0  # atno 17320 bound_to 7965
  145.7507  140.9973  143.1252 LP  0  0  0  0  0  0  0  0  0  0  0  0  # atno 17321 bound_to 7965
  139.5776  144.7495  151.3724 LP  0  0  0  0  0  0  0  0  0  0  0  0  # atno 17342 bound_to 10162
  140.7074  143.7477  150.7507 LP  0  0  0  0  0  0  0  0  0  0  0  0  # atno 17343 bound_to 10162
  156.0476  130.5550  150.8915 LP  0  0  0  0  0  0  0  0  0  0  0  0  # atno 17370 bound_to 10713
  157.5887  131.0945  150.9155 LP  0  0  0  0  0  0  0  0  0  0  0  0  # atno 17371 bound_to 10713
  141.2158  133.6772  156.6950 LP  0  0  0  0  0  0  0  0  0  0  0  0  # atno 17394 bound_to 11000
  140.2923  134.8231  157.4027 LP  0  0  0  0  0  0  0  0  0  0  0  0  # atno 17395 bound_to 11000

$$$$
