#       Name:                AV-unprocessed.smi:1487
#       Creating user name   scv26
#       Creation time:       Fri Mar 27 06:11:19 2020


#       File generated by GOLD software.
#

@<TRIPOS>MOLECULE
AV-unprocessed.smi:1487
    53    55     1
SMALL
NO_CHARGES


@<TRIPOS>ATOM
      1 ****        -3.7093   4.7121   2.9824 C.3            1 S1                 0.0000
      2 ****        -3.2534   3.6028   2.0511 C.ar           1 S1                 0.0000
      3 ****        -3.2483   3.8351   0.6572 C.ar           1 S1                 0.0000
      4 ****        -2.8309   2.8305  -0.2429 C.ar           1 S1                 0.0000
      5 ****        -2.7426   2.8408  -1.6245 N.2            1 S1                 0.0000
      6 ****        -2.2876   1.6166  -1.8736 C.2            1 S1                 0.0000
      7 ****        -2.0668   0.8137  -0.8150 N.pl3          1 S1                 0.0000
      8 ****        -1.5707  -0.5506  -0.8414 C.3            1 S1                 0.0000
      9 ****        -0.0313  -0.6186  -0.8339 C.3            1 S1                 0.0000
     10 ****         0.4614  -0.0145   0.3471 O.3            1 S1                 0.0000
     11 ****         0.4739  -2.0739  -0.8865 C.3            1 S1                 0.0000
     12 ****         1.9553  -2.1628  -0.9584 N.4            1 S1                 1.0000
     13 ****         2.4712  -3.4488  -0.4235 C.3            1 S1                 0.0000
     14 ****         4.0053  -3.4355  -0.3404 C.3            1 S1                 0.0000
     15 ****         4.6287  -3.1348  -1.7104 C.3            1 S1                 0.0000
     16 ****         4.0424  -1.8475  -2.3140 C.3            1 S1                 0.0000
     17 ****         4.5081  -0.7141  -1.6076 O.3            1 S1                 0.0000
     18 ****         2.5010  -1.8672  -2.3118 C.3            1 S1                 0.0000
     19 ****        -2.4168   1.5766   0.2940 C.ar           1 S1                 0.0000
     20 ****        -2.4188   1.3328   1.6787 C.ar           1 S1                 0.0000
     21 ****        -2.8373   2.3479   2.5640 C.ar           1 S1                 0.0000
     22 ****        -2.8321   2.0767   4.0581 C.3            1 S1                 0.0000
     23 ****        -3.9584   5.6185   2.4297 H              1 S1                 0.0000
     24 ****        -2.9233   4.9615   3.6955 H              1 S1                 0.0000
     25 ****        -4.5958   4.4035   3.5370 H              1 S1                 0.0000
     26 ****        -3.5654   4.7908   0.2663 H              1 S1                 0.0000
     27 ****        -2.1016   1.2843  -2.8847 H              1 S1                 0.0000
     28 ****        -1.9854  -1.0884   0.0125 H              1 S1                 0.0000
     29 ****        -1.9635  -1.0377  -1.7350 H              1 S1                 0.0000
     30 ****         0.3421  -0.0524  -1.6865 H              1 S1                 0.0000
     31 ****         0.1338   0.8716   0.3918 H              1 S1                 0.0000
     32 ****         0.1163  -2.5912   0.0055 H              1 S1                 0.0000
     33 ****         0.0393  -2.6020  -1.7367 H              1 S1                 0.0000
     34 ****         2.0657  -3.6239   0.5739 H              1 S1                 0.0000
     35 ****         2.1312  -4.2715  -1.0545 H              1 S1                 0.0000
     36 ****         4.3266  -2.6866   0.3849 H              1 S1                 0.0000
     37 ****         4.3669  -4.3957   0.0291 H              1 S1                 0.0000
     38 ****         5.7138  -3.0615  -1.6278 H              1 S1                 0.0000
     39 ****         4.4278  -3.9696  -2.3833 H              1 S1                 0.0000
     40 ****         4.3970  -1.7458  -3.3403 H              1 S1                 0.0000
     41 ****         4.2414   0.0652  -2.0716 H              1 S1                 0.0000
     42 ****         2.1459  -2.6281  -3.0087 H              1 S1                 0.0000
     43 ****         2.1275  -0.9125  -2.6807 H              1 S1                 0.0000
     44 ****        -2.0980   0.3731   2.0563 H              1 S1                 0.0000
     45 ****        -2.5049   1.0599   4.2769 H              1 S1                 0.0000
     46 ****        -3.8320   2.2030   4.4736 H              1 S1                 0.0000
     47 ****        -2.1555   2.7628   4.5679 H              1 S1                 0.0000
     48 ****         2.3070  -1.4453  -0.3395 H              1 S1                 0.0000
     49 ****        -2.9630   3.5755  -2.2661 LP             1 S1                 0.0000
     50 ****         1.4612  -0.0036   0.3281 LP             1 S1                 0.0000
     51 ****         0.1488  -0.5300   1.1449 LP             1 S1                 0.0000
     52 ****         5.5057  -0.7434  -1.5456 LP             1 S1                 0.0000
     53 ****         4.1170  -0.7076  -0.6873 LP             1 S1                 0.0000
@<TRIPOS>BOND
    1    1    2 1     
    2    1   23 1     
    3    1   24 1     
    4    1   25 1     
    5    2   21 ar    
    6    2    3 ar    
    7    3    4 ar    
    8    3   26 1     
    9    4   19 ar    
   10    4    5 1     
   11    5    6 2     
   12    6    7 1     
   13    6   27 1     
   14    7    8 1     
   15    7   19 1     
   16    8    9 1     
   17    8   28 1     
   18    8   29 1     
   19    9   10 1     
   20    9   11 1     
   21    9   30 1     
   22   10   31 1     
   23   11   12 1     
   24   11   32 1     
   25   11   33 1     
   26   12   18 1     
   27   12   13 1     
   28   12   48 1     
   29   13   14 1     
   30   13   34 1     
   31   13   35 1     
   32   14   15 1     
   33   14   36 1     
   34   14   37 1     
   35   15   16 1     
   36   15   38 1     
   37   15   39 1     
   38   16   17 1     
   39   16   18 1     
   40   16   40 1     
   41   17   41 1     
   42   18   42 1     
   43   18   43 1     
   44   19   20 ar    
   45   20   21 ar    
   46   20   44 1     
   47   21   22 1     
   48   22   45 1     
   49   22   46 1     
   50   22   47 1     
   51    5   49 1     
   52   10   50 1     
   53   10   51 1     
   54   17   52 1     
   55   17   53 1     
@<TRIPOS>SUBSTRUCTURE
      1 S1             1
@<TRIPOS>SET
LONE_PAIRS      STATIC     ATOMS    <user>   **** ""
5 49 50 51 52 53
DONOR_HYDROGENS      STATIC     ATOMS    <user>   **** ""
3 31 48 41
ATOM$BLUE        STATIC     ATOMS    COLORGROUP SYSTEM
5 49 50 51 52 53
ATOM$RED        STATIC     ATOMS    COLORGROUP SYSTEM
3 31 48 41
