AV-unprocessed.smi:1211|AV-procd|sdf|5081|dock7
  -GOLD-   22720 4133D 1   1.00000     0.00000
 Structure written by MMmdl.
 48 50  0  0  0  0  0  0  0  0  2 V2000
  144.0852  135.7294  150.6521 C   0  0  0  0  0  0  0  0  0  0  0  0
  144.5389  134.2833  150.7737 C   0  0  0  0  0  0  0  0  0  0  0  0
  143.7912  133.2693  150.1378 C   0  0  0  0  0  0  0  0  0  0  0  0
  144.2112  131.9331  150.2523 C   0  0  0  0  0  0  0  0  0  0  0  0
  145.3690  131.6653  151.0025 C   0  0  0  0  0  0  0  0  0  0  0  0
  146.0898  132.6280  151.6128 N   0  0  0  0  0  0  0  0  0  0  0  0
  145.6968  133.9229  151.5140 C   0  0  0  0  0  0  0  0  0  0  0  0
  146.4085  134.9903  152.1309 N   0  0  0  0  0  0  0  0  0  0  0  0
  145.9637  135.8757  153.0399 C   0  0  0  0  0  0  0  0  0  0  0  0
  144.8183  135.9247  153.4879 O   0  0  0  0  0  0  0  0  0  0  0  0
  146.9379  136.7187  153.4118 N   0  0  0  0  0  0  0  0  0  0  0  0
  146.7905  137.8136  154.3705 C   0  0  0  0  0  0  0  0  0  0  0  0
  148.0976  138.6457  154.5742 C   0  0  2  0  0  0  0  0  0  0  0  0
  149.2801  137.7071  154.5373 N   0  3  0  0  0  0  0  0  0  0  0  0
  150.6015  138.3779  154.6954 C   0  0  0  0  0  0  0  0  0  0  0  0
  151.7513  137.3884  154.4570 C   0  0  0  0  0  0  0  0  0  0  0  0
  151.6394  136.3151  155.3790 O   0  0  0  0  0  0  0  0  0  0  0  0
  150.4355  135.5878  155.1852 C   0  0  0  0  0  0  0  0  0  0  0  0
  149.2161  136.5002  155.4090 C   0  0  0  0  0  0  0  0  0  0  0  0
  148.0053  139.4704  155.8894 C   0  0  0  0  0  0  0  0  0  0  0  0
  146.9693  140.5817  155.6968 C   0  0  0  0  0  0  0  0  0  0  0  0
  147.0842  141.1124  153.9707 S   0  0  0  0  0  0  0  0  0  0  0  0
  148.1828  139.7491  153.4933 C   0  0  0  0  0  0  0  0  0  0  0  0
  143.1840  135.8134  150.0439 H   0  0  0  0  0  0  0  0  0  0  0  0
  144.8619  136.3354  150.1849 H   0  0  0  0  0  0  0  0  0  0  0  0
  143.8649  136.1441  151.6362 H   0  0  0  0  0  0  0  0  0  0  0  0
  142.9051  133.5092  149.5685 H   0  0  0  0  0  0  0  0  0  0  0  0
  143.6604  131.1342  149.7783 H   0  0  0  0  0  0  0  0  0  0  0  0
  145.7265  130.6524  151.1160 H   0  0  0  0  0  0  0  0  0  0  0  0
  147.3713  135.0860  151.8450 H   0  0  0  0  0  0  0  0  0  0  0  0
  147.8424  136.6151  152.9759 H   0  0  0  0  0  0  0  0  0  0  0  0
  145.9926  138.4512  153.9923 H   0  0  0  0  0  0  0  0  0  0  0  0
  146.3953  137.4360  155.3134 H   0  0  0  0  0  0  0  0  0  0  0  0
  150.7072  139.2061  153.9971 H   0  0  0  0  0  0  0  0  0  0  0  0
  150.6950  138.7934  155.6995 H   0  0  0  0  0  0  0  0  0  0  0  0
  151.7436  137.0154  153.4314 H   0  0  0  0  0  0  0  0  0  0  0  0
  152.7107  137.8838  154.6087 H   0  0  0  0  0  0  0  0  0  0  0  0
  150.4174  135.1571  154.1826 H   0  0  0  0  0  0  0  0  0  0  0  0
  150.4115  134.7537  155.8868 H   0  0  0  0  0  0  0  0  0  0  0  0
  149.1558  136.7981  156.4564 H   0  0  0  0  0  0  0  0  0  0  0  0
  148.3361  135.9005  155.1817 H   0  0  0  0  0  0  0  0  0  0  0  0
  147.7941  138.8601  156.7666 H   0  0  0  0  0  0  0  0  0  0  0  0
  148.9405  139.9915  156.0898 H   0  0  0  0  0  0  0  0  0  0  0  0
  145.9612  140.2148  155.8898 H   0  0  0  0  0  0  0  0  0  0  0  0
  147.1439  141.4204  156.3711 H   0  0  0  0  0  0  0  0  0  0  0  0
  149.1925  140.1573  153.4408 H   0  0  0  0  0  0  0  0  0  0  0  0
  147.9265  139.3889  152.4965 H   0  0  0  0  0  0  0  0  0  0  0  0
  149.2747  137.3358  153.5982 H   0  0  0  0  0  0  0  0  0  0  0  0
  1  2  1  0  0  0  0
  1 24  1  0  0  0  0
  1 25  1  0  0  0  0
  1 26  1  0  0  0  0
  2  7  1  0  0  0  0
  2  3  2  0  0  0  0
  3  4  1  0  0  0  0
  3 27  1  0  0  0  0
  4  5  2  0  0  0  0
  4 28  1  0  0  0  0
  5  6  1  0  0  0  0
  5 29  1  0  0  0  0
  6  7  2  0  0  0  0
  7  8  1  0  0  0  0
  8  9  1  0  0  0  0
  8 30  1  0  0  0  0
  9 10  2  0  0  0  0
  9 11  1  0  0  0  0
 11 12  1  0  0  0  0
 11 31  1  0  0  0  0
 12 13  1  0  0  0  0
 12 32  1  0  0  0  0
 12 33  1  0  0  0  0
 13 23  1  0  0  0  0
 13 14  1  0  0  0  0
 13 20  1  0  0  0  0
 14 19  1  0  0  0  0
 14 15  1  0  0  0  0
 14 48  1  0  0  0  0
 15 16  1  0  0  0  0
 15 34  1  0  0  0  0
 15 35  1  0  0  0  0
 16 17  1  0  0  0  0
 16 36  1  0  0  0  0
 16 37  1  0  0  0  0
 17 18  1  0  0  0  0
 18 19  1  0  0  0  0
 18 38  1  0  0  0  0
 18 39  1  0  0  0  0
 19 40  1  0  0  0  0
 19 41  1  0  0  0  0
 20 21  1  0  0  0  0
 20 42  1  0  0  0  0
 20 43  1  0  0  0  0
 21 22  1  0  0  0  0
 21 44  1  0  0  0  0
 21 45  1  0  0  0  0
 22 23  1  0  0  0  0
 23 46  1  0  0  0  0
 23 47  1  0  0  0  0
M  CHG  1  14   1
M  END
> <s_m_source_file>
AV-unprocessed.smi

> <i_m_source_file_index>
1211

> <i_lp_mmshare_version>
43012

> <i_f3d_flags>
0

> <s_epik_input>
W0NIM11jMVtjSF1bY0hdW2NIXW5jMVtOSF1DKD1PKVtOSF1bQ0gyXVtDQF0yKFtDSDJdW0NIMl1TW0NIMl0yKU4zW0NIMl1bQ0gyXU9bQ0gyXVtDSDJdMw==

> <s_epik_cmdline>
J2VwaWtfcHl0aG9uJywgJy1waCcsICc3LjAnLCAnLXRuJywgJzgnLCAnLW1hJywgJzIwMCcsICctbWV0YWxfYmluZGluZycsICctaW1hZScsICc8aW5maWxlLm1hZT4nLCAnLW9tYWUnLCAnPG91dGZpbGUubWFlPic=

> <r_epik_Ionization_Penalty>
2.03223

> <r_epik_Ionization_Penalty_Charging>
2.03219

> <r_epik_Ionization_Penalty_Neutral>
4.05816e-05

> <r_epik_State_Penalty>
2.16328

> <r_epik_Charging_Adjusted_Penalty>
4.19546

> <i_epik_Tot_Q>
1

> <i_epik_Tot_abs_Q>
1

> <r_epik_Metal_State_Penalty>
2.16328

> <b_epik_Metal_Only>
0

> <s_lp_Force_Field>
OPLS_2005

> <r_lp_Energy>
45.9337

> <b_lp_Chiralities_Consistent>
1

> <s_lp_Variant>
AV-unprocessed.smi:1211-4

> <Gold.Version>
5.8.1

> <Gold.Id.Protein>
6NUR|6NUR_protein|mol2

> <Gold.PLP.Fitness>
46.5897

> <Gold.PLP.PLP>
-33.5546

> <Gold.PLP.part.hbond>
-4.0000

> <Gold.PLP.part.metal>
0.0000

> <Gold.PLP.part.buried>
-2.8520

> <Gold.PLP.part.nonpolar>
-28.5221

> <Gold.PLP.part.repulsive>
0.2806

> <Gold.PLP.ligand.clash>
0.0000

> <Gold.PLP.ligand.torsion>
0.9702

> <Gold.PLP.Chemscore.Hbond>
4.9440

> <Gold.PLP.Chemscore.CHOScore>
0.0000

> <Gold.PLP.Chemscore.Metal>
0.0000

> <Gold.Chemscore.Hbonds>
donor molecule, donor type, donor heavy atom, donor atom, acceptor molecule, acceptor atom, score
      L1  H     8    30       P1  7948  0.94
      L1  H    11    31       P1  7948  1.00
      L1  H    14    48       P1  7948  1.85
      P1  H 10752 10765       L1    17  0.60

> <Gold.PLP.Chemscore.Internal.Correction>
0.1434

> <Gold.Rescore>
     Score         DG    S(hbond)    S(metal)    S(lipo)     H(rot)  DE(clash)    DE(int)     intcor
     18.78     -22.36       2.96        0.00      92.18       1.48       1.39       2.19       ----

> <Gold.Chemscore.Fitness>
18.7752

> <Gold.Chemscore.DG>
-22.3602

> <Gold.Chemscore.ZeroCoef>
-5.4800

> <Gold.Chemscore.Hbond>
2.9609

> <Gold.Chemscore.Metal>
0.0000

> <Gold.Chemscore.Lipo>
92.1764

> <Gold.Chemscore.Internal_Hbond>
0.0000

> <Gold.Chemscore.DEClash>
1.3905

> <Gold.Chemscore.DEInternal>
2.1945

> <Gold.Chemscore.Rot>
1.4820

> <Gold.Chemscore.Internal.Correction>
   9.000000E+99

> <Gold.Chemscore.Hbonds>
donor molecule, donor type, donor heavy atom, donor atom, acceptor molecule, acceptor atom, score
      L1  H     8    30       P1  7948  0.84
      L1  H    11    31       P1  7948  0.99
      L1  H    14    48       P1  7948  0.88
      P1  H 10752 10765       L1    17  0.04

> <Gold.Chemscore.Hbond.Weighted>
-9.8894

> <Gold.Chemscore.Metal.Weighted>
-0.0000

> <Gold.Chemscore.Lipo.Weighted>
-10.7846

> <Gold.Chemscore.Internal_Hbond.Weighted>
0.0000

> <Gold.Chemscore.DEClash.Weighted>
1.3905

> <Gold.Chemscore.DEInternal.Weighted>
2.1945

> <Gold.Chemscore.Rot.Weighted>
3.7939

> <Gold.Chemscore.Internal.Correction.Weighted>
   9.000000E+99

> <Gold.Protein.RotatedTorsions>
[ 6907 6896 6895 6894 ] final  116.71 input  -60.11 | X-H torsion
[ 7974 7965 7964 7962 ] final  -28.56 input  175.53 | X-H torsion
[ 8008 7997 7996 7995 ] final  -49.33 input   59.86 | X-H torsion
[ 10167 10162 10161 10158 ] final  104.95 input  -65.29 | X-H torsion
[ 10718 10713 10712 10709 ] final  126.56 input   66.30 | X-H torsion
[ 10763 10752 10751 10750 ] final -170.41 input  -60.55 | X-H torsion
[ 11005 11000 10999 10996 ] final  151.16 input  -57.11 | X-H torsion

> <Gold.Protein.ActiveResidues>
 VAL166  LYS551  ARG553  GLY616  TRP617  ASP618  TYR619  PRO620  LYS621  CYS622 
 ASP623  PHE694  ASN695  SER759  ASP760  ASP761  ALA762  ILE779  LEU786  VAL792 
 PHE793  MET794  SER795  GLU796  ALA797  LYS798  CYS799  TRP800  GLU811  SER814 

> <Gold.Protein.RotatedAtoms>
  152.4660  133.7924  159.6908 H   0  0  0  0  0  0  0  0  0  0  0  0  # atno 6907 bound_to 6896
  150.8625  133.7613  159.2994 H   0  0  0  0  0  0  0  0  0  0  0  0  # atno 6908 bound_to 6896
  151.5174  135.1069  159.9922 H   0  0  0  0  0  0  0  0  0  0  0  0  # atno 6909 bound_to 6896
  146.1279  140.5299  142.8706 H   0  0  0  0  0  0  0  0  0  0  0  0  # atno 7974 bound_to 7965
  154.4042  140.1299  156.4485 H   0  0  0  0  0  0  0  0  0  0  0  0  # atno 8008 bound_to 7997
  155.7389  140.3490  155.5075 H   0  0  0  0  0  0  0  0  0  0  0  0  # atno 8009 bound_to 7997
  155.9057  140.1027  157.1307 H   0  0  0  0  0  0  0  0  0  0  0  0  # atno 8010 bound_to 7997
  139.7134  144.7073  151.0990 H   0  0  0  0  0  0  0  0  0  0  0  0  # atno 10167 bound_to 10162
  157.5409  131.1097  150.8860 H   0  0  0  0  0  0  0  0  0  0  0  0  # atno 10718 bound_to 10713
  154.6418  135.2899  155.0094 H   0  0  0  0  0  0  0  0  0  0  0  0  # atno 10763 bound_to 10752
  154.1218  135.6547  153.4908 H   0  0  0  0  0  0  0  0  0  0  0  0  # atno 10764 bound_to 10752
  153.0330  135.5289  154.7288 H   0  0  0  0  0  0  0  0  0  0  0  0  # atno 10765 bound_to 10752
  140.1194  134.8873  157.2051 H   0  0  0  0  0  0  0  0  0  0  0  0  # atno 11005 bound_to 11000
  144.7661  140.5532  143.6702 LP  0  0  0  0  0  0  0  0  0  0  0  0  # atno 17320 bound_to 7965
  145.5325  139.1475  143.3491 LP  0  0  0  0  0  0  0  0  0  0  0  0  # atno 17321 bound_to 7965
  140.7738  143.5262  150.9477 LP  0  0  0  0  0  0  0  0  0  0  0  0  # atno 17342 bound_to 10162
  139.8948  143.6909  152.3140 LP  0  0  0  0  0  0  0  0  0  0  0  0  # atno 17343 bound_to 10162
  156.9413  130.5386  149.5280 LP  0  0  0  0  0  0  0  0  0  0  0  0  # atno 17370 bound_to 10713
  156.0496  130.5567  150.8959 LP  0  0  0  0  0  0  0  0  0  0  0  0  # atno 17371 bound_to 10713
  140.2985  134.3159  155.7296 LP  0  0  0  0  0  0  0  0  0  0  0  0  # atno 17394 bound_to 11000
  141.2148  133.7577  156.9606 LP  0  0  0  0  0  0  0  0  0  0  0  0  # atno 17395 bound_to 11000

$$$$
