AV-unprocessed.smi:114|AV-procd|sdf|1115|dock4
  -GOLD-   2262018233D 1   1.00000     0.00000
 Structure written by MMmdl.
 32 34  0  0  0  0  0  0  0  0  1 V2000
  153.3787  138.1574  155.6983 N   0  0  0  0  0  0  0  0  0  0  0  0
  152.5528  139.0770  156.2172 C   0  0  0  0  0  0  0  0  0  0  0  0
  152.8579  139.6102  157.4232 N   0  0  0  0  0  0  0  0  0  0  0  0
  152.0589  140.5306  157.9770 C   0  0  0  0  0  0  0  0  0  0  0  0
  152.4406  141.0120  159.1833 F   0  0  0  0  0  0  0  0  0  0  0  0
  150.9247  141.0283  157.4729 N   0  0  0  0  0  0  0  0  0  0  0  0
  150.6130  140.4934  156.2569 C   0  0  0  0  0  0  0  0  0  0  0  0
  151.3757  139.5161  155.5632 C   0  0  0  0  0  0  0  0  0  0  0  0
  150.7638  139.2060  154.3565 N   0  0  0  0  0  0  0  0  0  0  0  0
  149.6982  139.9613  154.3421 C   0  0  0  0  0  0  0  0  0  0  0  0
  149.5267  140.7635  155.4490 N   0  0  0  0  0  0  0  0  0  0  0  0
  148.4113  141.7213  155.7157 C   0  0  2  0  0  0  0  0  0  0  0  0
  147.7320  141.2884  156.8538 O   0  0  0  0  0  0  0  0  0  0  0  0
  146.3296  141.4249  156.6570 C   0  0  2  0  0  0  0  0  0  0  0  0
  145.5785  140.4502  157.5767 C   0  0  0  0  0  0  0  0  0  0  0  0
  145.6449  140.8964  158.9143 O   0  0  0  0  0  0  0  0  0  0  0  0
  146.1723  141.1048  155.1693 C   0  0  1  0  0  0  0  0  0  0  0  0
  144.9577  141.5915  154.6286 O   0  0  0  0  0  0  0  0  0  0  0  0
  147.4131  141.7416  154.5460 C   0  0  1  0  0  0  0  0  0  0  0  0
  147.1748  143.0679  154.1110 O   0  0  0  0  0  0  0  0  0  0  0  0
  148.9015  142.6795  155.8946 H   0  0  0  0  0  0  0  0  0  0  0  0
  146.0362  142.4600  156.8448 H   0  0  0  0  0  0  0  0  0  0  0  0
  146.2087  140.0254  155.0204 H   0  0  0  0  0  0  0  0  0  0  0  0
  147.7832  141.1593  153.7008 H   0  0  0  0  0  0  0  0  0  0  0  0
  153.1708  137.7452  154.7999 H   0  0  0  0  0  0  0  0  0  0  0  0
  154.2064  137.8790  156.2050 H   0  0  0  0  0  0  0  0  0  0  0  0
  148.9997  139.9505  153.5178 H   0  0  0  0  0  0  0  0  0  0  0  0
  144.5248  140.4084  157.2993 H   0  0  0  0  0  0  0  0  0  0  0  0
  145.9756  139.4382  157.4910 H   0  0  0  0  0  0  0  0  0  0  0  0
  144.7720  141.1181  159.2006 H   0  0  0  0  0  0  0  0  0  0  0  0
  144.6657  140.9892  153.9615 H   0  0  0  0  0  0  0  0  0  0  0  0
  147.7881  143.6394  154.5475 H   0  0  0  0  0  0  0  0  0  0  0  0
  1  2  1  0  0  0  0
  1 25  1  0  0  0  0
  1 26  1  0  0  0  0
  2  8  1  0  0  0  0
  2  3  2  0  0  0  0
  3  4  1  0  0  0  0
  4  5  1  0  0  0  0
  4  6  2  0  0  0  0
  6  7  1  0  0  0  0
  7 11  1  0  0  0  0
  7  8  2  0  0  0  0
  8  9  1  0  0  0  0
  9 10  2  0  0  0  0
 10 11  1  0  0  0  0
 10 27  1  0  0  0  0
 11 12  1  0  0  0  0
 12 21  1  0  0  0  0
 12 19  1  0  0  0  0
 12 13  1  0  0  0  0
 13 14  1  0  0  0  0
 14 22  1  0  0  0  0
 14 15  1  0  0  0  0
 14 17  1  0  0  0  0
 15 16  1  0  0  0  0
 15 28  1  0  0  0  0
 15 29  1  0  0  0  0
 16 30  1  0  0  0  0
 17 23  1  0  0  0  0
 17 18  1  0  0  0  0
 17 19  1  0  0  0  0
 18 31  1  0  0  0  0
 19 24  1  0  0  0  0
 19 20  1  0  0  0  0
 20 32  1  0  0  0  0
M  END
> <s_m_source_file>
AV-unprocessed.smi

> <i_m_source_file_index>
114

> <i_lp_mmshare_version>
43012

> <i_f3d_flags>
0

> <s_epik_input>
RmMobjEpbmMoW05IMl0pYyhjMTIpbltjSF1uMltDQEBIXTNPW0NASF0oW0NIMl1bT0hdKVtDQEBIXShbT0hdKVtDQEBIXTNbT0hd

> <s_epik_cmdline>
J2VwaWtfcHl0aG9uJywgJy1waCcsICc3LjAnLCAnLXRuJywgJzgnLCAnLW1hJywgJzIwMCcsICctbWV0YWxfYmluZGluZycsICctaW1hZScsICc8aW5maWxlLm1hZT4nLCAnLW9tYWUnLCAnPG91dGZpbGUubWFlPic=

> <r_lp_tautomer_probability>
1

> <r_epik_Ionization_Penalty>
1.13199e-05

> <r_epik_Ionization_Penalty_Charging>
0

> <r_epik_Ionization_Penalty_Neutral>
1.13199e-05

> <r_epik_State_Penalty>
-0

> <r_epik_Charging_Adjusted_Penalty>
0

> <i_epik_Tot_Q>
0

> <i_epik_Tot_abs_Q>
0

> <r_epik_Metal_State_Penalty>
-0

> <b_epik_Metal_Only>
0

> <s_epik_Chemistry_Notes>
This compound contains an acetal/aminal-like group ( X-CH(R)-Y where X, Y are N, S, or O) that may be acid/base labile, releasing an aldehyde.

> <s_lp_Force_Field>
OPLS_2005

> <r_lp_Energy>
39.1628

> <b_lp_Chiralities_Consistent>
1

> <s_lp_Variant>
AV-unprocessed.smi:114-9

> <Gold.Version>
5.8.1

> <Gold.Id.Protein>
6NUR|6NUR_protein|mol2

> <Gold.PLP.Fitness>
39.5338

> <Gold.PLP.PLP>
-26.2859

> <Gold.PLP.part.hbond>
-5.9624

> <Gold.PLP.part.metal>
0.0000

> <Gold.PLP.part.buried>
0.9617

> <Gold.PLP.part.nonpolar>
-21.5870

> <Gold.PLP.part.repulsive>
0.5882

> <Gold.PLP.ligand.clash>
0.0000

> <Gold.PLP.ligand.torsion>
0.0591

> <Gold.PLP.Chemscore.Hbond>
3.6970

> <Gold.PLP.Chemscore.CHOScore>
0.7541

> <Gold.PLP.Chemscore.Metal>
0.0000

> <Gold.Chemscore.Hbonds>
donor molecule, donor type, donor heavy atom, donor atom, acceptor molecule, acceptor atom, score
      L1  H    18    31       P1 10175  1.00
      L1  H    20    32       P1  8028  1.00
      P1  H  6934  6946       L1    16  0.36
      P1  H  7989  7998       L1     9  0.07
      P1  H  7997  8010       L1     3  0.40
      L1  C    10    27       P1  7957  0.91

> <Gold.PLP.Chemscore.Internal.Correction>
0.0128

> <Gold.Rescore>
     Score         DG    S(hbond)    S(metal)    S(lipo)     H(rot)  DE(clash)    DE(int)     intcor
      4.56      -4.68       2.29        0.00      16.00       4.03       0.04       0.08       ----

> <Gold.Chemscore.Fitness>
4.5583

> <Gold.Chemscore.DG>
-4.6772

> <Gold.Chemscore.ZeroCoef>
-5.4800

> <Gold.Chemscore.Hbond>
2.2861

> <Gold.Chemscore.Metal>
0.0000

> <Gold.Chemscore.Lipo>
16.0037

> <Gold.Chemscore.Internal_Hbond>
0.0000

> <Gold.Chemscore.DEClash>
0.0407

> <Gold.Chemscore.DEInternal>
0.0782

> <Gold.Chemscore.Rot>
4.0277

> <Gold.Chemscore.Internal.Correction>
   9.000000E+99

> <Gold.Chemscore.Hbonds>
donor molecule, donor type, donor heavy atom, donor atom, acceptor molecule, acceptor atom, score
      L1  H    18    31       P1 10175  0.83
      L1  H    20    32       P1  8028  0.45
      P1  H  6934  6946       L1    16  0.22
      P1  H  7997  8010       L1     3  0.01

> <Gold.Chemscore.Hbond.Weighted>
-7.6357

> <Gold.Chemscore.Metal.Weighted>
-0.0000

> <Gold.Chemscore.Lipo.Weighted>
-1.8724

> <Gold.Chemscore.Internal_Hbond.Weighted>
0.0000

> <Gold.Chemscore.DEClash.Weighted>
0.0407

> <Gold.Chemscore.DEInternal.Weighted>
0.0782

> <Gold.Chemscore.Rot.Weighted>
10.3110

> <Gold.Chemscore.Internal.Correction.Weighted>
   9.000000E+99

> <Gold.Protein.RotatedTorsions>
[ 6907 6896 6895 6894 ] final   97.04 input  -60.11 | X-H torsion
[ 7974 7965 7964 7962 ] final  -69.08 input  175.53 | X-H torsion
[ 8008 7997 7996 7995 ] final   53.15 input   59.86 | X-H torsion
[ 10167 10162 10161 10158 ] final  -97.11 input  -65.29 | X-H torsion
[ 10718 10713 10712 10709 ] final -170.84 input   66.30 | X-H torsion
[ 10763 10752 10751 10750 ] final   73.84 input  -60.55 | X-H torsion
[ 11005 11000 10999 10996 ] final   57.18 input  -57.11 | X-H torsion

> <Gold.Protein.ActiveResidues>
 VAL166  LYS551  ARG553  GLY616  TRP617  ASP618  TYR619  PRO620  LYS621  CYS622 
 ASP623  PHE694  ASN695  SER759  ASP760  ASP761  ALA762  ILE779  LEU786  VAL792 
 PHE793  MET794  SER795  GLU796  ALA797  LYS798  CYS799  TRP800  GLU811  SER814 

> <Gold.Protein.RotatedAtoms>
  152.5428  134.0793  159.8228 H   0  0  0  0  0  0  0  0  0  0  0  0  # atno 6907 bound_to 6896
  151.0897  133.5318  159.2623 H   0  0  0  0  0  0  0  0  0  0  0  0  # atno 6908 bound_to 6896
  151.2114  135.0491  159.8967 H   0  0  0  0  0  0  0  0  0  0  0  0  # atno 6909 bound_to 6896
  145.7083  140.9089  143.0694 H   0  0  0  0  0  0  0  0  0  0  0  0  # atno 7974 bound_to 7965
  155.4636  140.3462  155.4316 H   0  0  0  0  0  0  0  0  0  0  0  0  # atno 8008 bound_to 7997
  156.1145  140.1470  156.9321 H   0  0  0  0  0  0  0  0  0  0  0  0  # atno 8009 bound_to 7997
  154.4779  140.0879  156.7286 H   0  0  0  0  0  0  0  0  0  0  0  0  # atno 8010 bound_to 7997
  140.2868  143.3247  152.0386 H   0  0  0  0  0  0  0  0  0  0  0  0  # atno 10167 bound_to 10162
  156.7320  130.9310  151.3105 H   0  0  0  0  0  0  0  0  0  0  0  0  # atno 10718 bound_to 10713
  153.0548  135.5048  154.7954 H   0  0  0  0  0  0  0  0  0  0  0  0  # atno 10763 bound_to 10752
  154.6788  135.2965  154.9644 H   0  0  0  0  0  0  0  0  0  0  0  0  # atno 10764 bound_to 10752
  154.0437  135.6713  153.4845 H   0  0  0  0  0  0  0  0  0  0  0  0  # atno 10765 bound_to 10752
  140.0472  134.5789  155.9308 H   0  0  0  0  0  0  0  0  0  0  0  0  # atno 11005 bound_to 11000
  144.6949  139.9040  143.7460 LP  0  0  0  0  0  0  0  0  0  0  0  0  # atno 17320 bound_to 7965
  146.0736  139.3724  143.0508 LP  0  0  0  0  0  0  0  0  0  0  0  0  # atno 17321 bound_to 7965
  139.4948  144.6553  151.6585 LP  0  0  0  0  0  0  0  0  0  0  0  0  # atno 17342 bound_to 10162
  140.5766  144.0018  150.6245 LP  0  0  0  0  0  0  0  0  0  0  0  0  # atno 17343 bound_to 10162
  157.6854  130.9181  150.0374 LP  0  0  0  0  0  0  0  0  0  0  0  0  # atno 17370 bound_to 10713
  156.1522  130.3642  149.9421 LP  0  0  0  0  0  0  0  0  0  0  0  0  # atno 17371 bound_to 10713
  141.1913  133.6571  156.5449 LP  0  0  0  0  0  0  0  0  0  0  0  0  # atno 17394 bound_to 11000
  140.3975  134.7386  157.4759 LP  0  0  0  0  0  0  0  0  0  0  0  0  # atno 17395 bound_to 11000

$$$$
