AV-unprocessed.smi:55|AV-procd|sdf|563|dock4
  -GOLD-   2262016463D 1   1.00000     0.00000
 Structure written by MMmdl.
 31 32  0  0  0  0  0  0  0  0  1 V2000
  151.8140  144.4862  157.9270 C   0  0  0  0  0  0  0  0  0  0  0  0
  151.7104  142.9721  158.0066 C   0  0  0  0  0  0  0  0  0  0  0  0
  150.7412  142.2736  157.3617 C   0  0  0  0  0  0  0  0  0  0  0  0
  150.6160  140.8908  157.4118 N   0  0  0  0  0  0  0  0  0  0  0  0
  149.4507  140.1822  156.7509 C   0  0  2  0  0  0  0  0  0  0  0  0
  149.8317  139.3689  155.4992 C   0  0  0  0  0  0  0  0  0  0  0  0
  149.0095  140.0198  154.3953 C   0  0  2  0  0  0  0  0  0  0  0  0
  149.8028  140.9003  153.6224 O   0  0  0  0  0  0  0  0  0  0  0  0
  147.9008  140.7523  155.1683 C   0  0  2  0  0  0  0  0  0  0  0  0
  147.2356  141.9512  154.4700 C   0  0  0  0  0  0  0  0  0  0  0  0
  148.2087  142.9015  154.0922 O   0  0  0  0  0  0  0  0  0  0  0  0
  148.5264  141.1543  156.3780 O   0  0  0  0  0  0  0  0  0  0  0  0
  151.4734  140.1619  158.2661 C   0  0  0  0  0  0  0  0  0  0  0  0
  151.3725  138.9494  158.4489 O   0  0  0  0  0  0  0  0  0  0  0  0
  152.4790  140.8752  158.9165 N   0  0  0  0  0  0  0  0  0  0  0  0
  152.6813  142.2542  158.8353 C   0  0  0  0  0  0  0  0  0  0  0  0
  153.6155  142.7690  159.4477 O   0  0  0  0  0  0  0  0  0  0  0  0
  149.0055  139.5221  157.4966 H   0  0  0  0  0  0  0  0  0  0  0  0
  148.5899  139.2733  153.7203 H   0  0  0  0  0  0  0  0  0  0  0  0
  147.1316  140.0270  155.4412 H   0  0  0  0  0  0  0  0  0  0  0  0
  153.1076  140.3513  159.5078 H   0  0  0  0  0  0  0  0  0  0  0  0
  151.0408  144.9119  157.2870 H   0  0  0  0  0  0  0  0  0  0  0  0
  152.7829  144.7812  157.5223 H   0  0  0  0  0  0  0  0  0  0  0  0
  151.7074  144.9279  158.9184 H   0  0  0  0  0  0  0  0  0  0  0  0
  150.0207  142.8378  156.7911 H   0  0  0  0  0  0  0  0  0  0  0  0
  150.9045  139.3400  155.3082 H   0  0  0  0  0  0  0  0  0  0  0  0
  149.5015  138.3407  155.6539 H   0  0  0  0  0  0  0  0  0  0  0  0
  149.9920  140.4833  152.7956 H   0  0  0  0  0  0  0  0  0  0  0  0
  146.7181  141.6151  153.5713 H   0  0  0  0  0  0  0  0  0  0  0  0
  146.4874  142.4226  155.1076 H   0  0  0  0  0  0  0  0  0  0  0  0
  149.0502  142.6122  154.4113 H   0  0  0  0  0  0  0  0  0  0  0  0
  1  2  1  0  0  0  0
  1 22  1  0  0  0  0
  1 23  1  0  0  0  0
  1 24  1  0  0  0  0
  2 16  1  0  0  0  0
  2  3  2  0  0  0  0
  3  4  1  0  0  0  0
  3 25  1  0  0  0  0
  4  5  1  0  0  0  0
  4 13  1  0  0  0  0
  5 18  1  0  0  0  0
  5 12  1  0  0  0  0
  5  6  1  0  0  0  0
  6  7  1  0  0  0  0
  6 26  1  0  0  0  0
  6 27  1  0  0  0  0
  7 19  1  0  0  0  0
  7  8  1  0  0  0  0
  7  9  1  0  0  0  0
  8 28  1  0  0  0  0
  9 20  1  0  0  0  0
  9 10  1  0  0  0  0
  9 12  1  0  0  0  0
 10 11  1  0  0  0  0
 10 29  1  0  0  0  0
 10 30  1  0  0  0  0
 11 31  1  0  0  0  0
 13 14  2  0  0  0  0
 13 15  1  0  0  0  0
 15 21  1  0  0  0  0
 15 16  1  0  0  0  0
 16 17  2  0  0  0  0
M  END
> <s_m_source_file>
AV-unprocessed.smi

> <i_m_source_file_index>
55

> <i_lp_mmshare_version>
43012

> <i_f3d_flags>
0

> <s_epik_input>
Tz1jMVtuSF1jKD1PKW4oW2NIXWMxW0NIM10pW0NAQEhdMltDSDJdW0NAQEhdKFtPSF0pW0NAQEhdKE8yKVtDSDJdW09IXQ==

> <s_epik_cmdline>
J2VwaWtfcHl0aG9uJywgJy1waCcsICc3LjAnLCAnLXRuJywgJzgnLCAnLW1hJywgJzIwMCcsICctbWV0YWxfYmluZGluZycsICctaW1hZScsICc8aW5maWxlLm1hZT4nLCAnLW9tYWUnLCAnPG91dGZpbGUubWFlPic=

> <r_lp_tautomer_probability>
0.999537

> <r_epik_Ionization_Penalty>
0.00121888

> <r_epik_Ionization_Penalty_Charging>
0.00121876

> <r_epik_Ionization_Penalty_Neutral>
1.19946e-07

> <r_epik_State_Penalty>
0.000805124

> <r_epik_Charging_Adjusted_Penalty>
0.00202389

> <i_epik_Tot_Q>
0

> <i_epik_Tot_abs_Q>
0

> <r_epik_Metal_State_Penalty>
0.662472

> <b_epik_Metal_Only>
0

> <s_epik_Chemistry_Notes>
This compound contains an acetal/aminal-like group ( X-CH(R)-Y where X, Y are N, S, or O) that may be acid/base labile, releasing an aldehyde.

> <s_lp_Force_Field>
OPLS_2005

> <r_lp_Energy>
26.1821

> <b_lp_Chiralities_Consistent>
1

> <s_lp_Variant>
AV-unprocessed.smi:55-3

> <Gold.Version>
5.8.1

> <Gold.Id.Protein>
6NUR|6NUR_protein|mol2

> <Gold.PLP.Fitness>
38.8338

> <Gold.PLP.PLP>
-30.5591

> <Gold.PLP.part.hbond>
-5.4245

> <Gold.PLP.part.metal>
0.0000

> <Gold.PLP.part.buried>
-3.1188

> <Gold.PLP.part.nonpolar>
-21.1870

> <Gold.PLP.part.repulsive>
0.1921

> <Gold.PLP.ligand.clash>
0.0000

> <Gold.PLP.ligand.torsion>
0.4007

> <Gold.PLP.Chemscore.Hbond>
1.9920

> <Gold.PLP.Chemscore.CHOScore>
1.0000

> <Gold.PLP.Chemscore.Metal>
0.0000

> <Gold.Chemscore.Hbonds>
donor molecule, donor type, donor heavy atom, donor atom, acceptor molecule, acceptor atom, score
      L1  H     8    28       P1  7957  1.00
      P1  H  8022  8030       L1    11  0.99
      L1  C     3    25       P1  8028  1.00

> <Gold.PLP.Chemscore.Internal.Correction>
0.1003

> <Gold.Rescore>
     Score         DG    S(hbond)    S(metal)    S(lipo)     H(rot)  DE(clash)    DE(int)     intcor
     10.50     -10.77       1.89        0.00      50.85       2.73       0.03       0.24       ----

> <Gold.Chemscore.Fitness>
10.4975

> <Gold.Chemscore.DG>
-10.7714

> <Gold.Chemscore.ZeroCoef>
-5.4800

> <Gold.Chemscore.Hbond>
1.8917

> <Gold.Chemscore.Metal>
0.0000

> <Gold.Chemscore.Lipo>
50.8535

> <Gold.Chemscore.Internal_Hbond>
0.0000

> <Gold.Chemscore.DEClash>
0.0323

> <Gold.Chemscore.DEInternal>
0.2416

> <Gold.Chemscore.Rot>
2.7253

> <Gold.Chemscore.Internal.Correction>
   9.000000E+99

> <Gold.Chemscore.Hbonds>
donor molecule, donor type, donor heavy atom, donor atom, acceptor molecule, acceptor atom, score
      L1  H     8    28       P1  7957  0.98
      P1  H  8022  8030       L1    11  0.32

> <Gold.Chemscore.Hbond.Weighted>
-6.3184

> <Gold.Chemscore.Metal.Weighted>
-0.0000

> <Gold.Chemscore.Lipo.Weighted>
-5.9499

> <Gold.Chemscore.Internal_Hbond.Weighted>
0.0000

> <Gold.Chemscore.DEClash.Weighted>
0.0323

> <Gold.Chemscore.DEInternal.Weighted>
0.2416

> <Gold.Chemscore.Rot.Weighted>
6.9769

> <Gold.Chemscore.Internal.Correction.Weighted>
   9.000000E+99

> <Gold.Protein.RotatedTorsions>
[ 6907 6896 6895 6894 ] final  -17.24 input  -60.11 | X-H torsion
[ 7974 7965 7964 7962 ] final -126.91 input  175.53 | X-H torsion
[ 8008 7997 7996 7995 ] final  153.71 input   59.86 | X-H torsion
[ 10167 10162 10161 10158 ] final   -0.65 input  -65.29 | X-H torsion
[ 10718 10713 10712 10709 ] final  138.66 input   66.30 | X-H torsion
[ 10763 10752 10751 10750 ] final   54.83 input  -60.55 | X-H torsion
[ 11005 11000 10999 10996 ] final  -64.11 input  -57.11 | X-H torsion

> <Gold.Protein.ActiveResidues>
 VAL166  LYS551  ARG553  GLY616  TRP617  ASP618  TYR619  PRO620  LYS621  CYS622 
 ASP623  PHE694  ASN695  SER759  ASP760  ASP761  ALA762  ILE779  LEU786  VAL792 
 PHE793  MET794  SER795  GLU796  ALA797  LYS798  CYS799  TRP800  GLU811  SER814 

> <Gold.Protein.RotatedAtoms>
  151.2963  135.0756  159.9222 H   0  0  0  0  0  0  0  0  0  0  0  0  # atno 6907 bound_to 6896
  152.5306  133.9879  159.7847 H   0  0  0  0  0  0  0  0  0  0  0  0  # atno 6908 bound_to 6896
  151.0158  133.5871  159.2707 H   0  0  0  0  0  0  0  0  0  0  0  0  # atno 6909 bound_to 6896
  144.9824  140.7653  143.4604 H   0  0  0  0  0  0  0  0  0  0  0  0  # atno 7974 bound_to 7965
  156.2568  140.1986  156.6532 H   0  0  0  0  0  0  0  0  0  0  0  0  # atno 8008 bound_to 7997
  154.6521  140.0571  156.9992 H   0  0  0  0  0  0  0  0  0  0  0  0  # atno 8009 bound_to 7997
  155.1403  140.3242  155.4456 H   0  0  0  0  0  0  0  0  0  0  0  0  # atno 8010 bound_to 7997
  140.6776  143.6869  150.8059 H   0  0  0  0  0  0  0  0  0  0  0  0  # atno 10167 bound_to 10162
  157.4229  131.1040  151.0334 H   0  0  0  0  0  0  0  0  0  0  0  0  # atno 10718 bound_to 10713
  152.9809  135.5731  154.4968 H   0  0  0  0  0  0  0  0  0  0  0  0  # atno 10763 bound_to 10752
  154.4493  135.2778  155.1794 H   0  0  0  0  0  0  0  0  0  0  0  0  # atno 10764 bound_to 10752
  154.3428  135.6225  153.5658 H   0  0  0  0  0  0  0  0  0  0  0  0  # atno 10765 bound_to 10752
  141.1414  133.6661  156.5784 H   0  0  0  0  0  0  0  0  0  0  0  0  # atno 11005 bound_to 11000
  145.2402  139.2076  143.4997 LP  0  0  0  0  0  0  0  0  0  0  0  0  # atno 17320 bound_to 7965
  146.3411  140.2296  142.8593 LP  0  0  0  0  0  0  0  0  0  0  0  0  # atno 17321 bound_to 7965
  140.0565  143.5197  152.2648 LP  0  0  0  0  0  0  0  0  0  0  0  0  # atno 17342 bound_to 10162
  139.6078  144.7601  151.3021 LP  0  0  0  0  0  0  0  0  0  0  0  0  # atno 17343 bound_to 10162
  157.1258  130.6081  149.5516 LP  0  0  0  0  0  0  0  0  0  0  0  0  # atno 17370 bound_to 10713
  155.9886  130.4931  150.7180 LP  0  0  0  0  0  0  0  0  0  0  0  0  # atno 17371 bound_to 10713
  140.3858  134.7484  157.4690 LP  0  0  0  0  0  0  0  0  0  0  0  0  # atno 17394 bound_to 11000
  140.0603  134.6004  155.8756 LP  0  0  0  0  0  0  0  0  0  0  0  0  # atno 17395 bound_to 11000

$$$$
