AV-unprocessed.smi:295|AV-procd|sdf|2256|dock5
  -GOLD-   2262022143D 1   1.00000     0.00000
 Structure written by MMmdl.
 35 36  0  0  0  0  0  0  0  0  1 V2000
  153.8257  140.4239  160.5544 C   0  0  0  0  0  0  0  0  0  0  0  0
  153.5951  141.9449  160.6058 C   0  0  2  0  0  0  0  0  0  0  0  0
  152.6696  142.3301  161.7789 C   0  0  0  0  0  0  0  0  0  0  0  0
  152.4763  143.8518  161.8713 C   0  0  0  0  0  0  0  0  0  0  0  0
  151.9463  144.4293  160.5507 C   0  0  0  0  0  0  0  0  0  0  0  0
  152.8610  144.0532  159.3716 C   0  0  0  0  0  0  0  0  0  0  0  0
  153.0813  142.5309  159.2646 C   0  0  2  0  0  0  0  0  0  0  0  0
  151.8428  141.8776  158.8438 N   0  0  0  0  0  0  0  0  0  0  0  0
  151.0256  142.2739  157.8555 C   0  0  0  0  0  0  0  0  0  0  0  0
  151.1658  143.3220  157.2265 O   0  0  0  0  0  0  0  0  0  0  0  0
  149.8917  141.3121  157.5007 C   0  0  0  0  0  0  0  0  0  0  0  0
  150.2330  140.5414  156.3180 N   0  0  0  0  0  0  0  0  0  0  0  0
  149.8320  140.6759  155.0495 C   0  0  0  0  0  0  0  0  0  0  0  0
  150.3938  139.8129  154.2119 N   0  0  0  0  0  0  0  0  0  0  0  0
  151.1794  139.1366  155.0997 C   0  0  0  0  0  0  0  0  0  0  0  0
  152.0494  138.0542  154.6731 C   0  0  0  0  0  0  0  0  0  0  0  0
  152.7417  137.1916  154.3332 N   0  0  0  0  0  0  0  0  0  0  0  0
  151.1237  139.5203  156.3731 N   0  0  0  0  0  0  0  0  0  0  0  0
  152.8897  139.8754  160.4458 H   0  0  0  0  0  0  0  0  0  0  0  0
  154.3052  140.0724  161.4682 H   0  0  0  0  0  0  0  0  0  0  0  0
  154.4707  140.1523  159.7185 H   0  0  0  0  0  0  0  0  0  0  0  0
  154.5669  142.4017  160.7987 H   0  0  0  0  0  0  0  0  0  0  0  0
  151.6991  141.8448  161.6642 H   0  0  0  0  0  0  0  0  0  0  0  0
  153.0857  141.9605  162.7166 H   0  0  0  0  0  0  0  0  0  0  0  0
  151.7889  144.0898  162.6833 H   0  0  0  0  0  0  0  0  0  0  0  0
  153.4264  144.3252  162.1218 H   0  0  0  0  0  0  0  0  0  0  0  0
  150.9360  144.0604  160.3695 H   0  0  0  0  0  0  0  0  0  0  0  0
  151.8672  145.5141  160.6261 H   0  0  0  0  0  0  0  0  0  0  0  0
  152.4474  144.4408  158.4397 H   0  0  0  0  0  0  0  0  0  0  0  0
  153.8262  144.5444  159.5007 H   0  0  0  0  0  0  0  0  0  0  0  0
  153.8496  142.3673  158.5070 H   0  0  0  0  0  0  0  0  0  0  0  0
  151.6282  141.0006  159.2966 H   0  0  0  0  0  0  0  0  0  0  0  0
  149.6970  140.6367  158.3350 H   0  0  0  0  0  0  0  0  0  0  0  0
  148.9722  141.8665  157.3078 H   0  0  0  0  0  0  0  0  0  0  0  0
  149.1269  141.4299  154.7315 H   0  0  0  0  0  0  0  0  0  0  0  0
  1  2  1  0  0  0  0
  1 19  1  0  0  0  0
  1 20  1  0  0  0  0
  1 21  1  0  0  0  0
  2  7  1  0  0  0  0
  2  3  1  0  0  0  0
  2 22  1  0  0  0  0
  3  4  1  0  0  0  0
  3 23  1  0  0  0  0
  3 24  1  0  0  0  0
  4  5  1  0  0  0  0
  4 25  1  0  0  0  0
  4 26  1  0  0  0  0
  5  6  1  0  0  0  0
  5 27  1  0  0  0  0
  5 28  1  0  0  0  0
  6  7  1  0  0  0  0
  6 29  1  0  0  0  0
  6 30  1  0  0  0  0
  7  8  1  0  0  0  0
  7 31  1  0  0  0  0
  8  9  1  0  0  0  0
  8 32  1  0  0  0  0
  9 10  2  0  0  0  0
  9 11  1  0  0  0  0
 11 12  1  0  0  0  0
 11 33  1  0  0  0  0
 11 34  1  0  0  0  0
 12 18  1  0  0  0  0
 12 13  1  0  0  0  0
 13 14  2  0  0  0  0
 13 35  1  0  0  0  0
 14 15  1  0  0  0  0
 15 16  1  0  0  0  0
 15 18  2  0  0  0  0
 16 17  3  0  0  0  0
M  END
> <s_m_source_file>
AV-unprocessed.smi

> <i_m_source_file_index>
295

> <i_lp_mmshare_version>
43012

> <i_f3d_flags>
0

> <s_epik_input>
W0NIM11bQ0BASF0xW0NIMl1bQ0gyXVtDSDJdW0NIMl1bQ0BIXTFbTkhdQyg9TylbQ0gyXW4yW2NIXW5jKG4yKUMjTg==

> <s_epik_cmdline>
J2VwaWtfcHl0aG9uJywgJy1waCcsICc3LjAnLCAnLXRuJywgJzgnLCAnLW1hJywgJzIwMCcsICctbWV0YWxfYmluZGluZycsICctaW1hZScsICc8aW5maWxlLm1hZT4nLCAnLW9tYWUnLCAnPG91dGZpbGUubWFlPic=

> <r_lp_tautomer_probability>
1

> <r_epik_Ionization_Penalty>
5.31112e-08

> <r_epik_Ionization_Penalty_Charging>
0

> <r_epik_Ionization_Penalty_Neutral>
5.31112e-08

> <r_epik_State_Penalty>
-0

> <r_epik_Charging_Adjusted_Penalty>
0

> <i_epik_Tot_Q>
0

> <i_epik_Tot_abs_Q>
0

> <r_epik_Metal_State_Penalty>
-0

> <b_epik_Metal_Only>
0

> <s_lp_Force_Field>
OPLS_2005

> <r_lp_Energy>
12.1326

> <b_lp_Chiralities_Consistent>
1

> <s_lp_Variant>
AV-unprocessed.smi:295-3

> <Gold.Version>
5.8.1

> <Gold.Id.Protein>
6NUR|6NUR_protein|mol2

> <Gold.PLP.Fitness>
46.0066

> <Gold.PLP.PLP>
-43.0075

> <Gold.PLP.part.hbond>
-1.6351

> <Gold.PLP.part.metal>
0.0000

> <Gold.PLP.part.buried>
-6.2713

> <Gold.PLP.part.nonpolar>
-36.0024

> <Gold.PLP.part.repulsive>
1.3150

> <Gold.PLP.ligand.clash>
0.0000

> <Gold.PLP.ligand.torsion>
0.6222

> <Gold.PLP.Chemscore.Hbond>
1.4100

> <Gold.PLP.Chemscore.CHOScore>
0.0000

> <Gold.PLP.Chemscore.Metal>
0.0000

> <Gold.Chemscore.Hbonds>
donor molecule, donor type, donor heavy atom, donor atom, acceptor molecule, acceptor atom, score
      P1  H  7989  7998       L1    14  1.00
      P1  H 10752 10763       L1    17  0.51

> <Gold.PLP.Chemscore.Internal.Correction>
0.0134

> <Gold.Rescore>
     Score         DG    S(hbond)    S(metal)    S(lipo)     H(rot)  DE(clash)    DE(int)     intcor
     10.96     -12.82       0.81        0.00      82.23       1.95       0.12       1.74       ----

> <Gold.Chemscore.Fitness>
10.9626

> <Gold.Chemscore.DG>
-12.8225

> <Gold.Chemscore.ZeroCoef>
-5.4800

> <Gold.Chemscore.Hbond>
0.8104

> <Gold.Chemscore.Metal>
0.0000

> <Gold.Chemscore.Lipo>
82.2311

> <Gold.Chemscore.Internal_Hbond>
0.0000

> <Gold.Chemscore.DEClash>
0.1218

> <Gold.Chemscore.DEInternal>
1.7381

> <Gold.Chemscore.Rot>
1.9474

> <Gold.Chemscore.Internal.Correction>
   9.000000E+99

> <Gold.Chemscore.Hbonds>
donor molecule, donor type, donor heavy atom, donor atom, acceptor molecule, acceptor atom, score
      P1  H  7989  7998       L1    14  0.07
      P1  H 10752 10763       L1    17  0.46

> <Gold.Chemscore.Hbond.Weighted>
-2.7067

> <Gold.Chemscore.Metal.Weighted>
-0.0000

> <Gold.Chemscore.Lipo.Weighted>
-9.6210

> <Gold.Chemscore.Internal_Hbond.Weighted>
0.0000

> <Gold.Chemscore.DEClash.Weighted>
0.1218

> <Gold.Chemscore.DEInternal.Weighted>
1.7381

> <Gold.Chemscore.Rot.Weighted>
4.9852

> <Gold.Chemscore.Internal.Correction.Weighted>
   9.000000E+99

> <Gold.Protein.RotatedTorsions>
[ 6907 6896 6895 6894 ] final   79.36 input  -60.11 | X-H torsion
[ 7974 7965 7964 7962 ] final  112.96 input  175.53 | X-H torsion
[ 8008 7997 7996 7995 ] final  145.47 input   59.86 | X-H torsion
[ 10167 10162 10161 10158 ] final  131.48 input  -65.29 | X-H torsion
[ 10718 10713 10712 10709 ] final  133.62 input   66.30 | X-H torsion
[ 10763 10752 10751 10750 ] final   25.29 input  -60.55 | X-H torsion
[ 11005 11000 10999 10996 ] final  -16.81 input  -57.11 | X-H torsion

> <Gold.Protein.ActiveResidues>
 VAL166  LYS551  ARG553  GLY616  TRP617  ASP618  TYR619  PRO620  LYS621  CYS622 
 ASP623  PHE694  ASN695  SER759  ASP760  ASP761  ALA762  ILE779  LEU786  VAL792 
 PHE793  MET794  SER795  GLU796  ALA797  LYS798  CYS799  TRP800  GLU811  SER814 

> <Gold.Protein.RotatedAtoms>
  152.5195  134.3523  159.9255 H   0  0  0  0  0  0  0  0  0  0  0  0  # atno 6907 bound_to 6896
  151.3474  133.3932  159.2684 H   0  0  0  0  0  0  0  0  0  0  0  0  # atno 6908 bound_to 6896
  150.9754  134.9138  159.7871 H   0  0  0  0  0  0  0  0  0  0  0  0  # atno 6909 bound_to 6896
  145.2230  139.2853  143.4208 H   0  0  0  0  0  0  0  0  0  0  0  0  # atno 7974 bound_to 7965
  156.2882  140.2208  156.5221 H   0  0  0  0  0  0  0  0  0  0  0  0  # atno 8008 bound_to 7997
  154.7520  140.0479  157.0923 H   0  0  0  0  0  0  0  0  0  0  0  0  # atno 8009 bound_to 7997
  155.0098  140.3111  155.4837 H   0  0  0  0  0  0  0  0  0  0  0  0  # atno 8010 bound_to 7997
  139.5382  144.6704  151.4713 H   0  0  0  0  0  0  0  0  0  0  0  0  # atno 10167 bound_to 10162
  157.4755  131.1083  150.9749 H   0  0  0  0  0  0  0  0  0  0  0  0  # atno 10718 bound_to 10713
  153.0703  135.6586  154.0263 H   0  0  0  0  0  0  0  0  0  0  0  0  # atno 10763 bound_to 10752
  153.9910  135.2946  155.3413 H   0  0  0  0  0  0  0  0  0  0  0  0  # atno 10764 bound_to 10752
  154.7075  135.5219  153.8686 H   0  0  0  0  0  0  0  0  0  0  0  0  # atno 10765 bound_to 10752
  140.8106  133.8144  155.9559 H   0  0  0  0  0  0  0  0  0  0  0  0  # atno 11005 bound_to 11000
  146.3371  140.2542  142.8599 LP  0  0  0  0  0  0  0  0  0  0  0  0  # atno 17320 bound_to 7965
  144.9747  140.8403  143.5433 LP  0  0  0  0  0  0  0  0  0  0  0  0  # atno 17321 bound_to 7965
  140.6599  143.8520  150.6876 LP  0  0  0  0  0  0  0  0  0  0  0  0  # atno 17342 bound_to 10162
  140.1911  143.4036  152.1862 LP  0  0  0  0  0  0  0  0  0  0  0  0  # atno 17343 bound_to 10162
  157.0499  130.5783  149.5369 LP  0  0  0  0  0  0  0  0  0  0  0  0  # atno 17370 bound_to 10713
  156.0095  130.5185  150.7940 LP  0  0  0  0  0  0  0  0  0  0  0  0  # atno 17371 bound_to 10713
  140.9202  134.2151  157.4931 LP  0  0  0  0  0  0  0  0  0  0  0  0  # atno 17394 bound_to 11000
  139.8714  134.9789  156.5014 LP  0  0  0  0  0  0  0  0  0  0  0  0  # atno 17395 bound_to 11000

$$$$
