#       Name:                AV-unprocessed.smi:37
#       Creating user name   scv26
#       Creation time:       Thu Mar 26 16:13:40 2020


#       File generated by GOLD software.
#

@<TRIPOS>MOLECULE
AV-unprocessed.smi:37
    54    55     1
SMALL
NO_CHARGES


@<TRIPOS>ATOM
      1 ****        -4.1879   1.7518  -1.8671 C.3            1 S1                 0.0000
      2 ****        -2.7370   1.2889  -1.6736 C.3            1 S1                 0.0000
      3 ****        -2.6088  -0.1846  -1.2832 C.2            1 S1                 0.0000
      4 ****        -3.5758  -0.9478  -1.2552 O.2            1 S1                 0.0000
      5 ****        -1.3434  -0.5165  -0.9918 O.3            1 S1                 0.0000
      6 ****        -1.0320  -1.8502  -0.6210 C.3            1 S1                 0.0000
      7 ****         0.4598  -1.9848  -0.2834 C.3            1 S1                 0.0000
      8 ****         1.2749  -1.7380  -1.4291 O.3            1 S1                 0.0000
      9 ****         2.1631  -0.6870  -1.1836 C.3            1 S1                 0.0000
     10 ****         1.5548   0.5866  -1.7594 N.am           1 S1                 0.0000
     11 ****         1.1320   1.6726  -0.9951 C.2            1 S1                 0.0000
     12 ****         0.5649   2.7793  -1.5314 C.2            1 S1                 0.0000
     13 ****         0.1821   3.7841  -0.7256 F              1 S1                 0.0000
     14 ****         0.3579   2.8903  -2.9710 C.2            1 S1                 0.0000
     15 ****        -0.1515   3.8493  -3.5468 O.2            1 S1                 0.0000
     16 ****         0.7890   1.7803  -3.6999 N.am           1 S1                 0.0000
     17 ****         1.3753   0.6344  -3.1614 C.2            1 S1                 0.0000
     18 ****         1.7137  -0.2849  -3.9057 O.2            1 S1                 0.0000
     19 ****         2.3602  -0.6845   0.3362 C.3            1 S1                 0.0000
     20 ****         3.6710  -2.1191   0.7952 Br             1 S1                 0.0000
     21 ****         0.9652  -1.0594   0.8308 C.3            1 S1                 0.0000
     22 ****         0.9793  -1.7061   2.0969 O.3            1 S1                 0.0000
     23 ****         0.9884  -0.9775   3.2266 C.2            1 S1                 0.0000
     24 ****         1.0045   0.2533   3.2865 O.2            1 S1                 0.0000
     25 ****         0.9885  -1.8610   4.4758 C.3            1 S1                 0.0000
     26 ****         0.8524  -1.0721   5.7866 C.3            1 S1                 0.0000
     27 ****         0.6640   1.8086  -4.7014 H              1 S1                 0.0000
     28 ****        -4.2199   2.8074  -2.1371 H              1 S1                 0.0000
     29 ****        -4.7699   1.6275  -0.9533 H              1 S1                 0.0000
     30 ****        -4.6822   1.1934  -2.6628 H              1 S1                 0.0000
     31 ****        -2.1785   1.4478  -2.5958 H              1 S1                 0.0000
     32 ****        -2.2580   1.8951  -0.9044 H              1 S1                 0.0000
     33 ****        -1.6303  -2.1347   0.2458 H              1 S1                 0.0000
     34 ****        -1.2929  -2.5290  -1.4341 H              1 S1                 0.0000
     35 ****         0.6559  -3.0203  -0.0017 H              1 S1                 0.0000
     36 ****         3.1032  -0.8091  -1.7253 H              1 S1                 0.0000
     37 ****         1.2421   1.6786   0.0763 H              1 S1                 0.0000
     38 ****         2.7613   0.2531   0.7193 H              1 S1                 0.0000
     39 ****         0.3297  -0.1749   0.8666 H              1 S1                 0.0000
     40 ****         0.1711  -2.5777   4.3929 H              1 S1                 0.0000
     41 ****         1.9132  -2.4379   4.4892 H              1 S1                 0.0000
     42 ****         0.8495  -1.7479   6.6419 H              1 S1                 0.0000
     43 ****        -0.0778  -0.5033   5.8137 H              1 S1                 0.0000
     44 ****         1.6802  -0.3748   5.9208 H              1 S1                 0.0000
     45 ****        -4.4865  -0.6100  -1.4933 LP             1 S1                 0.0000
     46 ****        -3.4500  -1.9049  -0.9944 LP             1 S1                 0.0000
     47 ****         0.6893  -1.4993  -2.2038 LP             1 S1                 0.0000
     48 ****         1.7950  -2.5639  -1.6465 LP             1 S1                 0.0000
     49 ****        -0.4639   4.6402  -3.0206 LP             1 S1                 0.0000
     50 ****        -0.2537   3.8386  -4.5415 LP             1 S1                 0.0000
     51 ****         2.1344  -1.1080  -3.5243 LP             1 S1                 0.0000
     52 ****         1.5681  -0.2090  -4.8921 LP             1 S1                 0.0000
     53 ****         1.0119   0.7948   2.4458 LP             1 S1                 0.0000
     54 ****         1.0101   0.7106   4.1758 LP             1 S1                 0.0000
@<TRIPOS>BOND
    1    1    2 1     
    2    1   28 1     
    3    1   29 1     
    4    1   30 1     
    5    2    3 1     
    6    2   31 1     
    7    2   32 1     
    8    3    4 2     
    9    3    5 1     
   10    5    6 1     
   11    6    7 1     
   12    6   33 1     
   13    6   34 1     
   14    7   21 1     
   15    7    8 1     
   16    7   35 1     
   17    8    9 1     
   18    9   10 1     
   19    9   19 1     
   20    9   36 1     
   21   10   17 1     
   22   10   11 1     
   23   11   12 2     
   24   11   37 1     
   25   12   13 1     
   26   12   14 1     
   27   14   15 2     
   28   14   16 1     
   29   16   27 1     
   30   16   17 1     
   31   17   18 2     
   32   19   20 1     
   33   19   21 1     
   34   19   38 1     
   35   21   22 1     
   36   21   39 1     
   37   22   23 1     
   38   23   24 2     
   39   23   25 1     
   40   25   26 1     
   41   25   40 1     
   42   25   41 1     
   43   26   42 1     
   44   26   43 1     
   45   26   44 1     
   46    4   45 1     
   47    4   46 1     
   48    8   47 1     
   49    8   48 1     
   50   15   49 1     
   51   15   50 1     
   52   18   51 1     
   53   18   52 1     
   54   24   53 1     
   55   24   54 1     
@<TRIPOS>SUBSTRUCTURE
      1 S1             1
@<TRIPOS>SET
LONE_PAIRS      STATIC     ATOMS    <user>   **** ""
10 45 46 47 48 49 50 51 52 53 54
DONOR_HYDROGENS      STATIC     ATOMS    <user>   **** ""
1 27
ATOM$BLUE        STATIC     ATOMS    COLORGROUP SYSTEM
10 45 46 47 48 49 50 51 52 53 54
ATOM$RED        STATIC     ATOMS    COLORGROUP SYSTEM
1 27
