AV-unprocessed.smi:1762|AV-procd|sdf|7104|dock6
  -GOLD-   22720 8323D 1   1.00000     0.00000
 Structure written by MMmdl.
 52 53  0  0  0  0  0  0  0  0  1 V2000
  146.1483  142.4921  154.8463 C   0  0  0  0  0  0  0  0  0  0  0  0
  146.2648  140.9648  154.6975 C   0  0  1  0  0  0  0  0  0  0  0  0
  147.6907  140.4932  154.3510 C   0  0  0  0  0  0  0  0  0  0  0  0
  148.6247  140.5669  155.4889 N   0  0  0  0  0  0  0  0  0  0  0  0
  150.0138  140.1331  155.1689 C   0  0  1  0  0  0  0  0  0  0  0  0
  151.0827  140.8043  156.0642 C   0  0  0  0  0  0  0  0  0  0  0  0
  152.2725  140.5098  155.9427 O   0  0  0  0  0  0  0  0  0  0  0  0
  150.6389  141.6920  156.9683 N   0  0  0  0  0  0  0  0  0  0  0  0
  151.4822  142.4334  157.8977 C   0  0  0  0  0  0  0  0  0  0  0  0
  152.5709  141.5367  158.5107 C   0  0  0  0  0  0  0  0  0  0  0  0
  152.8791  141.9093  159.9486 C   0  0  0  0  0  0  0  0  0  0  0  0
  152.2397  143.0086  160.5604 C   0  0  0  0  0  0  0  0  0  0  0  0
  152.5673  143.3180  161.8946 C   0  0  0  0  0  0  0  0  0  0  0  0
  153.5175  142.5209  162.5618 C   0  0  0  0  0  0  0  0  0  0  0  0
  154.1005  141.4457  161.8620 C   0  0  0  0  0  0  0  0  0  0  0  0
  153.7940  141.1410  160.5823 N   0  0  0  0  0  0  0  0  0  0  0  0
  150.2311  138.5826  155.1244 C   0  0  0  0  0  0  0  0  0  0  0  0
  150.3543  137.9305  156.5156 C   0  0  0  0  0  0  0  0  0  0  0  0
  151.4067  138.1500  154.2245 C   0  0  0  0  0  0  0  0  0  0  0  0
  148.0370  139.8356  156.6166 C   0  0  0  0  0  0  0  0  0  0  0  0
  146.6320  140.3452  156.9872 C   0  0  2  0  0  0  0  0  0  0  0  0
  145.9907  139.5161  158.1054 C   0  0  0  0  0  0  0  0  0  0  0  0
  145.7805  140.2773  155.8485 O   0  0  0  0  0  0  0  0  0  0  0  0
  146.4041  142.9922  153.9119 H   0  0  0  0  0  0  0  0  0  0  0  0
  146.8157  142.8826  155.6143 H   0  0  0  0  0  0  0  0  0  0  0  0
  145.1304  142.7816  155.1073 H   0  0  0  0  0  0  0  0  0  0  0  0
  145.6089  140.6776  153.8752 H   0  0  0  0  0  0  0  0  0  0  0  0
  147.6434  139.4639  153.9911 H   0  0  0  0  0  0  0  0  0  0  0  0
  148.0281  141.0949  153.5079 H   0  0  0  0  0  0  0  0  0  0  0  0
  150.2205  140.4858  154.1561 H   0  0  0  0  0  0  0  0  0  0  0  0
  149.6461  141.8715  157.0086 H   0  0  0  0  0  0  0  0  0  0  0  0
  151.9413  143.2573  157.3511 H   0  0  0  0  0  0  0  0  0  0  0  0
  150.8707  142.8829  158.6819 H   0  0  0  0  0  0  0  0  0  0  0  0
  152.2637  140.4907  158.4737 H   0  0  0  0  0  0  0  0  0  0  0  0
  153.4870  141.6063  157.9223 H   0  0  0  0  0  0  0  0  0  0  0  0
  151.5168  143.6032  160.0211 H   0  0  0  0  0  0  0  0  0  0  0  0
  152.0986  144.1515  162.3965 H   0  0  0  0  0  0  0  0  0  0  0  0
  153.7929  142.7285  163.5851 H   0  0  0  0  0  0  0  0  0  0  0  0
  154.8326  140.8137  162.3426 H   0  0  0  0  0  0  0  0  0  0  0  0
  149.3611  138.1397  154.6426 H   0  0  0  0  0  0  0  0  0  0  0  0
  151.2584  138.2467  157.0351 H   0  0  0  0  0  0  0  0  0  0  0  0
  150.3917  136.8441  156.4319 H   0  0  0  0  0  0  0  0  0  0  0  0
  149.5027  138.1751  157.1504 H   0  0  0  0  0  0  0  0  0  0  0  0
  152.3731  138.4262  154.6473 H   0  0  0  0  0  0  0  0  0  0  0  0
  151.3320  138.6010  153.2346 H   0  0  0  0  0  0  0  0  0  0  0  0
  151.4128  137.0681  154.0895 H   0  0  0  0  0  0  0  0  0  0  0  0
  147.9956  138.7694  156.3870 H   0  0  0  0  0  0  0  0  0  0  0  0
  148.6500  139.9408  157.5090 H   0  0  0  0  0  0  0  0  0  0  0  0
  146.7004  141.3787  157.3280 H   0  0  0  0  0  0  0  0  0  0  0  0
  146.5959  139.5440  159.0118 H   0  0  0  0  0  0  0  0  0  0  0  0
  145.8784  138.4727  157.8091 H   0  0  0  0  0  0  0  0  0  0  0  0
  145.0011  139.8999  158.3548 H   0  0  0  0  0  0  0  0  0  0  0  0
  1  2  1  0  0  0  0
  1 24  1  0  0  0  0
  1 25  1  0  0  0  0
  1 26  1  0  0  0  0
  2 23  1  0  0  0  0
  2  3  1  0  0  0  0
  2 27  1  0  0  0  0
  3  4  1  0  0  0  0
  3 28  1  0  0  0  0
  3 29  1  0  0  0  0
  4  5  1  0  0  0  0
  4 20  1  0  0  0  0
  5  6  1  0  0  0  0
  5 17  1  0  0  0  0
  5 30  1  0  0  0  0
  6  7  2  0  0  0  0
  6  8  1  0  0  0  0
  8  9  1  0  0  0  0
  8 31  1  0  0  0  0
  9 10  1  0  0  0  0
  9 32  1  0  0  0  0
  9 33  1  0  0  0  0
 10 11  1  0  0  0  0
 10 34  1  0  0  0  0
 10 35  1  0  0  0  0
 11 16  1  0  0  0  0
 11 12  2  0  0  0  0
 12 13  1  0  0  0  0
 12 36  1  0  0  0  0
 13 14  2  0  0  0  0
 13 37  1  0  0  0  0
 14 15  1  0  0  0  0
 14 38  1  0  0  0  0
 15 16  2  0  0  0  0
 15 39  1  0  0  0  0
 17 18  1  0  0  0  0
 17 19  1  0  0  0  0
 17 40  1  0  0  0  0
 18 41  1  0  0  0  0
 18 42  1  0  0  0  0
 18 43  1  0  0  0  0
 19 44  1  0  0  0  0
 19 45  1  0  0  0  0
 19 46  1  0  0  0  0
 20 21  1  0  0  0  0
 20 47  1  0  0  0  0
 20 48  1  0  0  0  0
 21 22  1  0  0  0  0
 21 23  1  0  0  0  0
 21 49  1  0  0  0  0
 22 50  1  0  0  0  0
 22 51  1  0  0  0  0
 22 52  1  0  0  0  0
M  END
> <s_m_source_file>
AV-unprocessed.smi

> <i_m_source_file_index>
1762

> <i_lp_mmshare_version>
43012

> <i_f3d_flags>
0

> <s_epik_input>
W0NIM11bQ0BASF0xW0NIMl1OKFtDSDJdW0NASF0oTzEpW0NIM10pW0NAQEhdKFtDSF0oW0NIM10pW0NIM10pQyg9TylbTkhdW0NIMl1bQ0gyXWMyW2NIXVtjSF1bY0hdW2NIXW4y

> <s_epik_cmdline>
J2VwaWtfcHl0aG9uJywgJy1waCcsICc3LjAnLCAnLXRuJywgJzgnLCAnLW1hJywgJzIwMCcsICctbWV0YWxfYmluZGluZycsICctaW1hZScsICc8aW5maWxlLm1hZT4nLCAnLW9tYWUnLCAnPG91dGZpbGUubWFlPic=

> <r_epik_Ionization_Penalty>
0.0399736

> <r_epik_Ionization_Penalty_Charging>
0

> <r_epik_Ionization_Penalty_Neutral>
0.0399736

> <r_epik_State_Penalty>
0.0317634

> <r_epik_Charging_Adjusted_Penalty>
0.0317634

> <i_epik_Tot_Q>
0

> <i_epik_Tot_abs_Q>
0

> <r_epik_Metal_State_Penalty>
0.0307795

> <b_epik_Metal_Only>
0

> <s_lp_Force_Field>
OPLS_2005

> <r_lp_Energy>
30.2117

> <b_lp_Chiralities_Consistent>
1

> <s_lp_Variant>
AV-unprocessed.smi:1762-6

> <Gold.Version>
5.8.1

> <Gold.Id.Protein>
6NUR|6NUR_protein|mol2

> <Gold.PLP.Fitness>
44.1797

> <Gold.PLP.PLP>
-43.3177

> <Gold.PLP.part.hbond>
-1.0000

> <Gold.PLP.part.metal>
0.0000

> <Gold.PLP.part.buried>
-4.1304

> <Gold.PLP.part.nonpolar>
-36.6969

> <Gold.PLP.part.repulsive>
0.2457

> <Gold.PLP.ligand.clash>
0.0000

> <Gold.PLP.ligand.torsion>
1.2260

> <Gold.PLP.Chemscore.Hbond>
0.9913

> <Gold.PLP.Chemscore.CHOScore>
0.0000

> <Gold.PLP.Chemscore.Metal>
0.0000

> <Gold.Chemscore.Hbonds>
donor molecule, donor type, donor heavy atom, donor atom, acceptor molecule, acceptor atom, score
      P1  H  7997  8008       L1     7  0.76

> <Gold.PLP.Chemscore.Internal.Correction>
0.3403

> <Gold.Rescore>
     Score         DG    S(hbond)    S(metal)    S(lipo)     H(rot)  DE(clash)    DE(int)     intcor
     14.90     -18.21       1.00        0.00     115.34       1.60       0.60       2.72       ----

> <Gold.Chemscore.Fitness>
14.8985

> <Gold.Chemscore.DG>
-18.2140

> <Gold.Chemscore.ZeroCoef>
-5.4800

> <Gold.Chemscore.Hbond>
0.9978

> <Gold.Chemscore.Metal>
0.0000

> <Gold.Chemscore.Lipo>
115.3445

> <Gold.Chemscore.Internal_Hbond>
0.0000

> <Gold.Chemscore.DEClash>
0.5994

> <Gold.Chemscore.DEInternal>
2.7160

> <Gold.Chemscore.Rot>
1.5993

> <Gold.Chemscore.Internal.Correction>
   9.000000E+99

> <Gold.Chemscore.Hbonds>
donor molecule, donor type, donor heavy atom, donor atom, acceptor molecule, acceptor atom, score
      P1  H  7997  8008       L1     7  0.73

> <Gold.Chemscore.Hbond.Weighted>
-3.3327

> <Gold.Chemscore.Metal.Weighted>
-0.0000

> <Gold.Chemscore.Lipo.Weighted>
-13.4953

> <Gold.Chemscore.Internal_Hbond.Weighted>
0.0000

> <Gold.Chemscore.DEClash.Weighted>
0.5994

> <Gold.Chemscore.DEInternal.Weighted>
2.7160

> <Gold.Chemscore.Rot.Weighted>
4.0941

> <Gold.Chemscore.Internal.Correction.Weighted>
   9.000000E+99

> <Gold.Protein.RotatedTorsions>
[ 6907 6896 6895 6894 ] final  -23.20 input  -60.11 | X-H torsion
[ 7974 7965 7964 7962 ] final  -59.42 input  175.53 | X-H torsion
[ 8008 7997 7996 7995 ] final  -39.13 input   59.86 | X-H torsion
[ 10167 10162 10161 10158 ] final  -87.64 input  -65.29 | X-H torsion
[ 10718 10713 10712 10709 ] final  -25.02 input   66.30 | X-H torsion
[ 10763 10752 10751 10750 ] final  121.27 input  -60.55 | X-H torsion
[ 11005 11000 10999 10996 ] final  -65.24 input  -57.11 | X-H torsion

> <Gold.Protein.ActiveResidues>
 VAL166  LYS551  ARG553  GLY616  TRP617  ASP618  TYR619  PRO620  LYS621  CYS622 
 ASP623  PHE694  ASN695  SER759  ASP760  ASP761  ALA762  ILE779  LEU786  VAL792 
 PHE793  MET794  SER795  GLU796  ALA797  LYS798  CYS799  TRP800  GLU811  SER814 

> <Gold.Protein.RotatedAtoms>
  151.2075  135.0468  159.8897 H   0  0  0  0  0  0  0  0  0  0  0  0  # atno 6907 bound_to 6896
  152.5427  134.0782  159.8234 H   0  0  0  0  0  0  0  0  0  0  0  0  # atno 6908 bound_to 6896
  151.0930  133.5253  159.2646 H   0  0  0  0  0  0  0  0  0  0  0  0  # atno 6909 bound_to 6896
  145.8277  140.8500  143.0100 H   0  0  0  0  0  0  0  0  0  0  0  0  # atno 7974 bound_to 7965
  154.4027  140.1560  156.2812 H   0  0  0  0  0  0  0  0  0  0  0  0  # atno 8008 bound_to 7997
  155.8868  140.3441  155.5905 H   0  0  0  0  0  0  0  0  0  0  0  0  # atno 8009 bound_to 7997
  155.7605  140.0817  157.2148 H   0  0  0  0  0  0  0  0  0  0  0  0  # atno 8010 bound_to 7997
  140.3824  143.2742  151.9366 H   0  0  0  0  0  0  0  0  0  0  0  0  # atno 10167 bound_to 10162
  156.4699  130.4522  149.6876 H   0  0  0  0  0  0  0  0  0  0  0  0  # atno 10718 bound_to 10713
  153.6115  135.3429  155.2980 H   0  0  0  0  0  0  0  0  0  0  0  0  # atno 10763 bound_to 10752
  154.8617  135.4251  154.2305 H   0  0  0  0  0  0  0  0  0  0  0  0  # atno 10764 bound_to 10752
  153.3156  135.7034  153.7148 H   0  0  0  0  0  0  0  0  0  0  0  0  # atno 10765 bound_to 10752
  141.1448  133.6678  156.5956 H   0  0  0  0  0  0  0  0  0  0  0  0  # atno 11005 bound_to 11000
  144.6742  140.0626  143.7475 LP  0  0  0  0  0  0  0  0  0  0  0  0  # atno 17320 bound_to 7965
  145.9605  139.2797  143.1158 LP  0  0  0  0  0  0  0  0  0  0  0  0  # atno 17321 bound_to 7965
  139.4794  144.5805  151.7940 LP  0  0  0  0  0  0  0  0  0  0  0  0  # atno 17342 bound_to 10162
  140.4923  144.1292  150.5953 LP  0  0  0  0  0  0  0  0  0  0  0  0  # atno 17343 bound_to 10162
  156.3629  130.7491  151.2465 LP  0  0  0  0  0  0  0  0  0  0  0  0  # atno 17370 bound_to 10713
  157.7492  131.0345  150.4320 LP  0  0  0  0  0  0  0  0  0  0  0  0  # atno 17371 bound_to 10713
  140.3729  134.7590  157.4610 LP  0  0  0  0  0  0  0  0  0  0  0  0  # atno 17394 bound_to 11000
  140.0697  134.5880  155.8656 LP  0  0  0  0  0  0  0  0  0  0  0  0  # atno 17395 bound_to 11000

$$$$
