#       Name:                AV-unprocessed.smi:1311
#       Creating user name   scv26
#       Creation time:       Fri Mar 27 05:01:43 2020


#       File generated by GOLD software.
#

@<TRIPOS>MOLECULE
AV-unprocessed.smi:1311
    51    52     1
SMALL
NO_CHARGES


@<TRIPOS>ATOM
      1 ****        -3.8001  -0.0134   2.0180 C.3            1 S1                 0.0000
      2 ****        -3.4162   0.6034   0.6635 C.3            1 S1                 0.0000
      3 ****        -1.8878   0.6802   0.3870 C.3            1 S1                 0.0000
      4 ****        -1.2842  -0.7547   0.3482 C.3            1 S1                 0.0000
      5 ****         0.1742  -0.7968   0.3459 N.am           1 S1                 0.0000
      6 ****         0.9540  -0.5934   1.4205 C.2            1 S1                 0.0000
      7 ****         0.5047  -0.3459   2.5387 O.2            1 S1                 0.0000
      8 ****         2.4691  -0.6428   1.2018 C.3            1 S1                 0.0000
      9 ****         2.8670  -1.8813   0.4370 C.2            1 S1                 0.0000
     10 ****         3.0615  -3.2005   0.9398 C.2            1 S1                 0.0000
     11 ****         2.9253  -3.6985   2.3500 C.3            1 S1                 0.0000
     12 ****         3.4054  -4.0466  -0.0164 N.2            1 S1                 0.0000
     13 ****         3.4482  -3.2971  -1.1958 O.3            1 S1                 0.0000
     14 ****         3.1269  -2.0124  -0.8998 C.2            1 S1                 0.0000
     15 ****         3.1109  -1.0469  -2.0367 C.3            1 S1                 0.0000
     16 ****        -1.5871   1.4279  -0.8793 N.4            1 S1                 1.0000
     17 ****        -2.3793   2.6529  -1.1318 C.3            1 S1                 0.0000
     18 ****        -1.6065   3.4146  -2.2010 C.3            1 S1                 0.0000
     19 ****        -0.1547   3.1669  -1.8144 C.3            1 S1                 0.0000
     20 ****        -0.1667   1.8153  -1.0876 C.3            1 S1                 0.0000
     21 ****        -4.8632   0.1284   2.2134 H              1 S1                 0.0000
     22 ****        -3.2508   0.4544   2.8357 H              1 S1                 0.0000
     23 ****        -3.6144  -1.0863   2.0529 H              1 S1                 0.0000
     24 ****        -3.9157   0.0594  -0.1393 H              1 S1                 0.0000
     25 ****        -3.8504   1.6022   0.6692 H              1 S1                 0.0000
     26 ****        -1.4437   1.2368   1.2137 H              1 S1                 0.0000
     27 ****        -1.6169  -1.3501   1.1974 H              1 S1                 0.0000
     28 ****        -1.6397  -1.2804  -0.5387 H              1 S1                 0.0000
     29 ****         0.6267  -1.0084  -0.5318 H              1 S1                 0.0000
     30 ****         2.7678   0.2640   0.6751 H              1 S1                 0.0000
     31 ****         2.9699  -0.6058   2.1701 H              1 S1                 0.0000
     32 ****         2.3035  -3.0325   2.9482 H              1 S1                 0.0000
     33 ****         3.8994  -3.7678   2.8346 H              1 S1                 0.0000
     34 ****         2.4669  -4.6875   2.3794 H              1 S1                 0.0000
     35 ****         3.5389  -0.0894  -1.7396 H              1 S1                 0.0000
     36 ****         2.0907  -0.8707  -2.3771 H              1 S1                 0.0000
     37 ****         3.6887  -1.4249  -2.8804 H              1 S1                 0.0000
     38 ****        -3.3955   2.4268  -1.4564 H              1 S1                 0.0000
     39 ****        -2.4302   3.2535  -0.2218 H              1 S1                 0.0000
     40 ****        -1.8086   2.9840  -3.1828 H              1 S1                 0.0000
     41 ****        -1.8624   4.4740  -2.2373 H              1 S1                 0.0000
     42 ****         0.5101   3.1719  -2.6789 H              1 S1                 0.0000
     43 ****         0.1841   3.9481  -1.1326 H              1 S1                 0.0000
     44 ****         0.3645   1.9136  -0.1401 H              1 S1                 0.0000
     45 ****         0.3376   1.0503  -1.6785 H              1 S1                 0.0000
     46 ****        -1.8205   0.8068  -1.6409 H              1 S1                 0.0000
     47 ****        -0.4838  -0.2884   2.6789 LP             1 S1                 0.0000
     48 ****         1.1279  -0.2023   3.3074 LP             1 S1                 0.0000
     49 ****         3.5959  -5.0232   0.0836 LP             1 S1                 0.0000
     50 ****         2.7921  -3.6661  -1.8542 LP             1 S1                 0.0000
     51 ****         4.3682  -3.3337  -1.5858 LP             1 S1                 0.0000
@<TRIPOS>BOND
    1    1    2 1     
    2    1   21 1     
    3    1   22 1     
    4    1   23 1     
    5    2    3 1     
    6    2   24 1     
    7    2   25 1     
    8    3    4 1     
    9    3   16 1     
   10    3   26 1     
   11    4    5 1     
   12    4   27 1     
   13    4   28 1     
   14    5    6 am    
   15    5   29 1     
   16    6    7 2     
   17    6    8 1     
   18    8    9 1     
   19    8   30 1     
   20    8   31 1     
   21    9   14 2     
   22    9   10 1     
   23   10   11 1     
   24   10   12 2     
   25   11   32 1     
   26   11   33 1     
   27   11   34 1     
   28   12   13 1     
   29   13   14 1     
   30   14   15 1     
   31   15   35 1     
   32   15   36 1     
   33   15   37 1     
   34   16   20 1     
   35   16   17 1     
   36   16   46 1     
   37   17   18 1     
   38   17   38 1     
   39   17   39 1     
   40   18   19 1     
   41   18   40 1     
   42   18   41 1     
   43   19   20 1     
   44   19   42 1     
   45   19   43 1     
   46   20   44 1     
   47   20   45 1     
   48    7   47 1     
   49    7   48 1     
   50   12   49 1     
   51   13   50 1     
   52   13   51 1     
@<TRIPOS>SUBSTRUCTURE
      1 S1             1
@<TRIPOS>SET
LONE_PAIRS      STATIC     ATOMS    <user>   **** ""
5 47 48 49 50 51
DONOR_HYDROGENS      STATIC     ATOMS    <user>   **** ""
2 29 46
ATOM$BLUE        STATIC     ATOMS    COLORGROUP SYSTEM
5 47 48 49 50 51
ATOM$RED        STATIC     ATOMS    COLORGROUP SYSTEM
2 29 46
