AV-unprocessed.smi:2990|AV-procd|sdf|11396|dock7
  -GOLD-   2272016323D 1   1.00000     0.00000
 Structure written by MMmdl.
 40 42  0  0  0  0  0  0  0  0  2 V2000
  146.3252  142.8436  153.7038 C   0  0  0  0  0  0  0  0  0  0  0  0
  147.5022  142.0318  154.1301 C   0  0  0  0  0  0  0  0  0  0  0  0
  148.4421  142.4021  155.0452 N   0  3  0  0  0  0  0  0  0  0  0  0
  149.3934  141.3898  155.1818 C   0  0  0  0  0  0  0  0  0  0  0  0
  150.5279  141.3061  155.9830 C   0  0  0  0  0  0  0  0  0  0  0  0
  151.2894  140.1232  155.8800 C   0  0  0  0  0  0  0  0  0  0  0  0
  150.9148  139.0822  155.0055 C   0  0  0  0  0  0  0  0  0  0  0  0
  149.7632  139.1792  154.1965 C   0  0  0  0  0  0  0  0  0  0  0  0
  149.0153  140.3511  154.3068 C   0  0  0  0  0  0  0  0  0  0  0  0
  147.8423  140.7890  153.6829 N   0  0  0  0  0  0  0  0  0  0  0  0
  147.1881  139.9187  152.6944 C   0  0  0  0  0  0  0  0  0  0  0  0
  146.3363  138.8063  153.3391 C   0  0  1  0  0  0  0  0  0  0  0  0
  145.2217  139.3769  153.9951 O   0  0  0  0  0  0  0  0  0  0  0  0
  145.8301  137.7880  152.3080 C   0  0  0  0  0  0  0  0  0  0  0  0
  144.8563  136.9560  152.9250 O   0  0  0  0  0  0  0  0  0  0  0  0
  144.4926  135.7914  152.2839 C   0  0  0  0  0  0  0  0  0  0  0  0
  143.3636  135.1109  152.7851 C   0  0  0  0  0  0  0  0  0  0  0  0
  142.9215  133.9126  152.1919 C   0  0  0  0  0  0  0  0  0  0  0  0
  143.6077  133.3812  151.0844 C   0  0  0  0  0  0  0  0  0  0  0  0
  144.7347  134.0504  150.5726 C   0  0  0  0  0  0  0  0  0  0  0  0
  145.1771  135.2488  151.1665 C   0  0  0  0  0  0  0  0  0  0  0  0
  146.2345  143.7395  154.3183 H   0  0  0  0  0  0  0  0  0  0  0  0
  145.4083  142.2621  153.8025 H   0  0  0  0  0  0  0  0  0  0  0  0
  146.4360  143.1463  152.6625 H   0  0  0  0  0  0  0  0  0  0  0  0
  150.8175  142.1026  156.6527 H   0  0  0  0  0  0  0  0  0  0  0  0
  152.1787  140.0123  156.4837 H   0  0  0  0  0  0  0  0  0  0  0  0
  151.5233  138.1909  154.9538 H   0  0  0  0  0  0  0  0  0  0  0  0
  149.4842  138.3772  153.5292 H   0  0  0  0  0  0  0  0  0  0  0  0
  146.5675  140.5488  152.0561 H   0  0  0  0  0  0  0  0  0  0  0  0
  147.9588  139.4964  152.0486 H   0  0  0  0  0  0  0  0  0  0  0  0
  146.9227  138.2807  154.0931 H   0  0  0  0  0  0  0  0  0  0  0  0
  144.5766  139.6057  153.3439 H   0  0  0  0  0  0  0  0  0  0  0  0
  145.3775  138.3132  151.4650 H   0  0  0  0  0  0  0  0  0  0  0  0
  146.6634  137.1933  151.9299 H   0  0  0  0  0  0  0  0  0  0  0  0
  142.8312  135.5112  153.6355 H   0  0  0  0  0  0  0  0  0  0  0  0
  142.0559  133.4018  152.5871 H   0  0  0  0  0  0  0  0  0  0  0  0
  143.2700  132.4623  150.6281 H   0  0  0  0  0  0  0  0  0  0  0  0
  145.2620  133.6445  149.7218 H   0  0  0  0  0  0  0  0  0  0  0  0
  146.0441  135.7333  150.7443 H   0  0  0  0  0  0  0  0  0  0  0  0
  148.4322  143.2858  155.5383 H   0  0  0  0  0  0  0  0  0  0  0  0
  1  2  1  0  0  0  0
  1 22  1  0  0  0  0
  1 23  1  0  0  0  0
  1 24  1  0  0  0  0
  2 10  1  0  0  0  0
  2  3  2  0  0  0  0
  3  4  1  0  0  0  0
  3 40  1  0  0  0  0
  4  9  2  0  0  0  0
  4  5  1  0  0  0  0
  5  6  2  0  0  0  0
  5 25  1  0  0  0  0
  6  7  1  0  0  0  0
  6 26  1  0  0  0  0
  7  8  2  0  0  0  0
  7 27  1  0  0  0  0
  8  9  1  0  0  0  0
  8 28  1  0  0  0  0
  9 10  1  0  0  0  0
 10 11  1  0  0  0  0
 11 12  1  0  0  0  0
 11 29  1  0  0  0  0
 11 30  1  0  0  0  0
 12 13  1  0  0  0  0
 12 14  1  0  0  0  0
 12 31  1  0  0  0  0
 13 32  1  0  0  0  0
 14 15  1  0  0  0  0
 14 33  1  0  0  0  0
 14 34  1  0  0  0  0
 15 16  1  0  0  0  0
 16 21  1  0  0  0  0
 16 17  2  0  0  0  0
 17 18  1  0  0  0  0
 17 35  1  0  0  0  0
 18 19  2  0  0  0  0
 18 36  1  0  0  0  0
 19 20  1  0  0  0  0
 19 37  1  0  0  0  0
 20 21  2  0  0  0  0
 20 38  1  0  0  0  0
 21 39  1  0  0  0  0
M  CHG  1   3   1
M  END
> <s_m_source_file>
AV-unprocessed.smi

> <i_m_source_file_index>
2990

> <i_lp_mmshare_version>
43012

> <i_f3d_flags>
0

> <s_epik_input>
W2NIXTFbY0hdW2NIXVtjSF1jKGMxMiluKGMobjIpW0NIM10pW0NIMl1bQ0BIXShbT0hdKVtDSDJdT2MzW2NIXVtjSF1bY0hdW2NIXVtjSF0z

> <s_epik_cmdline>
J2VwaWtfcHl0aG9uJywgJy1waCcsICc3LjAnLCAnLXRuJywgJzgnLCAnLW1hJywgJzIwMCcsICctbWV0YWxfYmluZGluZycsICctaW1hZScsICc8aW5maWxlLm1hZT4nLCAnLW9tYWUnLCAnPG91dGZpbGUubWFlPic=

> <r_lp_tautomer_probability>
1

> <r_epik_Ionization_Penalty>
1.00673

> <r_epik_Ionization_Penalty_Charging>
1.00673

> <r_epik_Ionization_Penalty_Neutral>
2.3993e-06

> <r_epik_State_Penalty>
1.05579

> <r_epik_Charging_Adjusted_Penalty>
2.06252

> <i_epik_Tot_Q>
1

> <i_epik_Tot_abs_Q>
1

> <r_epik_Metal_State_Penalty>
5.03947

> <b_epik_Metal_Only>
0

> <s_lp_Force_Field>
OPLS_2005

> <r_lp_Energy>
17.9265

> <b_lp_Chiralities_Consistent>
1

> <s_lp_Variant>
AV-unprocessed.smi:2990-4

> <Gold.Version>
5.8.1

> <Gold.Id.Protein>
6NUR|6NUR_protein|mol2

> <Gold.PLP.Fitness>
53.2601

> <Gold.PLP.PLP>
-45.3070

> <Gold.PLP.part.hbond>
-1.9140

> <Gold.PLP.part.metal>
0.0000

> <Gold.PLP.part.buried>
-0.9311

> <Gold.PLP.part.nonpolar>
-43.9174

> <Gold.PLP.part.repulsive>
0.3488

> <Gold.PLP.ligand.clash>
0.0000

> <Gold.PLP.ligand.torsion>
0.5429

> <Gold.PLP.Chemscore.Hbond>
3.0000

> <Gold.PLP.Chemscore.CHOScore>
0.0000

> <Gold.PLP.Chemscore.Metal>
0.0000

> <Gold.Chemscore.Hbonds>
donor molecule, donor type, donor heavy atom, donor atom, acceptor molecule, acceptor atom, score
      L1  H     3    40       P1  8028  1.82
      L1  H    13    32       P1 10175  0.98

> <Gold.PLP.Chemscore.Internal.Correction>
0.0388

> <Gold.Rescore>
     Score         DG    S(hbond)    S(metal)    S(lipo)     H(rot)  DE(clash)    DE(int)     intcor
     16.78     -18.48       1.93        0.00     102.29       2.12       1.13       0.56       ----

> <Gold.Chemscore.Fitness>
16.7843

> <Gold.Chemscore.DG>
-18.4766

> <Gold.Chemscore.ZeroCoef>
-5.4800

> <Gold.Chemscore.Hbond>
1.9317

> <Gold.Chemscore.Metal>
0.0000

> <Gold.Chemscore.Lipo>
102.2886

> <Gold.Chemscore.Internal_Hbond>
0.0000

> <Gold.Chemscore.DEClash>
1.1347

> <Gold.Chemscore.DEInternal>
0.5576

> <Gold.Chemscore.Rot>
2.1184

> <Gold.Chemscore.Internal.Correction>
   9.000000E+99

> <Gold.Chemscore.Hbonds>
donor molecule, donor type, donor heavy atom, donor atom, acceptor molecule, acceptor atom, score
      L1  H     3    40       P1  8028  0.81
      L1  H    13    32       P1 10175  0.91

> <Gold.Chemscore.Hbond.Weighted>
-6.4520

> <Gold.Chemscore.Metal.Weighted>
-0.0000

> <Gold.Chemscore.Lipo.Weighted>
-11.9678

> <Gold.Chemscore.Internal_Hbond.Weighted>
0.0000

> <Gold.Chemscore.DEClash.Weighted>
1.1347

> <Gold.Chemscore.DEInternal.Weighted>
0.5576

> <Gold.Chemscore.Rot.Weighted>
5.4231

> <Gold.Chemscore.Internal.Correction.Weighted>
   9.000000E+99

> <Gold.Protein.RotatedTorsions>
[ 6907 6896 6895 6894 ] final   24.40 input  -60.11 | X-H torsion
[ 7974 7965 7964 7962 ] final   32.89 input  175.53 | X-H torsion
[ 8008 7997 7996 7995 ] final -133.11 input   59.86 | X-H torsion
[ 10167 10162 10161 10158 ] final   60.15 input  -65.29 | X-H torsion
[ 10718 10713 10712 10709 ] final -100.58 input   66.30 | X-H torsion
[ 10763 10752 10751 10750 ] final   91.44 input  -60.55 | X-H torsion
[ 11005 11000 10999 10996 ] final  -76.97 input  -57.11 | X-H torsion

> <Gold.Protein.ActiveResidues>
 VAL166  LYS551  ARG553  GLY616  TRP617  ASP618  TYR619  PRO620  LYS621  CYS622 
 ASP623  PHE694  ASN695  SER759  ASP760  ASP761  ALA762  ILE779  LEU786  VAL792 
 PHE793  MET794  SER795  GLU796  ALA797  LYS798  CYS799  TRP800  GLU811  SER814 

> <Gold.Protein.RotatedAtoms>
  151.9570  135.0142  160.0545 H   0  0  0  0  0  0  0  0  0  0  0  0  # atno 6907 bound_to 6896
  152.1903  133.4764  159.5012 H   0  0  0  0  0  0  0  0  0  0  0  0  # atno 6908 bound_to 6896
  150.6934  134.1638  159.4229 H   0  0  0  0  0  0  0  0  0  0  0  0  # atno 6909 bound_to 6896
  146.1457  139.6468  142.9133 H   0  0  0  0  0  0  0  0  0  0  0  0  # atno 7974 bound_to 7965
  155.3401  140.0471  157.3044 H   0  0  0  0  0  0  0  0  0  0  0  0  # atno 8008 bound_to 7997
  154.5282  140.2248  155.8817 H   0  0  0  0  0  0  0  0  0  0  0  0  # atno 8009 bound_to 7997
  156.1761  140.3085  155.9068 H   0  0  0  0  0  0  0  0  0  0  0  0  # atno 8010 bound_to 7997
  140.1688  144.4298  150.6672 H   0  0  0  0  0  0  0  0  0  0  0  0  # atno 10167 bound_to 10162
  156.0167  130.5334  150.6838 H   0  0  0  0  0  0  0  0  0  0  0  0  # atno 10718 bound_to 10713
  153.2083  135.4397  155.0349 H   0  0  0  0  0  0  0  0  0  0  0  0  # atno 10763 bound_to 10752
  154.8186  135.3327  154.7107 H   0  0  0  0  0  0  0  0  0  0  0  0  # atno 10764 bound_to 10752
  153.7547  135.6996  153.4994 H   0  0  0  0  0  0  0  0  0  0  0  0  # atno 10765 bound_to 10752
  141.1657  133.7004  156.7750 H   0  0  0  0  0  0  0  0  0  0  0  0  # atno 11005 bound_to 11000
  145.4943  141.0438  143.2576 LP  0  0  0  0  0  0  0  0  0  0  0  0  # atno 17320 bound_to 7965
  144.7843  139.6459  143.7141 LP  0  0  0  0  0  0  0  0  0  0  0  0  # atno 17321 bound_to 7965
  140.6596  143.2248  151.5888 LP  0  0  0  0  0  0  0  0  0  0  0  0  # atno 17342 bound_to 10162
  139.5347  144.2814  152.1226 LP  0  0  0  0  0  0  0  0  0  0  0  0  # atno 17343 bound_to 10162
  157.4535  131.0875  151.0821 LP  0  0  0  0  0  0  0  0  0  0  0  0  # atno 17370 bound_to 10713
  157.1330  130.6110  149.5534 LP  0  0  0  0  0  0  0  0  0  0  0  0  # atno 17371 bound_to 10713
  140.2436  134.8594  157.3598 LP  0  0  0  0  0  0  0  0  0  0  0  0  # atno 17394 bound_to 11000
  140.1771  134.4536  155.7795 LP  0  0  0  0  0  0  0  0  0  0  0  0  # atno 17395 bound_to 11000

$$$$
