AV-unprocessed.smi:2577|AV-procd|sdf|10120|dock3
  -GOLD-   2272014143D 1   1.00000     0.00000
 Structure written by MMmdl.
 27 28  0  0  0  0  0  0  0  0  1 V2000
  147.4384  140.7111  153.8054 C   0  0  0  0  0  0  0  0  0  0  0  0
  148.4744  141.6594  154.4244 C   0  0  0  0  0  0  0  0  0  0  0  0
  149.3938  140.9758  155.4521 C   0  0  2  0  0  0  0  0  0  0  0  0
  148.6341  140.6198  156.5916 O   0  0  0  0  0  0  0  0  0  0  0  0
  150.5602  141.8892  155.8770 C   0  0  0  0  0  0  0  0  0  0  0  0
  151.4258  141.2667  156.8636 N   0  0  0  0  0  0  0  0  0  0  0  0
  151.9627  140.0412  156.6031 N   0  0  0  0  0  0  0  0  0  0  0  0
  152.6923  139.6825  157.6170 N   0  0  0  0  0  0  0  0  0  0  0  0
  152.6341  140.6904  158.5651 C   0  0  0  0  0  0  0  0  0  0  0  0
  153.2289  140.8203  159.8399 C   0  0  0  0  0  0  0  0  0  0  0  0
  152.9992  141.9746  160.6205 C   0  0  0  0  0  0  0  0  0  0  0  0
  153.7447  142.0968  162.1745 Cl  0  0  0  0  0  0  0  0  0  0  0  0
  152.1695  143.0134  160.1332 C   0  0  0  0  0  0  0  0  0  0  0  0
  151.8777  144.4319  161.0755 Cl  0  0  0  0  0  0  0  0  0  0  0  0
  151.5696  142.8969  158.8635 C   0  0  0  0  0  0  0  0  0  0  0  0
  151.8125  141.7411  158.1022 C   0  0  0  0  0  0  0  0  0  0  0  0
  146.8382  141.2297  153.0578 H   0  0  0  0  0  0  0  0  0  0  0  0
  146.7573  140.3177  154.5604 H   0  0  0  0  0  0  0  0  0  0  0  0
  147.9216  139.8652  153.3157 H   0  0  0  0  0  0  0  0  0  0  0  0
  149.0837  142.0713  153.6191 H   0  0  0  0  0  0  0  0  0  0  0  0
  147.9661  142.5083  154.8838 H   0  0  0  0  0  0  0  0  0  0  0  0
  149.7986  140.0615  155.0158 H   0  0  0  0  0  0  0  0  0  0  0  0
  147.7211  140.7790  156.4062 H   0  0  0  0  0  0  0  0  0  0  0  0
  151.1651  142.1576  155.0096 H   0  0  0  0  0  0  0  0  0  0  0  0
  150.1806  142.8250  156.2895 H   0  0  0  0  0  0  0  0  0  0  0  0
  153.8617  140.0307  160.2178 H   0  0  0  0  0  0  0  0  0  0  0  0
  150.9329  143.6810  158.4811 H   0  0  0  0  0  0  0  0  0  0  0  0
  1  2  1  0  0  0  0
  1 17  1  0  0  0  0
  1 18  1  0  0  0  0
  1 19  1  0  0  0  0
  2  3  1  0  0  0  0
  2 20  1  0  0  0  0
  2 21  1  0  0  0  0
  3  4  1  0  0  0  0
  3  5  1  0  0  0  0
  3 22  1  0  0  0  0
  4 23  1  0  0  0  0
  5  6  1  0  0  0  0
  5 24  1  0  0  0  0
  5 25  1  0  0  0  0
  6 16  1  0  0  0  0
  6  7  1  0  0  0  0
  7  8  2  0  0  0  0
  8  9  1  0  0  0  0
  9 16  2  0  0  0  0
  9 10  1  0  0  0  0
 10 11  2  0  0  0  0
 10 26  1  0  0  0  0
 11 12  1  0  0  0  0
 11 13  1  0  0  0  0
 13 14  1  0  0  0  0
 13 15  2  0  0  0  0
 15 16  1  0  0  0  0
 15 27  1  0  0  0  0
M  END
> <s_m_source_file>
AV-unprocessed.smi

> <i_m_source_file_index>
2577

> <i_lp_mmshare_version>
43012

> <i_f3d_flags>
0

> <s_epik_input>
W0NIM11bQ0gyXVtDQEhdKFtPSF0pW0NIMl1uKG5uMSljKGMxMilbY0hdYyhDbCljKENsKVtjSF0y

> <s_epik_cmdline>
J2VwaWtfcHl0aG9uJywgJy1waCcsICc3LjAnLCAnLXRuJywgJzgnLCAnLW1hJywgJzIwMCcsICctbWV0YWxfYmluZGluZycsICctaW1hZScsICc8aW5maWxlLm1hZT4nLCAnLW9tYWUnLCAnPG91dGZpbGUubWFlPic=

> <r_lp_tautomer_probability>
1

> <r_epik_Ionization_Penalty>
1.50913e-07

> <r_epik_Ionization_Penalty_Charging>
0

> <r_epik_Ionization_Penalty_Neutral>
1.50913e-07

> <r_epik_State_Penalty>
-0

> <r_epik_Charging_Adjusted_Penalty>
0

> <i_epik_Tot_Q>
0

> <i_epik_Tot_abs_Q>
0

> <r_epik_Metal_State_Penalty>
-0

> <b_epik_Metal_Only>
0

> <s_lp_Force_Field>
OPLS_2005

> <r_lp_Energy>
7.05244

> <b_lp_Chiralities_Consistent>
1

> <s_lp_Variant>
AV-unprocessed.smi:2577-1

> <Gold.Version>
5.8.1

> <Gold.Id.Protein>
6NUR|6NUR_protein|mol2

> <Gold.PLP.Fitness>
38.5825

> <Gold.PLP.PLP>
-35.8832

> <Gold.PLP.part.hbond>
-1.0486

> <Gold.PLP.part.metal>
0.0000

> <Gold.PLP.part.buried>
-3.8753

> <Gold.PLP.part.nonpolar>
-30.4549

> <Gold.PLP.part.repulsive>
0.0000

> <Gold.PLP.ligand.clash>
0.0000

> <Gold.PLP.ligand.torsion>
0.0765

> <Gold.PLP.Chemscore.Hbond>
0.9500

> <Gold.PLP.Chemscore.CHOScore>
0.0000

> <Gold.PLP.Chemscore.Metal>
0.0000

> <Gold.Chemscore.Hbonds>
donor molecule, donor type, donor heavy atom, donor atom, acceptor molecule, acceptor atom, score
      P1  H  7997  8008       L1     8  0.90

> <Gold.PLP.Chemscore.Internal.Correction>
0.0023

> <Gold.Rescore>
     Score         DG    S(hbond)    S(metal)    S(lipo)     H(rot)  DE(clash)    DE(int)     intcor
     14.76     -14.86       0.51        0.00     104.94       1.79       0.06       0.04       ----

> <Gold.Chemscore.Fitness>
14.7590

> <Gold.Chemscore.DG>
-14.8602

> <Gold.Chemscore.ZeroCoef>
-5.4800

> <Gold.Chemscore.Hbond>
0.5062

> <Gold.Chemscore.Metal>
0.0000

> <Gold.Chemscore.Lipo>
104.9386

> <Gold.Chemscore.Internal_Hbond>
0.0000

> <Gold.Chemscore.DEClash>
0.0647

> <Gold.Chemscore.DEInternal>
0.0365

> <Gold.Chemscore.Rot>
1.7924

> <Gold.Chemscore.Internal.Correction>
   9.000000E+99

> <Gold.Chemscore.Hbonds>
donor molecule, donor type, donor heavy atom, donor atom, acceptor molecule, acceptor atom, score
      P1  H  7997  8008       L1     8  0.05

> <Gold.Chemscore.Hbond.Weighted>
-1.6908

> <Gold.Chemscore.Metal.Weighted>
-0.0000

> <Gold.Chemscore.Lipo.Weighted>
-12.2778

> <Gold.Chemscore.Internal_Hbond.Weighted>
0.0000

> <Gold.Chemscore.DEClash.Weighted>
0.0647

> <Gold.Chemscore.DEInternal.Weighted>
0.0365

> <Gold.Chemscore.Rot.Weighted>
4.5884

> <Gold.Chemscore.Internal.Correction.Weighted>
   9.000000E+99

> <Gold.Protein.RotatedTorsions>
[ 6907 6896 6895 6894 ] final   61.66 input  -60.11 | X-H torsion
[ 7974 7965 7964 7962 ] final   92.11 input  175.53 | X-H torsion
[ 8008 7997 7996 7995 ] final  -75.02 input   59.86 | X-H torsion
[ 10167 10162 10161 10158 ] final  143.61 input  -65.29 | X-H torsion
[ 10718 10713 10712 10709 ] final    5.79 input   66.30 | X-H torsion
[ 10763 10752 10751 10750 ] final   12.93 input  -60.55 | X-H torsion
[ 11005 11000 10999 10996 ] final -114.68 input  -57.11 | X-H torsion

> <Gold.Protein.ActiveResidues>
 VAL166  LYS551  ARG553  GLY616  TRP617  ASP618  TYR619  PRO620  LYS621  CYS622 
 ASP623  PHE694  ASN695  SER759  ASP760  ASP761  ALA762  ILE779  LEU786  VAL792 
 PHE793  MET794  SER795  GLU796  ALA797  LYS798  CYS799  TRP800  GLU811  SER814 

> <Gold.Protein.RotatedAtoms>
  152.4107  134.6129  160.0030 H   0  0  0  0  0  0  0  0  0  0  0  0  # atno 6907 bound_to 6896
  151.6307  133.3326  159.3116 H   0  0  0  0  0  0  0  0  0  0  0  0  # atno 6908 bound_to 6896
  150.7998  134.7124  159.6656 H   0  0  0  0  0  0  0  0  0  0  0  0  # atno 6909 bound_to 6896
  145.4966  139.2276  143.2800 H   0  0  0  0  0  0  0  0  0  0  0  0  # atno 7974 bound_to 7965
  154.5381  140.0751  156.8462 H   0  0  0  0  0  0  0  0  0  0  0  0  # atno 8008 bound_to 7997
  155.3237  140.3397  155.4222 H   0  0  0  0  0  0  0  0  0  0  0  0  # atno 8009 bound_to 7997
  156.1848  140.1665  156.8193 H   0  0  0  0  0  0  0  0  0  0  0  0  # atno 8010 bound_to 7997
  139.4965  144.6028  151.6443 H   0  0  0  0  0  0  0  0  0  0  0  0  # atno 10167 bound_to 10162
  156.9126  130.5762  149.5647 H   0  0  0  0  0  0  0  0  0  0  0  0  # atno 10718 bound_to 10713
  153.1772  135.6822  153.8527 H   0  0  0  0  0  0  0  0  0  0  0  0  # atno 10763 bound_to 10752
  153.7871  135.3174  155.3375 H   0  0  0  0  0  0  0  0  0  0  0  0  # atno 10764 bound_to 10752
  154.8036  135.4762  154.0431 H   0  0  0  0  0  0  0  0  0  0  0  0  # atno 10765 bound_to 10752
  141.0536  133.9648  157.2793 H   0  0  0  0  0  0  0  0  0  0  0  0  # atno 11005 bound_to 11000
  146.2251  140.5764  142.9000 LP  0  0  0  0  0  0  0  0  0  0  0  0  # atno 17320 bound_to 7965
  144.7803  140.5827  143.6610 LP  0  0  0  0  0  0  0  0  0  0  0  0  # atno 17321 bound_to 7965
  140.5682  144.0153  150.6203 LP  0  0  0  0  0  0  0  0  0  0  0  0  # atno 17342 bound_to 10162
  140.3262  143.3106  152.0734 LP  0  0  0  0  0  0  0  0  0  0  0  0  # atno 17343 bound_to 10162
  156.0529  130.5595  150.9028 LP  0  0  0  0  0  0  0  0  0  0  0  0  # atno 17370 bound_to 10713
  157.5958  131.0943  150.9044 LP  0  0  0  0  0  0  0  0  0  0  0  0  # atno 17371 bound_to 10713
  139.9371  135.0195  156.8590 LP  0  0  0  0  0  0  0  0  0  0  0  0  # atno 17394 bound_to 11000
  140.6007  134.0174  155.7536 LP  0  0  0  0  0  0  0  0  0  0  0  0  # atno 17395 bound_to 11000

$$$$
