AV-unprocessed.smi:2750|AV-procd|sdf|10593|dock8
  -GOLD-   2272015 43D 1   1.00000     0.00000
 Structure written by MMmdl.
 24 25  0  0  0  0  0  0  0  0  3 V2000
  148.4649  136.8697  160.9356 O   0  0  0  0  0  0  0  0  0  0  0  0
  147.7986  136.8913  159.8774 C   0  0  0  0  0  0  0  0  0  0  0  0
  146.7524  137.5503  159.6882 O   0  5  0  0  0  0  0  0  0  0  0  0
  148.3151  136.0515  158.7090 C   0  0  0  0  0  0  0  0  0  0  0  0
  149.5798  136.5451  158.1950 N   0  0  0  0  0  0  0  0  0  0  0  0
  149.8354  137.7277  157.5320 C   0  0  0  0  0  0  0  0  0  0  0  0
  151.1799  137.6767  157.2956 C   0  0  0  0  0  0  0  0  0  0  0  0
  152.0553  138.6837  156.6074 C   0  0  0  0  0  0  0  0  0  0  0  0
  151.8014  138.7799  155.0862 C   0  0  2  0  0  0  0  0  0  0  0  0
  150.7756  139.7583  154.7632 N   0  5  0  0  0  0  0  0  0  0  0  0
  149.7778  139.1330  154.0965 C   0  0  0  0  0  0  0  0  0  0  0  0
  148.7458  139.6287  153.6498 O   0  0  0  0  0  0  0  0  0  0  0  0
  150.0419  137.8291  153.9648 N   0  0  0  0  0  0  0  0  0  0  0  0
  151.2033  137.5043  154.5238 C   0  0  0  0  0  0  0  0  0  0  0  0
  151.7163  136.3874  154.5839 O   0  0  0  0  0  0  0  0  0  0  0  0
  151.6787  136.4819  157.8154 N   0  0  0  0  0  0  0  0  0  0  0  0
  150.7071  135.8093  158.3482 N   0  0  0  0  0  0  0  0  0  0  0  0
  148.4502  135.0185  159.0325 H   0  0  0  0  0  0  0  0  0  0  0  0
  147.5780  136.0368  157.9043 H   0  0  0  0  0  0  0  0  0  0  0  0
  149.0765  138.4594  157.2986 H   0  0  0  0  0  0  0  0  0  0  0  0
  151.8868  139.6606  157.0628 H   0  0  0  0  0  0  0  0  0  0  0  0
  153.1054  138.4551  156.7975 H   0  0  0  0  0  0  0  0  0  0  0  0
  152.7407  138.9704  154.5648 H   0  0  0  0  0  0  0  0  0  0  0  0
  149.4291  137.1716  153.5063 H   0  0  0  0  0  0  0  0  0  0  0  0
  1  2  2  0  0  0  0
  2  3  1  0  0  0  0
  2  4  1  0  0  0  0
  4  5  1  0  0  0  0
  4 18  1  0  0  0  0
  4 19  1  0  0  0  0
  5 17  1  0  0  0  0
  5  6  1  0  0  0  0
  6  7  2  0  0  0  0
  6 20  1  0  0  0  0
  7  8  1  0  0  0  0
  7 16  1  0  0  0  0
  8  9  1  0  0  0  0
  8 21  1  0  0  0  0
  8 22  1  0  0  0  0
  9 14  1  0  0  0  0
  9 10  1  0  0  0  0
  9 23  1  0  0  0  0
 10 11  1  0  0  0  0
 11 12  2  0  0  0  0
 11 13  1  0  0  0  0
 13 14  1  0  0  0  0
 13 24  1  0  0  0  0
 14 15  2  0  0  0  0
 16 17  2  0  0  0  0
M  CHG  1   3  -1
M  CHG  1  10  -1
M  END
> <s_m_source_file>
AV-unprocessed.smi

> <i_m_source_file_index>
2750

> <i_lp_mmshare_version>
43012

> <i_f3d_flags>
0

> <s_epik_input>
Tz1DKFtPSF0pW0NIMl1uMVtjSF1jKG5uMSlbQ0gyXVtDQEBIXTJbTkhdQyg9TylbTkhdQzI9Tw==

> <s_epik_cmdline>
J2VwaWtfcHl0aG9uJywgJy1waCcsICc3LjAnLCAnLXRuJywgJzgnLCAnLW1hJywgJzIwMCcsICctbWV0YWxfYmluZGluZycsICctaW1hZScsICc8aW5maWxlLm1hZT4nLCAnLW9tYWUnLCAnPG91dGZpbGUubWFlPic=

> <r_lp_tautomer_probability>
1

> <r_epik_Ionization_Penalty>
5.10791

> <r_epik_Ionization_Penalty_Charging>
5.10788

> <r_epik_Ionization_Penalty_Neutral>
2.55687e-05

> <r_epik_State_Penalty>
5.12334

> <r_epik_Charging_Adjusted_Penalty>
10.2312

> <i_epik_Tot_Q>
-2

> <i_epik_Tot_abs_Q>
2

> <r_epik_Metal_State_Penalty>
1.50935

> <b_epik_Metal_Only>
1

> <s_lp_Force_Field>
OPLS_2005

> <r_lp_Energy>
16.0951

> <b_lp_Chiralities_Consistent>
1

> <s_lp_Variant>
AV-unprocessed.smi:2750-5

> <Gold.Version>
5.8.1

> <Gold.Id.Protein>
6NUR|6NUR_protein|mol2

> <Gold.PLP.Fitness>
42.5531

> <Gold.PLP.PLP>
-21.2823

> <Gold.PLP.part.hbond>
-6.4984

> <Gold.PLP.part.metal>
0.0000

> <Gold.PLP.part.buried>
-5.2303

> <Gold.PLP.part.nonpolar>
-12.6787

> <Gold.PLP.part.repulsive>
2.7846

> <Gold.PLP.ligand.clash>
0.0000

> <Gold.PLP.ligand.torsion>
0.6143

> <Gold.PLP.Chemscore.Hbond>
7.4959

> <Gold.PLP.Chemscore.CHOScore>
0.0000

> <Gold.PLP.Chemscore.Metal>
0.0000

> <Gold.Chemscore.Hbonds>
donor molecule, donor type, donor heavy atom, donor atom, acceptor molecule, acceptor atom, score
      L1  H    13    24       P1  7948  0.93
      P1  H  6896  6907       L1    17  0.54
      P1  H  6931  6943       L1     1  2.00
      P1  H  6934  6947       L1     3  1.79
      P1  H  7989  7998       L1    10  1.00
      P1  H 10752 10764       L1    15  0.81

> <Gold.PLP.Chemscore.Internal.Correction>
0.0117

> <Gold.Rescore>
     Score         DG    S(hbond)    S(metal)    S(lipo)     H(rot)  DE(clash)    DE(int)     intcor
     12.41     -15.27       4.33        0.00      21.27       2.80       1.43       1.42       ----

> <Gold.Chemscore.Fitness>
12.4090

> <Gold.Chemscore.DG>
-15.2652

> <Gold.Chemscore.ZeroCoef>
-5.4800

> <Gold.Chemscore.Hbond>
4.3287

> <Gold.Chemscore.Metal>
0.0000

> <Gold.Chemscore.Lipo>
21.2704

> <Gold.Chemscore.Internal_Hbond>
0.0000

> <Gold.Chemscore.DEClash>
1.4329

> <Gold.Chemscore.DEInternal>
1.4234

> <Gold.Chemscore.Rot>
2.7973

> <Gold.Chemscore.Internal.Correction>
   9.000000E+99

> <Gold.Chemscore.Hbonds>
donor molecule, donor type, donor heavy atom, donor atom, acceptor molecule, acceptor atom, score
      L1  H    13    24       P1  7948  0.84
      P1  H  6896  6907       L1    17  0.52
      P1  H  6931  6943       L1     1  0.97
      P1  H  6934  6947       L1     3  0.17
      P1  H  7989  7998       L1    10  0.22
      P1  H 10752 10764       L1    15  0.80

> <Gold.Chemscore.Hbond.Weighted>
-14.4577

> <Gold.Chemscore.Metal.Weighted>
-0.0000

> <Gold.Chemscore.Lipo.Weighted>
-2.4886

> <Gold.Chemscore.Internal_Hbond.Weighted>
0.0000

> <Gold.Chemscore.DEClash.Weighted>
1.4329

> <Gold.Chemscore.DEInternal.Weighted>
1.4234

> <Gold.Chemscore.Rot.Weighted>
7.1611

> <Gold.Chemscore.Internal.Correction.Weighted>
   9.000000E+99

> <Gold.Protein.RotatedTorsions>
[ 6907 6896 6895 6894 ] final  -69.69 input  -60.11 | X-H torsion
[ 7974 7965 7964 7962 ] final   55.15 input  175.53 | X-H torsion
[ 8008 7997 7996 7995 ] final -158.60 input   59.86 | X-H torsion
[ 10167 10162 10161 10158 ] final   33.92 input  -65.29 | X-H torsion
[ 10718 10713 10712 10709 ] final   31.41 input   66.30 | X-H torsion
[ 10763 10752 10751 10750 ] final  -57.97 input  -60.55 | X-H torsion
[ 11005 11000 10999 10996 ] final  -81.62 input  -57.11 | X-H torsion

> <Gold.Protein.ActiveResidues>
 VAL166  LYS551  ARG553  GLY616  TRP617  ASP618  TYR619  PRO620  LYS621  CYS622 
 ASP623  PHE694  ASN695  SER759  ASP760  ASP761  ALA762  ILE779  LEU786  VAL792 
 PHE793  MET794  SER795  GLU796  ALA797  LYS798  CYS799  TRP800  GLU811  SER814 

> <Gold.Protein.RotatedAtoms>
  150.7293  134.5561  159.5818 H   0  0  0  0  0  0  0  0  0  0  0  0  # atno 6907 bound_to 6896
  152.3036  134.7579  160.0361 H   0  0  0  0  0  0  0  0  0  0  0  0  # atno 6908 bound_to 6896
  151.8151  133.3351  159.3603 H   0  0  0  0  0  0  0  0  0  0  0  0  # atno 6909 bound_to 6896
  145.9534  139.3993  143.0292 H   0  0  0  0  0  0  0  0  0  0  0  0  # atno 7974 bound_to 7965
  155.7499  140.0825  157.2206 H   0  0  0  0  0  0  0  0  0  0  0  0  # atno 8008 bound_to 7997
  154.4013  140.1562  156.2768 H   0  0  0  0  0  0  0  0  0  0  0  0  # atno 8009 bound_to 7997
  155.8940  140.3413  155.5980 H   0  0  0  0  0  0  0  0  0  0  0  0  # atno 8010 bound_to 7997
  140.4362  144.1253  150.6167 H   0  0  0  0  0  0  0  0  0  0  0  0  # atno 10167 bound_to 10162
  157.2722  130.7213  149.6510 H   0  0  0  0  0  0  0  0  0  0  0  0  # atno 10718 bound_to 10713
  154.2308  135.6361  153.5174 H   0  0  0  0  0  0  0  0  0  0  0  0  # atno 10763 bound_to 10752
  152.9949  135.5519  154.6015 H   0  0  0  0  0  0  0  0  0  0  0  0  # atno 10764 bound_to 10752
  154.5497  135.2900  155.0994 H   0  0  0  0  0  0  0  0  0  0  0  0  # atno 10765 bound_to 10752
  141.1666  133.7205  156.8449 H   0  0  0  0  0  0  0  0  0  0  0  0  # atno 11005 bound_to 11000
  145.8140  140.9712  143.0934 LP  0  0  0  0  0  0  0  0  0  0  0  0  # atno 17320 bound_to 7965
  144.6800  139.9957  143.7484 LP  0  0  0  0  0  0  0  0  0  0  0  0  # atno 17321 bound_to 7965
  140.4370  143.2543  151.9522 LP  0  0  0  0  0  0  0  0  0  0  0  0  # atno 17342 bound_to 10162
  139.4787  144.5690  151.8119 LP  0  0  0  0  0  0  0  0  0  0  0  0  # atno 17343 bound_to 10162
  155.9663  130.4364  150.5132 LP  0  0  0  0  0  0  0  0  0  0  0  0  # atno 17370 bound_to 10713
  157.3059  131.0654  151.2035 LP  0  0  0  0  0  0  0  0  0  0  0  0  # atno 17371 bound_to 10713
  140.1957  134.8933  157.3111 LP  0  0  0  0  0  0  0  0  0  0  0  0  # atno 17394 bound_to 11000
  140.2242  134.3987  155.7551 LP  0  0  0  0  0  0  0  0  0  0  0  0  # atno 17395 bound_to 11000

$$$$
