AV-unprocessed.smi:3223|AV-procd|sdf|12307|dock4
  -GOLD-   2272018153D 1   1.00000     0.00000
 Structure written by MMmdl.
 43 43  0  0  0  0  0  0  0  0  2 V2000
  152.1392  143.0043  158.4136 C   0  0  0  0  0  0  0  0  0  0  0  0
  151.3782  141.9762  157.6272 C   0  0  0  0  0  0  0  0  0  0  0  0
  151.0435  140.6485  158.0177 C   0  0  0  0  0  0  0  0  0  0  0  0
  150.3665  139.9956  157.0875 N   0  0  0  0  0  0  0  0  0  0  0  0
  150.2376  140.8813  156.0768 N   0  0  0  0  0  0  0  0  0  0  0  0
  149.5479  140.4950  154.8573 C   0  0  0  0  0  0  0  0  0  0  0  0
  149.4553  138.9657  154.6776 C   0  0  2  0  0  0  0  0  0  0  0  0
  150.8537  138.3281  154.7174 C   0  0  0  0  0  0  0  0  0  0  0  0
  148.7630  138.6413  153.4092 N   0  3  0  0  0  0  0  0  0  0  0  0
  147.3250  138.9786  153.3755 C   0  0  0  0  0  0  0  0  0  0  0  0
  146.6863  138.5282  152.0511 C   0  0  0  0  0  0  0  0  0  0  0  0
  145.6806  137.3896  152.2436 C   0  0  0  0  0  0  0  0  0  0  0  0
  144.5223  137.6365  152.5797 O   0  0  0  0  0  0  0  0  0  0  0  0
  146.1352  136.1462  152.0214 N   0  0  0  0  0  0  0  0  0  0  0  0
  145.3493  134.9222  152.1500 C   0  0  0  0  0  0  0  0  0  0  0  0
  146.2656  133.7050  151.9671 C   0  0  0  0  0  0  0  0  0  0  0  0
  144.1927  134.9201  151.1387 C   0  0  0  0  0  0  0  0  0  0  0  0
  150.8478  142.0821  156.3726 C   0  0  0  0  0  0  0  0  0  0  0  0
  152.5012  142.6043  159.3609 H   0  0  0  0  0  0  0  0  0  0  0  0
  151.5208  143.8712  158.6466 H   0  0  0  0  0  0  0  0  0  0  0  0
  153.0093  143.3670  157.8659 H   0  0  0  0  0  0  0  0  0  0  0  0
  151.2732  140.1423  158.9436 H   0  0  0  0  0  0  0  0  0  0  0  0
  148.5509  140.9383  154.8651 H   0  0  0  0  0  0  0  0  0  0  0  0
  150.0808  140.9417  154.0166 H   0  0  0  0  0  0  0  0  0  0  0  0
  148.8722  138.5596  155.5057 H   0  0  0  0  0  0  0  0  0  0  0  0
  151.3694  138.5792  155.6448 H   0  0  0  0  0  0  0  0  0  0  0  0
  151.4731  138.6772  153.8906 H   0  0  0  0  0  0  0  0  0  0  0  0
  150.8049  137.2407  154.6621 H   0  0  0  0  0  0  0  0  0  0  0  0
  149.2086  139.1742  152.6758 H   0  0  0  0  0  0  0  0  0  0  0  0
  146.8138  138.5023  154.2125 H   0  0  0  0  0  0  0  0  0  0  0  0
  147.2171  140.0572  153.5016 H   0  0  0  0  0  0  0  0  0  0  0  0
  146.1666  139.3651  151.5830 H   0  0  0  0  0  0  0  0  0  0  0  0
  147.4656  138.2145  151.3545 H   0  0  0  0  0  0  0  0  0  0  0  0
  147.0993  136.0365  151.7418 H   0  0  0  0  0  0  0  0  0  0  0  0
  144.9295  134.8706  153.1561 H   0  0  0  0  0  0  0  0  0  0  0  0
  145.7080  132.7752  152.0825 H   0  0  0  0  0  0  0  0  0  0  0  0
  147.0667  133.7009  152.7073 H   0  0  0  0  0  0  0  0  0  0  0  0
  146.7248  133.6962  150.9779 H   0  0  0  0  0  0  0  0  0  0  0  0
  143.5927  134.0146  151.2331 H   0  0  0  0  0  0  0  0  0  0  0  0
  144.5612  134.9691  150.1135 H   0  0  0  0  0  0  0  0  0  0  0  0
  143.5281  135.7703  151.2952 H   0  0  0  0  0  0  0  0  0  0  0  0
  150.8540  142.9062  155.6743 H   0  0  0  0  0  0  0  0  0  0  0  0
  148.8845  137.6584  153.2115 H   0  0  0  0  0  0  0  0  0  0  0  0
  1  2  1  0  0  0  0
  1 19  1  0  0  0  0
  1 20  1  0  0  0  0
  1 21  1  0  0  0  0
  2 18  2  0  0  0  0
  2  3  1  0  0  0  0
  3  4  2  0  0  0  0
  3 22  1  0  0  0  0
  4  5  1  0  0  0  0
  5  6  1  0  0  0  0
  5 18  1  0  0  0  0
  6  7  1  0  0  0  0
  6 23  1  0  0  0  0
  6 24  1  0  0  0  0
  7  8  1  0  0  0  0
  7  9  1  0  0  0  0
  7 25  1  0  0  0  0
  8 26  1  0  0  0  0
  8 27  1  0  0  0  0
  8 28  1  0  0  0  0
  9 10  1  0  0  0  0
  9 29  1  0  0  0  0
  9 43  1  0  0  0  0
 10 11  1  0  0  0  0
 10 30  1  0  0  0  0
 10 31  1  0  0  0  0
 11 12  1  0  0  0  0
 11 32  1  0  0  0  0
 11 33  1  0  0  0  0
 12 13  2  0  0  0  0
 12 14  1  0  0  0  0
 14 15  1  0  0  0  0
 14 34  1  0  0  0  0
 15 16  1  0  0  0  0
 15 17  1  0  0  0  0
 15 35  1  0  0  0  0
 16 36  1  0  0  0  0
 16 37  1  0  0  0  0
 16 38  1  0  0  0  0
 17 39  1  0  0  0  0
 17 40  1  0  0  0  0
 17 41  1  0  0  0  0
 18 42  1  0  0  0  0
M  CHG  1   9   1
M  END
> <s_m_source_file>
AV-unprocessed.smi

> <i_m_source_file_index>
3223

> <i_lp_mmshare_version>
43012

> <i_f3d_flags>
0

> <s_epik_input>
W0NIM11jMVtjSF1ubihbY0hdMSlbQ0gyXVtDQEhdKFtDSDNdKVtOSF1bQ0gyXVtDSDJdQyg9TylbTkhdW0NIXShbQ0gzXSlbQ0gzXQ==

> <s_epik_cmdline>
J2VwaWtfcHl0aG9uJywgJy1waCcsICc3LjAnLCAnLXRuJywgJzgnLCAnLW1hJywgJzIwMCcsICctbWV0YWxfYmluZGluZycsICctaW1hZScsICc8aW5maWxlLm1hZT4nLCAnLW9tYWUnLCAnPG91dGZpbGUubWFlPic=

> <r_lp_tautomer_probability>
1

> <r_epik_Ionization_Penalty>
0.0057861

> <r_epik_Ionization_Penalty_Charging>
0.00577767

> <r_epik_Ionization_Penalty_Neutral>
8.4224e-06

> <r_epik_State_Penalty>
0.00424195

> <r_epik_Charging_Adjusted_Penalty>
0.0100196

> <i_epik_Tot_Q>
1

> <i_epik_Tot_abs_Q>
1

> <r_epik_Metal_State_Penalty>
-0

> <b_epik_Metal_Only>
0

> <s_lp_Force_Field>
OPLS_2005

> <r_lp_Energy>
5.53081

> <b_lp_Chiralities_Consistent>
1

> <s_lp_Variant>
AV-unprocessed.smi:3223-1

> <Gold.Version>
5.8.1

> <Gold.Id.Protein>
6NUR|6NUR_protein|mol2

> <Gold.PLP.Fitness>
50.7382

> <Gold.PLP.PLP>
-37.8246

> <Gold.PLP.part.hbond>
-2.7897

> <Gold.PLP.part.metal>
0.0000

> <Gold.PLP.part.buried>
-3.3602

> <Gold.PLP.part.nonpolar>
-32.6108

> <Gold.PLP.part.repulsive>
0.8284

> <Gold.PLP.ligand.clash>
0.0000

> <Gold.PLP.ligand.torsion>
1.0542

> <Gold.PLP.Chemscore.Hbond>
3.9513

> <Gold.PLP.Chemscore.CHOScore>
1.0000

> <Gold.PLP.Chemscore.Metal>
0.0000

> <Gold.Chemscore.Hbonds>
donor molecule, donor type, donor heavy atom, donor atom, acceptor molecule, acceptor atom, score
      L1  H     9    29       P1  7957  1.00
      L1  H     9    43       P1  7948  1.89
      L1  H    14    34       P1  7948  1.00
      L1  C    18    42       P1  8028  0.55

> <Gold.PLP.Chemscore.Internal.Correction>
0.1683

> <Gold.Rescore>
     Score         DG    S(hbond)    S(metal)    S(lipo)     H(rot)  DE(clash)    DE(int)     intcor
     18.06     -19.30       2.92        0.00      82.69       2.19       0.02       1.22       ----

> <Gold.Chemscore.Fitness>
18.0610

> <Gold.Chemscore.DG>
-19.2997

> <Gold.Chemscore.ZeroCoef>
-5.4800

> <Gold.Chemscore.Hbond>
2.9158

> <Gold.Chemscore.Metal>
0.0000

> <Gold.Chemscore.Lipo>
82.6872

> <Gold.Chemscore.Internal_Hbond>
0.0000

> <Gold.Chemscore.DEClash>
0.0186

> <Gold.Chemscore.DEInternal>
1.2200

> <Gold.Chemscore.Rot>
2.1850

> <Gold.Chemscore.Internal.Correction>
   9.000000E+99

> <Gold.Chemscore.Hbonds>
donor molecule, donor type, donor heavy atom, donor atom, acceptor molecule, acceptor atom, score
      L1  H     9    29       P1  7957  1.00
      L1  H     9    43       P1  7948  0.90
      L1  H    14    34       P1  7948  0.99

> <Gold.Chemscore.Hbond.Weighted>
-9.7389

> <Gold.Chemscore.Metal.Weighted>
-0.0000

> <Gold.Chemscore.Lipo.Weighted>
-9.6744

> <Gold.Chemscore.Internal_Hbond.Weighted>
0.0000

> <Gold.Chemscore.DEClash.Weighted>
0.0186

> <Gold.Chemscore.DEInternal.Weighted>
1.2200

> <Gold.Chemscore.Rot.Weighted>
5.5936

> <Gold.Chemscore.Internal.Correction.Weighted>
   9.000000E+99

> <Gold.Protein.RotatedTorsions>
[ 6907 6896 6895 6894 ] final -167.00 input  -60.11 | X-H torsion
[ 7974 7965 7964 7962 ] final  -10.43 input  175.53 | X-H torsion
[ 8008 7997 7996 7995 ] final  -97.49 input   59.86 | X-H torsion
[ 10167 10162 10161 10158 ] final   52.19 input  -65.29 | X-H torsion
[ 10718 10713 10712 10709 ] final   69.26 input   66.30 | X-H torsion
[ 10763 10752 10751 10750 ] final   58.87 input  -60.55 | X-H torsion
[ 11005 11000 10999 10996 ] final   57.77 input  -57.11 | X-H torsion

> <Gold.Protein.ActiveResidues>
 VAL166  LYS551  ARG553  GLY616  TRP617  ASP618  TYR619  PRO620  LYS621  CYS622 
 ASP623  PHE694  ASN695  SER759  ASP760  ASP761  ALA762  ILE779  LEU786  VAL792 
 PHE793  MET794  SER795  GLU796  ALA797  LYS798  CYS799  TRP800  GLU811  SER814 

> <Gold.Protein.RotatedAtoms>
  151.4525  133.3614  159.2797 H   0  0  0  0  0  0  0  0  0  0  0  0  # atno 6907 bound_to 6896
  150.9081  134.8498  159.7417 H   0  0  0  0  0  0  0  0  0  0  0  0  # atno 6908 bound_to 6896
  152.4917  134.4452  159.9608 H   0  0  0  0  0  0  0  0  0  0  0  0  # atno 6909 bound_to 6896
  146.2221  140.2762  142.8359 H   0  0  0  0  0  0  0  0  0  0  0  0  # atno 7974 bound_to 7965
  154.7884  140.0462  157.1182 H   0  0  0  0  0  0  0  0  0  0  0  0  # atno 8008 bound_to 7997
  154.9620  140.3078  155.5006 H   0  0  0  0  0  0  0  0  0  0  0  0  # atno 8009 bound_to 7997
  156.2946  140.2269  156.4706 H   0  0  0  0  0  0  0  0  0  0  0  0  # atno 8010 bound_to 7997
  140.2539  144.3448  150.6339 H   0  0  0  0  0  0  0  0  0  0  0  0  # atno 10167 bound_to 10162
  157.6336  130.9417  150.0490 H   0  0  0  0  0  0  0  0  0  0  0  0  # atno 10718 bound_to 10713
  152.9881  135.5591  154.5622 H   0  0  0  0  0  0  0  0  0  0  0  0  # atno 10763 bound_to 10752
  154.5039  135.2798  155.1400 H   0  0  0  0  0  0  0  0  0  0  0  0  # atno 10764 bound_to 10752
  154.2820  135.6343  153.5404 H   0  0  0  0  0  0  0  0  0  0  0  0  # atno 10765 bound_to 10752
  140.0427  134.5850  155.9361 H   0  0  0  0  0  0  0  0  0  0  0  0  # atno 11005 bound_to 11000
  144.9231  140.7890  143.5736 LP  0  0  0  0  0  0  0  0  0  0  0  0  # atno 17320 bound_to 7965
  145.2700  139.1958  143.4846 LP  0  0  0  0  0  0  0  0  0  0  0  0  # atno 17321 bound_to 7965
  140.6019  143.2167  151.7056 LP  0  0  0  0  0  0  0  0  0  0  0  0  # atno 17342 bound_to 10162
  139.5037  144.3780  152.0404 LP  0  0  0  0  0  0  0  0  0  0  0  0  # atno 17343 bound_to 10162
  156.1558  130.3643  149.9371 LP  0  0  0  0  0  0  0  0  0  0  0  0  # atno 17370 bound_to 10713
  156.7381  130.9069  151.3630 LP  0  0  0  0  0  0  0  0  0  0  0  0  # atno 17371 bound_to 10713
  141.1891  133.6564  156.5354 LP  0  0  0  0  0  0  0  0  0  0  0  0  # atno 17394 bound_to 11000
  140.4043  134.7329  157.4798 LP  0  0  0  0  0  0  0  0  0  0  0  0  # atno 17395 bound_to 11000

$$$$
