AV-unprocessed.smi:44|AV-procd|sdf|400|dock7
  -GOLD-   2262016253D 1   1.00000     0.00000
 Structure written by MMmdl.
 29 31  0  0  0  0  0  0  0  0  3 V2000
  149.0385  141.6176  154.9965 O   0  0  0  0  0  0  0  0  0  0  0  0
  150.0506  141.1759  155.5364 C   0  0  0  0  0  0  0  0  0  0  0  0
  150.7486  140.0381  155.2192 N   0  5  0  0  0  0  0  0  0  0  0  0
  151.8858  139.6567  155.9231 C   0  0  0  0  0  0  0  0  0  0  0  0
  152.4311  140.2649  156.9164 N   0  0  0  0  0  0  0  0  0  0  0  0
  151.7876  141.4456  157.3163 C   0  0  0  0  0  0  0  0  0  0  0  0
  150.6559  141.9169  156.6925 C   0  0  0  0  0  0  0  0  0  0  0  0
  150.2500  143.0784  157.2930 N   0  3  0  0  0  0  0  0  0  0  0  0
  151.1548  143.2589  158.2552 C   0  0  0  0  0  0  0  0  0  0  0  0
  152.1268  142.3013  158.3335 N   0  0  0  0  0  0  0  0  0  0  0  0
  153.2622  142.2398  159.3002 C   0  0  2  0  0  0  0  0  0  0  0  0
  153.4133  140.8187  159.8551 C   0  0  0  0  0  0  0  0  0  0  0  0
  153.6646  141.0899  161.3222 C   0  0  0  0  0  0  0  0  0  0  0  0
  152.7796  142.3127  161.5569 C   0  0  1  0  0  0  0  0  0  0  0  0
  153.1479  143.1381  162.7975 C   0  0  0  0  0  0  0  0  0  0  0  0
  152.3685  144.3137  162.8471 O   0  0  0  0  0  0  0  0  0  0  0  0
  152.9753  143.0852  160.3768 O   0  0  0  0  0  0  0  0  0  0  0  0
  149.4552  143.6605  157.0619 H   0  0  0  0  0  0  0  0  0  0  0  0
  154.1340  142.5988  158.7517 H   0  0  0  0  0  0  0  0  0  0  0  0
  151.7314  142.0117  161.5999 H   0  0  0  0  0  0  0  0  0  0  0  0
  152.3124  138.7280  155.5358 H   0  0  0  0  0  0  0  0  0  0  0  0
  151.1248  144.0988  158.9250 H   0  0  0  0  0  0  0  0  0  0  0  0
  152.4868  140.2569  159.7250 H   0  0  0  0  0  0  0  0  0  0  0  0
  154.2261  140.2864  159.3605 H   0  0  0  0  0  0  0  0  0  0  0  0
  153.4050  140.2464  161.9622 H   0  0  0  0  0  0  0  0  0  0  0  0
  154.7152  141.3352  161.4854 H   0  0  0  0  0  0  0  0  0  0  0  0
  153.0010  142.5612  163.7109 H   0  0  0  0  0  0  0  0  0  0  0  0
  154.1995  143.4236  162.7602 H   0  0  0  0  0  0  0  0  0  0  0  0
  151.4618  144.0688  162.9533 H   0  0  0  0  0  0  0  0  0  0  0  0
  1  2  2  0  0  0  0
  2  7  1  0  0  0  0
  2  3  1  0  0  0  0
  3  4  1  0  0  0  0
  4 21  1  0  0  0  0
  4  5  2  0  0  0  0
  5  6  1  0  0  0  0
  6 10  1  0  0  0  0
  6  7  2  0  0  0  0
  7  8  1  0  0  0  0
  8  9  2  0  0  0  0
  8 18  1  0  0  0  0
  9 10  1  0  0  0  0
  9 22  1  0  0  0  0
 10 11  1  0  0  0  0
 11 19  1  0  0  0  0
 11 17  1  0  0  0  0
 11 12  1  0  0  0  0
 12 13  1  0  0  0  0
 12 23  1  0  0  0  0
 12 24  1  0  0  0  0
 13 14  1  0  0  0  0
 13 25  1  0  0  0  0
 13 26  1  0  0  0  0
 14 20  1  0  0  0  0
 14 15  1  0  0  0  0
 14 17  1  0  0  0  0
 15 16  1  0  0  0  0
 15 27  1  0  0  0  0
 15 28  1  0  0  0  0
 16 29  1  0  0  0  0
M  CHG  1   3  -1
M  CHG  1   8   1
M  END
> <s_m_source_file>
AV-unprocessed.smi

> <i_m_source_file_index>
44

> <i_lp_mmshare_version>
43012

> <i_f3d_flags>
0

> <s_epik_input>
bjFbY0hdW25IXWMoPU8pYyhjMTIpbltjSF1uMltDQEhdM1tDSDJdW0NIMl1bQ0BIXShPMylbQ0gyXVtPSF0=

> <s_epik_cmdline>
J2VwaWtfcHl0aG9uJywgJy1waCcsICc3LjAnLCAnLXRuJywgJzgnLCAnLW1hJywgJzIwMCcsICctbWV0YWxfYmluZGluZycsICctaW1hZScsICc8aW5maWxlLm1hZT4nLCAnLW9tYWUnLCAnPG91dGZpbGUubWFlPic=

> <r_lp_tautomer_probability>
0.144281

> <r_epik_Ionization_Penalty>
5.63685

> <r_epik_Ionization_Penalty_Charging>
5.58669

> <r_epik_Ionization_Penalty_Neutral>
0.0501585

> <r_epik_State_Penalty>
1.20809

> <r_epik_Charging_Adjusted_Penalty>
6.79478

> <i_epik_Tot_Q>
0

> <i_epik_Tot_abs_Q>
2

> <r_epik_Metal_State_Penalty>
1.52487

> <b_epik_Metal_Only>
0

> <s_epik_Chemistry_Notes>
This compound contains an acetal/aminal-like group ( X-CH(R)-Y where X, Y are N, S, or O) that may be acid/base labile, releasing an aldehyde.

> <s_lp_Force_Field>
OPLS_2005

> <r_lp_Energy>
45.8443

> <b_lp_Chiralities_Consistent>
1

> <s_lp_Variant>
AV-unprocessed.smi:44-6

> <Gold.Version>
5.8.1

> <Gold.Id.Protein>
6NUR|6NUR_protein|mol2

> <Gold.PLP.Fitness>
46.7459

> <Gold.PLP.PLP>
-37.4713

> <Gold.PLP.part.hbond>
-5.0000

> <Gold.PLP.part.metal>
0.0000

> <Gold.PLP.part.buried>
-5.2454

> <Gold.PLP.part.nonpolar>
-25.4420

> <Gold.PLP.part.repulsive>
0.2082

> <Gold.PLP.ligand.clash>
0.0000

> <Gold.PLP.ligand.torsion>
0.4410

> <Gold.PLP.Chemscore.Hbond>
3.3820

> <Gold.PLP.Chemscore.CHOScore>
0.0000

> <Gold.PLP.Chemscore.Metal>
0.0000

> <Gold.Chemscore.Hbonds>
donor molecule, donor type, donor heavy atom, donor atom, acceptor molecule, acceptor atom, score
      L1  H     8    18       P1  8028  1.57
      P1  H  7989  7998       L1     3  0.57
      P1  H  7997  8010       L1     5  1.00

> <Gold.PLP.Chemscore.Internal.Correction>
0.0106

> <Gold.Rescore>
     Score         DG    S(hbond)    S(metal)    S(lipo)     H(rot)  DE(clash)    DE(int)     intcor
      8.48     -10.23       1.50        0.00      47.42       2.27       1.35       0.40       ----

> <Gold.Chemscore.Fitness>
8.4827

> <Gold.Chemscore.DG>
-10.2298

> <Gold.Chemscore.ZeroCoef>
-5.4800

> <Gold.Chemscore.Hbond>
1.5023

> <Gold.Chemscore.Metal>
0.0000

> <Gold.Chemscore.Lipo>
47.4248

> <Gold.Chemscore.Internal_Hbond>
0.0000

> <Gold.Chemscore.DEClash>
1.3511

> <Gold.Chemscore.DEInternal>
0.3960

> <Gold.Chemscore.Rot>
2.2720

> <Gold.Chemscore.Internal.Correction>
   9.000000E+99

> <Gold.Chemscore.Hbonds>
donor molecule, donor type, donor heavy atom, donor atom, acceptor molecule, acceptor atom, score
      L1  H     8    18       P1  8028  0.64
      P1  H  7989  7998       L1     3  0.02
      P1  H  7997  8010       L1     5  0.33

> <Gold.Chemscore.Hbond.Weighted>
-5.0175

> <Gold.Chemscore.Metal.Weighted>
-0.0000

> <Gold.Chemscore.Lipo.Weighted>
-5.5487

> <Gold.Chemscore.Internal_Hbond.Weighted>
0.0000

> <Gold.Chemscore.DEClash.Weighted>
1.3511

> <Gold.Chemscore.DEInternal.Weighted>
0.3960

> <Gold.Chemscore.Rot.Weighted>
5.8164

> <Gold.Chemscore.Internal.Correction.Weighted>
   9.000000E+99

> <Gold.Protein.RotatedTorsions>
[ 6907 6896 6895 6894 ] final -173.29 input  -60.11 | X-H torsion
[ 7974 7965 7964 7962 ] final   48.31 input  175.53 | X-H torsion
[ 8008 7997 7996 7995 ] final   69.32 input   59.86 | X-H torsion
[ 10167 10162 10161 10158 ] final  -27.46 input  -65.29 | X-H torsion
[ 10718 10713 10712 10709 ] final -171.56 input   66.30 | X-H torsion
[ 10763 10752 10751 10750 ] final   27.18 input  -60.55 | X-H torsion
[ 11005 11000 10999 10996 ] final -173.55 input  -57.11 | X-H torsion

> <Gold.Protein.ActiveResidues>
 VAL166  LYS551  ARG553  GLY616  TRP617  ASP618  TYR619  PRO620  LYS621  CYS622 
 ASP623  PHE694  ASN695  SER759  ASP760  ASP761  ALA762  ILE779  LEU786  VAL792 
 PHE793  MET794  SER795  GLU796  ALA797  LYS798  CYS799  TRP800  GLU811  SER814 

> <Gold.Protein.RotatedAtoms>
  151.5538  133.3413  159.2957 H   0  0  0  0  0  0  0  0  0  0  0  0  # atno 6907 bound_to 6896
  150.8463  134.7775  159.6984 H   0  0  0  0  0  0  0  0  0  0  0  0  # atno 6908 bound_to 6896
  152.4520  134.5381  159.9882 H   0  0  0  0  0  0  0  0  0  0  0  0  # atno 6909 bound_to 6896
  146.0216  139.4658  142.9893 H   0  0  0  0  0  0  0  0  0  0  0  0  # atno 7974 bound_to 7965
  155.7218  140.3493  155.5019 H   0  0  0  0  0  0  0  0  0  0  0  0  # atno 8008 bound_to 7997
  155.9263  140.1076  157.1189 H   0  0  0  0  0  0  0  0  0  0  0  0  # atno 8009 bound_to 7997
  154.4078  140.1240  156.4731 H   0  0  0  0  0  0  0  0  0  0  0  0  # atno 8010 bound_to 7997
  140.7277  143.4091  151.1135 H   0  0  0  0  0  0  0  0  0  0  0  0  # atno 10167 bound_to 10162
  156.7427  130.9348  151.3111 H   0  0  0  0  0  0  0  0  0  0  0  0  # atno 10718 bound_to 10713
  153.0572  135.6543  154.0548 H   0  0  0  0  0  0  0  0  0  0  0  0  # atno 10763 bound_to 10752
  154.0223  135.2919  155.3381 H   0  0  0  0  0  0  0  0  0  0  0  0  # atno 10764 bound_to 10752
  154.6894  135.5289  153.8438 H   0  0  0  0  0  0  0  0  0  0  0  0  # atno 10765 bound_to 10752
  140.4845  134.6043  157.4932 H   0  0  0  0  0  0  0  0  0  0  0  0  # atno 11005 bound_to 11000
  145.7183  141.0083  143.1416 LP  0  0  0  0  0  0  0  0  0  0  0  0  # atno 17320 bound_to 7965
  144.6992  139.8840  143.7449 LP  0  0  0  0  0  0  0  0  0  0  0  0  # atno 17321 bound_to 7965
  139.7722  143.8477  152.3122 LP  0  0  0  0  0  0  0  0  0  0  0  0  # atno 17342 bound_to 10162
  139.8400  144.7214  150.9343 LP  0  0  0  0  0  0  0  0  0  0  0  0  # atno 17343 bound_to 10162
  157.6811  130.9141  150.0271 LP  0  0  0  0  0  0  0  0  0  0  0  0  # atno 17370 bound_to 10713
  156.1454  130.3642  149.9519 LP  0  0  0  0  0  0  0  0  0  0  0  0  # atno 17371 bound_to 10713
  139.9806  134.7143  155.9867 LP  0  0  0  0  0  0  0  0  0  0  0  0  # atno 17394 bound_to 11000
  141.1515  133.6548  156.4027 LP  0  0  0  0  0  0  0  0  0  0  0  0  # atno 17395 bound_to 11000

$$$$
