AV-unprocessed.smi:113|AV-procd|sdf|1096|dock4
  -GOLD-   2262018203D 1   1.00000     0.00000
 Structure written by MMmdl.
 52 55  0  0  0  0  0  0  0  0  1 V2000
  151.3040  145.4701  158.9800 C   0  0  0  0  0  0  0  0  0  0  0  0
  151.6000  143.9851  158.9485 C   0  0  0  0  0  0  0  0  0  0  0  0
  150.8638  143.1238  158.1158 C   0  0  0  0  0  0  0  0  0  0  0  0
  151.1687  141.7434  158.1157 C   0  0  0  0  0  0  0  0  0  0  0  0
  150.3974  140.7621  157.2263 C   0  0  0  0  0  0  0  0  0  0  0  0
  149.1566  141.2458  156.6375 N   0  0  0  0  0  0  0  0  0  0  0  0
  149.0048  141.1351  155.2334 C   0  0  0  0  0  0  0  0  0  0  0  0
  149.8845  140.6388  154.5263 O   0  0  0  0  0  0  0  0  0  0  0  0
  147.7348  141.6368  154.7033 C   0  0  0  0  0  0  0  0  0  0  0  0
  147.5180  141.5922  153.1990 C   0  0  0  0  0  0  0  0  0  0  0  0
  146.7971  142.1223  155.5517 C   0  0  0  0  0  0  0  0  0  0  0  0
  146.9550  142.1773  156.9261 N   0  0  0  0  0  0  0  0  0  0  0  0
  145.8582  142.7154  157.8163 C   0  0  1  0  0  0  0  0  0  0  0  0
  145.4565  141.6805  158.8686 C   0  0  0  0  0  0  0  0  0  0  0  0
  145.2177  142.5575  160.0796 C   0  0  1  0  0  0  0  0  0  0  0  0
  145.3834  141.8208  161.2739 O   0  0  0  0  0  0  0  0  0  0  0  0
  146.2860  143.6401  159.8987 C   0  0  2  0  0  0  0  0  0  0  0  0
  145.9830  144.9715  160.6032 C   0  0  0  0  0  0  0  0  0  0  0  0
  145.8511  144.7762  161.9950 O   0  0  0  0  0  0  0  0  0  0  0  0
  146.3262  143.8490  158.4883 O   0  0  0  0  0  0  0  0  0  0  0  0
  148.1650  141.7494  157.5096 C   0  0  0  0  0  0  0  0  0  0  0  0
  148.3395  141.8078  158.7292 O   0  0  0  0  0  0  0  0  0  0  0  0
  152.2143  141.2927  158.9661 C   0  0  0  0  0  0  0  0  0  0  0  0
  152.5849  139.9272  159.0233 C   0  0  0  0  0  0  0  0  0  0  0  0
  153.6207  139.5013  159.8737 C   0  0  0  0  0  0  0  0  0  0  0  0
  154.2970  140.4351  160.6758 C   0  0  0  0  0  0  0  0  0  0  0  0
  153.9358  141.7934  160.6240 C   0  0  0  0  0  0  0  0  0  0  0  0
  152.9004  142.2442  159.7773 C   0  0  0  0  0  0  0  0  0  0  0  0
  152.5885  143.5588  159.7586 N   0  0  0  0  0  0  0  0  0  0  0  0
  150.7735  145.7825  158.0798 H   0  0  0  0  0  0  0  0  0  0  0  0
  152.2261  146.0489  159.0452 H   0  0  0  0  0  0  0  0  0  0  0  0
  150.6843  145.7111  159.8439 H   0  0  0  0  0  0  0  0  0  0  0  0
  150.0807  143.5308  157.4939 H   0  0  0  0  0  0  0  0  0  0  0  0
  151.0331  140.4153  156.4101 H   0  0  0  0  0  0  0  0  0  0  0  0
  150.1584  139.8556  157.7842 H   0  0  0  0  0  0  0  0  0  0  0  0
  146.5603  142.0282  152.9132 H   0  0  0  0  0  0  0  0  0  0  0  0
  147.5359  140.5617  152.8425 H   0  0  0  0  0  0  0  0  0  0  0  0
  148.3026  142.1470  152.6830 H   0  0  0  0  0  0  0  0  0  0  0  0
  145.8762  142.4893  155.1245 H   0  0  0  0  0  0  0  0  0  0  0  0
  145.0331  143.0301  157.1760 H   0  0  0  0  0  0  0  0  0  0  0  0
  144.5820  141.1113  158.5521 H   0  0  0  0  0  0  0  0  0  0  0  0
  146.2867  140.9932  159.0431 H   0  0  0  0  0  0  0  0  0  0  0  0
  144.2163  142.9888  160.0372 H   0  0  0  0  0  0  0  0  0  0  0  0
  144.5550  141.4275  161.5029 H   0  0  0  0  0  0  0  0  0  0  0  0
  147.2629  143.2618  160.2049 H   0  0  0  0  0  0  0  0  0  0  0  0
  146.7987  145.6755  160.4366 H   0  0  0  0  0  0  0  0  0  0  0  0
  145.0763  145.4293  160.2068 H   0  0  0  0  0  0  0  0  0  0  0  0
  145.9145  143.8505  162.1758 H   0  0  0  0  0  0  0  0  0  0  0  0
  152.0859  139.1840  158.4204 H   0  0  0  0  0  0  0  0  0  0  0  0
  153.8958  138.4574  159.9096 H   0  0  0  0  0  0  0  0  0  0  0  0
  155.0925  140.1108  161.3304 H   0  0  0  0  0  0  0  0  0  0  0  0
  154.4637  142.5022  161.2454 H   0  0  0  0  0  0  0  0  0  0  0  0
  1  2  1  0  0  0  0
  1 30  1  0  0  0  0
  1 31  1  0  0  0  0
  1 32  1  0  0  0  0
  2 29  1  0  0  0  0
  2  3  2  0  0  0  0
  3  4  1  0  0  0  0
  3 33  1  0  0  0  0
  4  5  1  0  0  0  0
  4 23  2  0  0  0  0
  5  6  1  0  0  0  0
  5 34  1  0  0  0  0
  5 35  1  0  0  0  0
  6 21  1  0  0  0  0
  6  7  1  0  0  0  0
  7  8  2  0  0  0  0
  7  9  1  0  0  0  0
  9 10  1  0  0  0  0
  9 11  2  0  0  0  0
 10 36  1  0  0  0  0
 10 37  1  0  0  0  0
 10 38  1  0  0  0  0
 11 12  1  0  0  0  0
 11 39  1  0  0  0  0
 12 13  1  0  0  0  0
 12 21  1  0  0  0  0
 13 20  1  0  0  0  0
 13 14  1  0  0  0  0
 13 40  1  0  0  0  0
 14 15  1  0  0  0  0
 14 41  1  0  0  0  0
 14 42  1  0  0  0  0
 15 16  1  0  0  0  0
 15 17  1  0  0  0  0
 15 43  1  0  0  0  0
 16 44  1  0  0  0  0
 17 18  1  0  0  0  0
 17 20  1  0  0  0  0
 17 45  1  0  0  0  0
 18 19  1  0  0  0  0
 18 46  1  0  0  0  0
 18 47  1  0  0  0  0
 19 48  1  0  0  0  0
 21 22  2  0  0  0  0
 23 28  1  0  0  0  0
 23 24  1  0  0  0  0
 24 25  2  0  0  0  0
 24 49  1  0  0  0  0
 25 26  1  0  0  0  0
 25 50  1  0  0  0  0
 26 27  2  0  0  0  0
 26 51  1  0  0  0  0
 27 28  1  0  0  0  0
 27 52  1  0  0  0  0
 28 29  2  0  0  0  0
M  END
> <s_m_source_file>
AV-unprocessed.smi

> <i_m_source_file_index>
113

> <i_lp_mmshare_version>
43012

> <i_f3d_flags>
0

> <s_epik_input>
W2NIXTFbY0hdW2NIXVtjSF1jKGMxMiluYyhbQ0gzXSlbY0hdYzJbQ0gyXW4zYyg9TyljKFtDSDNdKVtjSF1uKGMzPU8pW0NAQEhdNFtDSDJdW0NAQEhdKFtPSF0pW0NASF0oTzQpW0NIMl1bT0hd

> <s_epik_cmdline>
J2VwaWtfcHl0aG9uJywgJy1waCcsICc3LjAnLCAnLXRuJywgJzgnLCAnLW1hJywgJzIwMCcsICctbWV0YWxfYmluZGluZycsICctaW1hZScsICc8aW5maWxlLm1hZT4nLCAnLW9tYWUnLCAnPG91dGZpbGUubWFlPic=

> <r_lp_tautomer_probability>
1

> <r_epik_Ionization_Penalty>
0.214728

> <r_epik_Ionization_Penalty_Charging>
3.04883e-08

> <r_epik_Ionization_Penalty_Neutral>
0.214728

> <r_epik_State_Penalty>
0.204913

> <r_epik_Charging_Adjusted_Penalty>
0.204913

> <i_epik_Tot_Q>
0

> <i_epik_Tot_abs_Q>
0

> <r_epik_Metal_State_Penalty>
0.000244761

> <b_epik_Metal_Only>
0

> <s_epik_Chemistry_Notes>
This compound contains an acetal/aminal-like group ( X-CH(R)-Y where X, Y are N, S, or O) that may be acid/base labile, releasing an aldehyde.

> <s_lp_Force_Field>
OPLS_2005

> <r_lp_Energy>
37.2315

> <b_lp_Chiralities_Consistent>
1

> <s_lp_Variant>
AV-unprocessed.smi:113-6

> <Gold.Version>
5.8.1

> <Gold.Id.Protein>
6NUR|6NUR_protein|mol2

> <Gold.PLP.Fitness>
54.6619

> <Gold.PLP.PLP>
-50.3955

> <Gold.PLP.part.hbond>
-5.7585

> <Gold.PLP.part.metal>
0.0000

> <Gold.PLP.part.buried>
-8.3803

> <Gold.PLP.part.nonpolar>
-37.4950

> <Gold.PLP.part.repulsive>
2.1479

> <Gold.PLP.ligand.clash>
0.0000

> <Gold.PLP.ligand.torsion>
0.2145

> <Gold.PLP.Chemscore.Hbond>
1.5592

> <Gold.PLP.Chemscore.CHOScore>
0.0000

> <Gold.PLP.Chemscore.Metal>
0.0000

> <Gold.Chemscore.Hbonds>
donor molecule, donor type, donor heavy atom, donor atom, acceptor molecule, acceptor atom, score
      P1  H  6934  6946       L1    16  0.72
      P1  H  7989  7998       L1     8  0.78

> <Gold.PLP.Chemscore.Internal.Correction>
0.0177

> <Gold.Rescore>
     Score         DG    S(hbond)    S(metal)    S(lipo)     H(rot)  DE(clash)    DE(int)     intcor
     11.97     -15.18       0.93        0.00     120.80       2.95       0.97       2.23       ----

> <Gold.Chemscore.Fitness>
11.9734

> <Gold.Chemscore.DG>
-15.1808

> <Gold.Chemscore.ZeroCoef>
-5.4800

> <Gold.Chemscore.Hbond>
0.9314

> <Gold.Chemscore.Metal>
0.0000

> <Gold.Chemscore.Lipo>
120.8028

> <Gold.Chemscore.Internal_Hbond>
0.0000

> <Gold.Chemscore.DEClash>
0.9737

> <Gold.Chemscore.DEInternal>
2.2337

> <Gold.Chemscore.Rot>
2.9469

> <Gold.Chemscore.Internal.Correction>
   9.000000E+99

> <Gold.Chemscore.Hbonds>
donor molecule, donor type, donor heavy atom, donor atom, acceptor molecule, acceptor atom, score
      P1  H  6934  6946       L1    16  0.14
      P1  H  7989  7998       L1     8  0.73

> <Gold.Chemscore.Hbond.Weighted>
-3.1108

> <Gold.Chemscore.Metal.Weighted>
-0.0000

> <Gold.Chemscore.Lipo.Weighted>
-14.1339

> <Gold.Chemscore.Internal_Hbond.Weighted>
0.0000

> <Gold.Chemscore.DEClash.Weighted>
0.9737

> <Gold.Chemscore.DEInternal.Weighted>
2.2337

> <Gold.Chemscore.Rot.Weighted>
7.5439

> <Gold.Chemscore.Internal.Correction.Weighted>
   9.000000E+99

> <Gold.Protein.RotatedTorsions>
[ 6907 6896 6895 6894 ] final  -14.53 input  -60.11 | X-H torsion
[ 7974 7965 7964 7962 ] final   55.88 input  175.53 | X-H torsion
[ 8008 7997 7996 7995 ] final -147.67 input   59.86 | X-H torsion
[ 10167 10162 10161 10158 ] final   39.30 input  -65.29 | X-H torsion
[ 10718 10713 10712 10709 ] final -116.46 input   66.30 | X-H torsion
[ 10763 10752 10751 10750 ] final  172.99 input  -60.55 | X-H torsion
[ 11005 11000 10999 10996 ] final   24.31 input  -57.11 | X-H torsion

> <Gold.Protein.ActiveResidues>
 VAL166  LYS551  ARG553  GLY616  TRP617  ASP618  TYR619  PRO620  LYS621  CYS622 
 ASP623  PHE694  ASN695  SER759  ASP760  ASP761  ALA762  ILE779  LEU786  VAL792 
 PHE793  MET794  SER795  GLU796  ALA797  LYS798  CYS799  TRP800  GLU811  SER814 

> <Gold.Protein.RotatedAtoms>
  151.3379  135.0857  159.9360 H   0  0  0  0  0  0  0  0  0  0  0  0  # atno 6907 bound_to 6896
  152.5218  133.9477  159.7667 H   0  0  0  0  0  0  0  0  0  0  0  0  # atno 6908 bound_to 6896
  150.9828  133.6175  159.2750 H   0  0  0  0  0  0  0  0  0  0  0  0  # atno 6909 bound_to 6896
  145.9458  139.3928  143.0336 H   0  0  0  0  0  0  0  0  0  0  0  0  # atno 7974 bound_to 7965
  155.5792  140.0642  157.2787 H   0  0  0  0  0  0  0  0  0  0  0  0  # atno 8008 bound_to 7997
  154.4337  140.1855  156.1006 H   0  0  0  0  0  0  0  0  0  0  0  0  # atno 8009 bound_to 7997
  156.0317  140.3305  155.7151 H   0  0  0  0  0  0  0  0  0  0  0  0  # atno 8010 bound_to 7997
  140.3853  144.1926  150.6130 H   0  0  0  0  0  0  0  0  0  0  0  0  # atno 10167 bound_to 10162
  156.0965  130.6136  150.9038 H   0  0  0  0  0  0  0  0  0  0  0  0  # atno 10718 bound_to 10713
  154.4338  135.2760  155.1894 H   0  0  0  0  0  0  0  0  0  0  0  0  # atno 10763 bound_to 10752
  154.3789  135.6092  153.5784 H   0  0  0  0  0  0  0  0  0  0  0  0  # atno 10764 bound_to 10752
  152.9837  135.5875  154.4654 H   0  0  0  0  0  0  0  0  0  0  0  0  # atno 10765 bound_to 10752
  140.3601  134.2135  155.7673 H   0  0  0  0  0  0  0  0  0  0  0  0  # atno 11005 bound_to 11000
  145.8239  140.9665  143.0884 LP  0  0  0  0  0  0  0  0  0  0  0  0  # atno 17320 bound_to 7965
  144.6787  140.0076  143.7484 LP  0  0  0  0  0  0  0  0  0  0  0  0  # atno 17321 bound_to 7965
  140.4896  143.2352  151.8838 LP  0  0  0  0  0  0  0  0  0  0  0  0  # atno 17342 bound_to 10162
  139.4792  144.5180  151.8840 LP  0  0  0  0  0  0  0  0  0  0  0  0  # atno 17343 bound_to 10162
  157.6127  131.0935  150.8766 LP  0  0  0  0  0  0  0  0  0  0  0  0  # atno 17370 bound_to 10713
  156.8903  130.5210  149.5286 LP  0  0  0  0  0  0  0  0  0  0  0  0  # atno 17371 bound_to 10713
  141.1986  133.8030  157.0572 LP  0  0  0  0  0  0  0  0  0  0  0  0  # atno 17394 bound_to 11000
  140.0633  134.9742  157.1343 LP  0  0  0  0  0  0  0  0  0  0  0  0  # atno 17395 bound_to 11000

$$$$
