#       Name:                AV-unprocessed.smi:3237
#       Creating user name   scv26
#       Creation time:       Fri Mar 27 18:22:34 2020


#       File generated by GOLD software.
#

@<TRIPOS>MOLECULE
AV-unprocessed.smi:3237
    42    44     1
SMALL
NO_CHARGES


@<TRIPOS>ATOM
      1 ****        -7.1693  -0.2804   1.4901 C.3            1 S1                 0.0000
      2 ****        -5.8905   0.3593   1.0705 C.2            1 S1                 0.0000
      3 ****        -4.6300  -0.1278   0.8688 C.2            1 S1                 0.0000
      4 ****        -3.8983   1.0317   0.4795 C.2            1 S1                 0.0000
      5 ****        -2.5198   1.0844   0.1474 N.am           1 S1                 0.0000
      6 ****        -1.6196   0.0869   0.1610 C.2            1 S1                 0.0000
      7 ****        -1.8513  -1.0810   0.4729 O.2            1 S1                 0.0000
      8 ****        -0.4065   0.5204  -0.2104 N.am           1 S1                 0.0000
      9 ****         0.7835  -0.3202  -0.2890 C.3            1 S1                 0.0000
     10 ****         1.3982  -0.6745   1.0680 C.3            1 S1                 0.0000
     11 ****         2.9001  -0.8407   0.7800 C.3            1 S1                 0.0000
     12 ****         3.1220  -0.3937  -0.6150 N.4            1 S1                 1.0000
     13 ****         4.4035   0.3094  -0.8328 C.3            1 S1                 0.0000
     14 ****         4.9520   0.1454  -2.2298 C.3            1 S1                 0.0000
     15 ****         5.5674  -0.6207  -1.0788 C.3            1 S1                 0.0000
     16 ****         1.9328   0.3854  -1.0018 C.3            1 S1                 0.0000
     17 ****        -4.6471   2.1185   0.4462 N.2            1 S1                 0.0000
     18 ****        -5.9265   1.6969   0.8262 O.3            1 S1                 0.0000
     19 ****        -7.1090  -1.3652   1.4009 H              1 S1                 0.0000
     20 ****        -7.9974   0.0637   0.8701 H              1 S1                 0.0000
     21 ****        -7.3988  -0.0387   2.5278 H              1 S1                 0.0000
     22 ****        -4.3042  -1.1502   0.9857 H              1 S1                 0.0000
     23 ****        -2.1794   1.9943  -0.1261 H              1 S1                 0.0000
     24 ****        -0.2998   1.4951  -0.4522 H              1 S1                 0.0000
     25 ****         0.5498  -1.2392  -0.8309 H              1 S1                 0.0000
     26 ****         1.2518   0.1410   1.7782 H              1 S1                 0.0000
     27 ****         0.9537  -1.5720   1.4995 H              1 S1                 0.0000
     28 ****         3.4847  -0.2468   1.4845 H              1 S1                 0.0000
     29 ****         3.2161  -1.8794   0.8800 H              1 S1                 0.0000
     30 ****         4.5467   1.2408  -0.2874 H              1 S1                 0.0000
     31 ****         4.3645  -0.4192  -2.9518 H              1 S1                 0.0000
     32 ****         5.5277   0.9711  -2.6433 H              1 S1                 0.0000
     33 ****         6.5481  -0.2993  -0.7341 H              1 S1                 0.0000
     34 ****         5.3880  -1.6937  -1.0355 H              1 S1                 0.0000
     35 ****         1.8037   0.4097  -2.0845 H              1 S1                 0.0000
     36 ****         2.0329   1.4127  -0.6455 H              1 S1                 0.0000
     37 ****         3.1212  -1.2251  -1.1885 H              1 S1                 0.0000
     38 ****        -2.7745  -1.3520   0.7454 LP             1 S1                 0.0000
     39 ****        -1.1164  -1.7588   0.4538 LP             1 S1                 0.0000
     40 ****        -4.3613   3.0451   0.2017 LP             1 S1                 0.0000
     41 ****        -6.2089   2.1826   1.6535 LP             1 S1                 0.0000
     42 ****        -6.5760   1.8871   0.0900 LP             1 S1                 0.0000
@<TRIPOS>BOND
    1    1    2 1     
    2    1   19 1     
    3    1   20 1     
    4    1   21 1     
    5    2   18 1     
    6    2    3 2     
    7    3    4 1     
    8    3   22 1     
    9    4    5 1     
   10    4   17 2     
   11    5    6 am    
   12    5   23 1     
   13    6    7 2     
   14    6    8 am    
   15    8    9 1     
   16    8   24 1     
   17    9   16 1     
   18    9   10 1     
   19    9   25 1     
   20   10   11 1     
   21   10   26 1     
   22   10   27 1     
   23   11   12 1     
   24   11   28 1     
   25   11   29 1     
   26   12   13 1     
   27   12   16 1     
   28   12   37 1     
   29   13   15 1     
   30   13   14 1     
   31   13   30 1     
   32   14   15 1     
   33   14   31 1     
   34   14   32 1     
   35   15   33 1     
   36   15   34 1     
   37   16   35 1     
   38   16   36 1     
   39   17   18 1     
   40    7   38 1     
   41    7   39 1     
   42   17   40 1     
   43   18   41 1     
   44   18   42 1     
@<TRIPOS>SUBSTRUCTURE
      1 S1             1
@<TRIPOS>SET
LONE_PAIRS      STATIC     ATOMS    <user>   **** ""
5 38 39 40 41 42
DONOR_HYDROGENS      STATIC     ATOMS    <user>   **** ""
3 23 24 37
ATOM$BLUE        STATIC     ATOMS    COLORGROUP SYSTEM
5 38 39 40 41 42
ATOM$RED        STATIC     ATOMS    COLORGROUP SYSTEM
3 23 24 37
