AV-unprocessed.smi:1047|AV-procd|sdf|4599|dock5
  -GOLD-   22720 3 93D 1   1.00000     0.00000
 Structure written by MMmdl.
 57 59  0  0  0  0  0  0  0  0  3 V2000
  145.3948  134.5649  152.0474 C   0  0  0  0  0  0  0  0  0  0  0  0
  146.0354  134.7882  153.4246 C   0  0  0  0  0  0  0  0  0  0  0  0
  147.4536  134.3525  153.4745 N   0  3  2  0  0  0  0  0  0  0  0  0
  147.6303  132.8838  153.3612 C   0  0  0  0  0  0  0  0  0  0  0  0
  149.1234  132.5189  153.4004 C   0  0  0  0  0  0  0  0  0  0  0  0
  149.7096  133.0301  154.5909 O   0  0  0  0  0  0  0  0  0  0  0  0
  149.6398  134.4507  154.6603 C   0  0  2  0  0  0  0  0  0  0  0  0
  150.3646  134.9055  155.9359 C   0  0  0  0  0  0  0  0  0  0  0  0
  150.1544  136.3273  156.1888 N   0  0  0  0  0  0  0  0  0  0  0  0
  151.3221  137.1440  155.8694 C   0  0  0  0  0  0  0  0  0  0  0  0
  150.9572  138.6318  155.7333 C   0  0  2  0  0  0  0  0  0  0  0  0
  151.2168  139.0139  154.3979 O   0  0  0  0  0  0  0  0  0  0  0  0
  151.7642  139.5317  156.6928 C   0  0  0  0  0  0  0  0  0  0  0  0
  151.2641  140.9140  156.7433 N   0  0  0  0  0  0  0  0  0  0  0  0
  150.4572  141.5769  155.8709 C   0  0  0  0  0  0  0  0  0  0  0  0
  150.2667  142.8333  156.3604 N   0  3  0  0  0  0  0  0  0  0  0  0
  150.9618  142.9757  157.5631 C   0  0  0  0  0  0  0  0  0  0  0  0
  151.0714  144.0585  158.4276 C   0  0  0  0  0  0  0  0  0  0  0  0
  151.8678  143.8846  159.5819 C   0  0  0  0  0  0  0  0  0  0  0  0
  152.0075  145.0483  160.5488 C   0  0  0  0  0  0  0  0  0  0  0  0
  152.5250  142.6530  159.8360 C   0  0  0  0  0  0  0  0  0  0  0  0
  153.3832  142.4785  161.0776 C   0  0  0  0  0  0  0  0  0  0  0  0
  152.3992  141.5630  158.9452 C   0  0  0  0  0  0  0  0  0  0  0  0
  151.6076  141.7492  157.8140 C   0  0  0  0  0  0  0  0  0  0  0  0
  148.1552  134.8645  154.6759 C   0  0  0  0  0  0  0  0  0  0  0  0
  144.3896  134.9867  152.0215 H   0  0  0  0  0  0  0  0  0  0  0  0
  145.3047  133.5063  151.8053 H   0  0  0  0  0  0  0  0  0  0  0  0
  145.9742  135.0450  151.2585 H   0  0  0  0  0  0  0  0  0  0  0  0
  145.9848  135.8550  153.6470 H   0  0  0  0  0  0  0  0  0  0  0  0
  145.4609  134.2825  154.2018 H   0  0  0  0  0  0  0  0  0  0  0  0
  147.1043  132.3862  154.1776 H   0  0  0  0  0  0  0  0  0  0  0  0
  147.1979  132.5168  152.4310 H   0  0  0  0  0  0  0  0  0  0  0  0
  149.2455  131.4358  153.3838 H   0  0  0  0  0  0  0  0  0  0  0  0
  149.6442  132.9111  152.5254 H   0  0  0  0  0  0  0  0  0  0  0  0
  150.1278  134.8912  153.7882 H   0  0  0  0  0  0  0  0  0  0  0  0
  149.9886  134.3339  156.7855 H   0  0  0  0  0  0  0  0  0  0  0  0
  151.4294  134.6823  155.8585 H   0  0  0  0  0  0  0  0  0  0  0  0
  149.3557  136.6532  155.6533 H   0  0  0  0  0  0  0  0  0  0  0  0
  152.0902  137.0201  156.6342 H   0  0  0  0  0  0  0  0  0  0  0  0
  151.7587  136.7946  154.9325 H   0  0  0  0  0  0  0  0  0  0  0  0
  149.8894  138.7666  155.9116 H   0  0  0  0  0  0  0  0  0  0  0  0
  151.8475  138.4129  154.0319 H   0  0  0  0  0  0  0  0  0  0  0  0
  151.7092  139.1376  157.7083 H   0  0  0  0  0  0  0  0  0  0  0  0
  152.8220  139.5392  156.4302 H   0  0  0  0  0  0  0  0  0  0  0  0
  150.0403  141.1777  154.9574 H   0  0  0  0  0  0  0  0  0  0  0  0
  150.5696  144.9940  158.2267 H   0  0  0  0  0  0  0  0  0  0  0  0
  151.6270  144.7755  161.5334 H   0  0  0  0  0  0  0  0  0  0  0  0
  151.4502  145.9208  160.2066 H   0  0  0  0  0  0  0  0  0  0  0  0
  153.0530  145.3402  160.6497 H   0  0  0  0  0  0  0  0  0  0  0  0
  153.8154  141.4785  161.1276 H   0  0  0  0  0  0  0  0  0  0  0  0
  152.7878  142.6287  161.9784 H   0  0  0  0  0  0  0  0  0  0  0  0
  154.2039  143.1958  161.0803 H   0  0  0  0  0  0  0  0  0  0  0  0
  152.9041  140.6283  159.1392 H   0  0  0  0  0  0  0  0  0  0  0  0
  148.0793  135.9523  154.7072 H   0  0  0  0  0  0  0  0  0  0  0  0
  147.6656  134.4833  155.5738 H   0  0  0  0  0  0  0  0  0  0  0  0
  147.9142  134.7693  152.6780 H   0  0  0  0  0  0  0  0  0  0  0  0
  149.7016  143.5392  155.9057 H   0  0  0  0  0  0  0  0  0  0  0  0
  1  2  1  0  0  0  0
  1 26  1  0  0  0  0
  1 27  1  0  0  0  0
  1 28  1  0  0  0  0
  2  3  1  0  0  0  0
  2 29  1  0  0  0  0
  2 30  1  0  0  0  0
  3 25  1  0  0  0  0
  3  4  1  0  0  0  0
  3 56  1  0  0  0  0
  4  5  1  0  0  0  0
  4 31  1  0  0  0  0
  4 32  1  0  0  0  0
  5  6  1  0  0  0  0
  5 33  1  0  0  0  0
  5 34  1  0  0  0  0
  6  7  1  0  0  0  0
  7  8  1  0  0  0  0
  7 25  1  0  0  0  0
  7 35  1  0  0  0  0
  8  9  1  0  0  0  0
  8 36  1  0  0  0  0
  8 37  1  0  0  0  0
  9 10  1  0  0  0  0
  9 38  1  0  0  0  0
 10 11  1  0  0  0  0
 10 39  1  0  0  0  0
 10 40  1  0  0  0  0
 11 12  1  0  0  0  0
 11 13  1  0  0  0  0
 11 41  1  0  0  0  0
 12 42  1  0  0  0  0
 13 14  1  0  0  0  0
 13 43  1  0  0  0  0
 13 44  1  0  0  0  0
 14 24  1  0  0  0  0
 14 15  1  0  0  0  0
 15 16  2  0  0  0  0
 15 45  1  0  0  0  0
 16 17  1  0  0  0  0
 16 57  1  0  0  0  0
 17 24  2  0  0  0  0
 17 18  1  0  0  0  0
 18 19  2  0  0  0  0
 18 46  1  0  0  0  0
 19 20  1  0  0  0  0
 19 21  1  0  0  0  0
 20 47  1  0  0  0  0
 20 48  1  0  0  0  0
 20 49  1  0  0  0  0
 21 22  1  0  0  0  0
 21 23  2  0  0  0  0
 22 50  1  0  0  0  0
 22 51  1  0  0  0  0
 22 52  1  0  0  0  0
 23 24  1  0  0  0  0
 23 53  1  0  0  0  0
 25 54  1  0  0  0  0
 25 55  1  0  0  0  0
M  CHG  1   3   1
M  CHG  1  16   1
M  END
> <s_m_source_file>
AV-unprocessed.smi

> <i_m_source_file_index>
1047

> <i_lp_mmshare_version>
43012

> <i_f3d_flags>
0

> <s_epik_input>
W0NIM11bQ0gyXU4xW0NIMl1bQ0gyXU9bQ0BIXShbQ0gyXTEpW0NIMl1bTkhdW0NIMl1bQ0BIXShbT0hdKVtDSDJdbihbY0hdbjIpYyhjMjMpW2NIXWMoW0NIM10pYyhbY0hdMylbQ0gzXQ==

> <s_epik_cmdline>
J2VwaWtfcHl0aG9uJywgJy1waCcsICc3LjAnLCAnLXRuJywgJzgnLCAnLW1hJywgJzIwMCcsICctbWV0YWxfYmluZGluZycsICctaW1hZScsICc8aW5maWxlLm1hZT4nLCAnLW9tYWUnLCAnPG91dGZpbGUubWFlPic=

> <r_epik_Ionization_Penalty>
2.03028

> <r_epik_Ionization_Penalty_Charging>
1.21256

> <r_epik_Ionization_Penalty_Neutral>
0.817715

> <r_epik_State_Penalty>
2.54959

> <r_epik_Charging_Adjusted_Penalty>
3.76215

> <i_epik_Tot_Q>
2

> <i_epik_Tot_abs_Q>
2

> <r_epik_Metal_State_Penalty>
6.52811

> <b_epik_Metal_Only>
0

> <s_lp_Force_Field>
OPLS_2005

> <r_lp_Energy>
31.8247

> <b_lp_Chiralities_Consistent>
1

> <s_lp_Variant>
AV-unprocessed.smi:1047-40

> <Gold.Version>
5.8.1

> <Gold.Id.Protein>
6NUR|6NUR_protein|mol2

> <Gold.PLP.Fitness>
60.2865

> <Gold.PLP.PLP>
-49.0584

> <Gold.PLP.part.hbond>
-2.6180

> <Gold.PLP.part.metal>
0.0000

> <Gold.PLP.part.buried>
-5.9316

> <Gold.PLP.part.nonpolar>
-39.7279

> <Gold.PLP.part.repulsive>
0.1708

> <Gold.PLP.ligand.clash>
0.0000

> <Gold.PLP.ligand.torsion>
1.5397

> <Gold.PLP.Chemscore.Hbond>
4.7315

> <Gold.PLP.Chemscore.CHOScore>
0.0000

> <Gold.PLP.Chemscore.Metal>
0.0000

> <Gold.Chemscore.Hbonds>
donor molecule, donor type, donor heavy atom, donor atom, acceptor molecule, acceptor atom, score
      L1  H     3    56       P1  7948  2.00
      L1  H    16    57       P1  8028  1.62
      P1  H  7989  7998       L1    12  0.84

> <Gold.PLP.Chemscore.Internal.Correction>
0.1130

> <Gold.Rescore>
     Score         DG    S(hbond)    S(metal)    S(lipo)     H(rot)  DE(clash)    DE(int)     intcor
     20.48     -22.13       2.53        0.00     129.20       2.71       0.04       1.61       ----

> <Gold.Chemscore.Fitness>
20.4797

> <Gold.Chemscore.DG>
-22.1262

> <Gold.Chemscore.ZeroCoef>
-5.4800

> <Gold.Chemscore.Hbond>
2.5342

> <Gold.Chemscore.Metal>
0.0000

> <Gold.Chemscore.Lipo>
129.2028

> <Gold.Chemscore.Internal_Hbond>
0.0000

> <Gold.Chemscore.DEClash>
0.0365

> <Gold.Chemscore.DEInternal>
1.6101

> <Gold.Chemscore.Rot>
2.7088

> <Gold.Chemscore.Internal.Correction>
   9.000000E+99

> <Gold.Chemscore.Hbonds>
donor molecule, donor type, donor heavy atom, donor atom, acceptor molecule, acceptor atom, score
      L1  H     3    56       P1  7948  0.79
      L1  H    16    57       P1  8028  0.80
      P1  H  7989  7998       L1    12  0.37

> <Gold.Chemscore.Hbond.Weighted>
-8.4641

> <Gold.Chemscore.Metal.Weighted>
-0.0000

> <Gold.Chemscore.Lipo.Weighted>
-15.1167

> <Gold.Chemscore.Internal_Hbond.Weighted>
0.0000

> <Gold.Chemscore.DEClash.Weighted>
0.0365

> <Gold.Chemscore.DEInternal.Weighted>
1.6101

> <Gold.Chemscore.Rot.Weighted>
6.9346

> <Gold.Chemscore.Internal.Correction.Weighted>
   9.000000E+99

> <Gold.Protein.RotatedTorsions>
[ 6907 6896 6895 6894 ] final   21.20 input  -60.11 | X-H torsion
[ 7974 7965 7964 7962 ] final   54.82 input  175.53 | X-H torsion
[ 8008 7997 7996 7995 ] final   82.24 input   59.86 | X-H torsion
[ 10167 10162 10161 10158 ] final  132.11 input  -65.29 | X-H torsion
[ 10718 10713 10712 10709 ] final  -23.17 input   66.30 | X-H torsion
[ 10763 10752 10751 10750 ] final  132.51 input  -60.55 | X-H torsion
[ 11005 11000 10999 10996 ] final  -48.31 input  -57.11 | X-H torsion

> <Gold.Protein.ActiveResidues>
 VAL166  LYS551  ARG553  GLY616  TRP617  ASP618  TYR619  PRO620  LYS621  CYS622 
 ASP623  PHE694  ASN695  SER759  ASP760  ASP761  ALA762  ILE779  LEU786  VAL792 
 PHE793  MET794  SER795  GLU796  ALA797  LYS798  CYS799  TRP800  GLU811  SER814 

> <Gold.Protein.RotatedAtoms>
  151.9081  135.0350  160.0511 H   0  0  0  0  0  0  0  0  0  0  0  0  # atno 6907 bound_to 6896
  152.2302  133.5047  159.5220 H   0  0  0  0  0  0  0  0  0  0  0  0  # atno 6908 bound_to 6896
  150.7023  134.1143  159.4054 H   0  0  0  0  0  0  0  0  0  0  0  0  # atno 6909 bound_to 6896
  145.9569  139.4023  143.0272 H   0  0  0  0  0  0  0  0  0  0  0  0  # atno 7974 bound_to 7965
  155.9080  140.3429  155.6077 H   0  0  0  0  0  0  0  0  0  0  0  0  # atno 8008 bound_to 7997
  155.7421  140.0809  157.2259 H   0  0  0  0  0  0  0  0  0  0  0  0  # atno 8009 bound_to 7997
  154.4052  140.1569  156.2616 H   0  0  0  0  0  0  0  0  0  0  0  0  # atno 8010 bound_to 7997
  139.5354  144.6677  151.4804 H   0  0  0  0  0  0  0  0  0  0  0  0  # atno 10167 bound_to 10162
  156.4947  130.4574  149.6735 H   0  0  0  0  0  0  0  0  0  0  0  0  # atno 10718 bound_to 10713
  153.7918  135.3154  155.3379 H   0  0  0  0  0  0  0  0  0  0  0  0  # atno 10763 bound_to 10752
  154.8123  135.4659  154.0551 H   0  0  0  0  0  0  0  0  0  0  0  0  # atno 10764 bound_to 10752
  153.1872  135.6903  153.8487 H   0  0  0  0  0  0  0  0  0  0  0  0  # atno 10765 bound_to 10752
  141.0693  133.6684  156.3423 H   0  0  0  0  0  0  0  0  0  0  0  0  # atno 11005 bound_to 11000
  145.8094  140.9733  143.0957 LP  0  0  0  0  0  0  0  0  0  0  0  0  # atno 17320 bound_to 7965
  144.6807  139.9902  143.7484 LP  0  0  0  0  0  0  0  0  0  0  0  0  # atno 17321 bound_to 7965
  140.6557  143.8603  150.6833 LP  0  0  0  0  0  0  0  0  0  0  0  0  # atno 17342 bound_to 10162
  140.1982  143.3980  152.1811 LP  0  0  0  0  0  0  0  0  0  0  0  0  # atno 17343 bound_to 10162
  156.3392  130.7373  151.2315 LP  0  0  0  0  0  0  0  0  0  0  0  0  # atno 17370 bound_to 10713
  157.7470  131.0408  150.4617 LP  0  0  0  0  0  0  0  0  0  0  0  0  # atno 17371 bound_to 10713
  140.5707  134.5843  157.5457 LP  0  0  0  0  0  0  0  0  0  0  0  0  # atno 17394 bound_to 11000
  139.9507  134.7621  156.0455 LP  0  0  0  0  0  0  0  0  0  0  0  0  # atno 17395 bound_to 11000

$$$$
