AV-unprocessed.smi:2025|AV-procd|sdf|8199|dock6
  -GOLD-   2272010453D 1   1.00000     0.00000
 Structure written by MMmdl.
 39 40  0  0  0  0  0  0  0  0  1 V2000
  148.2698  131.9278  153.5471 C   0  0  0  0  0  0  0  0  0  0  0  0
  147.9301  133.2810  152.9057 C   0  0  2  0  0  0  0  0  0  0  0  0
  148.0210  134.3203  153.9294 N   0  0  0  0  0  0  0  0  0  0  0  0
  149.0813  134.5613  154.7157 C   0  0  0  0  0  0  0  0  0  0  0  0
  150.1164  133.8950  154.6840 O   0  0  0  0  0  0  0  0  0  0  0  0
  148.9415  135.7319  155.6967 C   0  0  0  0  0  0  0  0  0  0  0  0
  149.9832  136.7492  155.5073 N   0  0  0  0  0  0  0  0  0  0  0  0
  149.9354  137.5825  154.4044 C   0  0  0  0  0  0  0  0  0  0  0  0
  150.8416  138.5555  154.1666 C   0  0  0  0  0  0  0  0  0  0  0  0
  151.9521  138.7824  155.0830 C   0  0  0  0  0  0  0  0  0  0  0  0
  152.7933  139.6672  154.9197 O   0  0  0  0  0  0  0  0  0  0  0  0
  151.9870  137.9079  156.1938 N   0  0  0  0  0  0  0  0  0  0  0  0
  153.0622  138.0967  157.1455 C   0  0  0  0  0  0  0  0  0  0  0  0
  151.0245  136.9037  156.4486 C   0  0  0  0  0  0  0  0  0  0  0  0
  151.0705  136.1856  157.4507 O   0  0  0  0  0  0  0  0  0  0  0  0
  146.5264  133.2746  152.2631 C   0  0  1  0  0  0  0  0  0  0  0  0
  146.1975  134.4938  151.4000 C   0  0  0  0  0  0  0  0  0  0  0  0
  145.0723  133.9639  150.5410 C   0  0  0  0  0  0  0  0  0  0  0  0
  145.4968  132.5157  150.3039 C   0  0  0  0  0  0  0  0  0  0  0  0
  146.3928  132.1800  151.3616 O   0  0  0  0  0  0  0  0  0  0  0  0
  148.2501  131.1257  152.8090 H   0  0  0  0  0  0  0  0  0  0  0  0
  147.5606  131.6714  154.3350 H   0  0  0  0  0  0  0  0  0  0  0  0
  149.2674  131.9411  153.9874 H   0  0  0  0  0  0  0  0  0  0  0  0
  148.6690  133.4684  152.1245 H   0  0  0  0  0  0  0  0  0  0  0  0
  147.2153  134.9198  154.0341 H   0  0  0  0  0  0  0  0  0  0  0  0
  147.9534  136.1872  155.6037 H   0  0  0  0  0  0  0  0  0  0  0  0
  148.9873  135.3328  156.7106 H   0  0  0  0  0  0  0  0  0  0  0  0
  149.1281  137.4561  153.6978 H   0  0  0  0  0  0  0  0  0  0  0  0
  150.7422  139.1764  153.2884 H   0  0  0  0  0  0  0  0  0  0  0  0
  153.2000  137.2012  157.7517 H   0  0  0  0  0  0  0  0  0  0  0  0
  152.7910  138.9535  157.7638 H   0  0  0  0  0  0  0  0  0  0  0  0
  153.9854  138.2784  156.5928 H   0  0  0  0  0  0  0  0  0  0  0  0
  145.7610  133.1691  153.0343 H   0  0  0  0  0  0  0  0  0  0  0  0
  145.9104  135.3683  151.9848 H   0  0  0  0  0  0  0  0  0  0  0  0
  147.0494  134.7631  150.7740 H   0  0  0  0  0  0  0  0  0  0  0  0
  144.1353  133.9930  151.0985 H   0  0  0  0  0  0  0  0  0  0  0  0
  144.9367  134.5259  149.6166 H   0  0  0  0  0  0  0  0  0  0  0  0
  144.6411  131.8404  150.2846 H   0  0  0  0  0  0  0  0  0  0  0  0
  146.0270  132.4167  149.3561 H   0  0  0  0  0  0  0  0  0  0  0  0
  1  2  1  0  0  0  0
  1 21  1  0  0  0  0
  1 22  1  0  0  0  0
  1 23  1  0  0  0  0
  2  3  1  0  0  0  0
  2 16  1  0  0  0  0
  2 24  1  0  0  0  0
  3  4  1  0  0  0  0
  3 25  1  0  0  0  0
  4  5  2  0  0  0  0
  4  6  1  0  0  0  0
  6  7  1  0  0  0  0
  6 26  1  0  0  0  0
  6 27  1  0  0  0  0
  7 14  1  0  0  0  0
  7  8  1  0  0  0  0
  8  9  2  0  0  0  0
  8 28  1  0  0  0  0
  9 10  1  0  0  0  0
  9 29  1  0  0  0  0
 10 11  2  0  0  0  0
 10 12  1  0  0  0  0
 12 13  1  0  0  0  0
 12 14  1  0  0  0  0
 13 30  1  0  0  0  0
 13 31  1  0  0  0  0
 13 32  1  0  0  0  0
 14 15  2  0  0  0  0
 16 20  1  0  0  0  0
 16 17  1  0  0  0  0
 16 33  1  0  0  0  0
 17 18  1  0  0  0  0
 17 34  1  0  0  0  0
 17 35  1  0  0  0  0
 18 19  1  0  0  0  0
 18 36  1  0  0  0  0
 18 37  1  0  0  0  0
 19 20  1  0  0  0  0
 19 38  1  0  0  0  0
 19 39  1  0  0  0  0
M  END
> <s_m_source_file>
AV-unprocessed.smi

> <i_m_source_file_index>
2025

> <i_lp_mmshare_version>
43012

> <i_f3d_flags>
0

> <s_epik_input>
TzFbQ0gyXVtDSDJdW0NIMl1bQ0BIXTFbQ0BIXShbQ0gzXSlbTkhdQyg9TylbQ0gyXW4yW2NIXVtjSF1jKD1PKW4oW0NIM10pYzI9Tw==

> <s_epik_cmdline>
J2VwaWtfcHl0aG9uJywgJy1waCcsICc3LjAnLCAnLXRuJywgJzgnLCAnLW1hJywgJzIwMCcsICctbWV0YWxfYmluZGluZycsICctaW1hZScsICc8aW5maWxlLm1hZT4nLCAnLW9tYWUnLCAnPG91dGZpbGUubWFlPic=

> <r_lp_tautomer_probability>
1

> <r_epik_Ionization_Penalty>
3.54787e-08

> <r_epik_Ionization_Penalty_Charging>
1.24654e-08

> <r_epik_Ionization_Penalty_Neutral>
2.30132e-08

> <r_epik_State_Penalty>
-0

> <r_epik_Charging_Adjusted_Penalty>
1.24654e-08

> <i_epik_Tot_Q>
0

> <i_epik_Tot_abs_Q>
0

> <r_epik_Metal_State_Penalty>
-0

> <b_epik_Metal_Only>
0

> <s_lp_Force_Field>
OPLS_2005

> <r_lp_Energy>
25.1152

> <b_lp_Chiralities_Consistent>
1

> <s_lp_Variant>
AV-unprocessed.smi:2025-3

> <Gold.Version>
5.8.1

> <Gold.Id.Protein>
6NUR|6NUR_protein|mol2

> <Gold.PLP.Fitness>
37.1803

> <Gold.PLP.PLP>
-30.6669

> <Gold.PLP.part.hbond>
-3.4368

> <Gold.PLP.part.metal>
0.0000

> <Gold.PLP.part.buried>
-3.0034

> <Gold.PLP.part.nonpolar>
-24.6485

> <Gold.PLP.part.repulsive>
0.3874

> <Gold.PLP.ligand.clash>
0.0000

> <Gold.PLP.ligand.torsion>
0.2233

> <Gold.PLP.Chemscore.Hbond>
1.3162

> <Gold.PLP.Chemscore.CHOScore>
1.0000

> <Gold.PLP.Chemscore.Metal>
0.0000

> <Gold.Chemscore.Hbonds>
donor molecule, donor type, donor heavy atom, donor atom, acceptor molecule, acceptor atom, score
      P1  H  7989  7998       L1    11  0.30
      P1  H  7997  8009       L1    11  1.00
      L1  C     8    28       P1  7948  1.00

> <Gold.PLP.Chemscore.Internal.Correction>
0.0114

> <Gold.Rescore>
     Score         DG    S(hbond)    S(metal)    S(lipo)     H(rot)  DE(clash)    DE(int)     intcor
      9.73     -11.10       1.05        0.00      58.09       1.82       0.05       1.32       ----

> <Gold.Chemscore.Fitness>
9.7311

> <Gold.Chemscore.DG>
-11.1013

> <Gold.Chemscore.ZeroCoef>
-5.4800

> <Gold.Chemscore.Hbond>
1.0452

> <Gold.Chemscore.Metal>
0.0000

> <Gold.Chemscore.Lipo>
58.0914

> <Gold.Chemscore.Internal_Hbond>
0.0000

> <Gold.Chemscore.DEClash>
0.0533

> <Gold.Chemscore.DEInternal>
1.3168

> <Gold.Chemscore.Rot>
1.8228

> <Gold.Chemscore.Internal.Correction>
   9.000000E+99

> <Gold.Chemscore.Hbonds>
donor molecule, donor type, donor heavy atom, donor atom, acceptor molecule, acceptor atom, score
      P1  H  7989  7998       L1    11  0.06
      P1  H  7997  8009       L1    11  0.97

> <Gold.Chemscore.Hbond.Weighted>
-3.4910

> <Gold.Chemscore.Metal.Weighted>
-0.0000

> <Gold.Chemscore.Lipo.Weighted>
-6.7967

> <Gold.Chemscore.Internal_Hbond.Weighted>
0.0000

> <Gold.Chemscore.DEClash.Weighted>
0.0533

> <Gold.Chemscore.DEInternal.Weighted>
1.3168

> <Gold.Chemscore.Rot.Weighted>
4.6665

> <Gold.Chemscore.Internal.Correction.Weighted>
   9.000000E+99

> <Gold.Protein.RotatedTorsions>
[ 6907 6896 6895 6894 ] final  -94.05 input  -60.11 | X-H torsion
[ 7974 7965 7964 7962 ] final   45.10 input  175.53 | X-H torsion
[ 8008 7997 7996 7995 ] final -134.78 input   59.86 | X-H torsion
[ 10167 10162 10161 10158 ] final -144.94 input  -65.29 | X-H torsion
[ 10718 10713 10712 10709 ] final  162.32 input   66.30 | X-H torsion
[ 10763 10752 10751 10750 ] final    0.23 input  -60.55 | X-H torsion
[ 11005 11000 10999 10996 ] final -161.88 input  -57.11 | X-H torsion

> <Gold.Protein.ActiveResidues>
 VAL166  LYS551  ARG553  GLY616  TRP617  ASP618  TYR619  PRO620  LYS621  CYS622 
 ASP623  PHE694  ASN695  SER759  ASP760  ASP761  ALA762  ILE779  LEU786  VAL792 
 PHE793  MET794  SER795  GLU796  ALA797  LYS798  CYS799  TRP800  GLU811  SER814 

> <Gold.Protein.RotatedAtoms>
  150.6934  134.1872  159.4270 H   0  0  0  0  0  0  0  0  0  0  0  0  # atno 6907 bound_to 6896
  151.9844  135.0009  160.0568 H   0  0  0  0  0  0  0  0  0  0  0  0  # atno 6908 bound_to 6896
  152.1725  133.4618  159.4953 H   0  0  0  0  0  0  0  0  0  0  0  0  # atno 6909 bound_to 6896
  146.0509  139.5001  142.9718 H   0  0  0  0  0  0  0  0  0  0  0  0  # atno 7974 bound_to 7965
  155.3678  140.0486  157.3046 H   0  0  0  0  0  0  0  0  0  0  0  0  # atno 8008 bound_to 7997
  154.5145  140.2203  155.9055 H   0  0  0  0  0  0  0  0  0  0  0  0  # atno 8009 bound_to 7997
  156.1621  140.3114  155.8831 H   0  0  0  0  0  0  0  0  0  0  0  0  # atno 8010 bound_to 7997
  139.7852  143.8044  152.2643 H   0  0  0  0  0  0  0  0  0  0  0  0  # atno 10167 bound_to 10162
  157.1241  131.0500  151.2401 H   0  0  0  0  0  0  0  0  0  0  0  0  # atno 10718 bound_to 10713
  153.3233  135.6970  153.7011 H   0  0  0  0  0  0  0  0  0  0  0  0  # atno 10763 bound_to 10752
  153.5842  135.3492  155.2887 H   0  0  0  0  0  0  0  0  0  0  0  0  # atno 10764 bound_to 10752
  154.8602  135.4302  154.2403 H   0  0  0  0  0  0  0  0  0  0  0  0  # atno 10765 bound_to 10752
  140.6155  134.4805  157.5219 H   0  0  0  0  0  0  0  0  0  0  0  0  # atno 11005 bound_to 11000
  145.6725  141.0213  143.1650 LP  0  0  0  0  0  0  0  0  0  0  0  0  # atno 17320 bound_to 7965
  144.7122  139.8327  143.7410 LP  0  0  0  0  0  0  0  0  0  0  0  0  # atno 17321 bound_to 7965
  139.8119  144.7332  150.9686 LP  0  0  0  0  0  0  0  0  0  0  0  0  # atno 17342 bound_to 10162
  140.7819  143.4242  151.0793 LP  0  0  0  0  0  0  0  0  0  0  0  0  # atno 17343 bound_to 10162
  157.4450  130.7566  149.7102 LP  0  0  0  0  0  0  0  0  0  0  0  0  # atno 17370 bound_to 10713
  155.9822  130.4012  150.3430 LP  0  0  0  0  0  0  0  0  0  0  0  0  # atno 17371 bound_to 10713
  139.9175  134.8217  156.1320 LP  0  0  0  0  0  0  0  0  0  0  0  0  # atno 17394 bound_to 11000
  141.0779  133.6767  156.2274 LP  0  0  0  0  0  0  0  0  0  0  0  0  # atno 17395 bound_to 11000

$$$$
