AV-unprocessed.smi:3046|AV-procd|sdf|11617|dock3
  -GOLD-   2272017 03D 1   1.00000     0.00000
 Structure written by MMmdl.
 37 37  0  0  0  0  0  0  0  0  1 V2000
  146.6912  139.1064  152.8497 C   0  0  0  0  0  0  0  0  0  0  0  0
  147.2705  139.5952  153.9564 C   0  0  0  0  0  0  0  0  0  0  0  0
  148.7616  139.7909  154.1271 C   0  0  0  0  0  0  0  0  0  0  0  0
  149.0369  140.5819  155.3160 N   0  0  0  0  0  0  0  0  0  0  0  0
  150.2439  140.7103  155.8853 C   0  0  0  0  0  0  0  0  0  0  0  0
  151.2552  140.1591  155.4489 O   0  0  0  0  0  0  0  0  0  0  0  0
  150.3014  141.5750  157.1507 C   0  0  2  0  0  0  0  0  0  0  0  0
  148.8918  141.9012  157.6836 C   0  0  0  0  0  0  0  0  0  0  0  0
  151.0593  142.8056  156.8756 N   0  0  0  0  0  0  0  0  0  0  0  0
  151.6200  143.4277  158.0732 C   0  0  2  0  0  0  0  0  0  0  0  0
  152.3508  144.7042  157.6352 C   0  0  0  0  0  0  0  0  0  0  0  0
  152.5814  142.4434  158.7746 C   0  0  0  0  0  0  0  0  0  0  0  0
  152.8211  142.7733  160.1690 N   0  0  0  0  0  0  0  0  0  0  0  0
  153.5496  142.0659  161.1021 C   0  0  0  0  0  0  0  0  0  0  0  0
  153.4836  142.7567  162.2781 C   0  0  0  0  0  0  0  0  0  0  0  0
  152.6917  143.8945  161.9572 C   0  0  0  0  0  0  0  0  0  0  0  0
  152.3003  143.9040  160.6931 N   0  0  0  0  0  0  0  0  0  0  0  0
  147.2781  138.8188  151.9895 H   0  0  0  0  0  0  0  0  0  0  0  0
  145.6194  138.9873  152.7906 H   0  0  0  0  0  0  0  0  0  0  0  0
  146.6509  139.8682  154.7986 H   0  0  0  0  0  0  0  0  0  0  0  0
  149.2353  138.8128  154.2213 H   0  0  0  0  0  0  0  0  0  0  0  0
  149.1832  140.2788  153.2465 H   0  0  0  0  0  0  0  0  0  0  0  0
  148.2573  141.0634  155.7406 H   0  0  0  0  0  0  0  0  0  0  0  0
  150.8256  140.9862  157.9051 H   0  0  0  0  0  0  0  0  0  0  0  0
  148.3092  140.9923  157.8389 H   0  0  0  0  0  0  0  0  0  0  0  0
  148.3374  142.5380  156.9931 H   0  0  0  0  0  0  0  0  0  0  0  0
  148.9366  142.4196  158.6413 H   0  0  0  0  0  0  0  0  0  0  0  0
  150.4957  143.4762  156.3726 H   0  0  0  0  0  0  0  0  0  0  0  0
  150.8344  143.7230  158.7705 H   0  0  0  0  0  0  0  0  0  0  0  0
  152.7884  145.2166  158.4922 H   0  0  0  0  0  0  0  0  0  0  0  0
  151.6670  145.4027  157.1512 H   0  0  0  0  0  0  0  0  0  0  0  0
  153.1570  144.4849  156.9340 H   0  0  0  0  0  0  0  0  0  0  0  0
  152.1925  141.4255  158.7200 H   0  0  0  0  0  0  0  0  0  0  0  0
  153.5445  142.4329  158.2619 H   0  0  0  0  0  0  0  0  0  0  0  0
  154.0392  141.1346  160.8573 H   0  0  0  0  0  0  0  0  0  0  0  0
  153.9323  142.4894  163.2233 H   0  0  0  0  0  0  0  0  0  0  0  0
  152.3910  144.7082  162.6006 H   0  0  0  0  0  0  0  0  0  0  0  0
  1  2  2  0  0  0  0
  1 18  1  0  0  0  0
  1 19  1  0  0  0  0
  2  3  1  0  0  0  0
  2 20  1  0  0  0  0
  3  4  1  0  0  0  0
  3 21  1  0  0  0  0
  3 22  1  0  0  0  0
  4  5  1  0  0  0  0
  4 23  1  0  0  0  0
  5  6  2  0  0  0  0
  5  7  1  0  0  0  0
  7  8  1  0  0  0  0
  7  9  1  0  0  0  0
  7 24  1  0  0  0  0
  8 25  1  0  0  0  0
  8 26  1  0  0  0  0
  8 27  1  0  0  0  0
  9 10  1  0  0  0  0
  9 28  1  0  0  0  0
 10 11  1  0  0  0  0
 10 12  1  0  0  0  0
 10 29  1  0  0  0  0
 11 30  1  0  0  0  0
 11 31  1  0  0  0  0
 11 32  1  0  0  0  0
 12 13  1  0  0  0  0
 12 33  1  0  0  0  0
 12 34  1  0  0  0  0
 13 17  1  0  0  0  0
 13 14  1  0  0  0  0
 14 15  2  0  0  0  0
 14 35  1  0  0  0  0
 15 16  1  0  0  0  0
 15 36  1  0  0  0  0
 16 17  2  0  0  0  0
 16 37  1  0  0  0  0
M  END
> <s_m_source_file>
AV-unprocessed.smi

> <i_m_source_file_index>
3046

> <i_lp_mmshare_version>
43012

> <i_f3d_flags>
0

> <s_epik_input>
W0NIMl09W0NIXVtDSDJdW05IXUMoPU8pW0NASF0oW0NIM10pW05IXVtDQEhdKFtDSDNdKVtDSDJdbjFbY0hdW2NIXVtjSF1uMQ==

> <s_epik_cmdline>
J2VwaWtfcHl0aG9uJywgJy1waCcsICc3LjAnLCAnLXRuJywgJzgnLCAnLW1hJywgJzIwMCcsICctbWV0YWxfYmluZGluZycsICctaW1hZScsICc8aW5maWxlLm1hZT4nLCAnLW9tYWUnLCAnPG91dGZpbGUubWFlPic=

> <r_lp_tautomer_probability>
1

> <r_epik_Ionization_Penalty>
0.950627

> <r_epik_Ionization_Penalty_Charging>
0

> <r_epik_Ionization_Penalty_Neutral>
0.950627

> <r_epik_State_Penalty>
0.994814

> <r_epik_Charging_Adjusted_Penalty>
0.994814

> <i_epik_Tot_Q>
0

> <i_epik_Tot_abs_Q>
0

> <r_epik_Metal_State_Penalty>
0.994788

> <b_epik_Metal_Only>
0

> <s_lp_Force_Field>
OPLS_2005

> <r_lp_Energy>
5.49444

> <b_lp_Chiralities_Consistent>
1

> <s_lp_Variant>
AV-unprocessed.smi:3046-5

> <Gold.Version>
5.8.1

> <Gold.Id.Protein>
6NUR|6NUR_protein|mol2

> <Gold.PLP.Fitness>
44.7504

> <Gold.PLP.PLP>
-41.4134

> <Gold.PLP.part.hbond>
-2.0000

> <Gold.PLP.part.metal>
0.0000

> <Gold.PLP.part.buried>
-3.1891

> <Gold.PLP.part.nonpolar>
-35.5211

> <Gold.PLP.part.repulsive>
0.2258

> <Gold.PLP.ligand.clash>
1.2941

> <Gold.PLP.ligand.torsion>
0.7621

> <Gold.PLP.Chemscore.Hbond>
2.0000

> <Gold.PLP.Chemscore.CHOScore>
0.0000

> <Gold.PLP.Chemscore.Metal>
0.0000

> <Gold.Chemscore.Hbonds>
donor molecule, donor type, donor heavy atom, donor atom, acceptor molecule, acceptor atom, score
      L1  H     9    28       P1  8028  0.71
      P1  H  7989  7998       L1     6  0.81

> <Gold.PLP.Chemscore.Internal.Correction>
0.1555

> <Gold.Rescore>
     Score         DG    S(hbond)    S(metal)    S(lipo)     H(rot)  DE(clash)    DE(int)     intcor
     15.13     -18.40       1.96        0.00     102.15       2.17       1.91       1.36       ----

> <Gold.Chemscore.Fitness>
15.1301

> <Gold.Chemscore.DG>
-18.4003

> <Gold.Chemscore.ZeroCoef>
-5.4800

> <Gold.Chemscore.Hbond>
1.9563

> <Gold.Chemscore.Metal>
0.0000

> <Gold.Chemscore.Lipo>
102.1482

> <Gold.Chemscore.Internal_Hbond>
0.0000

> <Gold.Chemscore.DEClash>
1.9085

> <Gold.Chemscore.DEInternal>
1.3618

> <Gold.Chemscore.Rot>
2.1739

> <Gold.Chemscore.Internal.Correction>
   9.000000E+99

> <Gold.Chemscore.Hbonds>
donor molecule, donor type, donor heavy atom, donor atom, acceptor molecule, acceptor atom, score
      L1  H     9    28       P1  8028  0.71
      P1  H  7989  7998       L1     6  0.54

> <Gold.Chemscore.Hbond.Weighted>
-6.5341

> <Gold.Chemscore.Metal.Weighted>
-0.0000

> <Gold.Chemscore.Lipo.Weighted>
-11.9513

> <Gold.Chemscore.Internal_Hbond.Weighted>
0.0000

> <Gold.Chemscore.DEClash.Weighted>
1.9085

> <Gold.Chemscore.DEInternal.Weighted>
1.3618

> <Gold.Chemscore.Rot.Weighted>
5.5652

> <Gold.Chemscore.Internal.Correction.Weighted>
   9.000000E+99

> <Gold.Protein.RotatedTorsions>
[ 6907 6896 6895 6894 ] final   30.12 input  -60.11 | X-H torsion
[ 7974 7965 7964 7962 ] final  -77.89 input  175.53 | X-H torsion
[ 8008 7997 7996 7995 ] final  -81.48 input   59.86 | X-H torsion
[ 10167 10162 10161 10158 ] final   58.76 input  -65.29 | X-H torsion
[ 10718 10713 10712 10709 ] final  119.64 input   66.30 | X-H torsion
[ 10763 10752 10751 10750 ] final   -4.69 input  -60.55 | X-H torsion
[ 11005 11000 10999 10996 ] final  -66.75 input  -57.11 | X-H torsion

> <Gold.Protein.ActiveResidues>
 VAL166  LYS551  ARG553  GLY616  TRP617  ASP618  TYR619  PRO620  LYS621  CYS622 
 ASP623  PHE694  ASN695  SER759  ASP760  ASP761  ALA762  ILE779  LEU786  VAL792 
 PHE793  MET794  SER795  GLU796  ALA797  LYS798  CYS799  TRP800  GLU811  SER814 

> <Gold.Protein.RotatedAtoms>
  152.0414  134.9709  160.0573 H   0  0  0  0  0  0  0  0  0  0  0  0  # atno 6907 bound_to 6896
  152.1146  133.4315  159.4655 H   0  0  0  0  0  0  0  0  0  0  0  0  # atno 6908 bound_to 6896
  150.6845  134.2526  159.4560 H   0  0  0  0  0  0  0  0  0  0  0  0  # atno 6909 bound_to 6896
  145.5937  140.9424  143.1278 H   0  0  0  0  0  0  0  0  0  0  0  0  # atno 7974 bound_to 7965
  154.5988  140.0647  156.9340 H   0  0  0  0  0  0  0  0  0  0  0  0  # atno 8008 bound_to 7997
  155.2167  140.3327  155.4303 H   0  0  0  0  0  0  0  0  0  0  0  0  # atno 8009 bound_to 7997
  156.2305  140.1838  156.7239 H   0  0  0  0  0  0  0  0  0  0  0  0  # atno 8010 bound_to 7997
  140.1837  144.4156  150.6603 H   0  0  0  0  0  0  0  0  0  0  0  0  # atno 10167 bound_to 10162
  157.5947  131.1059  150.7925 H   0  0  0  0  0  0  0  0  0  0  0  0  # atno 10718 bound_to 10713
  153.3884  135.7001  153.6513 H   0  0  0  0  0  0  0  0  0  0  0  0  # atno 10763 bound_to 10752
  153.5096  135.3635  155.2580 H   0  0  0  0  0  0  0  0  0  0  0  0  # atno 10764 bound_to 10752
  154.8700  135.4131  154.3195 H   0  0  0  0  0  0  0  0  0  0  0  0  # atno 10765 bound_to 10752
  141.1490  133.6705  156.6187 H   0  0  0  0  0  0  0  0  0  0  0  0  # atno 11005 bound_to 11000
  144.7340  139.7641  143.7336 LP  0  0  0  0  0  0  0  0  0  0  0  0  # atno 17320 bound_to 7965
  146.1627  139.4748  142.9978 LP  0  0  0  0  0  0  0  0  0  0  0  0  # atno 17321 bound_to 7965
  140.6502  143.2223  151.6094 LP  0  0  0  0  0  0  0  0  0  0  0  0  # atno 17342 bound_to 10162
  139.5285  144.2986  152.1092 LP  0  0  0  0  0  0  0  0  0  0  0  0  # atno 17343 bound_to 10162
  156.8339  130.5025  149.5328 LP  0  0  0  0  0  0  0  0  0  0  0  0  # atno 17370 bound_to 10713
  156.1007  130.5967  150.9890 LP  0  0  0  0  0  0  0  0  0  0  0  0  # atno 17371 bound_to 10713
  140.3558  134.7730  157.4499 LP  0  0  0  0  0  0  0  0  0  0  0  0  # atno 17394 bound_to 11000
  140.0824  134.5712  155.8526 LP  0  0  0  0  0  0  0  0  0  0  0  0  # atno 17395 bound_to 11000

$$$$
