#       Name:                AV-unprocessed.smi:911
#       Creating user name   scv26
#       Creation time:       Fri Mar 27 02:04:39 2020


#       File generated by GOLD software.
#

@<TRIPOS>MOLECULE
AV-unprocessed.smi:911
    53    55     1
SMALL
NO_CHARGES


@<TRIPOS>ATOM
      1 ****        -3.7590  -1.0024  -0.5305 C.3            1 S1                 0.0000
      2 ****        -2.9529  -0.0450   0.3917 C.3            1 S1                 0.0000
      3 ****        -3.8804   1.1799   0.6263 C.3            1 S1                 0.0000
      4 ****        -2.4340  -0.7073   1.6835 C.3            1 S1                 0.0000
      5 ****        -1.4500  -1.7840   1.1722 C.3            1 S1                 0.0000
      6 ****        -0.8322  -1.1111  -0.0691 C.3            1 S1                 0.0000
      7 ****        -1.5085   0.2886  -0.0717 C.3            1 S1                 0.0000
      8 ****        -1.3941   1.0051  -1.4289 C.3            1 S1                 0.0000
      9 ****        -0.9417   1.1122   1.1314 C.3            1 S1                 0.0000
     10 ****         0.5162   1.0970   1.2342 N.am           1 S1                 0.0000
     11 ****         1.3497   1.9569   0.6304 C.2            1 S1                 0.0000
     12 ****         0.9732   2.9312  -0.0200 O.2            1 S1                 0.0000
     13 ****         2.8433   1.6508   0.7644 C.3            1 S1                 0.0000
     14 ****         3.2914   0.7812  -0.3340 N.am           1 S1                 0.0000
     15 ****         3.1867  -0.6072  -0.1190 C.2            1 S1                 0.0000
     16 ****         3.5145  -1.5064  -1.0665 C.2            1 S1                 0.0000
     17 ****         3.3748  -2.9265  -0.8326 N.pl3          1 S1                 1.0000
     18 ****         3.7856  -3.7060  -1.6859 O.2            1 S1                 0.0000
     19 ****         2.8479  -3.3090   0.2081 O.2            1 S1                -1.0000
     20 ****         3.9980  -1.0013  -2.3364 C.2            1 S1                 0.0000
     21 ****         4.1013   0.3257  -2.5490 C.2            1 S1                 0.0000
     22 ****         3.7331   1.3033  -1.5190 C.2            1 S1                 0.0000
     23 ****         3.8129   2.5161  -1.7130 O.2            1 S1                 0.0000
     24 ****        -1.5856   0.4011   2.3440 C.3            1 S1                 0.0000
     25 ****        -4.6945  -1.2946  -0.0526 H              1 S1                 0.0000
     26 ****        -3.2517  -1.9267  -0.7966 H              1 S1                 0.0000
     27 ****        -4.0202  -0.5103  -1.4676 H              1 S1                 0.0000
     28 ****        -3.4708   1.9562   1.2680 H              1 S1                 0.0000
     29 ****        -4.8194   0.8671   1.0842 H              1 S1                 0.0000
     30 ****        -4.1312   1.6610  -0.3194 H              1 S1                 0.0000
     31 ****        -3.2078  -1.1065   2.3400 H              1 S1                 0.0000
     32 ****        -0.6961  -2.0429   1.9165 H              1 S1                 0.0000
     33 ****        -1.9659  -2.7066   0.9048 H              1 S1                 0.0000
     34 ****         0.2556  -1.0798  -0.0242 H              1 S1                 0.0000
     35 ****        -1.0712  -1.6710  -0.9732 H              1 S1                 0.0000
     36 ****        -0.3512   1.1484  -1.7113 H              1 S1                 0.0000
     37 ****        -1.8672   1.9867  -1.4013 H              1 S1                 0.0000
     38 ****        -1.8674   0.4299  -2.2244 H              1 S1                 0.0000
     39 ****        -1.2828   2.1477   1.0917 H              1 S1                 0.0000
     40 ****         0.9230   0.3335   1.7546 H              1 S1                 0.0000
     41 ****         3.4031   2.5874   0.7857 H              1 S1                 0.0000
     42 ****         3.0381   1.1809   1.7300 H              1 S1                 0.0000
     43 ****         2.8082  -0.8809   0.8556 H              1 S1                 0.0000
     44 ****         4.2778  -1.6826  -3.1265 H              1 S1                 0.0000
     45 ****         4.4613   0.6808  -3.5036 H              1 S1                 0.0000
     46 ****        -2.2064   1.0893   2.9182 H              1 S1                 0.0000
     47 ****        -0.8519  -0.0098   3.0394 H              1 S1                 0.0000
     48 ****        -0.0041   3.1174  -0.1212 LP             1 S1                 0.0000
     49 ****         1.6445   3.5368  -0.4473 LP             1 S1                 0.0000
     50 ****         4.2067  -3.3552  -2.5223 LP             1 S1                 0.0000
     51 ****         3.6993  -4.6923  -1.5451 LP             1 S1                 0.0000
     52 ****         3.5501   3.1563  -0.9911 LP             1 S1                 0.0000
     53 ****         4.1404   2.8613  -2.5925 LP             1 S1                 0.0000
@<TRIPOS>BOND
    1    1    2 1     
    2    1   25 1     
    3    1   26 1     
    4    1   27 1     
    5    2    7 1     
    6    2    3 1     
    7    2    4 1     
    8    3   28 1     
    9    3   29 1     
   10    3   30 1     
   11    4   24 1     
   12    4    5 1     
   13    4   31 1     
   14    5    6 1     
   15    5   32 1     
   16    5   33 1     
   17    6    7 1     
   18    6   34 1     
   19    6   35 1     
   20    7    8 1     
   21    7    9 1     
   22    8   36 1     
   23    8   37 1     
   24    8   38 1     
   25    9   10 1     
   26    9   24 1     
   27    9   39 1     
   28   10   11 am    
   29   10   40 1     
   30   11   12 2     
   31   11   13 1     
   32   13   14 1     
   33   13   41 1     
   34   13   42 1     
   35   14   22 am    
   36   14   15 1     
   37   15   16 2     
   38   15   43 1     
   39   16   17 1     
   40   16   20 1     
   41   17   18 2     
   42   17   19 1     
   43   20   21 2     
   44   20   44 1     
   45   21   22 1     
   46   21   45 1     
   47   22   23 2     
   48   24   46 1     
   49   24   47 1     
   50   12   48 1     
   51   12   49 1     
   52   18   50 1     
   53   18   51 1     
   54   23   52 1     
   55   23   53 1     
@<TRIPOS>SUBSTRUCTURE
      1 S1             1
@<TRIPOS>SET
LONE_PAIRS      STATIC     ATOMS    <user>   **** ""
7 48 49 50 51 19 52 53
DONOR_HYDROGENS      STATIC     ATOMS    <user>   **** ""
1 40
ATOM$BLUE        STATIC     ATOMS    COLORGROUP SYSTEM
7 48 49 50 51 19 52 53
ATOM$RED        STATIC     ATOMS    COLORGROUP SYSTEM
1 40
