#       Name:                AV-unprocessed.smi:160
#       Creating user name   scv26
#       Creation time:       Thu Mar 26 19:04:53 2020


#       File generated by GOLD software.
#

@<TRIPOS>MOLECULE
AV-unprocessed.smi:160
    41    42     1
SMALL
NO_CHARGES


@<TRIPOS>ATOM
      1 ****        -4.9252   0.4446  -0.7136 N.am           1 S1                 0.0000
      2 ****        -3.7870   1.1051  -0.9474 C.2            1 S1                 0.0000
      3 ****        -3.7636   2.3066  -1.2101 O.2            1 S1                 0.0000
      4 ****        -2.5244   0.2926  -0.8707 C.2            1 S1                 0.0000
      5 ****        -2.5356  -1.0432  -0.5779 N.2            1 S1                 0.0000
      6 ****        -1.2313  -1.2785  -0.6376 C.2            1 S1                 0.0000
      7 ****        -0.4905  -0.1969  -0.9076 N.pl3          1 S1                 0.0000
      8 ****         0.9830  -0.0497  -1.1234 C.3            1 S1                 0.0000
      9 ****         1.6104  -1.2076  -0.6533 O.3            1 S1                 0.0000
     10 ****         2.2502  -0.9740   0.5997 C.3            1 S1                 0.0000
     11 ****         1.2698  -1.2425   1.7652 C.3            1 S1                 0.0000
     12 ****         1.0760  -2.6322   1.9182 O.3            1 S1                 0.0000
     13 ****         2.7002   0.4856   0.4437 C.3            1 S1                 0.0000
     14 ****         2.9349   1.1289   1.6808 O.3            1 S1                 0.0000
     15 ****         1.5544   1.1363  -0.3216 C.3            1 S1                 0.0000
     16 ****         2.0601   2.1479  -1.1690 O.3            1 S1                 0.0000
     17 ****        -1.3342   0.8475  -1.0977 N.2            1 S1                 0.0000
     18 ****         1.0923   0.0364  -2.2054 H              1 S1                 0.0000
     19 ****         3.1207  -1.6232   0.7026 H              1 S1                 0.0000
     20 ****         3.6143   0.5069  -0.1525 H              1 S1                 0.0000
     21 ****         0.8034   1.5363   0.3620 H              1 S1                 0.0000
     22 ****        -5.8078   0.9327  -0.7505 H              1 S1                 0.0000
     23 ****        -4.8925  -0.5422  -0.5016 H              1 S1                 0.0000
     24 ****        -0.8071  -2.2592  -0.4786 H              1 S1                 0.0000
     25 ****         1.6877  -0.8839   2.7057 H              1 S1                 0.0000
     26 ****         0.3139  -0.7373   1.6364 H              1 S1                 0.0000
     27 ****         0.5016  -2.7758   2.6548 H              1 S1                 0.0000
     28 ****         3.1860   2.0234   1.5069 H              1 S1                 0.0000
     29 ****         1.3390   2.5165  -1.6567 H              1 S1                 0.0000
     30 ****        -4.6173   2.8253  -1.2549 LP             1 S1                 0.0000
     31 ****        -2.8908   2.7646  -1.3789 LP             1 S1                 0.0000
     32 ****        -3.2983  -1.6584  -0.3786 LP             1 S1                 0.0000
     33 ****         2.2957  -1.5011  -1.3199 LP             1 S1                 0.0000
     34 ****         0.9253  -1.9273  -0.5408 LP             1 S1                 0.0000
     35 ****         1.9552  -3.0791   2.0839 LP             1 S1                 0.0000
     36 ****         0.6620  -3.0083   1.0892 LP             1 S1                 0.0000
     37 ****         3.6698   0.6606   2.1714 LP             1 S1                 0.0000
     38 ****         2.1019   1.1128   2.2337 LP             1 S1                 0.0000
     39 ****         2.7297   1.7563  -1.8002 LP             1 S1                 0.0000
     40 ****         2.4965   2.8611  -0.6205 LP             1 S1                 0.0000
     41 ****        -1.1185   1.7921  -1.3449 LP             1 S1                 0.0000
@<TRIPOS>BOND
    1    1    2 am    
    2    1   22 1     
    3    1   23 1     
    4    2    3 2     
    5    2    4 1     
    6    4   17 2     
    7    4    5 1     
    8    5    6 2     
    9    6    7 1     
   10    6   24 1     
   11    7    8 1     
   12    7   17 1     
   13    8   18 1     
   14    8   15 1     
   15    8    9 1     
   16    9   10 1     
   17   10   19 1     
   18   10   11 1     
   19   10   13 1     
   20   11   12 1     
   21   11   25 1     
   22   11   26 1     
   23   12   27 1     
   24   13   20 1     
   25   13   14 1     
   26   13   15 1     
   27   14   28 1     
   28   15   21 1     
   29   15   16 1     
   30   16   29 1     
   31    3   30 1     
   32    3   31 1     
   33    5   32 1     
   34    9   33 1     
   35    9   34 1     
   36   12   35 1     
   37   12   36 1     
   38   14   37 1     
   39   14   38 1     
   40   16   39 1     
   41   16   40 1     
   42   17   41 1     
@<TRIPOS>SUBSTRUCTURE
      1 S1             1
@<TRIPOS>SET
LONE_PAIRS      STATIC     ATOMS    <user>   **** ""
12 30 31 32 33 34 35 36 37 38 39 40 41
DONOR_HYDROGENS      STATIC     ATOMS    <user>   **** ""
5 22 23 27 28 29
ATOM$BLUE        STATIC     ATOMS    COLORGROUP SYSTEM
12 30 31 32 33 34 35 36 37 38 39 40 41
ATOM$RED        STATIC     ATOMS    COLORGROUP SYSTEM
5 22 23 27 28 29
