#       Name:                AV-unprocessed.smi:2068
#       Creating user name   scv26
#       Creation time:       Fri Mar 27 11:12:34 2020


#       File generated by GOLD software.
#

@<TRIPOS>MOLECULE
AV-unprocessed.smi:2068
    38    39     1
SMALL
NO_CHARGES


@<TRIPOS>ATOM
      1 ****        -4.3791  -2.5711  -0.2558 N.am           1 S1                 0.0000
      2 ****        -5.2860  -1.6316  -0.5400 C.2            1 S1                 0.0000
      3 ****        -6.4201  -1.6501  -0.0656 O.2            1 S1                 0.0000
      4 ****        -4.8680  -0.5198  -1.5062 C.3            1 S1                 0.0000
      5 ****        -3.7371   0.2859  -0.9339 C.2            1 S1                 0.0000
      6 ****        -3.8274   1.3062  -0.0221 C.2            1 S1                 0.0000
      7 ****        -2.2622   1.9554   0.3745 S.3            1 S1                 0.0000
      8 ****        -1.5152   0.8007  -0.7311 C.2            1 S1                 0.0000
      9 ****        -0.1976   0.7058  -0.9683 N.pl3          1 S1                -1.0000
     10 ****         0.5774  -0.0384  -0.1437 C.2            1 S1                 0.0000
     11 ****         0.2389  -0.6981   0.8410 O.2            1 S1                 0.0000
     12 ****         2.0532  -0.0106  -0.5748 C.3            1 S1                 0.0000
     13 ****         3.0598  -0.1490   0.5903 C.3            1 S1                 0.0000
     14 ****         2.9813   0.9715   1.5993 C.2            1 S1                 0.0000
     15 ****         4.1619   1.5425   1.8267 C.2            1 S1                 0.0000
     16 ****         5.2666   0.9227   1.0169 C.3            1 S1                 0.0000
     17 ****         4.5388  -0.1096   0.1268 C.3            1 S1                 0.0000
     18 ****        -2.4229   0.0239  -1.3321 N.2            1 S1                 0.0000
     19 ****        -4.6055  -3.3097   0.3938 H              1 S1                 0.0000
     20 ****        -3.4613  -2.5249  -0.6763 H              1 S1                 0.0000
     21 ****        -4.5850  -0.9681  -2.4594 H              1 S1                 0.0000
     22 ****        -5.7255   0.1223  -1.7116 H              1 S1                 0.0000
     23 ****        -4.7147   1.7095   0.4422 H              1 S1                 0.0000
     24 ****         2.2067  -0.8248  -1.2839 H              1 S1                 0.0000
     25 ****         2.2669   0.9126  -1.1180 H              1 S1                 0.0000
     26 ****         2.8788  -1.0828   1.1249 H              1 S1                 0.0000
     27 ****         2.0561   1.2496   2.0827 H              1 S1                 0.0000
     28 ****         4.3388   2.3525   2.5188 H              1 S1                 0.0000
     29 ****         5.7812   1.6793   0.4239 H              1 S1                 0.0000
     30 ****         5.9892   0.4459   1.6798 H              1 S1                 0.0000
     31 ****         5.0026  -1.0940   0.1993 H              1 S1                 0.0000
     32 ****         4.6090   0.1977  -0.9176 H              1 S1                 0.0000
     33 ****        -6.6902  -2.3856   0.5557 LP             1 S1                 0.0000
     34 ****        -7.0724  -0.9297  -0.3011 LP             1 S1                 0.0000
     35 ****         0.2091   1.1812  -1.7484 LP             1 S1                 0.0000
     36 ****        -0.7216  -0.7266   1.1176 LP             1 S1                 0.0000
     37 ****         0.9249  -1.2048   1.3632 LP             1 S1                 0.0000
     38 ****        -2.1841  -0.6782  -2.0031 LP             1 S1                 0.0000
@<TRIPOS>BOND
    1    1    2 am    
    2    1   19 1     
    3    1   20 1     
    4    2    3 2     
    5    2    4 1     
    6    4    5 1     
    7    4   21 1     
    8    4   22 1     
    9    5   18 1     
   10    5    6 2     
   11    6    7 1     
   12    6   23 1     
   13    7    8 1     
   14    8    9 1     
   15    8   18 2     
   16    9   10 1     
   17   10   11 2     
   18   10   12 1     
   19   12   13 1     
   20   12   24 1     
   21   12   25 1     
   22   13   17 1     
   23   13   14 1     
   24   13   26 1     
   25   14   15 2     
   26   14   27 1     
   27   15   16 1     
   28   15   28 1     
   29   16   17 1     
   30   16   29 1     
   31   16   30 1     
   32   17   31 1     
   33   17   32 1     
   34    3   33 1     
   35    3   34 1     
   36    9   35 1     
   37   11   36 1     
   38   11   37 1     
   39   18   38 1     
@<TRIPOS>SUBSTRUCTURE
      1 S1             1
@<TRIPOS>SET
LONE_PAIRS      STATIC     ATOMS    <user>   **** ""
6 33 34 35 36 37 38
DONOR_HYDROGENS      STATIC     ATOMS    <user>   **** ""
2 19 20
ATOM$BLUE        STATIC     ATOMS    COLORGROUP SYSTEM
6 33 34 35 36 37 38
ATOM$RED        STATIC     ATOMS    COLORGROUP SYSTEM
2 19 20
