AV-unprocessed.smi:1659|AV-procd|sdf|6650|dock4
  -GOLD-   22720 7353D 1   1.00000     0.00000
 Structure written by MMmdl.
 43 44  0  0  0  0  0  0  0  0  1 V2000
  149.0923  130.2027  154.6301 C   0  0  0  0  0  0  0  0  0  0  0  0
  149.4256  131.6404  154.8366 C   0  0  0  0  0  0  0  0  0  0  0  0
  149.3958  132.7297  154.0121 C   0  0  0  0  0  0  0  0  0  0  0  0
  149.8377  133.7824  154.8569 C   0  0  0  0  0  0  0  0  0  0  0  0
  149.9485  135.1096  154.3689 N   0  0  0  0  0  0  0  0  0  0  0  0
  150.7927  136.0682  154.7869 C   0  0  0  0  0  0  0  0  0  0  0  0
  151.6252  135.9379  155.6847 O   0  0  0  0  0  0  0  0  0  0  0  0
  150.6198  137.2052  154.0972 N   0  0  0  0  0  0  0  0  0  0  0  0
  151.3808  138.4323  154.3025 C   0  0  0  0  0  0  0  0  0  0  0  0
  150.9134  139.1834  155.5591 C   0  0  0  0  0  0  0  0  0  0  0  0
  151.6315  140.5318  155.7384 C   0  0  0  0  0  0  0  0  0  0  0  0
  151.6437  140.9492  157.1488 N   0  0  0  0  0  0  0  0  0  0  0  0
  150.7504  142.0668  157.4907 C   0  0  0  0  0  0  0  0  0  0  0  0
  151.5200  143.3272  157.9305 C   0  0  0  0  0  0  0  0  0  0  0  0
  151.9730  143.3019  159.3979 C   0  0  0  0  0  0  0  0  0  0  0  0
  152.9717  142.1849  159.7339 C   0  0  0  0  0  0  0  0  0  0  0  0
  152.4000  140.7736  159.5194 C   0  0  0  0  0  0  0  0  0  0  0  0
  152.4465  140.3339  158.0503 C   0  0  0  0  0  0  0  0  0  0  0  0
  153.2107  139.4183  157.7429 O   0  0  0  0  0  0  0  0  0  0  0  0
  150.1135  133.3725  156.0856 N   0  0  0  0  0  0  0  0  0  0  0  0
  149.8497  131.9976  156.0791 O   0  0  0  0  0  0  0  0  0  0  0  0
  148.9967  129.9735  153.5687 H   0  0  0  0  0  0  0  0  0  0  0  0
  148.1500  129.9515  155.1171 H   0  0  0  0  0  0  0  0  0  0  0  0
  149.8702  129.5613  155.0449 H   0  0  0  0  0  0  0  0  0  0  0  0
  149.1035  132.7641  152.9732 H   0  0  0  0  0  0  0  0  0  0  0  0
  149.3161  135.3556  153.6219 H   0  0  0  0  0  0  0  0  0  0  0  0
  149.9123  137.2238  153.3772 H   0  0  0  0  0  0  0  0  0  0  0  0
  152.4329  138.1641  154.4009 H   0  0  0  0  0  0  0  0  0  0  0  0
  151.3046  139.0733  153.4225 H   0  0  0  0  0  0  0  0  0  0  0  0
  149.8363  139.3469  155.5064 H   0  0  0  0  0  0  0  0  0  0  0  0
  151.0873  138.5609  156.4377 H   0  0  0  0  0  0  0  0  0  0  0  0
  152.6457  140.4652  155.3438 H   0  0  0  0  0  0  0  0  0  0  0  0
  151.1461  141.2924  155.1239 H   0  0  0  0  0  0  0  0  0  0  0  0
  150.1384  142.3370  156.6298 H   0  0  0  0  0  0  0  0  0  0  0  0
  150.0385  141.7592  158.2578 H   0  0  0  0  0  0  0  0  0  0  0  0
  152.3733  143.4984  157.2729 H   0  0  0  0  0  0  0  0  0  0  0  0
  150.8667  144.1905  157.7992 H   0  0  0  0  0  0  0  0  0  0  0  0
  152.4295  144.2623  159.6394 H   0  0  0  0  0  0  0  0  0  0  0  0
  151.0999  143.2159  160.0461 H   0  0  0  0  0  0  0  0  0  0  0  0
  153.8866  142.3170  159.1540 H   0  0  0  0  0  0  0  0  0  0  0  0
  153.2666  142.2871  160.7786 H   0  0  0  0  0  0  0  0  0  0  0  0
  152.9947  140.0656  160.0982 H   0  0  0  0  0  0  0  0  0  0  0  0
  151.3849  140.6934  159.9098 H   0  0  0  0  0  0  0  0  0  0  0  0
  1  2  1  0  0  0  0
  1 22  1  0  0  0  0
  1 23  1  0  0  0  0
  1 24  1  0  0  0  0
  2 21  1  0  0  0  0
  2  3  2  0  0  0  0
  3  4  1  0  0  0  0
  3 25  1  0  0  0  0
  4  5  1  0  0  0  0
  4 20  2  0  0  0  0
  5  6  1  0  0  0  0
  5 26  1  0  0  0  0
  6  7  2  0  0  0  0
  6  8  1  0  0  0  0
  8  9  1  0  0  0  0
  8 27  1  0  0  0  0
  9 10  1  0  0  0  0
  9 28  1  0  0  0  0
  9 29  1  0  0  0  0
 10 11  1  0  0  0  0
 10 30  1  0  0  0  0
 10 31  1  0  0  0  0
 11 12  1  0  0  0  0
 11 32  1  0  0  0  0
 11 33  1  0  0  0  0
 12 18  1  0  0  0  0
 12 13  1  0  0  0  0
 13 14  1  0  0  0  0
 13 34  1  0  0  0  0
 13 35  1  0  0  0  0
 14 15  1  0  0  0  0
 14 36  1  0  0  0  0
 14 37  1  0  0  0  0
 15 16  1  0  0  0  0
 15 38  1  0  0  0  0
 15 39  1  0  0  0  0
 16 17  1  0  0  0  0
 16 40  1  0  0  0  0
 16 41  1  0  0  0  0
 17 18  1  0  0  0  0
 17 42  1  0  0  0  0
 17 43  1  0  0  0  0
 18 19  2  0  0  0  0
 20 21  1  0  0  0  0
M  END
> <s_m_source_file>
AV-unprocessed.smi

> <i_m_source_file_index>
1659

> <i_lp_mmshare_version>
43012

> <i_f3d_flags>
0

> <s_epik_input>
W0NIM11jMVtjSF1jKG5vMSlbTkhdQyg9TylbTkhdW0NIMl1bQ0gyXVtDSDJdTjJbQ0gyXVtDSDJdW0NIMl1bQ0gyXVtDSDJdQzI9Tw==

> <s_epik_cmdline>
J2VwaWtfcHl0aG9uJywgJy1waCcsICc3LjAnLCAnLXRuJywgJzgnLCAnLW1hJywgJzIwMCcsICctbWV0YWxfYmluZGluZycsICctaW1hZScsICc8aW5maWxlLm1hZT4nLCAnLW9tYWUnLCAnPG91dGZpbGUubWFlPic=

> <r_lp_tautomer_probability>
1

> <r_epik_Ionization_Penalty>
2.8543e-05

> <r_epik_Ionization_Penalty_Charging>
0

> <r_epik_Ionization_Penalty_Neutral>
2.8543e-05

> <r_epik_State_Penalty>
-0

> <r_epik_Charging_Adjusted_Penalty>
0

> <i_epik_Tot_Q>
0

> <i_epik_Tot_abs_Q>
0

> <r_epik_Metal_State_Penalty>
0.00845548

> <b_epik_Metal_Only>
0

> <s_lp_Force_Field>
OPLS_2005

> <r_lp_Energy>
16.7735

> <b_lp_Chiralities_Consistent>
1

> <s_lp_Variant>
AV-unprocessed.smi:1659-1

> <Gold.Version>
5.8.1

> <Gold.Id.Protein>
6NUR|6NUR_protein|mol2

> <Gold.PLP.Fitness>
52.3045

> <Gold.PLP.PLP>
-41.4350

> <Gold.PLP.part.hbond>
-5.2684

> <Gold.PLP.part.metal>
0.0000

> <Gold.PLP.part.buried>
-3.2015

> <Gold.PLP.part.nonpolar>
-32.8004

> <Gold.PLP.part.repulsive>
0.1865

> <Gold.PLP.ligand.clash>
0.0000

> <Gold.PLP.ligand.torsion>
0.5668

> <Gold.PLP.Chemscore.Hbond>
3.9760

> <Gold.PLP.Chemscore.CHOScore>
0.0000

> <Gold.PLP.Chemscore.Metal>
0.0000

> <Gold.Chemscore.Hbonds>
donor molecule, donor type, donor heavy atom, donor atom, acceptor molecule, acceptor atom, score
      L1  H     5    26       P1  7948  0.99
      L1  H     8    27       P1  7948  0.94
      P1  H  7997  8008       L1    19  1.00
      P1  H 10752 10764       L1     7  1.00

> <Gold.PLP.Chemscore.Internal.Correction>
0.0752

> <Gold.Rescore>
     Score         DG    S(hbond)    S(metal)    S(lipo)     H(rot)  DE(clash)    DE(int)     intcor
     19.03     -20.73       3.13        0.00      82.25       1.88       0.06       1.64       ----

> <Gold.Chemscore.Fitness>
19.0258

> <Gold.Chemscore.DG>
-20.7268

> <Gold.Chemscore.ZeroCoef>
-5.4800

> <Gold.Chemscore.Hbond>
3.1258

> <Gold.Chemscore.Metal>
0.0000

> <Gold.Chemscore.Lipo>
82.2515

> <Gold.Chemscore.Internal_Hbond>
0.0000

> <Gold.Chemscore.DEClash>
0.0604

> <Gold.Chemscore.DEInternal>
1.6406

> <Gold.Chemscore.Rot>
1.8816

> <Gold.Chemscore.Internal.Correction>
   9.000000E+99

> <Gold.Chemscore.Hbonds>
donor molecule, donor type, donor heavy atom, donor atom, acceptor molecule, acceptor atom, score
      L1  H     5    26       P1  7948  0.28
      L1  H     8    27       P1  7948  0.34
      P1  H  7997  8008       L1    19  0.65
      P1  H 10752 10764       L1     7  0.78

> <Gold.Chemscore.Hbond.Weighted>
-10.4402

> <Gold.Chemscore.Metal.Weighted>
-0.0000

> <Gold.Chemscore.Lipo.Weighted>
-9.6234

> <Gold.Chemscore.Internal_Hbond.Weighted>
0.0000

> <Gold.Chemscore.DEClash.Weighted>
0.0604

> <Gold.Chemscore.DEInternal.Weighted>
1.6406

> <Gold.Chemscore.Rot.Weighted>
4.8169

> <Gold.Chemscore.Internal.Correction.Weighted>
   9.000000E+99

> <Gold.Protein.RotatedTorsions>
[ 6907 6896 6895 6894 ] final -142.40 input  -60.11 | X-H torsion
[ 7974 7965 7964 7962 ] final -137.20 input  175.53 | X-H torsion
[ 8008 7997 7996 7995 ] final  -68.43 input   59.86 | X-H torsion
[ 10167 10162 10161 10158 ] final   91.80 input  -65.29 | X-H torsion
[ 10718 10713 10712 10709 ] final -107.58 input   66.30 | X-H torsion
[ 10763 10752 10751 10750 ] final  -28.01 input  -60.55 | X-H torsion
[ 11005 11000 10999 10996 ] final  -32.67 input  -57.11 | X-H torsion

> <Gold.Protein.ActiveResidues>
 VAL166  LYS551  ARG553  GLY616  TRP617  ASP618  TYR619  PRO620  LYS621  CYS622 
 ASP623  PHE694  ASN695  SER759  ASP760  ASP761  ALA762  ILE779  LEU786  VAL792 
 PHE793  MET794  SER795  GLU796  ALA797  LYS798  CYS799  TRP800  GLU811  SER814 

> <Gold.Protein.RotatedAtoms>
  151.0866  133.5349  159.2617 H   0  0  0  0  0  0  0  0  0  0  0  0  # atno 6907 bound_to 6896
  151.2232  135.0526  159.8968 H   0  0  0  0  0  0  0  0  0  0  0  0  # atno 6908 bound_to 6896
  152.5429  134.0665  159.8229 H   0  0  0  0  0  0  0  0  0  0  0  0  # atno 6909 bound_to 6896
  144.8862  140.6578  143.5174 H   0  0  0  0  0  0  0  0  0  0  0  0  # atno 7974 bound_to 7965
  154.4868  140.0873  156.7503 H   0  0  0  0  0  0  0  0  0  0  0  0  # atno 8008 bound_to 7997
  155.4331  140.3450  155.4264 H   0  0  0  0  0  0  0  0  0  0  0  0  # atno 8009 bound_to 7997
  156.1272  140.1491  156.9107 H   0  0  0  0  0  0  0  0  0  0  0  0  # atno 8010 bound_to 7997
  139.8339  144.6674  150.9366 H   0  0  0  0  0  0  0  0  0  0  0  0  # atno 10167 bound_to 10162
  156.0443  130.5669  150.7841 H   0  0  0  0  0  0  0  0  0  0  0  0  # atno 10718 bound_to 10713
  153.7414  135.6932  153.4966 H   0  0  0  0  0  0  0  0  0  0  0  0  # atno 10763 bound_to 10752
  153.2066  135.4417  155.0329 H   0  0  0  0  0  0  0  0  0  0  0  0  # atno 10764 bound_to 10752
  154.8219  135.3426  154.6939 H   0  0  0  0  0  0  0  0  0  0  0  0  # atno 10765 bound_to 10752
  140.9571  133.7186  156.1311 H   0  0  0  0  0  0  0  0  0  0  0  0  # atno 11005 bound_to 11000
  145.3864  139.1626  143.4253 LP  0  0  0  0  0  0  0  0  0  0  0  0  # atno 17320 bound_to 7965
  146.3026  140.3950  142.8698 LP  0  0  0  0  0  0  0  0  0  0  0  0  # atno 17321 bound_to 7965
  140.7804  143.3975  151.1204 LP  0  0  0  0  0  0  0  0  0  0  0  0  # atno 17342 bound_to 10162
  139.7627  143.8612  152.3104 LP  0  0  0  0  0  0  0  0  0  0  0  0  # atno 17343 bound_to 10162
  157.5300  131.0936  150.9967 LP  0  0  0  0  0  0  0  0  0  0  0  0  # atno 17370 bound_to 10713
  157.0276  130.5698  149.5339 LP  0  0  0  0  0  0  0  0  0  0  0  0  # atno 17371 bound_to 10713
  140.7520  134.4034  157.5540 LP  0  0  0  0  0  0  0  0  0  0  0  0  # atno 17394 bound_to 11000
  139.8866  134.8906  156.2577 LP  0  0  0  0  0  0  0  0  0  0  0  0  # atno 17395 bound_to 11000

$$$$
