AV-unprocessed.smi:3181|AV-procd|sdf|12146|dock1
  -GOLD-   2272017583D 1   1.00000     0.00000
 Structure written by MMmdl.
 42 43  0  0  0  0  0  0  0  0  2 V2000
  148.6079  140.9519  156.4749 C   0  0  0  0  0  0  0  0  0  0  0  0
  150.0806  141.1862  156.8484 C   0  0  1  0  0  0  0  0  0  0  0  0
  151.0400  140.9139  155.6697 C   0  0  0  0  0  0  0  0  0  0  0  0
  151.1069  139.5105  155.3066 N   0  0  0  0  0  0  0  0  0  0  0  0
  152.1107  138.6357  155.3926 C   0  0  0  0  0  0  0  0  0  0  0  0
  151.7962  137.4186  154.9721 N   0  0  0  0  0  0  0  0  0  0  0  0
  150.4910  137.6261  154.6251 C   0  0  0  0  0  0  0  0  0  0  0  0
  150.0276  138.8625  154.8095 N   0  0  0  0  0  0  0  0  0  0  0  0
  150.2527  142.5756  157.3304 N   0  3  0  0  0  0  0  0  0  0  0  0
  151.6414  143.0957  157.3484 C   0  0  1  0  0  0  0  0  0  0  0  0
  151.7211  144.5628  157.8143 C   0  0  0  0  0  0  0  0  0  0  0  0
  151.3944  144.7081  159.3081 C   0  0  0  0  0  0  0  0  0  0  0  0
  152.3060  143.8287  160.1874 C   0  0  1  0  0  0  0  0  0  0  0  0
  151.9516  144.0303  161.6714 C   0  0  0  0  0  0  0  0  0  0  0  0
  152.2292  142.3445  159.7413 C   0  0  2  0  0  0  0  0  0  0  0  0
  153.1669  141.4279  160.5471 C   0  0  0  0  0  0  0  0  0  0  0  0
  152.5366  142.2086  158.2328 C   0  0  0  0  0  0  0  0  0  0  0  0
  148.4279  139.9166  156.1838 H   0  0  0  0  0  0  0  0  0  0  0  0
  148.3029  141.5892  155.6444 H   0  0  0  0  0  0  0  0  0  0  0  0
  147.9518  141.1680  157.3186 H   0  0  0  0  0  0  0  0  0  0  0  0
  150.3198  140.4963  157.6591 H   0  0  0  0  0  0  0  0  0  0  0  0
  150.7281  141.4808  154.7914 H   0  0  0  0  0  0  0  0  0  0  0  0
  152.0506  141.2459  155.9090 H   0  0  0  0  0  0  0  0  0  0  0  0
  153.0905  138.8931  155.7682 H   0  0  0  0  0  0  0  0  0  0  0  0
  149.8632  136.8425  154.2266 H   0  0  0  0  0  0  0  0  0  0  0  0
  149.6782  143.1917  156.7732 H   0  0  0  0  0  0  0  0  0  0  0  0
  152.0213  143.0308  156.3276 H   0  0  0  0  0  0  0  0  0  0  0  0
  152.7314  144.9344  157.6384 H   0  0  0  0  0  0  0  0  0  0  0  0
  151.0671  145.2008  157.2204 H   0  0  0  0  0  0  0  0  0  0  0  0
  151.4986  145.7550  159.5959 H   0  0  0  0  0  0  0  0  0  0  0  0
  150.3498  144.4478  159.4839 H   0  0  0  0  0  0  0  0  0  0  0  0
  153.3322  144.1724  160.0472 H   0  0  0  0  0  0  0  0  0  0  0  0
  150.9597  143.6403  161.9003 H   0  0  0  0  0  0  0  0  0  0  0  0
  151.9597  145.0886  161.9343 H   0  0  0  0  0  0  0  0  0  0  0  0
  152.6669  143.5381  162.3299 H   0  0  0  0  0  0  0  0  0  0  0  0
  151.2106  141.9920  159.9100 H   0  0  0  0  0  0  0  0  0  0  0  0
  154.2014  141.7677  160.4882 H   0  0  0  0  0  0  0  0  0  0  0  0
  153.1329  140.4053  160.1706 H   0  0  0  0  0  0  0  0  0  0  0  0
  152.8870  141.3850  161.5994 H   0  0  0  0  0  0  0  0  0  0  0  0
  152.4425  141.1668  157.9225 H   0  0  0  0  0  0  0  0  0  0  0  0
  153.5794  142.4786  158.0586 H   0  0  0  0  0  0  0  0  0  0  0  0
  149.9140  142.6031  158.2815 H   0  0  0  0  0  0  0  0  0  0  0  0
  1  2  1  0  0  0  0
  1 18  1  0  0  0  0
  1 19  1  0  0  0  0
  1 20  1  0  0  0  0
  2  3  1  0  0  0  0
  2  9  1  0  0  0  0
  2 21  1  0  0  0  0
  3  4  1  0  0  0  0
  3 22  1  0  0  0  0
  3 23  1  0  0  0  0
  4  8  1  0  0  0  0
  4  5  1  0  0  0  0
  5  6  2  0  0  0  0
  5 24  1  0  0  0  0
  6  7  1  0  0  0  0
  7  8  2  0  0  0  0
  7 25  1  0  0  0  0
  9 10  1  0  0  0  0
  9 26  1  0  0  0  0
  9 42  1  0  0  0  0
 10 17  1  0  0  0  0
 10 11  1  0  0  0  0
 10 27  1  0  0  0  0
 11 12  1  0  0  0  0
 11 28  1  0  0  0  0
 11 29  1  0  0  0  0
 12 13  1  0  0  0  0
 12 30  1  0  0  0  0
 12 31  1  0  0  0  0
 13 14  1  0  0  0  0
 13 15  1  0  0  0  0
 13 32  1  0  0  0  0
 14 33  1  0  0  0  0
 14 34  1  0  0  0  0
 14 35  1  0  0  0  0
 15 16  1  0  0  0  0
 15 17  1  0  0  0  0
 15 36  1  0  0  0  0
 16 37  1  0  0  0  0
 16 38  1  0  0  0  0
 16 39  1  0  0  0  0
 17 40  1  0  0  0  0
 17 41  1  0  0  0  0
M  CHG  1   9   1
M  END
> <s_m_source_file>
AV-unprocessed.smi

> <i_m_source_file_index>
3181

> <i_lp_mmshare_version>
43012

> <i_f3d_flags>
0

> <s_epik_input>
bjFbY0hdbltjSF1uMVtDSDJdW0NAQEhdKFtDSDNdKVtOSF1bQ0BASF0yW0NIMl1bQ0gyXVtDQEBIXShbQ0gzXSlbQ0BASF0oW0NIM10pW0NIMl0y

> <s_epik_cmdline>
J2VwaWtfcHl0aG9uJywgJy1waCcsICc3LjAnLCAnLXRuJywgJzgnLCAnLW1hJywgJzIwMCcsICctbWV0YWxfYmluZGluZycsICctaW1hZScsICc8aW5maWxlLm1hZT4nLCAnLW9tYWUnLCAnPG91dGZpbGUubWFlPic=

> <r_lp_tautomer_probability>
1

> <r_epik_Ionization_Penalty>
0.000617007

> <r_epik_Ionization_Penalty_Charging>
0.000616215

> <r_epik_Ionization_Penalty_Neutral>
7.92544e-07

> <r_epik_State_Penalty>
0.000388807

> <r_epik_Charging_Adjusted_Penalty>
0.00100502

> <i_epik_Tot_Q>
1

> <i_epik_Tot_abs_Q>
1

> <r_epik_Metal_State_Penalty>
-0

> <b_epik_Metal_Only>
0

> <s_lp_Force_Field>
OPLS_2005

> <r_lp_Energy>
23.4305

> <b_lp_Chiralities_Consistent>
1

> <s_lp_Variant>
AV-unprocessed.smi:3181-12

> <Gold.Version>
5.8.1

> <Gold.Id.Protein>
6NUR|6NUR_protein|mol2

> <Gold.PLP.Fitness>
47.4913

> <Gold.PLP.PLP>
-37.3575

> <Gold.PLP.part.hbond>
-1.8492

> <Gold.PLP.part.metal>
0.0000

> <Gold.PLP.part.buried>
-3.6077

> <Gold.PLP.part.nonpolar>
-31.9041

> <Gold.PLP.part.repulsive>
0.2487

> <Gold.PLP.ligand.clash>
0.0000

> <Gold.PLP.ligand.torsion>
0.2654

> <Gold.PLP.Chemscore.Hbond>
2.5308

> <Gold.PLP.Chemscore.CHOScore>
1.0000

> <Gold.PLP.Chemscore.Metal>
0.0000

> <Gold.Chemscore.Hbonds>
donor molecule, donor type, donor heavy atom, donor atom, acceptor molecule, acceptor atom, score
      L1  H     9    26       P1  8028  1.92
      P1  H 10752 10765       L1     6  0.62
      L1  C     7    25       P1  7948  0.89

> <Gold.PLP.Chemscore.Internal.Correction>
0.0721

> <Gold.Rescore>
     Score         DG    S(hbond)    S(metal)    S(lipo)     H(rot)  DE(clash)    DE(int)     intcor
     16.51     -17.39       1.51        0.00     104.68       2.11       0.54       0.33       ----

> <Gold.Chemscore.Fitness>
16.5116

> <Gold.Chemscore.DG>
-17.3857

> <Gold.Chemscore.ZeroCoef>
-5.4800

> <Gold.Chemscore.Hbond>
1.5145

> <Gold.Chemscore.Metal>
0.0000

> <Gold.Chemscore.Lipo>
104.6810

> <Gold.Chemscore.Internal_Hbond>
0.0000

> <Gold.Chemscore.DEClash>
0.5414

> <Gold.Chemscore.DEInternal>
0.3327

> <Gold.Chemscore.Rot>
2.1095

> <Gold.Chemscore.Internal.Correction>
   9.000000E+99

> <Gold.Chemscore.Hbonds>
donor molecule, donor type, donor heavy atom, donor atom, acceptor molecule, acceptor atom, score
      L1  H     9    26       P1  8028  0.91
      P1  H 10752 10765       L1     6  0.59

> <Gold.Chemscore.Hbond.Weighted>
-5.0583

> <Gold.Chemscore.Metal.Weighted>
-0.0000

> <Gold.Chemscore.Lipo.Weighted>
-12.2477

> <Gold.Chemscore.Internal_Hbond.Weighted>
0.0000

> <Gold.Chemscore.DEClash.Weighted>
0.5414

> <Gold.Chemscore.DEInternal.Weighted>
0.3327

> <Gold.Chemscore.Rot.Weighted>
5.4003

> <Gold.Chemscore.Internal.Correction.Weighted>
   9.000000E+99

> <Gold.Protein.RotatedTorsions>
[ 6907 6896 6895 6894 ] final -128.62 input  -60.11 | X-H torsion
[ 7974 7965 7964 7962 ] final  -48.40 input  175.53 | X-H torsion
[ 8008 7997 7996 7995 ] final    3.33 input   59.86 | X-H torsion
[ 10167 10162 10161 10158 ] final  -60.02 input  -65.29 | X-H torsion
[ 10718 10713 10712 10709 ] final -171.45 input   66.30 | X-H torsion
[ 10763 10752 10751 10750 ] final  172.23 input  -60.55 | X-H torsion
[ 11005 11000 10999 10996 ] final  120.40 input  -57.11 | X-H torsion

> <Gold.Protein.ActiveResidues>
 VAL166  LYS551  ARG553  GLY616  TRP617  ASP618  TYR619  PRO620  LYS621  CYS622 
 ASP623  PHE694  ASN695  SER759  ASP760  ASP761  ALA762  ILE779  LEU786  VAL792 
 PHE793  MET794  SER795  GLU796  ALA797  LYS798  CYS799  TRP800  GLU811  SER814 

> <Gold.Protein.RotatedAtoms>
  150.9199  133.6893  159.2834 H   0  0  0  0  0  0  0  0  0  0  0  0  # atno 6907 bound_to 6896
  151.4351  135.1013  159.9663 H   0  0  0  0  0  0  0  0  0  0  0  0  # atno 6908 bound_to 6896
  152.4974  133.8620  159.7310 H   0  0  0  0  0  0  0  0  0  0  0  0  # atno 6909 bound_to 6896
  145.9515  140.7568  142.9502 H   0  0  0  0  0  0  0  0  0  0  0  0  # atno 7974 bound_to 7965
  154.7024  140.2676  155.6707 H   0  0  0  0  0  0  0  0  0  0  0  0  # atno 8008 bound_to 7997
  156.2769  140.2769  156.1562 H   0  0  0  0  0  0  0  0  0  0  0  0  # atno 8009 bound_to 7997
  155.0747  140.0372  157.2610 H   0  0  0  0  0  0  0  0  0  0  0  0  # atno 8010 bound_to 7997
  140.6098  143.2384  151.5736 H   0  0  0  0  0  0  0  0  0  0  0  0  # atno 10167 bound_to 10162
  156.7410  130.9342  151.3110 H   0  0  0  0  0  0  0  0  0  0  0  0  # atno 10718 bound_to 10713
  154.4232  135.2758  155.1962 H   0  0  0  0  0  0  0  0  0  0  0  0  # atno 10763 bound_to 10752
  154.3899  135.6068  153.5841 H   0  0  0  0  0  0  0  0  0  0  0  0  # atno 10764 bound_to 10752
  152.9833  135.5901  154.4531 H   0  0  0  0  0  0  0  0  0  0  0  0  # atno 10765 bound_to 10752
  139.9184  134.9634  156.7801 H   0  0  0  0  0  0  0  0  0  0  0  0  # atno 11005 bound_to 11000
  144.6797  140.2442  143.7340 LP  0  0  0  0  0  0  0  0  0  0  0  0  # atno 17320 bound_to 7965
  145.8165  139.2025  143.1963 LP  0  0  0  0  0  0  0  0  0  0  0  0  # atno 17321 bound_to 7965
  139.5352  144.2801  152.1236 LP  0  0  0  0  0  0  0  0  0  0  0  0  # atno 17342 bound_to 10162
  140.1997  144.4670  150.6437 LP  0  0  0  0  0  0  0  0  0  0  0  0  # atno 17343 bound_to 10162
  157.6818  130.9147  150.0287 LP  0  0  0  0  0  0  0  0  0  0  0  0  # atno 17370 bound_to 10713
  156.1464  130.3642  149.9503 LP  0  0  0  0  0  0  0  0  0  0  0  0  # atno 17371 bound_to 10713
  140.6551  133.9696  155.7775 LP  0  0  0  0  0  0  0  0  0  0  0  0  # atno 17394 bound_to 11000
  141.0682  134.0245  157.3564 LP  0  0  0  0  0  0  0  0  0  0  0  0  # atno 17395 bound_to 11000

$$$$
