#       Name:                AV-unprocessed.smi:1360
#       Creating user name   scv26
#       Creation time:       Fri Mar 27 05:14:45 2020


#       File generated by GOLD software.
#

@<TRIPOS>MOLECULE
AV-unprocessed.smi:1360
    39    40     1
SMALL
NO_CHARGES


@<TRIPOS>ATOM
      1 ****        -0.4264  -2.3111  -1.7312 C.3            1 S1                 0.0000
      2 ****         0.1085  -1.5679  -0.4961 C.3            1 S1                 0.0000
      3 ****         1.6488  -1.5888  -0.3896 C.3            1 S1                 0.0000
      4 ****         2.1895  -2.9350  -0.3408 N.pl3          1 S1                 0.0000
      5 ****         2.2268  -3.8010   0.7315 C.2            1 S1                 0.0000
      6 ****         2.8264  -4.9509   0.3043 C.2            1 S1                 0.0000
      7 ****         3.1272  -4.6879  -1.0614 C.2            1 S1                 0.0000
      8 ****         2.7470  -3.4795  -1.4442 N.2            1 S1                 0.0000
      9 ****        -0.3730  -0.1899  -0.5242 N.am           1 S1                 0.0000
     10 ****        -0.5891   0.5826   0.5520 C.2            1 S1                 0.0000
     11 ****        -0.3895   0.2040   1.7067 O.2            1 S1                 0.0000
     12 ****        -1.1066   2.0014   0.2811 C.3            1 S1                 0.0000
     13 ****        -2.5513   2.1768   0.8018 C.3            1 S1                 0.0000
     14 ****        -2.9987   3.6275   0.7676 C.2            1 S1                 0.0000
     15 ****        -2.1478   4.6601   0.6405 C.2            1 S1                 0.0000
     16 ****        -0.6428   4.4939   0.5226 C.3            1 S1                 0.0000
     17 ****        -0.1808   3.0717   0.8941 C.3            1 S1                 0.0000
     18 ****        -0.1654  -3.3691  -1.7058 H              1 S1                 0.0000
     19 ****        -0.0228  -1.8903  -2.6528 H              1 S1                 0.0000
     20 ****        -1.5138  -2.2494  -1.7844 H              1 S1                 0.0000
     21 ****        -0.3063  -2.0636   0.3836 H              1 S1                 0.0000
     22 ****         2.0948  -1.0585  -1.2327 H              1 S1                 0.0000
     23 ****         1.9742  -1.0665   0.5110 H              1 S1                 0.0000
     24 ****         1.8261  -3.5294   1.6972 H              1 S1                 0.0000
     25 ****         3.0211  -5.8438   0.8796 H              1 S1                 0.0000
     26 ****         3.6083  -5.3338  -1.7809 H              1 S1                 0.0000
     27 ****        -0.5606   0.2061  -1.4340 H              1 S1                 0.0000
     28 ****        -1.1162   2.1578  -0.7995 H              1 S1                 0.0000
     29 ****        -3.2370   1.5872   0.1923 H              1 S1                 0.0000
     30 ****        -2.6506   1.8186   1.8275 H              1 S1                 0.0000
     31 ****        -4.0584   3.8133   0.8637 H              1 S1                 0.0000
     32 ****        -2.5303   5.6697   0.6085 H              1 S1                 0.0000
     33 ****        -0.3568   4.7265  -0.5036 H              1 S1                 0.0000
     34 ****        -0.1485   5.2241   1.1639 H              1 S1                 0.0000
     35 ****        -0.1774   2.9714   1.9809 H              1 S1                 0.0000
     36 ****         0.8502   2.9251   0.5692 H              1 S1                 0.0000
     37 ****         2.8495  -3.0630  -2.3475 LP             1 S1                 0.0000
     38 ****        -0.0495  -0.7208   1.8780 LP             1 S1                 0.0000
     39 ****        -0.5674   0.8212   2.4731 LP             1 S1                 0.0000
@<TRIPOS>BOND
    1    1    2 1     
    2    1   18 1     
    3    1   19 1     
    4    1   20 1     
    5    2    3 1     
    6    2    9 1     
    7    2   21 1     
    8    3    4 1     
    9    3   22 1     
   10    3   23 1     
   11    4    8 1     
   12    4    5 1     
   13    5    6 2     
   14    5   24 1     
   15    6    7 1     
   16    6   25 1     
   17    7    8 2     
   18    7   26 1     
   19    9   10 am    
   20    9   27 1     
   21   10   11 2     
   22   10   12 1     
   23   12   17 1     
   24   12   13 1     
   25   12   28 1     
   26   13   14 1     
   27   13   29 1     
   28   13   30 1     
   29   14   15 2     
   30   14   31 1     
   31   15   16 1     
   32   15   32 1     
   33   16   17 1     
   34   16   33 1     
   35   16   34 1     
   36   17   35 1     
   37   17   36 1     
   38    8   37 1     
   39   11   38 1     
   40   11   39 1     
@<TRIPOS>SUBSTRUCTURE
      1 S1             1
@<TRIPOS>SET
LONE_PAIRS      STATIC     ATOMS    <user>   **** ""
3 37 38 39
DONOR_HYDROGENS      STATIC     ATOMS    <user>   **** ""
1 27
ATOM$BLUE        STATIC     ATOMS    COLORGROUP SYSTEM
3 37 38 39
ATOM$RED        STATIC     ATOMS    COLORGROUP SYSTEM
1 27
