AV-unprocessed.smi:1430|AV-procd|sdf|5825|dock9
  -GOLD-   22720 5483D 1   1.00000     0.00000
 Structure written by MMmdl.
 47 48  0  0  0  0  0  0  0  0  2 V2000
  152.7817  139.6757  158.8436 C   0  0  0  0  0  0  0  0  0  0  0  0
  153.2242  139.0274  157.6563 O   0  0  0  0  0  0  0  0  0  0  0  0
  152.3413  138.9174  156.6016 C   0  0  0  0  0  0  0  0  0  0  0  0
  152.7631  138.2472  155.4362 C   0  0  0  0  0  0  0  0  0  0  0  0
  151.8685  138.1301  154.3552 C   0  0  0  0  0  0  0  0  0  0  0  0
  150.5715  138.6842  154.4773 C   0  0  0  0  0  0  0  0  0  0  0  0
  149.5837  138.6531  153.4558 N   0  0  0  0  0  0  0  0  0  0  0  0
  148.2568  138.4779  153.5753 C   0  0  0  0  0  0  0  0  0  0  0  0
  147.6440  138.3616  154.6357 O   0  0  0  0  0  0  0  0  0  0  0  0
  147.6618  138.4508  152.3742 N   0  0  0  0  0  0  0  0  0  0  0  0
  146.2277  138.2832  152.1464 C   0  0  0  0  0  0  0  0  0  0  0  0
  145.8904  137.1368  151.1671 C   0  0  0  0  0  0  0  0  0  0  0  0
  146.1675  135.7886  151.7240 N   0  3  1  0  0  0  0  0  0  0  0  0
  145.6943  135.6388  153.1195 C   0  0  0  0  0  0  0  0  0  0  0  0
  146.0797  134.2530  153.6705 C   0  0  1  0  0  0  0  0  0  0  0  0
  145.5428  134.0245  155.0875 C   0  0  0  0  0  0  0  0  0  0  0  0
  145.5376  133.2477  152.8204 O   0  0  0  0  0  0  0  0  0  0  0  0
  146.0427  133.3215  151.4912 C   0  0  1  0  0  0  0  0  0  0  0  0
  145.4673  132.1461  150.6935 C   0  0  0  0  0  0  0  0  0  0  0  0
  145.6563  134.6818  150.8808 C   0  0  0  0  0  0  0  0  0  0  0  0
  150.2525  139.3455  155.6815 C   0  0  0  0  0  0  0  0  0  0  0  0
  151.1049  139.4611  156.7209 N   0  0  0  0  0  0  0  0  0  0  0  0
  153.5887  139.6758  159.5762 H   0  0  0  0  0  0  0  0  0  0  0  0
  151.9316  139.1561  159.2884 H   0  0  0  0  0  0  0  0  0  0  0  0
  152.5071  140.7141  158.6535 H   0  0  0  0  0  0  0  0  0  0  0  0
  153.7585  137.8333  155.3705 H   0  0  0  0  0  0  0  0  0  0  0  0
  152.2020  137.6343  153.4572 H   0  0  0  0  0  0  0  0  0  0  0  0
  149.9276  138.8199  152.5214 H   0  0  0  0  0  0  0  0  0  0  0  0
  148.2410  138.5708  151.5558 H   0  0  0  0  0  0  0  0  0  0  0  0
  145.7195  138.1242  153.0986 H   0  0  0  0  0  0  0  0  0  0  0  0
  145.8455  139.2266  151.7566 H   0  0  0  0  0  0  0  0  0  0  0  0
  144.8290  137.2002  150.9245 H   0  0  0  0  0  0  0  0  0  0  0  0
  146.4218  137.2710  150.2239 H   0  0  0  0  0  0  0  0  0  0  0  0
  146.1363  136.4177  153.7424 H   0  0  0  0  0  0  0  0  0  0  0  0
  144.6120  135.7747  153.1537 H   0  0  0  0  0  0  0  0  0  0  0  0
  147.1667  134.1558  153.6925 H   0  0  0  0  0  0  0  0  0  0  0  0
  145.9386  134.7662  155.7815 H   0  0  0  0  0  0  0  0  0  0  0  0
  145.8270  133.0391  155.4578 H   0  0  0  0  0  0  0  0  0  0  0  0
  144.4546  134.0885  155.1134 H   0  0  0  0  0  0  0  0  0  0  0  0
  147.1297  133.2251  151.5142 H   0  0  0  0  0  0  0  0  0  0  0  0
  145.8298  132.1537  149.6653 H   0  0  0  0  0  0  0  0  0  0  0  0
  144.3779  132.1840  150.6645 H   0  0  0  0  0  0  0  0  0  0  0  0
  145.7552  131.1936  151.1394 H   0  0  0  0  0  0  0  0  0  0  0  0
  144.5715  134.7622  150.7923 H   0  0  0  0  0  0  0  0  0  0  0  0
  146.0669  134.7578  149.8741 H   0  0  0  0  0  0  0  0  0  0  0  0
  149.2800  139.7957  155.8184 H   0  0  0  0  0  0  0  0  0  0  0  0
  147.1728  135.6957  151.7566 H   0  0  0  0  0  0  0  0  0  0  0  0
  1  2  1  0  0  0  0
  1 23  1  0  0  0  0
  1 24  1  0  0  0  0
  1 25  1  0  0  0  0
  2  3  1  0  0  0  0
  3 22  1  0  0  0  0
  3  4  2  0  0  0  0
  4  5  1  0  0  0  0
  4 26  1  0  0  0  0
  5  6  2  0  0  0  0
  5 27  1  0  0  0  0
  6  7  1  0  0  0  0
  6 21  1  0  0  0  0
  7  8  1  0  0  0  0
  7 28  1  0  0  0  0
  8  9  2  0  0  0  0
  8 10  1  0  0  0  0
 10 11  1  0  0  0  0
 10 29  1  0  0  0  0
 11 12  1  0  0  0  0
 11 30  1  0  0  0  0
 11 31  1  0  0  0  0
 12 13  1  0  0  0  0
 12 32  1  0  0  0  0
 12 33  1  0  0  0  0
 13 20  1  0  0  0  0
 13 14  1  0  0  0  0
 13 47  1  0  0  0  0
 14 15  1  0  0  0  0
 14 34  1  0  0  0  0
 14 35  1  0  0  0  0
 15 16  1  0  0  0  0
 15 17  1  0  0  0  0
 15 36  1  0  0  0  0
 16 37  1  0  0  0  0
 16 38  1  0  0  0  0
 16 39  1  0  0  0  0
 17 18  1  0  0  0  0
 18 19  1  0  0  0  0
 18 20  1  0  0  0  0
 18 40  1  0  0  0  0
 19 41  1  0  0  0  0
 19 42  1  0  0  0  0
 19 43  1  0  0  0  0
 20 44  1  0  0  0  0
 20 45  1  0  0  0  0
 21 22  2  0  0  0  0
 21 46  1  0  0  0  0
M  CHG  1  13   1
M  END
> <s_m_source_file>
AV-unprocessed.smi

> <i_m_source_file_index>
1430

> <i_lp_mmshare_version>
43012

> <i_f3d_flags>
0

> <s_epik_input>
W0NIM11PYzFbY0hdW2NIXWMoW2NIXW4xKVtOSF1DKD1PKVtOSF1bQ0gyXVtDSDJdTjJbQ0gyXVtDQEBIXShbQ0gzXSlPW0NAQEhdKFtDSDNdKVtDSDJdMg==

> <s_epik_cmdline>
J2VwaWtfcHl0aG9uJywgJy1waCcsICc3LjAnLCAnLXRuJywgJzgnLCAnLW1hJywgJzIwMCcsICctbWV0YWxfYmluZGluZycsICctaW1hZScsICc8aW5maWxlLm1hZT4nLCAnLW9tYWUnLCAnPG91dGZpbGUubWFlPic=

> <r_lp_tautomer_probability>
1

> <r_epik_Ionization_Penalty>
0.602607

> <r_epik_Ionization_Penalty_Charging>
0.602531

> <r_epik_Ionization_Penalty_Neutral>
7.66983e-05

> <r_epik_State_Penalty>
0.617039

> <r_epik_Charging_Adjusted_Penalty>
1.21957

> <i_epik_Tot_Q>
1

> <i_epik_Tot_abs_Q>
1

> <r_epik_Metal_State_Penalty>
0.617043

> <b_epik_Metal_Only>
0

> <s_lp_Force_Field>
OPLS_2005

> <r_lp_Energy>
23.5338

> <b_lp_Chiralities_Consistent>
1

> <s_lp_Variant>
AV-unprocessed.smi:1430-4

> <Gold.Version>
5.8.1

> <Gold.Id.Protein>
6NUR|6NUR_protein|mol2

> <Gold.PLP.Fitness>
46.9974

> <Gold.PLP.PLP>
-33.6181

> <Gold.PLP.part.hbond>
-5.6859

> <Gold.PLP.part.metal>
0.0000

> <Gold.PLP.part.buried>
-0.0994

> <Gold.PLP.part.nonpolar>
-28.5303

> <Gold.PLP.part.repulsive>
0.4369

> <Gold.PLP.ligand.clash>
0.0000

> <Gold.PLP.ligand.torsion>
0.4227

> <Gold.PLP.Chemscore.Hbond>
4.7280

> <Gold.PLP.Chemscore.CHOScore>
0.0000

> <Gold.PLP.Chemscore.Metal>
0.0000

> <Gold.Chemscore.Hbonds>
donor molecule, donor type, donor heavy atom, donor atom, acceptor molecule, acceptor atom, score
      L1  H     7    28       P1  7957  0.77
      L1  H    10    29       P1  7957  0.61
      L1  H    13    47       P1  7948  2.00
      P1  H  7997  8010       L1     2  1.00

> <Gold.PLP.Chemscore.Internal.Correction>
0.0407

> <Gold.Rescore>
     Score         DG    S(hbond)    S(metal)    S(lipo)     H(rot)  DE(clash)    DE(int)     intcor
     18.61     -21.20       3.36        0.00      77.01       1.76       1.00       1.59       ----

> <Gold.Chemscore.Fitness>
18.6128

> <Gold.Chemscore.DG>
-21.2010

> <Gold.Chemscore.ZeroCoef>
-5.4800

> <Gold.Chemscore.Hbond>
3.3587

> <Gold.Chemscore.Metal>
0.0000

> <Gold.Chemscore.Lipo>
77.0098

> <Gold.Chemscore.Internal_Hbond>
0.0000

> <Gold.Chemscore.DEClash>
1.0020

> <Gold.Chemscore.DEInternal>
1.5862

> <Gold.Chemscore.Rot>
1.7606

> <Gold.Chemscore.Internal.Correction>
   9.000000E+99

> <Gold.Chemscore.Hbonds>
donor molecule, donor type, donor heavy atom, donor atom, acceptor molecule, acceptor atom, score
      L1  H     7    28       P1  7957  0.38
      L1  H    10    29       P1  7957  0.23
      L1  H    13    47       P1  7948  0.99
      P1  H  7997  8010       L1     2  0.23

> <Gold.Chemscore.Hbond.Weighted>
-11.2180

> <Gold.Chemscore.Metal.Weighted>
-0.0000

> <Gold.Chemscore.Lipo.Weighted>
-9.0101

> <Gold.Chemscore.Internal_Hbond.Weighted>
0.0000

> <Gold.Chemscore.DEClash.Weighted>
1.0020

> <Gold.Chemscore.DEInternal.Weighted>
1.5862

> <Gold.Chemscore.Rot.Weighted>
4.5072

> <Gold.Chemscore.Internal.Correction.Weighted>
   9.000000E+99

> <Gold.Protein.RotatedTorsions>
[ 6907 6896 6895 6894 ] final  -14.78 input  -60.11 | X-H torsion
[ 7974 7965 7964 7962 ] final  -83.25 input  175.53 | X-H torsion
[ 8008 7997 7996 7995 ] final   40.22 input   59.86 | X-H torsion
[ 10167 10162 10161 10158 ] final  108.83 input  -65.29 | X-H torsion
[ 10718 10713 10712 10709 ] final  117.29 input   66.30 | X-H torsion
[ 10763 10752 10751 10750 ] final   50.00 input  -60.55 | X-H torsion
[ 11005 11000 10999 10996 ] final  -89.34 input  -57.11 | X-H torsion

> <Gold.Protein.ActiveResidues>
 VAL166  LYS551  ARG553  GLY616  TRP617  ASP618  TYR619  PRO620  LYS621  CYS622 
 ASP623  PHE694  ASN695  SER759  ASP760  ASP761  ALA762  ILE779  LEU786  VAL792 
 PHE793  MET794  SER795  GLU796  ALA797  LYS798  CYS799  TRP800  GLU811  SER814 

> <Gold.Protein.RotatedAtoms>
  151.3342  135.0848  159.9348 H   0  0  0  0  0  0  0  0  0  0  0  0  # atno 6907 bound_to 6896
  152.5227  133.9512  159.7683 H   0  0  0  0  0  0  0  0  0  0  0  0  # atno 6908 bound_to 6896
  150.9857  133.6147  159.2745 H   0  0  0  0  0  0  0  0  0  0  0  0  # atno 6909 bound_to 6896
  145.5225  140.9530  143.1647 H   0  0  0  0  0  0  0  0  0  0  0  0  # atno 7974 bound_to 7965
  155.2495  140.3351  155.4283 H   0  0  0  0  0  0  0  0  0  0  0  0  # atno 8008 bound_to 7997
  156.2222  140.1814  156.7494 H   0  0  0  0  0  0  0  0  0  0  0  0  # atno 8009 bound_to 7997
  154.5842  140.0648  156.9133 H   0  0  0  0  0  0  0  0  0  0  0  0  # atno 8010 bound_to 7997
  139.6815  144.7118  151.1508 H   0  0  0  0  0  0  0  0  0  0  0  0  # atno 10167 bound_to 10162
  157.6106  131.1035  150.7594 H   0  0  0  0  0  0  0  0  0  0  0  0  # atno 10718 bound_to 10713
  152.9785  135.5893  154.4181 H   0  0  0  0  0  0  0  0  0  0  0  0  # atno 10763 bound_to 10752
  154.3808  135.2767  155.2214 H   0  0  0  0  0  0  0  0  0  0  0  0  # atno 10764 bound_to 10752
  154.4129  135.6077  153.6018 H   0  0  0  0  0  0  0  0  0  0  0  0  # atno 10765 bound_to 10752
  141.1586  133.7624  156.9580 H   0  0  0  0  0  0  0  0  0  0  0  0  # atno 11005 bound_to 11000
  144.7669  139.6825  143.7211 LP  0  0  0  0  0  0  0  0  0  0  0  0  # atno 17320 bound_to 7965
  146.2097  139.5445  142.9689 LP  0  0  0  0  0  0  0  0  0  0  0  0  # atno 17321 bound_to 7965
  140.7653  143.5693  150.9013 LP  0  0  0  0  0  0  0  0  0  0  0  0  # atno 17342 bound_to 10162
  139.9365  143.6432  152.3064 LP  0  0  0  0  0  0  0  0  0  0  0  0  # atno 17343 bound_to 10162
  156.7973  130.4909  149.5375 LP  0  0  0  0  0  0  0  0  0  0  0  0  # atno 17370 bound_to 10713
  156.1207  130.6108  151.0189 LP  0  0  0  0  0  0  0  0  0  0  0  0  # atno 17371 bound_to 10713
  140.1212  134.9416  157.2206 LP  0  0  0  0  0  0  0  0  0  0  0  0  # atno 17394 bound_to 11000
  140.3070  134.3067  155.7276 LP  0  0  0  0  0  0  0  0  0  0  0  0  # atno 17395 bound_to 11000

$$$$
