AV-unprocessed.smi:2758|AV-procd|sdf|10623|dock1
  -GOLD-   2272015 73D 1   1.00000     0.00000
 Structure written by MMmdl.
 32 33  0  0  0  0  0  0  0  0  1 V2000
  146.4650  142.6410  154.1242 C   0  0  0  0  0  0  0  0  0  0  0  0
  147.8382  142.2921  154.1178 O   0  0  0  0  0  0  0  0  0  0  0  0
  148.0844  141.0379  154.7326 C   0  0  0  0  0  0  0  0  0  0  0  0
  148.8598  141.2572  156.0419 C   0  0  2  0  0  0  0  0  0  0  0  0
  148.1539  142.1959  156.8302 O   0  0  0  0  0  0  0  0  0  0  0  0
  150.2860  141.7840  155.7808 C   0  0  0  0  0  0  0  0  0  0  0  0
  151.2394  141.3772  156.8052 N   0  0  0  0  0  0  0  0  0  0  0  0
  151.9720  140.2377  156.8562 C   0  0  0  0  0  0  0  0  0  0  0  0
  151.8848  139.1944  155.7879 C   0  0  0  0  0  0  0  0  0  0  0  0
  152.7768  140.1095  157.9112 N   0  0  0  0  0  0  0  0  0  0  0  0
  152.5476  141.2789  158.6106 C   0  0  0  0  0  0  0  0  0  0  0  0
  153.1013  141.7467  159.8240 C   0  0  0  0  0  0  0  0  0  0  0  0
  152.7102  142.9942  160.3529 C   0  0  0  0  0  0  0  0  0  0  0  0
  151.7617  143.7899  159.6782 C   0  0  0  0  0  0  0  0  0  0  0  0
  151.1973  143.3424  158.4682 C   0  0  0  0  0  0  0  0  0  0  0  0
  151.5911  142.0966  157.9439 C   0  0  0  0  0  0  0  0  0  0  0  0
  148.9205  140.3165  156.5896 H   0  0  0  0  0  0  0  0  0  0  0  0
  146.3303  143.6076  153.6388 H   0  0  0  0  0  0  0  0  0  0  0  0
  146.0820  142.7196  155.1426 H   0  0  0  0  0  0  0  0  0  0  0  0
  145.8694  141.9063  153.5810 H   0  0  0  0  0  0  0  0  0  0  0  0
  147.1213  140.5735  154.9509 H   0  0  0  0  0  0  0  0  0  0  0  0
  148.6221  140.3635  154.0633 H   0  0  0  0  0  0  0  0  0  0  0  0
  148.3843  143.0654  156.5413 H   0  0  0  0  0  0  0  0  0  0  0  0
  150.6460  141.4365  154.8121 H   0  0  0  0  0  0  0  0  0  0  0  0
  150.2812  142.8733  155.7245 H   0  0  0  0  0  0  0  0  0  0  0  0
  152.5211  138.3433  156.0326 H   0  0  0  0  0  0  0  0  0  0  0  0
  152.2136  139.6045  154.8330 H   0  0  0  0  0  0  0  0  0  0  0  0
  150.8608  138.8364  155.6865 H   0  0  0  0  0  0  0  0  0  0  0  0
  153.8280  141.1444  160.3488 H   0  0  0  0  0  0  0  0  0  0  0  0
  153.1396  143.3419  161.2810 H   0  0  0  0  0  0  0  0  0  0  0  0
  151.4669  144.7435  160.0907 H   0  0  0  0  0  0  0  0  0  0  0  0
  150.4692  143.9489  157.9509 H   0  0  0  0  0  0  0  0  0  0  0  0
  1  2  1  0  0  0  0
  1 18  1  0  0  0  0
  1 19  1  0  0  0  0
  1 20  1  0  0  0  0
  2  3  1  0  0  0  0
  3  4  1  0  0  0  0
  3 21  1  0  0  0  0
  3 22  1  0  0  0  0
  4 17  1  0  0  0  0
  4  5  1  0  0  0  0
  4  6  1  0  0  0  0
  5 23  1  0  0  0  0
  6  7  1  0  0  0  0
  6 24  1  0  0  0  0
  6 25  1  0  0  0  0
  7 16  1  0  0  0  0
  7  8  1  0  0  0  0
  8  9  1  0  0  0  0
  8 10  2  0  0  0  0
  9 26  1  0  0  0  0
  9 27  1  0  0  0  0
  9 28  1  0  0  0  0
 10 11  1  0  0  0  0
 11 16  2  0  0  0  0
 11 12  1  0  0  0  0
 12 13  2  0  0  0  0
 12 29  1  0  0  0  0
 13 14  1  0  0  0  0
 13 30  1  0  0  0  0
 14 15  2  0  0  0  0
 14 31  1  0  0  0  0
 15 16  1  0  0  0  0
 15 32  1  0  0  0  0
M  END
> <s_m_source_file>
AV-unprocessed.smi

> <i_m_source_file_index>
2758

> <i_lp_mmshare_version>
43012

> <i_f3d_flags>
0

> <s_epik_input>
W0NIM11PW0NIMl1bQ0BASF0oW09IXSlbQ0gyXW4oYyhuMSlbQ0gzXSljKGMxMilbY0hdW2NIXVtjSF1bY0hdMg==

> <s_epik_cmdline>
J2VwaWtfcHl0aG9uJywgJy1waCcsICc3LjAnLCAnLXRuJywgJzgnLCAnLW1hJywgJzIwMCcsICctbWV0YWxfYmluZGluZycsICctaW1hZScsICc8aW5maWxlLm1hZT4nLCAnLW9tYWUnLCAnPG91dGZpbGUubWFlPic=

> <r_epik_Ionization_Penalty>
0.126985

> <r_epik_Ionization_Penalty_Charging>
0

> <r_epik_Ionization_Penalty_Neutral>
0.126985

> <r_epik_State_Penalty>
0.116428

> <r_epik_Charging_Adjusted_Penalty>
0.116428

> <i_epik_Tot_Q>
0

> <i_epik_Tot_abs_Q>
0

> <r_epik_Metal_State_Penalty>
0.000128642

> <b_epik_Metal_Only>
0

> <s_lp_Force_Field>
OPLS_2005

> <r_lp_Energy>
9.16729

> <b_lp_Chiralities_Consistent>
1

> <s_lp_Variant>
AV-unprocessed.smi:2758-2

> <Gold.Version>
5.8.1

> <Gold.Id.Protein>
6NUR|6NUR_protein|mol2

> <Gold.PLP.Fitness>
39.1650

> <Gold.PLP.PLP>
-35.3597

> <Gold.PLP.part.hbond>
-2.7159

> <Gold.PLP.part.metal>
0.0000

> <Gold.PLP.part.buried>
-4.6032

> <Gold.PLP.part.nonpolar>
-28.8805

> <Gold.PLP.part.repulsive>
0.8537

> <Gold.PLP.ligand.clash>
0.0000

> <Gold.PLP.ligand.torsion>
1.1138

> <Gold.PLP.Chemscore.Hbond>
2.0000

> <Gold.PLP.Chemscore.CHOScore>
0.0000

> <Gold.PLP.Chemscore.Metal>
0.0000

> <Gold.Chemscore.Hbonds>
donor molecule, donor type, donor heavy atom, donor atom, acceptor molecule, acceptor atom, score
      L1  H     5    23       P1  8028  1.00
      P1  H  7997  8009       L1    10  0.99

> <Gold.PLP.Chemscore.Internal.Correction>
0.0329

> <Gold.Rescore>
     Score         DG    S(hbond)    S(metal)    S(lipo)     H(rot)  DE(clash)    DE(int)     intcor
     14.80     -16.49       1.40        0.00      99.08       2.05       0.64       1.05       ----

> <Gold.Chemscore.Fitness>
14.7987

> <Gold.Chemscore.DG>
-16.4888

> <Gold.Chemscore.ZeroCoef>
-5.4800

> <Gold.Chemscore.Hbond>
1.3976

> <Gold.Chemscore.Metal>
0.0000

> <Gold.Chemscore.Lipo>
99.0799

> <Gold.Chemscore.Internal_Hbond>
0.0000

> <Gold.Chemscore.DEClash>
0.6373

> <Gold.Chemscore.DEInternal>
1.0529

> <Gold.Chemscore.Rot>
2.0513

> <Gold.Chemscore.Internal.Correction>
   9.000000E+99

> <Gold.Chemscore.Hbonds>
donor molecule, donor type, donor heavy atom, donor atom, acceptor molecule, acceptor atom, score
      L1  H     5    23       P1  8028  0.65
      P1  H  7997  8009       L1    10  0.20

> <Gold.Chemscore.Hbond.Weighted>
-4.6678

> <Gold.Chemscore.Metal.Weighted>
-0.0000

> <Gold.Chemscore.Lipo.Weighted>
-11.5923

> <Gold.Chemscore.Internal_Hbond.Weighted>
0.0000

> <Gold.Chemscore.DEClash.Weighted>
0.6373

> <Gold.Chemscore.DEInternal.Weighted>
1.0529

> <Gold.Chemscore.Rot.Weighted>
5.2514

> <Gold.Chemscore.Internal.Correction.Weighted>
   9.000000E+99

> <Gold.Protein.RotatedTorsions>
[ 6907 6896 6895 6894 ] final  133.57 input  -60.11 | X-H torsion
[ 7974 7965 7964 7962 ] final  -35.26 input  175.53 | X-H torsion
[ 8008 7997 7996 7995 ] final  156.81 input   59.86 | X-H torsion
[ 10167 10162 10161 10158 ] final -120.92 input  -65.29 | X-H torsion
[ 10718 10713 10712 10709 ] final -171.23 input   66.30 | X-H torsion
[ 10763 10752 10751 10750 ] final  127.18 input  -60.55 | X-H torsion
[ 11005 11000 10999 10996 ] final  155.76 input  -57.11 | X-H torsion

> <Gold.Protein.ActiveResidues>
 VAL166  LYS551  ARG553  GLY616  TRP617  ASP618  TYR619  PRO620  LYS621  CYS622 
 ASP623  PHE694  ASN695  SER759  ASP760  ASP761  ALA762  ILE779  LEU786  VAL792 
 PHE793  MET794  SER795  GLU796  ALA797  LYS798  CYS799  TRP800  GLU811  SER814 

> <Gold.Protein.RotatedAtoms>
  152.3206  133.5849  159.5741 H   0  0  0  0  0  0  0  0  0  0  0  0  # atno 6907 bound_to 6896
  150.7369  134.0017  159.3649 H   0  0  0  0  0  0  0  0  0  0  0  0  # atno 6908 bound_to 6896
  151.7902  135.0738  160.0437 H   0  0  0  0  0  0  0  0  0  0  0  0  # atno 6909 bound_to 6896
  146.0761  140.6138  142.8930 H   0  0  0  0  0  0  0  0  0  0  0  0  # atno 7974 bound_to 7965
  156.2401  140.1902  156.7012 H   0  0  0  0  0  0  0  0  0  0  0  0  # atno 8008 bound_to 7997
  154.6180  140.0612  156.9606 H   0  0  0  0  0  0  0  0  0  0  0  0  # atno 8009 bound_to 7997
  155.1908  140.3284  155.4361 H   0  0  0  0  0  0  0  0  0  0  0  0  # atno 8010 bound_to 7997
  140.0306  143.5252  152.2178 H   0  0  0  0  0  0  0  0  0  0  0  0  # atno 10167 bound_to 10162
  156.7378  130.9330  151.3108 H   0  0  0  0  0  0  0  0  0  0  0  0  # atno 10718 bound_to 10713
  153.7053  135.3277  155.3234 H   0  0  0  0  0  0  0  0  0  0  0  0  # atno 10763 bound_to 10752
  154.8401  135.4464  154.1369 H   0  0  0  0  0  0  0  0  0  0  0  0  # atno 10764 bound_to 10752
  153.2448  135.6975  153.7822 H   0  0  0  0  0  0  0  0  0  0  0  0  # atno 10765 bound_to 10752
  140.1611  134.8608  157.2576 H   0  0  0  0  0  0  0  0  0  0  0  0  # atno 11005 bound_to 11000
  144.7262  140.4532  143.6971 LP  0  0  0  0  0  0  0  0  0  0  0  0  # atno 17320 bound_to 7965
  145.6304  139.1535  143.2972 LP  0  0  0  0  0  0  0  0  0  0  0  0  # atno 17321 bound_to 7965
  139.6078  144.7601  151.3021 LP  0  0  0  0  0  0  0  0  0  0  0  0  # atno 17342 bound_to 10162
  140.7303  143.6882  150.7944 LP  0  0  0  0  0  0  0  0  0  0  0  0  # atno 17343 bound_to 10162
  157.6832  130.9159  150.0318 LP  0  0  0  0  0  0  0  0  0  0  0  0  # atno 17370 bound_to 10713
  156.1485  130.3642  149.9473 LP  0  0  0  0  0  0  0  0  0  0  0  0  # atno 17371 bound_to 10713
  140.2488  134.3708  155.7450 LP  0  0  0  0  0  0  0  0  0  0  0  0  # atno 17394 bound_to 11000
  141.2209  133.7305  156.8903 LP  0  0  0  0  0  0  0  0  0  0  0  0  # atno 17395 bound_to 11000

$$$$
