AV-unprocessed.smi:110|AV-procd|sdf|1076|dock3
  -GOLD-   2262018163D 1   1.00000     0.00000
 Structure written by MMmdl.
 46 50  0  0  0  0  0  0  0  0  1 V2000
  147.4029  138.2420  151.6116 O   0  0  0  0  0  0  0  0  0  0  0  0
  147.0118  139.1835  152.5890 C   0  0  0  0  0  0  0  0  0  0  0  0
  147.5974  138.8581  153.9748 C   0  0  2  0  0  0  0  0  0  0  0  0
  149.0138  138.9777  153.9657 O   0  0  0  0  0  0  0  0  0  0  0  0
  149.5501  138.2548  155.0362 C   0  0  1  0  0  0  0  0  0  0  0  0
  150.0914  139.2307  156.0348 N   0  0  0  0  0  0  0  0  0  0  0  0
  149.5391  140.4067  156.4936 C   0  0  0  0  0  0  0  0  0  0  0  0
  150.2569  141.0501  157.3743 N   0  0  0  0  0  0  0  0  0  0  0  0
  151.3951  140.2667  157.5302 C   0  0  0  0  0  0  0  0  0  0  0  0
  152.5766  140.3607  158.3201 C   0  0  0  0  0  0  0  0  0  0  0  0
  152.8546  141.3752  159.1721 N   0  0  0  0  0  0  0  0  0  0  0  0
  153.4911  141.0815  160.4640 C   0  0  0  0  0  0  0  0  0  0  0  0
  153.2696  142.3011  161.3787 C   0  0  0  0  0  0  0  0  0  0  0  0
  152.6124  143.2524  160.4314 C   0  0  0  0  0  0  0  0  0  0  0  0
  152.2389  144.5839  160.6838 C   0  0  0  0  0  0  0  0  0  0  0  0
  151.6485  145.3192  159.6338 C   0  0  0  0  0  0  0  0  0  0  0  0
  151.4537  144.7238  158.3657 C   0  0  0  0  0  0  0  0  0  0  0  0
  151.8394  143.3850  158.1346 C   0  0  0  0  0  0  0  0  0  0  0  0
  152.4084  142.6489  159.1945 C   0  0  0  0  0  0  0  0  0  0  0  0
  153.4629  139.3347  158.2479 N   0  0  0  0  0  0  0  0  0  0  0  0
  153.2358  138.3054  157.4270 C   0  0  0  0  0  0  0  0  0  0  0  0
  152.1972  138.0995  156.6148 N   0  0  0  0  0  0  0  0  0  0  0  0
  151.2885  139.1125  156.7044 C   0  0  0  0  0  0  0  0  0  0  0  0
  148.4198  137.3713  155.6221 C   0  0  1  0  0  0  0  0  0  0  0  0
  147.9300  137.8295  156.8746 O   0  0  0  0  0  0  0  0  0  0  0  0
  147.3653  137.4488  154.5220 C   0  0  1  0  0  0  0  0  0  0  0  0
  146.0434  137.2376  154.9819 O   0  0  0  0  0  0  0  0  0  0  0  0
  147.2202  139.5902  154.6915 H   0  0  0  0  0  0  0  0  0  0  0  0
  150.4188  137.6877  154.6990 H   0  0  0  0  0  0  0  0  0  0  0  0
  148.7856  136.3522  155.7510 H   0  0  0  0  0  0  0  0  0  0  0  0
  147.5990  136.7015  153.7628 H   0  0  0  0  0  0  0  0  0  0  0  0
  147.9497  137.5906  152.0237 H   0  0  0  0  0  0  0  0  0  0  0  0
  147.3084  140.1841  152.2736 H   0  0  0  0  0  0  0  0  0  0  0  0
  145.9228  139.1758  152.6404 H   0  0  0  0  0  0  0  0  0  0  0  0
  148.5822  140.7775  156.1569 H   0  0  0  0  0  0  0  0  0  0  0  0
  153.0721  140.1777  160.9083 H   0  0  0  0  0  0  0  0  0  0  0  0
  154.5571  140.9130  160.3065 H   0  0  0  0  0  0  0  0  0  0  0  0
  152.6019  142.0724  162.2098 H   0  0  0  0  0  0  0  0  0  0  0  0
  154.2055  142.7059  161.7645 H   0  0  0  0  0  0  0  0  0  0  0  0
  152.4028  145.0334  161.6520 H   0  0  0  0  0  0  0  0  0  0  0  0
  151.3517  146.3448  159.7972 H   0  0  0  0  0  0  0  0  0  0  0  0
  151.0106  145.2984  157.5659 H   0  0  0  0  0  0  0  0  0  0  0  0
  151.7018  142.9428  157.1590 H   0  0  0  0  0  0  0  0  0  0  0  0
  153.9947  137.5371  157.4205 H   0  0  0  0  0  0  0  0  0  0  0  0
  148.5713  138.4135  157.2498 H   0  0  0  0  0  0  0  0  0  0  0  0
  145.7082  138.0553  155.3161 H   0  0  0  0  0  0  0  0  0  0  0  0
  1  2  1  0  0  0  0
  1 32  1  0  0  0  0
  2  3  1  0  0  0  0
  2 33  1  0  0  0  0
  2 34  1  0  0  0  0
  3 28  1  0  0  0  0
  3 26  1  0  0  0  0
  3  4  1  0  0  0  0
  4  5  1  0  0  0  0
  5 29  1  0  0  0  0
  5  6  1  0  0  0  0
  5 24  1  0  0  0  0
  6 23  1  0  0  0  0
  6  7  1  0  0  0  0
  7  8  2  0  0  0  0
  7 35  1  0  0  0  0
  8  9  1  0  0  0  0
  9 23  2  0  0  0  0
  9 10  1  0  0  0  0
 10 11  1  0  0  0  0
 10 20  2  0  0  0  0
 11 19  1  0  0  0  0
 11 12  1  0  0  0  0
 12 13  1  0  0  0  0
 12 36  1  0  0  0  0
 12 37  1  0  0  0  0
 13 14  1  0  0  0  0
 13 38  1  0  0  0  0
 13 39  1  0  0  0  0
 14 19  2  0  0  0  0
 14 15  1  0  0  0  0
 15 16  2  0  0  0  0
 15 40  1  0  0  0  0
 16 17  1  0  0  0  0
 16 41  1  0  0  0  0
 17 18  2  0  0  0  0
 17 42  1  0  0  0  0
 18 19  1  0  0  0  0
 18 43  1  0  0  0  0
 20 21  1  0  0  0  0
 21 22  2  0  0  0  0
 21 44  1  0  0  0  0
 22 23  1  0  0  0  0
 24 30  1  0  0  0  0
 24 25  1  0  0  0  0
 24 26  1  0  0  0  0
 25 45  1  0  0  0  0
 26 31  1  0  0  0  0
 26 27  1  0  0  0  0
 27 46  1  0  0  0  0
M  END
> <s_m_source_file>
AV-unprocessed.smi

> <i_m_source_file_index>
110

> <i_lp_mmshare_version>
43012

> <i_f3d_flags>
0

> <s_epik_input>
W09IXVtDSDJdW0NASF0xT1tDQEhdKFtDQEhdKFtPSF0pW0NAQEhdMVtPSF0pbihbY0hdbjIpYyhjMjMpbltjSF1uYzNOKFtDSDJdW0NIMl00KWMoYzQ1KVtjSF1bY0hdW2NIXVtjSF01

> <s_epik_cmdline>
J2VwaWtfcHl0aG9uJywgJy1waCcsICc3LjAnLCAnLXRuJywgJzgnLCAnLW1hJywgJzIwMCcsICctbWV0YWxfYmluZGluZycsICctaW1hZScsICc8aW5maWxlLm1hZT4nLCAnLW9tYWUnLCAnPG91dGZpbGUubWFlPic=

> <r_lp_tautomer_probability>
1

> <r_epik_Ionization_Penalty>
0.00068475

> <r_epik_Ionization_Penalty_Charging>
0

> <r_epik_Ionization_Penalty_Neutral>
0.00068475

> <r_epik_State_Penalty>
0.000417442

> <r_epik_Charging_Adjusted_Penalty>
0.000417442

> <i_epik_Tot_Q>
0

> <i_epik_Tot_abs_Q>
0

> <r_epik_Metal_State_Penalty>
-0

> <b_epik_Metal_Only>
0

> <s_epik_Chemistry_Notes>
This compound contains an acetal/aminal-like group ( X-CH(R)-Y where X, Y are N, S, or O) that may be acid/base labile, releasing an aldehyde.

> <s_lp_Force_Field>
OPLS_2005

> <r_lp_Energy>
66.8802

> <b_lp_Chiralities_Consistent>
1

> <s_lp_Variant>
AV-unprocessed.smi:110-14

> <Gold.Version>
5.8.1

> <Gold.Id.Protein>
6NUR|6NUR_protein|mol2

> <Gold.PLP.Fitness>
52.9882

> <Gold.PLP.PLP>
-47.7435

> <Gold.PLP.part.hbond>
-3.9892

> <Gold.PLP.part.metal>
0.0000

> <Gold.PLP.part.buried>
-5.2236

> <Gold.PLP.part.nonpolar>
-39.5835

> <Gold.PLP.part.repulsive>
1.1422

> <Gold.PLP.ligand.clash>
0.0000

> <Gold.PLP.ligand.torsion>
0.8529

> <Gold.PLP.Chemscore.Hbond>
2.2920

> <Gold.PLP.Chemscore.CHOScore>
0.0000

> <Gold.PLP.Chemscore.Metal>
0.0000

> <Gold.Chemscore.Hbonds>
donor molecule, donor type, donor heavy atom, donor atom, acceptor molecule, acceptor atom, score
      L1  H     1    32       P1  7948  0.94
      P1  H  7954  7966       L1     1  0.55
      P1  H  7997  8008       L1    20  0.75

> <Gold.PLP.Chemscore.Internal.Correction>
0.0744

> <Gold.Rescore>
     Score         DG    S(hbond)    S(metal)    S(lipo)     H(rot)  DE(clash)    DE(int)     intcor
     11.28     -13.61       1.05        0.00     113.47       3.38       0.10       2.23       ----

> <Gold.Chemscore.Fitness>
11.2759

> <Gold.Chemscore.DG>
-13.6055

> <Gold.Chemscore.ZeroCoef>
-5.4800

> <Gold.Chemscore.Hbond>
1.0514

> <Gold.Chemscore.Metal>
0.0000

> <Gold.Chemscore.Lipo>
113.4689

> <Gold.Chemscore.Internal_Hbond>
0.0000

> <Gold.Chemscore.DEClash>
0.0986

> <Gold.Chemscore.DEInternal>
2.2309

> <Gold.Chemscore.Rot>
3.3837

> <Gold.Chemscore.Internal.Correction>
   9.000000E+99

> <Gold.Chemscore.Hbonds>
donor molecule, donor type, donor heavy atom, donor atom, acceptor molecule, acceptor atom, score
      L1  H     1    32       P1  7948  0.91
      P1  H  7954  7966       L1     1  0.03
      P1  H  7997  8008       L1    20  0.05

> <Gold.Chemscore.Hbond.Weighted>
-3.5118

> <Gold.Chemscore.Metal.Weighted>
-0.0000

> <Gold.Chemscore.Lipo.Weighted>
-13.2759

> <Gold.Chemscore.Internal_Hbond.Weighted>
0.0000

> <Gold.Chemscore.DEClash.Weighted>
0.0986

> <Gold.Chemscore.DEInternal.Weighted>
2.2309

> <Gold.Chemscore.Rot.Weighted>
8.6622

> <Gold.Chemscore.Internal.Correction.Weighted>
   9.000000E+99

> <Gold.Protein.RotatedTorsions>
[ 6907 6896 6895 6894 ] final   74.74 input  -60.11 | X-H torsion
[ 7974 7965 7964 7962 ] final  -35.45 input  175.53 | X-H torsion
[ 8008 7997 7996 7995 ] final -108.74 input   59.86 | X-H torsion
[ 10167 10162 10161 10158 ] final  -19.15 input  -65.29 | X-H torsion
[ 10718 10713 10712 10709 ] final  -18.03 input   66.30 | X-H torsion
[ 10763 10752 10751 10750 ] final -150.53 input  -60.55 | X-H torsion
[ 11005 11000 10999 10996 ] final   80.93 input  -57.11 | X-H torsion

> <Gold.Protein.ActiveResidues>
 VAL166  LYS551  ARG553  GLY616  TRP617  ASP618  TYR619  PRO620  LYS621  CYS622 
 ASP623  PHE694  ASN695  SER759  ASP760  ASP761  ALA762  ILE779  LEU786  VAL792 
 PHE793  MET794  SER795  GLU796  ALA797  LYS798  CYS799  TRP800  GLU811  SER814 

> <Gold.Protein.RotatedAtoms>
  152.4991  134.4226  159.9485 H   0  0  0  0  0  0  0  0  0  0  0  0  # atno 6907 bound_to 6896
  151.4200  133.3695  159.2762 H   0  0  0  0  0  0  0  0  0  0  0  0  # atno 6908 bound_to 6896
  150.9229  134.8669  159.7560 H   0  0  0  0  0  0  0  0  0  0  0  0  # atno 6909 bound_to 6896
  146.0746  140.6160  142.8937 H   0  0  0  0  0  0  0  0  0  0  0  0  # atno 7974 bound_to 7965
  154.9488  140.0401  157.2133 H   0  0  0  0  0  0  0  0  0  0  0  0  # atno 8008 bound_to 7997
  154.7998  140.2850  155.5907 H   0  0  0  0  0  0  0  0  0  0  0  0  # atno 8009 bound_to 7997
  156.2960  140.2557  156.2864 H   0  0  0  0  0  0  0  0  0  0  0  0  # atno 8010 bound_to 7997
  140.7265  143.4847  151.0071 H   0  0  0  0  0  0  0  0  0  0  0  0  # atno 10167 bound_to 10162
  156.5652  130.4735  149.6388 H   0  0  0  0  0  0  0  0  0  0  0  0  # atno 10718 bound_to 10713
  154.8113  135.3282  154.7297 H   0  0  0  0  0  0  0  0  0  0  0  0  # atno 10763 bound_to 10752
  153.7946  135.6908  153.4870 H   0  0  0  0  0  0  0  0  0  0  0  0  # atno 10764 bound_to 10752
  153.1894  135.4556  155.0076 H   0  0  0  0  0  0  0  0  0  0  0  0  # atno 10765 bound_to 10752
  139.9116  134.7958  156.1975 H   0  0  0  0  0  0  0  0  0  0  0  0  # atno 11005 bound_to 11000
  144.7253  140.4505  143.6978 LP  0  0  0  0  0  0  0  0  0  0  0  0  # atno 17320 bound_to 7965
  145.6330  139.1539  143.2958 LP  0  0  0  0  0  0  0  0  0  0  0  0  # atno 17321 bound_to 7965
  139.8548  143.7391  152.3176 LP  0  0  0  0  0  0  0  0  0  0  0  0  # atno 17342 bound_to 10162
  139.7586  144.7513  151.0398 LP  0  0  0  0  0  0  0  0  0  0  0  0  # atno 17343 bound_to 10162
  156.2763  130.7046  151.1857 LP  0  0  0  0  0  0  0  0  0  0  0  0  # atno 17370 bound_to 10713
  157.7360  131.0567  150.5438 LP  0  0  0  0  0  0  0  0  0  0  0  0  # atno 17371 bound_to 10713
  141.0545  133.6872  156.1835 LP  0  0  0  0  0  0  0  0  0  0  0  0  # atno 17394 bound_to 11000
  140.6758  134.4820  157.5588 LP  0  0  0  0  0  0  0  0  0  0  0  0  # atno 17395 bound_to 11000

$$$$
