AV-unprocessed.smi:189|AV-procd|sdf|1485|dock3
  -GOLD-   2262019303D 1   1.00000     0.00000
 Structure written by MMmdl.
 53 57  0  0  0  0  0  0  0  0  1 V2000
  152.0822  138.8476  159.6950 C   0  0  0  0  0  0  0  0  0  0  0  0
  153.0333  140.0096  159.3400 C   0  0  2  0  0  0  0  0  0  0  0  0
  153.1869  140.9801  160.5371 C   0  0  0  0  0  0  0  0  0  0  0  0
  153.0777  142.3609  159.8976 C   0  0  2  0  0  0  0  0  0  0  0  0
  152.6037  143.5374  160.7591 C   0  0  0  0  0  0  0  0  0  0  0  0
  152.4989  144.7976  159.8745 C   0  0  0  0  0  0  0  0  0  0  0  0
  151.6345  144.5628  158.6144 C   0  0  0  0  0  0  0  0  0  0  0  0
  152.0771  143.3177  157.8167 C   0  0  0  0  0  0  0  0  0  0  0  0
  152.1014  142.1007  158.7604 C   0  0  1  0  0  0  0  0  0  0  0  0
  152.5801  140.8400  158.2143 N   0  0  0  0  0  0  0  0  0  0  0  0
  151.9952  140.2441  157.1445 C   0  0  0  0  0  0  0  0  0  0  0  0
  152.7479  139.5190  156.2762 N   0  0  0  0  0  0  0  0  0  0  0  0
  152.1820  138.9443  155.2112 C   0  0  0  0  0  0  0  0  0  0  0  0
  150.9032  138.9694  154.8304 N   0  0  0  0  0  0  0  0  0  0  0  0
  150.1425  139.6958  155.6985 C   0  0  0  0  0  0  0  0  0  0  0  0
  150.6047  140.3617  156.8687 C   0  0  0  0  0  0  0  0  0  0  0  0
  149.5443  140.9992  157.5014 N   0  0  0  0  0  0  0  0  0  0  0  0
  148.5150  140.7290  156.7460 C   0  0  0  0  0  0  0  0  0  0  0  0
  148.7824  139.9467  155.6451 N   0  0  0  0  0  0  0  0  0  0  0  0
  147.8265  139.4981  154.6443 C   0  0  0  0  0  0  0  0  0  0  0  0
  147.0856  140.6577  153.9388 C   0  0  2  0  0  0  0  0  0  0  0  0
  146.4380  140.1564  152.7817 O   0  0  0  0  0  0  0  0  0  0  0  0
  147.9898  141.8160  153.5265 C   0  0  0  0  0  0  0  0  0  0  0  0
  147.0716  143.0239  153.6486 C   0  0  0  0  0  0  0  0  0  0  0  0
  146.3318  142.7311  154.8215 O   0  0  0  0  0  0  0  0  0  0  0  0
  146.0282  141.3396  154.8299 C   0  0  0  0  0  0  0  0  0  0  0  0
  152.4255  138.3271  160.5891 H   0  0  0  0  0  0  0  0  0  0  0  0
  152.0277  138.1076  158.8967 H   0  0  0  0  0  0  0  0  0  0  0  0
  151.0705  139.2066  159.8881 H   0  0  0  0  0  0  0  0  0  0  0  0
  154.0149  139.6110  159.0826 H   0  0  0  0  0  0  0  0  0  0  0  0
  152.3761  140.8443  161.2546 H   0  0  0  0  0  0  0  0  0  0  0  0
  154.1279  140.8410  161.0699 H   0  0  0  0  0  0  0  0  0  0  0  0
  154.0554  142.6086  159.4784 H   0  0  0  0  0  0  0  0  0  0  0  0
  151.6339  143.3122  161.2047 H   0  0  0  0  0  0  0  0  0  0  0  0
  153.2980  143.7098  161.5818 H   0  0  0  0  0  0  0  0  0  0  0  0
  152.0918  145.6259  160.4549 H   0  0  0  0  0  0  0  0  0  0  0  0
  153.4999  145.1030  159.5673 H   0  0  0  0  0  0  0  0  0  0  0  0
  150.5929  144.4412  158.9147 H   0  0  0  0  0  0  0  0  0  0  0  0
  151.6666  145.4444  157.9736 H   0  0  0  0  0  0  0  0  0  0  0  0
  151.3957  143.1607  156.9812 H   0  0  0  0  0  0  0  0  0  0  0  0
  153.0659  143.4812  157.3866 H   0  0  0  0  0  0  0  0  0  0  0  0
  151.1001  141.9364  159.1633 H   0  0  0  0  0  0  0  0  0  0  0  0
  152.8498  138.3854  154.5725 H   0  0  0  0  0  0  0  0  0  0  0  0
  147.5231  141.0912  156.9753 H   0  0  0  0  0  0  0  0  0  0  0  0
  148.3568  138.8870  153.9128 H   0  0  0  0  0  0  0  0  0  0  0  0
  147.1091  138.8360  155.1308 H   0  0  0  0  0  0  0  0  0  0  0  0
  145.6665  140.6781  152.6209 H   0  0  0  0  0  0  0  0  0  0  0  0
  148.8072  141.9287  154.2395 H   0  0  0  0  0  0  0  0  0  0  0  0
  148.4282  141.7036  152.5340 H   0  0  0  0  0  0  0  0  0  0  0  0
  147.6178  143.9629  153.7400 H   0  0  0  0  0  0  0  0  0  0  0  0
  146.3977  143.0951  152.7934 H   0  0  0  0  0  0  0  0  0  0  0  0
  145.0145  141.1847  154.4569 H   0  0  0  0  0  0  0  0  0  0  0  0
  146.0547  140.9763  155.8579 H   0  0  0  0  0  0  0  0  0  0  0  0
  1  2  1  0  0  0  0
  1 27  1  0  0  0  0
  1 28  1  0  0  0  0
  1 29  1  0  0  0  0
  2 10  1  0  0  0  0
  2  3  1  0  0  0  0
  2 30  1  0  0  0  0
  3  4  1  0  0  0  0
  3 31  1  0  0  0  0
  3 32  1  0  0  0  0
  4  9  1  0  0  0  0
  4  5  1  0  0  0  0
  4 33  1  0  0  0  0
  5  6  1  0  0  0  0
  5 34  1  0  0  0  0
  5 35  1  0  0  0  0
  6  7  1  0  0  0  0
  6 36  1  0  0  0  0
  6 37  1  0  0  0  0
  7  8  1  0  0  0  0
  7 38  1  0  0  0  0
  7 39  1  0  0  0  0
  8  9  1  0  0  0  0
  8 40  1  0  0  0  0
  8 41  1  0  0  0  0
  9 10  1  0  0  0  0
  9 42  1  0  0  0  0
 10 11  1  0  0  0  0
 11 16  1  0  0  0  0
 11 12  2  0  0  0  0
 12 13  1  0  0  0  0
 13 14  2  0  0  0  0
 13 43  1  0  0  0  0
 14 15  1  0  0  0  0
 15 19  1  0  0  0  0
 15 16  2  0  0  0  0
 16 17  1  0  0  0  0
 17 18  2  0  0  0  0
 18 19  1  0  0  0  0
 18 44  1  0  0  0  0
 19 20  1  0  0  0  0
 20 21  1  0  0  0  0
 20 45  1  0  0  0  0
 20 46  1  0  0  0  0
 21 26  1  0  0  0  0
 21 22  1  0  0  0  0
 21 23  1  0  0  0  0
 22 47  1  0  0  0  0
 23 24  1  0  0  0  0
 23 48  1  0  0  0  0
 23 49  1  0  0  0  0
 24 25  1  0  0  0  0
 24 50  1  0  0  0  0
 24 51  1  0  0  0  0
 25 26  1  0  0  0  0
 26 52  1  0  0  0  0
 26 53  1  0  0  0  0
M  END
> <s_m_source_file>
AV-unprocessed.smi

> <i_m_source_file_index>
189

> <i_lp_mmshare_version>
43012

> <i_f3d_flags>
0

> <s_epik_input>
W0NIMl0xW0NIMl1bQ0gyXVtDSDJdW0NASF0oW0NASF0xMilOKFtDQEhdKFtDSDNdKVtDSDJdMiljKG5bY0hdbjMpYyhjMzQpbltjSF1uNFtDSDJdW0NAQF01KFtPSF0pW0NIMl1bQ0gyXU9bQ0gyXTU=

> <s_epik_cmdline>
J2VwaWtfcHl0aG9uJywgJy1waCcsICc3LjAnLCAnLXRuJywgJzgnLCAnLW1hJywgJzIwMCcsICctbWV0YWxfYmluZGluZycsICctaW1hZScsICc8aW5maWxlLm1hZT4nLCAnLW9tYWUnLCAnPG91dGZpbGUubWFlPic=

> <r_lp_tautomer_probability>
1

> <r_epik_Ionization_Penalty>
0.00594261

> <r_epik_Ionization_Penalty_Charging>
0

> <r_epik_Ionization_Penalty_Neutral>
0.00594261

> <r_epik_State_Penalty>
0.00429776

> <r_epik_Charging_Adjusted_Penalty>
0.00429776

> <i_epik_Tot_Q>
0

> <i_epik_Tot_abs_Q>
0

> <r_epik_Metal_State_Penalty>
-0

> <b_epik_Metal_Only>
0

> <s_lp_Force_Field>
OPLS_2005

> <r_lp_Energy>
58.6518

> <b_lp_Chiralities_Consistent>
1

> <s_lp_Variant>
AV-unprocessed.smi:189-11

> <Gold.Version>
5.8.1

> <Gold.Id.Protein>
6NUR|6NUR_protein|mol2

> <Gold.PLP.Fitness>
51.8953

> <Gold.PLP.PLP>
-46.8342

> <Gold.PLP.part.hbond>
-2.7244

> <Gold.PLP.part.metal>
0.0000

> <Gold.PLP.part.buried>
-6.8152

> <Gold.PLP.part.nonpolar>
-37.6503

> <Gold.PLP.part.repulsive>
0.2793

> <Gold.PLP.ligand.clash>
0.0000

> <Gold.PLP.ligand.torsion>
0.6580

> <Gold.PLP.Chemscore.Hbond>
2.0000

> <Gold.PLP.Chemscore.CHOScore>
0.0000

> <Gold.PLP.Chemscore.Metal>
0.0000

> <Gold.Chemscore.Hbonds>
donor molecule, donor type, donor heavy atom, donor atom, acceptor molecule, acceptor atom, score
      L1  H    22    47       P1 10175  0.82
      P1  H  7997  8009       L1    12  1.00

> <Gold.PLP.Chemscore.Internal.Correction>
0.3772

> <Gold.Rescore>
     Score         DG    S(hbond)    S(metal)    S(lipo)     H(rot)  DE(clash)    DE(int)     intcor
     19.91     -20.67       1.91        0.00     119.66       2.03       0.11       0.65       ----

> <Gold.Chemscore.Fitness>
19.9146

> <Gold.Chemscore.DG>
-20.6714

> <Gold.Chemscore.ZeroCoef>
-5.4800

> <Gold.Chemscore.Hbond>
1.9122

> <Gold.Chemscore.Metal>
0.0000

> <Gold.Chemscore.Lipo>
119.6631

> <Gold.Chemscore.Internal_Hbond>
0.0000

> <Gold.Chemscore.DEClash>
0.1079

> <Gold.Chemscore.DEInternal>
0.6488

> <Gold.Chemscore.Rot>
2.0297

> <Gold.Chemscore.Internal.Correction>
   9.000000E+99

> <Gold.Chemscore.Hbonds>
donor molecule, donor type, donor heavy atom, donor atom, acceptor molecule, acceptor atom, score
      L1  H    22    47       P1 10175  0.31
      P1  H  7997  8009       L1    12  0.77

> <Gold.Chemscore.Hbond.Weighted>
-6.3868

> <Gold.Chemscore.Metal.Weighted>
-0.0000

> <Gold.Chemscore.Lipo.Weighted>
-14.0006

> <Gold.Chemscore.Internal_Hbond.Weighted>
0.0000

> <Gold.Chemscore.DEClash.Weighted>
0.1079

> <Gold.Chemscore.DEInternal.Weighted>
0.6488

> <Gold.Chemscore.Rot.Weighted>
5.1960

> <Gold.Chemscore.Internal.Correction.Weighted>
   9.000000E+99

> <Gold.Protein.RotatedTorsions>
[ 6907 6896 6895 6894 ] final  113.61 input  -60.11 | X-H torsion
[ 7974 7965 7964 7962 ] final  124.39 input  175.53 | X-H torsion
[ 8008 7997 7996 7995 ] final -147.28 input   59.86 | X-H torsion
[ 10167 10162 10161 10158 ] final  114.86 input  -65.29 | X-H torsion
[ 10718 10713 10712 10709 ] final   59.79 input   66.30 | X-H torsion
[ 10763 10752 10751 10750 ] final -175.75 input  -60.55 | X-H torsion
[ 11005 11000 10999 10996 ] final   98.70 input  -57.11 | X-H torsion

> <Gold.Protein.ActiveResidues>
 VAL166  LYS551  ARG553  GLY616  TRP617  ASP618  TYR619  PRO620  LYS621  CYS622 
 ASP623  PHE694  ASN695  SER759  ASP760  ASP761  ALA762  ILE779  LEU786  VAL792 
 PHE793  MET794  SER795  GLU796  ALA797  LYS798  CYS799  TRP800  GLU811  SER814 

> <Gold.Protein.RotatedAtoms>
  152.4851  133.8351  159.7123 H   0  0  0  0  0  0  0  0  0  0  0  0  # atno 6907 bound_to 6896
  150.8931  133.7208  159.2906 H   0  0  0  0  0  0  0  0  0  0  0  0  # atno 6908 bound_to 6896
  151.4674  135.1047  159.9794 H   0  0  0  0  0  0  0  0  0  0  0  0  # atno 6909 bound_to 6896
  145.0849  139.3629  143.4890 H   0  0  0  0  0  0  0  0  0  0  0  0  # atno 7974 bound_to 7965
  155.5730  140.0636  157.2802 H   0  0  0  0  0  0  0  0  0  0  0  0  # atno 8008 bound_to 7997
  154.4355  140.1865  156.0945 H   0  0  0  0  0  0  0  0  0  0  0  0  # atno 8009 bound_to 7997
  156.0362  140.3301  155.7197 H   0  0  0  0  0  0  0  0  0  0  0  0  # atno 8010 bound_to 7997
  139.6358  144.7119  151.2337 H   0  0  0  0  0  0  0  0  0  0  0  0  # atno 10167 bound_to 10162
  157.5703  130.8902  149.9256 H   0  0  0  0  0  0  0  0  0  0  0  0  # atno 10718 bound_to 10713
  154.5807  135.2836  155.0736 H   0  0  0  0  0  0  0  0  0  0  0  0  # atno 10763 bound_to 10752
  154.2073  135.6414  153.5108 H   0  0  0  0  0  0  0  0  0  0  0  0  # atno 10764 bound_to 10752
  153.0087  135.5483  154.6460 H   0  0  0  0  0  0  0  0  0  0  0  0  # atno 10765 bound_to 10752
  139.8772  134.9061  156.4495 H   0  0  0  0  0  0  0  0  0  0  0  0  # atno 11005 bound_to 11000
  146.3531  140.0657  142.8626 LP  0  0  0  0  0  0  0  0  0  0  0  0  # atno 17320 bound_to 7965
  145.1134  140.9419  143.4643 LP  0  0  0  0  0  0  0  0  0  0  0  0  # atno 17321 bound_to 7965
  140.7464  143.6398  150.8345 LP  0  0  0  0  0  0  0  0  0  0  0  0  # atno 17342 bound_to 10162
  140.0029  143.5724  152.2868 LP  0  0  0  0  0  0  0  0  0  0  0  0  # atno 17343 bound_to 10162
  156.0749  130.3680  150.0699 LP  0  0  0  0  0  0  0  0  0  0  0  0  # atno 17370 bound_to 10713
  156.8852  130.9570  151.3595 LP  0  0  0  0  0  0  0  0  0  0  0  0  # atno 17371 bound_to 10713
  140.8942  133.7826  155.9606 LP  0  0  0  0  0  0  0  0  0  0  0  0  # atno 17394 bound_to 11000
  140.8721  134.2714  157.5185 LP  0  0  0  0  0  0  0  0  0  0  0  0  # atno 17395 bound_to 11000

$$$$
