AV-unprocessed.smi:2126|AV-procd|sdf|8676|dock5
  -GOLD-   2272011433D 1   1.00000     0.00000
 Structure written by MMmdl.
 40 42  0  0  0  0  0  0  0  0  1 V2000
  144.1212  146.7700  153.7497 C   0  0  0  0  0  0  0  0  0  0  0  0
  144.9660  145.9790  152.9265 O   0  0  0  0  0  0  0  0  0  0  0  0
  145.4621  144.8031  153.4473 C   0  0  0  0  0  0  0  0  0  0  0  0
  145.0950  144.2717  154.7079 C   0  0  0  0  0  0  0  0  0  0  0  0
  145.6543  143.0613  155.1610 C   0  0  0  0  0  0  0  0  0  0  0  0
  146.5856  142.3538  154.3756 C   0  0  0  0  0  0  0  0  0  0  0  0
  147.0818  141.1787  154.8976 O   0  0  0  0  0  0  0  0  0  0  0  0
  148.0906  140.4911  154.1688 C   0  0  0  0  0  0  0  0  0  0  0  0
  149.2872  140.2361  155.0965 C   0  0  1  0  0  0  0  0  0  0  0  0
  150.3027  139.5883  154.3556 O   0  0  0  0  0  0  0  0  0  0  0  0
  149.8399  141.5357  155.7136 C   0  0  0  0  0  0  0  0  0  0  0  0
  150.5729  141.2976  156.9438 N   0  0  0  0  0  0  0  0  0  0  0  0
  150.7604  140.1172  157.5652 C   0  0  0  0  0  0  0  0  0  0  0  0
  151.4680  140.1276  158.6914 N   0  0  0  0  0  0  0  0  0  0  0  0
  151.7821  141.4705  158.8117 C   0  0  0  0  0  0  0  0  0  0  0  0
  152.5250  142.1547  159.8006 C   0  0  0  0  0  0  0  0  0  0  0  0
  152.7185  143.5491  159.7115 C   0  0  0  0  0  0  0  0  0  0  0  0
  152.1731  144.2798  158.6358 C   0  0  0  0  0  0  0  0  0  0  0  0
  151.4282  143.6206  157.6392 C   0  0  0  0  0  0  0  0  0  0  0  0
  151.2379  142.2296  157.7320 C   0  0  0  0  0  0  0  0  0  0  0  0
  146.9516  142.8845  153.1144 C   0  0  0  0  0  0  0  0  0  0  0  0
  146.3934  144.0955  152.6620 C   0  0  0  0  0  0  0  0  0  0  0  0
  143.8099  147.6568  153.1979 H   0  0  0  0  0  0  0  0  0  0  0  0
  144.6411  147.1060  154.6480 H   0  0  0  0  0  0  0  0  0  0  0  0
  143.2197  146.2265  154.0361 H   0  0  0  0  0  0  0  0  0  0  0  0
  144.3853  144.7734  155.3478 H   0  0  0  0  0  0  0  0  0  0  0  0
  145.3633  142.6705  156.1252 H   0  0  0  0  0  0  0  0  0  0  0  0
  147.6918  139.5391  153.8134 H   0  0  0  0  0  0  0  0  0  0  0  0
  148.4078  141.0707  153.3001 H   0  0  0  0  0  0  0  0  0  0  0  0
  148.9790  139.5547  155.8905 H   0  0  0  0  0  0  0  0  0  0  0  0
  149.9432  139.3262  153.5217 H   0  0  0  0  0  0  0  0  0  0  0  0
  150.4974  142.0445  155.0068 H   0  0  0  0  0  0  0  0  0  0  0  0
  149.0260  142.2270  155.9345 H   0  0  0  0  0  0  0  0  0  0  0  0
  150.3503  139.1989  157.1703 H   0  0  0  0  0  0  0  0  0  0  0  0
  152.9473  141.6053  160.6289 H   0  0  0  0  0  0  0  0  0  0  0  0
  153.2889  144.0608  160.4728 H   0  0  0  0  0  0  0  0  0  0  0  0
  152.3267  145.3474  158.5763 H   0  0  0  0  0  0  0  0  0  0  0  0
  151.0081  144.1765  156.8140 H   0  0  0  0  0  0  0  0  0  0  0  0
  147.6594  142.3823  152.4729 H   0  0  0  0  0  0  0  0  0  0  0  0
  146.6849  144.4857  151.6979 H   0  0  0  0  0  0  0  0  0  0  0  0
  1  2  1  0  0  0  0
  1 23  1  0  0  0  0
  1 24  1  0  0  0  0
  1 25  1  0  0  0  0
  2  3  1  0  0  0  0
  3 22  1  0  0  0  0
  3  4  2  0  0  0  0
  4  5  1  0  0  0  0
  4 26  1  0  0  0  0
  5  6  2  0  0  0  0
  5 27  1  0  0  0  0
  6  7  1  0  0  0  0
  6 21  1  0  0  0  0
  7  8  1  0  0  0  0
  8  9  1  0  0  0  0
  8 28  1  0  0  0  0
  8 29  1  0  0  0  0
  9 10  1  0  0  0  0
  9 11  1  0  0  0  0
  9 30  1  0  0  0  0
 10 31  1  0  0  0  0
 11 12  1  0  0  0  0
 11 32  1  0  0  0  0
 11 33  1  0  0  0  0
 12 20  1  0  0  0  0
 12 13  1  0  0  0  0
 13 14  2  0  0  0  0
 13 34  1  0  0  0  0
 14 15  1  0  0  0  0
 15 20  2  0  0  0  0
 15 16  1  0  0  0  0
 16 17  2  0  0  0  0
 16 35  1  0  0  0  0
 17 18  1  0  0  0  0
 17 36  1  0  0  0  0
 18 19  2  0  0  0  0
 18 37  1  0  0  0  0
 19 20  1  0  0  0  0
 19 38  1  0  0  0  0
 21 22  2  0  0  0  0
 21 39  1  0  0  0  0
 22 40  1  0  0  0  0
M  END
> <s_m_source_file>
AV-unprocessed.smi

> <i_m_source_file_index>
2126

> <i_lp_mmshare_version>
43012

> <i_f3d_flags>
0

> <s_epik_input>
W0NIM11PYzFbY0hdW2NIXWMoW2NIXVtjSF0xKU9bQ0gyXVtDQEhdKFtPSF0pW0NIMl1uKFtjSF1uMiljKGMyMylbY0hdW2NIXVtjSF1bY0hdMw==

> <s_epik_cmdline>
J2VwaWtfcHl0aG9uJywgJy1waCcsICc3LjAnLCAnLXRuJywgJzgnLCAnLW1hJywgJzIwMCcsICctbWV0YWxfYmluZGluZycsICctaW1hZScsICc8aW5maWxlLm1hZT4nLCAnLW9tYWUnLCAnPG91dGZpbGUubWFlPic=

> <r_lp_tautomer_probability>
1

> <r_epik_Ionization_Penalty>
0.0608933

> <r_epik_Ionization_Penalty_Charging>
0

> <r_epik_Ionization_Penalty_Neutral>
0.0608933

> <r_epik_State_Penalty>
0.0528196

> <r_epik_Charging_Adjusted_Penalty>
0.0528196

> <i_epik_Tot_Q>
0

> <i_epik_Tot_abs_Q>
0

> <r_epik_Metal_State_Penalty>
5.52429e-05

> <b_epik_Metal_Only>
0

> <s_lp_Force_Field>
OPLS_2005

> <r_lp_Energy>
17.4847

> <b_lp_Chiralities_Consistent>
1

> <s_lp_Variant>
AV-unprocessed.smi:2126-2

> <Gold.Version>
5.8.1

> <Gold.Id.Protein>
6NUR|6NUR_protein|mol2

> <Gold.PLP.Fitness>
53.4025

> <Gold.PLP.PLP>
-48.5783

> <Gold.PLP.part.hbond>
-1.7962

> <Gold.PLP.part.metal>
0.0000

> <Gold.PLP.part.buried>
-6.3194

> <Gold.PLP.part.nonpolar>
-40.6339

> <Gold.PLP.part.repulsive>
0.1452

> <Gold.PLP.ligand.clash>
0.0000

> <Gold.PLP.ligand.torsion>
0.6539

> <Gold.PLP.Chemscore.Hbond>
2.0000

> <Gold.PLP.Chemscore.CHOScore>
0.0000

> <Gold.PLP.Chemscore.Metal>
0.0000

> <Gold.Chemscore.Hbonds>
donor molecule, donor type, donor heavy atom, donor atom, acceptor molecule, acceptor atom, score
      P1  H  7989  7998       L1    10  0.60

> <Gold.PLP.Chemscore.Internal.Correction>
0.1320

> <Gold.Rescore>
     Score         DG    S(hbond)    S(metal)    S(lipo)     H(rot)  DE(clash)    DE(int)     intcor
     17.92     -18.90       1.65        0.00     122.50       2.51       0.06       0.92       ----

> <Gold.Chemscore.Fitness>
17.9151

> <Gold.Chemscore.DG>
-18.8969

> <Gold.Chemscore.ZeroCoef>
-5.4800

> <Gold.Chemscore.Hbond>
1.6485

> <Gold.Chemscore.Metal>
0.0000

> <Gold.Chemscore.Lipo>
122.4965

> <Gold.Chemscore.Internal_Hbond>
0.0000

> <Gold.Chemscore.DEClash>
0.0589

> <Gold.Chemscore.DEInternal>
0.9228

> <Gold.Chemscore.Rot>
2.5083

> <Gold.Chemscore.Internal.Correction>
   9.000000E+99

> <Gold.Chemscore.Hbonds>
donor molecule, donor type, donor heavy atom, donor atom, acceptor molecule, acceptor atom, score
      L1  H    10    31       P1  7957  0.02
      P1  H  7989  7998       L1    10  0.03

> <Gold.Chemscore.Hbond.Weighted>
-5.5060

> <Gold.Chemscore.Metal.Weighted>
-0.0000

> <Gold.Chemscore.Lipo.Weighted>
-14.3321

> <Gold.Chemscore.Internal_Hbond.Weighted>
0.0000

> <Gold.Chemscore.DEClash.Weighted>
0.0589

> <Gold.Chemscore.DEInternal.Weighted>
0.9228

> <Gold.Chemscore.Rot.Weighted>
6.4212

> <Gold.Chemscore.Internal.Correction.Weighted>
   9.000000E+99

> <Gold.Protein.RotatedTorsions>
[ 6907 6896 6895 6894 ] final  107.45 input  -60.11 | X-H torsion
[ 7974 7965 7964 7962 ] final -138.97 input  175.53 | X-H torsion
[ 8008 7997 7996 7995 ] final   -1.34 input   59.86 | X-H torsion
[ 10167 10162 10161 10158 ] final  178.17 input  -65.29 | X-H torsion
[ 10718 10713 10712 10709 ] final -117.92 input   66.30 | X-H torsion
[ 10763 10752 10751 10750 ] final  -20.11 input  -60.55 | X-H torsion
[ 11005 11000 10999 10996 ] final -165.85 input  -57.11 | X-H torsion

> <Gold.Protein.ActiveResidues>
 VAL166  LYS551  ARG553  GLY616  TRP617  ASP618  TYR619  PRO620  LYS621  CYS622 
 ASP623  PHE694  ASN695  SER759  ASP760  ASP761  ALA762  ILE779  LEU786  VAL792 
 PHE793  MET794  SER795  GLU796  ALA797  LYS798  CYS799  TRP800  GLU811  SER814 

> <Gold.Protein.RotatedAtoms>
  152.5153  133.9232  159.7544 H   0  0  0  0  0  0  0  0  0  0  0  0  # atno 6907 bound_to 6896
  150.9599  133.6448  159.2763 H   0  0  0  0  0  0  0  0  0  0  0  0  # atno 6908 bound_to 6896
  151.3696  135.0925  159.9514 H   0  0  0  0  0  0  0  0  0  0  0  0  # atno 6909 bound_to 6896
  144.8715  140.6374  143.5264 H   0  0  0  0  0  0  0  0  0  0  0  0  # atno 7974 bound_to 7965
  154.6479  140.2562  155.7247 H   0  0  0  0  0  0  0  0  0  0  0  0  # atno 8008 bound_to 7997
  156.2561  140.2874  156.0821 H   0  0  0  0  0  0  0  0  0  0  0  0  # atno 8009 bound_to 7997
  155.1496  140.0382  157.2808 H   0  0  0  0  0  0  0  0  0  0  0  0  # atno 8010 bound_to 7997
  139.5283  144.2711  152.0627 H   0  0  0  0  0  0  0  0  0  0  0  0  # atno 10167 bound_to 10162
  156.1068  130.6217  150.9225 H   0  0  0  0  0  0  0  0  0  0  0  0  # atno 10718 bound_to 10713
  153.6152  135.6995  153.5331 H   0  0  0  0  0  0  0  0  0  0  0  0  # atno 10763 bound_to 10752
  153.2983  135.4136  155.1229 H   0  0  0  0  0  0  0  0  0  0  0  0  # atno 10764 bound_to 10752
  154.8555  135.3642  154.5692 H   0  0  0  0  0  0  0  0  0  0  0  0  # atno 10765 bound_to 10752
  140.5711  134.5236  157.5162 H   0  0  0  0  0  0  0  0  0  0  0  0  # atno 11005 bound_to 11000
  145.4121  139.1578  143.4120 LP  0  0  0  0  0  0  0  0  0  0  0  0  # atno 17320 bound_to 7965
  146.2933  140.4226  142.8731 LP  0  0  0  0  0  0  0  0  0  0  0  0  # atno 17321 bound_to 7965
  140.2171  144.4504  150.6359 LP  0  0  0  0  0  0  0  0  0  0  0  0  # atno 17342 bound_to 10162
  140.6443  143.2210  151.6221 LP  0  0  0  0  0  0  0  0  0  0  0  0  # atno 17343 bound_to 10162
  157.6246  131.0927  150.8558 LP  0  0  0  0  0  0  0  0  0  0  0  0  # atno 17370 bound_to 10713
  156.8676  130.5134  149.5299 LP  0  0  0  0  0  0  0  0  0  0  0  0  # atno 17371 bound_to 10713
  139.9361  134.7872  156.0799 LP  0  0  0  0  0  0  0  0  0  0  0  0  # atno 17394 bound_to 11000
  141.1055  133.6661  156.2854 LP  0  0  0  0  0  0  0  0  0  0  0  0  # atno 17395 bound_to 11000

$$$$
