AV-unprocessed.smi:3169|AV-procd|sdf|12106|dock7
  -GOLD-   2272017543D 1   1.00000     0.00000
 Structure written by MMmdl.
 35 36  0  0  0  0  0  0  0  0  1 V2000
  145.7765  137.9913  154.4911 O   0  0  0  0  0  0  0  0  0  0  0  0
  146.6051  137.4454  153.7625 C   0  0  0  0  0  0  0  0  0  0  0  0
  146.2916  136.7047  152.6914 N   0  0  0  0  0  0  0  0  0  0  0  0
  144.9386  136.4832  152.1902 C   0  0  0  0  0  0  0  0  0  0  0  0
  144.9261  135.8476  150.7861 C   0  0  0  0  0  0  0  0  0  0  0  0
  145.1948  134.4223  150.8222 N   0  0  0  0  0  0  0  0  0  0  0  0
  146.3863  133.8022  151.1732 C   0  0  0  0  0  0  0  0  0  0  0  0
  146.1728  132.4471  151.0565 C   0  0  0  0  0  0  0  0  0  0  0  0
  144.8653  132.2123  150.6373 N   0  0  0  0  0  0  0  0  0  0  0  0
  144.3474  133.4282  150.5213 C   0  0  0  0  0  0  0  0  0  0  0  0
  147.9309  137.5428  153.9275 N   0  0  0  0  0  0  0  0  0  0  0  0
  148.5874  138.3522  154.9470 C   0  0  0  0  0  0  0  0  0  0  0  0
  150.0105  138.7480  154.5182 C   0  0  1  0  0  0  0  0  0  0  0  0
  150.7175  139.6849  155.4953 C   0  0  0  0  0  0  0  0  0  0  0  0
  152.1939  139.4008  155.2585 C   0  0  0  0  0  0  0  0  0  0  0  0
  152.2009  138.1082  154.4368 C   0  0  0  0  0  0  0  0  0  0  0  0
  150.8696  137.6190  154.5087 O   0  0  0  0  0  0  0  0  0  0  0  0
  147.0460  136.2989  152.1570 H   0  0  0  0  0  0  0  0  0  0  0  0
  144.4152  135.8372  152.8956 H   0  0  0  0  0  0  0  0  0  0  0  0
  144.3949  137.4289  152.1772 H   0  0  0  0  0  0  0  0  0  0  0  0
  143.9518  135.9989  150.3202 H   0  0  0  0  0  0  0  0  0  0  0  0
  145.6577  136.3270  150.1342 H   0  0  0  0  0  0  0  0  0  0  0  0
  147.2625  134.3607  151.4676 H   0  0  0  0  0  0  0  0  0  0  0  0
  146.8544  131.6297  151.2400 H   0  0  0  0  0  0  0  0  0  0  0  0
  143.3292  133.6007  150.2036 H   0  0  0  0  0  0  0  0  0  0  0  0
  148.5307  137.0612  153.2737 H   0  0  0  0  0  0  0  0  0  0  0  0
  147.9920  139.2436  155.1508 H   0  0  0  0  0  0  0  0  0  0  0  0
  148.6187  137.7793  155.8741 H   0  0  0  0  0  0  0  0  0  0  0  0
  150.0042  139.1972  153.5231 H   0  0  0  0  0  0  0  0  0  0  0  0
  150.4544  140.7309  155.3351 H   0  0  0  0  0  0  0  0  0  0  0  0
  150.4579  139.4268  156.5230 H   0  0  0  0  0  0  0  0  0  0  0  0
  152.6768  140.2096  154.7090 H   0  0  0  0  0  0  0  0  0  0  0  0
  152.7203  139.2773  156.2055 H   0  0  0  0  0  0  0  0  0  0  0  0
  152.4484  138.3175  153.3951 H   0  0  0  0  0  0  0  0  0  0  0  0
  152.9123  137.3737  154.8148 H   0  0  0  0  0  0  0  0  0  0  0  0
  1  2  2  0  0  0  0
  2  3  1  0  0  0  0
  2 11  1  0  0  0  0
  3  4  1  0  0  0  0
  3 18  1  0  0  0  0
  4  5  1  0  0  0  0
  4 19  1  0  0  0  0
  4 20  1  0  0  0  0
  5  6  1  0  0  0  0
  5 21  1  0  0  0  0
  5 22  1  0  0  0  0
  6 10  1  0  0  0  0
  6  7  1  0  0  0  0
  7  8  2  0  0  0  0
  7 23  1  0  0  0  0
  8  9  1  0  0  0  0
  8 24  1  0  0  0  0
  9 10  2  0  0  0  0
 10 25  1  0  0  0  0
 11 12  1  0  0  0  0
 11 26  1  0  0  0  0
 12 13  1  0  0  0  0
 12 27  1  0  0  0  0
 12 28  1  0  0  0  0
 13 17  1  0  0  0  0
 13 14  1  0  0  0  0
 13 29  1  0  0  0  0
 14 15  1  0  0  0  0
 14 30  1  0  0  0  0
 14 31  1  0  0  0  0
 15 16  1  0  0  0  0
 15 32  1  0  0  0  0
 15 33  1  0  0  0  0
 16 17  1  0  0  0  0
 16 34  1  0  0  0  0
 16 35  1  0  0  0  0
M  END
> <s_m_source_file>
AV-unprocessed.smi

> <i_m_source_file_index>
3169

> <i_lp_mmshare_version>
43012

> <i_f3d_flags>
0

> <s_epik_input>
TzFbQ0gyXVtDSDJdW0NIMl1bQ0BIXTFbQ0gyXVtOSF1DKD1PKVtOSF1bQ0gyXVtDSDJdbjJbY0hdW2NIXW5bY0hdMg==

> <s_epik_cmdline>
J2VwaWtfcHl0aG9uJywgJy1waCcsICc3LjAnLCAnLXRuJywgJzgnLCAnLW1hJywgJzIwMCcsICctbWV0YWxfYmluZGluZycsICctaW1hZScsICc8aW5maWxlLm1hZT4nLCAnLW9tYWUnLCAnPG91dGZpbGUubWFlPic=

> <r_lp_tautomer_probability>
1

> <r_epik_Ionization_Penalty>
0.620462

> <r_epik_Ionization_Penalty_Charging>
0.620414

> <r_epik_Ionization_Penalty_Neutral>
4.72016e-05

> <r_epik_State_Penalty>
0.636391

> <r_epik_Charging_Adjusted_Penalty>
1.25681

> <i_epik_Tot_Q>
0

> <i_epik_Tot_abs_Q>
0

> <r_epik_Metal_State_Penalty>
0.306539

> <b_epik_Metal_Only>
0

> <s_lp_Force_Field>
OPLS_2005

> <r_lp_Energy>
15.8228

> <b_lp_Chiralities_Consistent>
1

> <s_lp_Variant>
AV-unprocessed.smi:3169-4

> <Gold.Version>
5.8.1

> <Gold.Id.Protein>
6NUR|6NUR_protein|mol2

> <Gold.PLP.Fitness>
43.5612

> <Gold.PLP.PLP>
-29.5341

> <Gold.PLP.part.hbond>
-2.0000

> <Gold.PLP.part.metal>
0.0000

> <Gold.PLP.part.buried>
-3.5108

> <Gold.PLP.part.nonpolar>
-25.0455

> <Gold.PLP.part.repulsive>
0.4472

> <Gold.PLP.ligand.clash>
0.0000

> <Gold.PLP.ligand.torsion>
0.4029

> <Gold.PLP.Chemscore.Hbond>
1.9440

> <Gold.PLP.Chemscore.CHOScore>
2.9932

> <Gold.PLP.Chemscore.Metal>
0.0000

> <Gold.Chemscore.Hbonds>
donor molecule, donor type, donor heavy atom, donor atom, acceptor molecule, acceptor atom, score
      L1  H     3    18       P1  7948  0.96
      L1  H    11    26       P1  7948  1.00
      L1  C     7    23       P1  7948  1.00
      L1  C     8    24       P1 10747  1.00
      L1  C    10    25       P1 10186  0.96

> <Gold.PLP.Chemscore.Internal.Correction>
0.0213

> <Gold.Rescore>
     Score         DG    S(hbond)    S(metal)    S(lipo)     H(rot)  DE(clash)    DE(int)     intcor
     12.55     -12.94       1.92        0.00      57.98       2.25       0.08       0.31       ----

> <Gold.Chemscore.Fitness>
12.5457

> <Gold.Chemscore.DG>
-12.9374

> <Gold.Chemscore.ZeroCoef>
-5.4800

> <Gold.Chemscore.Hbond>
1.9241

> <Gold.Chemscore.Metal>
0.0000

> <Gold.Chemscore.Lipo>
57.9844

> <Gold.Chemscore.Internal_Hbond>
0.0000

> <Gold.Chemscore.DEClash>
0.0825

> <Gold.Chemscore.DEInternal>
0.3092

> <Gold.Chemscore.Rot>
2.2474

> <Gold.Chemscore.Internal.Correction>
   9.000000E+99

> <Gold.Chemscore.Hbonds>
donor molecule, donor type, donor heavy atom, donor atom, acceptor molecule, acceptor atom, score
      L1  H     3    18       P1  7948  0.92
      L1  H    11    26       P1  7948  0.99

> <Gold.Chemscore.Hbond.Weighted>
-6.4265

> <Gold.Chemscore.Metal.Weighted>
-0.0000

> <Gold.Chemscore.Lipo.Weighted>
-6.7842

> <Gold.Chemscore.Internal_Hbond.Weighted>
0.0000

> <Gold.Chemscore.DEClash.Weighted>
0.0825

> <Gold.Chemscore.DEInternal.Weighted>
0.3092

> <Gold.Chemscore.Rot.Weighted>
5.7532

> <Gold.Chemscore.Internal.Correction.Weighted>
   9.000000E+99

> <Gold.Protein.RotatedTorsions>
[ 6907 6896 6895 6894 ] final   -3.82 input  -60.11 | X-H torsion
[ 7974 7965 7964 7962 ] final  -87.45 input  175.53 | X-H torsion
[ 8008 7997 7996 7995 ] final  -39.13 input   59.86 | X-H torsion
[ 10167 10162 10161 10158 ] final   81.01 input  -65.29 | X-H torsion
[ 10718 10713 10712 10709 ] final  175.98 input   66.30 | X-H torsion
[ 10763 10752 10751 10750 ] final -153.72 input  -60.55 | X-H torsion
[ 11005 11000 10999 10996 ] final  175.50 input  -57.11 | X-H torsion

> <Gold.Protein.ActiveResidues>
 VAL166  LYS551  ARG553  GLY616  TRP617  ASP618  TYR619  PRO620  LYS621  CYS622 
 ASP623  PHE694  ASN695  SER759  ASP760  ASP761  ALA762  ILE779  LEU786  VAL792 
 PHE793  MET794  SER795  GLU796  ALA797  LYS798  CYS799  TRP800  GLU811  SER814 

> <Gold.Protein.RotatedAtoms>
  151.5077  135.1064  159.9845 H   0  0  0  0  0  0  0  0  0  0  0  0  # atno 6907 bound_to 6896
  152.4675  133.7951  159.6933 H   0  0  0  0  0  0  0  0  0  0  0  0  # atno 6908 bound_to 6896
  150.8666  133.7502  159.3000 H   0  0  0  0  0  0  0  0  0  0  0  0  # atno 6909 bound_to 6896
  145.4663  140.9560  143.1941 H   0  0  0  0  0  0  0  0  0  0  0  0  # atno 7974 bound_to 7965
  154.4027  140.1559  156.2814 H   0  0  0  0  0  0  0  0  0  0  0  0  # atno 8008 bound_to 7997
  155.8866  140.3441  155.5904 H   0  0  0  0  0  0  0  0  0  0  0  0  # atno 8009 bound_to 7997
  155.7606  140.0817  157.2148 H   0  0  0  0  0  0  0  0  0  0  0  0  # atno 8010 bound_to 7997
  139.9437  144.6073  150.8227 H   0  0  0  0  0  0  0  0  0  0  0  0  # atno 10167 bound_to 10162
  156.9268  130.9958  151.2994 H   0  0  0  0  0  0  0  0  0  0  0  0  # atno 10718 bound_to 10713
  154.7908  135.3206  154.7781 H   0  0  0  0  0  0  0  0  0  0  0  0  # atno 10763 bound_to 10752
  153.8470  135.6865  153.4801 H   0  0  0  0  0  0  0  0  0  0  0  0  # atno 10764 bound_to 10752
  153.1578  135.4673  154.9669 H   0  0  0  0  0  0  0  0  0  0  0  0  # atno 10765 bound_to 10752
  140.3628  134.7098  157.4342 H   0  0  0  0  0  0  0  0  0  0  0  0  # atno 11005 bound_to 11000
  144.7972  139.6211  143.7087 LP  0  0  0  0  0  0  0  0  0  0  0  0  # atno 17320 bound_to 7965
  146.2422  139.6024  142.9484 LP  0  0  0  0  0  0  0  0  0  0  0  0  # atno 17321 bound_to 7965
  140.7603  143.3149  151.2757 LP  0  0  0  0  0  0  0  0  0  0  0  0  # atno 17342 bound_to 10162
  139.6684  144.0064  152.2737 LP  0  0  0  0  0  0  0  0  0  0  0  0  # atno 17343 bound_to 10162
  157.5872  130.8418  149.8607 LP  0  0  0  0  0  0  0  0  0  0  0  0  # atno 17370 bound_to 10713
  156.0465  130.3727  150.1304 LP  0  0  0  0  0  0  0  0  0  0  0  0  # atno 17371 bound_to 10713
  140.0613  134.5992  155.8746 LP  0  0  0  0  0  0  0  0  0  0  0  0  # atno 17394 bound_to 11000
  141.1979  133.6598  156.5763 LP  0  0  0  0  0  0  0  0  0  0  0  0  # atno 17395 bound_to 11000

$$$$
