AV-unprocessed.smi:2027|AV-procd|sdf|8220|dock4
  -GOLD-   2272010493D 1   1.00000     0.00000
 Structure written by MMmdl.
 51 53  0  0  0  0  0  0  0  0  3 V2000
  152.2476  143.5549  161.1059 C   0  0  0  0  0  0  0  0  0  0  0  0
  152.0065  142.7695  159.8283 C   0  0  0  0  0  0  0  0  0  0  0  0
  151.0324  143.2414  158.9195 C   0  0  0  0  0  0  0  0  0  0  0  0
  150.8281  142.4962  157.7642 C   0  0  0  0  0  0  0  0  0  0  0  0
  149.9508  142.6896  156.6948 N   0  3  0  0  0  0  0  0  0  0  0  0
  150.1049  141.6816  155.7921 C   0  0  0  0  0  0  0  0  0  0  0  0
  151.0662  140.8452  156.2698 N   0  0  0  0  0  0  0  0  0  0  0  0
  151.6047  139.6078  155.6865 C   0  0  0  0  0  0  0  0  0  0  0  0
  150.5377  138.7521  154.9690 C   0  0  1  0  0  0  0  0  0  0  0  0
  150.1797  139.4440  153.7895 O   0  0  0  0  0  0  0  0  0  0  0  0
  151.0314  137.3334  154.6029 C   0  0  0  0  0  0  0  0  0  0  0  0
  149.9739  136.2852  154.6389 N   0  3  2  0  0  0  0  0  0  0  0  0
  148.9267  136.5502  155.6542 C   0  0  0  0  0  0  0  0  0  0  0  0
  150.5258  134.9115  154.7779 C   0  0  0  0  0  0  0  0  0  0  0  0
  149.4762  133.8524  154.5621 C   0  0  0  0  0  0  0  0  0  0  0  0
  149.2524  132.6739  155.3317 C   0  0  0  0  0  0  0  0  0  0  0  0
  148.2584  131.9368  154.8664 N   0  0  0  0  0  0  0  0  0  0  0  0
  147.8044  132.6213  153.7966 N   0  0  0  0  0  0  0  0  0  0  0  0
  146.6942  132.0955  153.0315 C   0  0  0  0  0  0  0  0  0  0  0  0
  148.5165  133.7834  153.5916 C   0  0  0  0  0  0  0  0  0  0  0  0
  151.5561  141.3211  157.4934 C   0  0  0  0  0  0  0  0  0  0  0  0
  152.5291  140.8502  158.3733 C   0  0  0  0  0  0  0  0  0  0  0  0
  152.7463  141.5894  159.5575 C   0  0  0  0  0  0  0  0  0  0  0  0
  153.7913  141.0894  160.5406 C   0  0  0  0  0  0  0  0  0  0  0  0
  151.5748  144.4096  161.1822 H   0  0  0  0  0  0  0  0  0  0  0  0
  153.2705  143.9310  161.1363 H   0  0  0  0  0  0  0  0  0  0  0  0
  152.0837  142.9248  161.9803 H   0  0  0  0  0  0  0  0  0  0  0  0
  150.4676  144.1407  159.1182 H   0  0  0  0  0  0  0  0  0  0  0  0
  149.5610  141.5661  154.8653 H   0  0  0  0  0  0  0  0  0  0  0  0
  152.3837  139.8987  154.9802 H   0  0  0  0  0  0  0  0  0  0  0  0
  152.1070  139.0377  156.4687 H   0  0  0  0  0  0  0  0  0  0  0  0
  149.6610  138.6946  155.6135 H   0  0  0  0  0  0  0  0  0  0  0  0
  150.1425  138.8309  153.0715 H   0  0  0  0  0  0  0  0  0  0  0  0
  151.4580  137.3886  153.6029 H   0  0  0  0  0  0  0  0  0  0  0  0
  151.8409  137.0266  155.2664 H   0  0  0  0  0  0  0  0  0  0  0  0
  149.3559  136.5974  156.6559 H   0  0  0  0  0  0  0  0  0  0  0  0
  148.1711  135.7637  155.6463 H   0  0  0  0  0  0  0  0  0  0  0  0
  148.4058  137.4864  155.4585 H   0  0  0  0  0  0  0  0  0  0  0  0
  151.3565  134.7900  154.0809 H   0  0  0  0  0  0  0  0  0  0  0  0
  150.9546  134.7991  155.7744 H   0  0  0  0  0  0  0  0  0  0  0  0
  149.7895  132.3280  156.2027 H   0  0  0  0  0  0  0  0  0  0  0  0
  146.4754  132.7530  152.1897 H   0  0  0  0  0  0  0  0  0  0  0  0
  145.8095  132.0245  153.6650 H   0  0  0  0  0  0  0  0  0  0  0  0
  146.9438  131.1046  152.6508 H   0  0  0  0  0  0  0  0  0  0  0  0
  148.2880  134.4543  152.7763 H   0  0  0  0  0  0  0  0  0  0  0  0
  153.0963  139.9537  158.1722 H   0  0  0  0  0  0  0  0  0  0  0  0
  154.2852  140.1883  160.1754 H   0  0  0  0  0  0  0  0  0  0  0  0
  153.3313  140.8497  161.4995 H   0  0  0  0  0  0  0  0  0  0  0  0
  154.5584  141.8467  160.7033 H   0  0  0  0  0  0  0  0  0  0  0  0
  149.5143  136.3082  153.7397 H   0  0  0  0  0  0  0  0  0  0  0  0
  149.2954  143.4534  156.5856 H   0  0  0  0  0  0  0  0  0  0  0  0
  1  2  1  0  0  0  0
  1 25  1  0  0  0  0
  1 26  1  0  0  0  0
  1 27  1  0  0  0  0
  2 23  1  0  0  0  0
  2  3  2  0  0  0  0
  3  4  1  0  0  0  0
  3 28  1  0  0  0  0
  4 21  2  0  0  0  0
  4  5  1  0  0  0  0
  5  6  2  0  0  0  0
  5 51  1  0  0  0  0
  6  7  1  0  0  0  0
  6 29  1  0  0  0  0
  7  8  1  0  0  0  0
  7 21  1  0  0  0  0
  8  9  1  0  0  0  0
  8 30  1  0  0  0  0
  8 31  1  0  0  0  0
  9 10  1  0  0  0  0
  9 11  1  0  0  0  0
  9 32  1  0  0  0  0
 10 33  1  0  0  0  0
 11 12  1  0  0  0  0
 11 34  1  0  0  0  0
 11 35  1  0  0  0  0
 12 13  1  0  0  0  0
 12 14  1  0  0  0  0
 12 50  1  0  0  0  0
 13 36  1  0  0  0  0
 13 37  1  0  0  0  0
 13 38  1  0  0  0  0
 14 15  1  0  0  0  0
 14 39  1  0  0  0  0
 14 40  1  0  0  0  0
 15 20  2  0  0  0  0
 15 16  1  0  0  0  0
 16 17  2  0  0  0  0
 16 41  1  0  0  0  0
 17 18  1  0  0  0  0
 18 19  1  0  0  0  0
 18 20  1  0  0  0  0
 19 42  1  0  0  0  0
 19 43  1  0  0  0  0
 19 44  1  0  0  0  0
 20 45  1  0  0  0  0
 21 22  1  0  0  0  0
 22 23  2  0  0  0  0
 22 46  1  0  0  0  0
 23 24  1  0  0  0  0
 24 47  1  0  0  0  0
 24 48  1  0  0  0  0
 24 49  1  0  0  0  0
M  CHG  1   5   1
M  CHG  1  12   1
M  END
> <s_m_source_file>
AV-unprocessed.smi

> <i_m_source_file_index>
2027

> <i_lp_mmshare_version>
43012

> <i_f3d_flags>
0

> <s_epik_input>
W0NIM11jKFtjSF0xKWMoW0NIM10pW2NIXWMoYzEyKW4oW2NIXW4yKVtDSDJdW0NASF0oW09IXSlbQ0gyXU4oW0NIM10pW0NIMl1jM1tjSF1ubihbQ0gzXSlbY0hdMw==

> <s_epik_cmdline>
J2VwaWtfcHl0aG9uJywgJy1waCcsICc3LjAnLCAnLXRuJywgJzgnLCAnLW1hJywgJzIwMCcsICctbWV0YWxfYmluZGluZycsICctaW1hZScsICc8aW5maWxlLm1hZT4nLCAnLW9tYWUnLCAnPG91dGZpbGUubWFlPic=

> <r_lp_tautomer_probability>
1

> <r_epik_Ionization_Penalty>
1.77469

> <r_epik_Ionization_Penalty_Charging>
1.77463

> <r_epik_Ionization_Penalty_Neutral>
6.41153e-05

> <r_epik_State_Penalty>
1.85225

> <r_epik_Charging_Adjusted_Penalty>
3.62688

> <i_epik_Tot_Q>
2

> <i_epik_Tot_abs_Q>
2

> <r_epik_Metal_State_Penalty>
1.92669

> <b_epik_Metal_Only>
0

> <s_lp_Force_Field>
OPLS_2005

> <r_lp_Energy>
22.5678

> <b_lp_Chiralities_Consistent>
1

> <s_lp_Variant>
AV-unprocessed.smi:2027-12

> <Gold.Version>
5.8.1

> <Gold.Id.Protein>
6NUR|6NUR_protein|mol2

> <Gold.PLP.Fitness>
63.9724

> <Gold.PLP.PLP>
-48.5208

> <Gold.PLP.part.hbond>
-3.7778

> <Gold.PLP.part.metal>
0.0000

> <Gold.PLP.part.buried>
-3.8765

> <Gold.PLP.part.nonpolar>
-41.6332

> <Gold.PLP.part.repulsive>
0.1160

> <Gold.PLP.ligand.clash>
0.0000

> <Gold.PLP.ligand.torsion>
1.3270

> <Gold.PLP.Chemscore.Hbond>
4.9856

> <Gold.PLP.Chemscore.CHOScore>
1.0000

> <Gold.PLP.Chemscore.Metal>
0.0000

> <Gold.Chemscore.Hbonds>
donor molecule, donor type, donor heavy atom, donor atom, acceptor molecule, acceptor atom, score
      L1  H     5    51       P1  8028  1.82
      L1  H    10    33       P1  7957  0.05
      L1  H    12    50       P1  7948  2.00
      P1  H  7989  7998       L1    10  0.94
      L1  C    20    45       P1  7948  1.00

> <Gold.PLP.Chemscore.Internal.Correction>
0.1488

> <Gold.Rescore>
     Score         DG    S(hbond)    S(metal)    S(lipo)     H(rot)  DE(clash)    DE(int)     intcor
     18.97     -21.32       2.63        0.00     116.77       2.58       0.31       2.04       ----

> <Gold.Chemscore.Fitness>
18.9721

> <Gold.Chemscore.DG>
-21.3246

> <Gold.Chemscore.ZeroCoef>
-5.4800

> <Gold.Chemscore.Hbond>
2.6337

> <Gold.Chemscore.Metal>
0.0000

> <Gold.Chemscore.Lipo>
116.7683

> <Gold.Chemscore.Internal_Hbond>
0.0000

> <Gold.Chemscore.DEClash>
0.3136

> <Gold.Chemscore.DEInternal>
2.0389

> <Gold.Chemscore.Rot>
2.5836

> <Gold.Chemscore.Internal.Correction>
   9.000000E+99

> <Gold.Chemscore.Hbonds>
donor molecule, donor type, donor heavy atom, donor atom, acceptor molecule, acceptor atom, score
      L1  H     5    51       P1  8028  0.87
      L1  H    10    33       P1  7957  0.04
      L1  H    12    50       P1  7948  0.65
      P1  H  7989  7998       L1    10  0.40

> <Gold.Chemscore.Hbond.Weighted>
-8.7966

> <Gold.Chemscore.Metal.Weighted>
-0.0000

> <Gold.Chemscore.Lipo.Weighted>
-13.6619

> <Gold.Chemscore.Internal_Hbond.Weighted>
0.0000

> <Gold.Chemscore.DEClash.Weighted>
0.3136

> <Gold.Chemscore.DEInternal.Weighted>
2.0389

> <Gold.Chemscore.Rot.Weighted>
6.6139

> <Gold.Chemscore.Internal.Correction.Weighted>
   9.000000E+99

> <Gold.Protein.RotatedTorsions>
[ 6907 6896 6895 6894 ] final   71.51 input  -60.11 | X-H torsion
[ 7974 7965 7964 7962 ] final   70.67 input  175.53 | X-H torsion
[ 8008 7997 7996 7995 ] final  135.84 input   59.86 | X-H torsion
[ 10167 10162 10161 10158 ] final -158.25 input  -65.29 | X-H torsion
[ 10718 10713 10712 10709 ] final -146.79 input   66.30 | X-H torsion
[ 10763 10752 10751 10750 ] final  132.93 input  -60.55 | X-H torsion
[ 11005 11000 10999 10996 ] final  171.81 input  -57.11 | X-H torsion

> <Gold.Protein.ActiveResidues>
 VAL166  LYS551  ARG553  GLY616  TRP617  ASP618  TYR619  PRO620  LYS621  CYS622 
 ASP623  PHE694  ASN695  SER759  ASP760  ASP761  ALA762  ILE779  LEU786  VAL792 
 PHE793  MET794  SER795  GLU796  ALA797  LYS798  CYS799  TRP800  GLU811  SER814 

> <Gold.Protein.RotatedAtoms>
  152.4814  134.4709  159.9634 H   0  0  0  0  0  0  0  0  0  0  0  0  # atno 6907 bound_to 6896
  151.4714  133.3562  159.2832 H   0  0  0  0  0  0  0  0  0  0  0  0  # atno 6908 bound_to 6896
  150.8890  134.8317  159.7340 H   0  0  0  0  0  0  0  0  0  0  0  0  # atno 6909 bound_to 6896
  145.7753  139.2862  143.1297 H   0  0  0  0  0  0  0  0  0  0  0  0  # atno 7974 bound_to 7965
  156.3003  140.2460  156.3647 H   0  0  0  0  0  0  0  0  0  0  0  0  # atno 8008 bound_to 7997
  154.8845  140.0411  157.1821 H   0  0  0  0  0  0  0  0  0  0  0  0  # atno 8009 bound_to 7997
  154.8662  140.2928  155.5513 H   0  0  0  0  0  0  0  0  0  0  0  0  # atno 8010 bound_to 7997
  139.6707  143.9751  152.2281 H   0  0  0  0  0  0  0  0  0  0  0  0  # atno 10167 bound_to 10162
  156.3994  130.7926  151.2135 H   0  0  0  0  0  0  0  0  0  0  0  0  # atno 10718 bound_to 10713
  153.7989  135.3144  155.3387 H   0  0  0  0  0  0  0  0  0  0  0  0  # atno 10763 bound_to 10752
  154.8097  135.4675  154.0486 H   0  0  0  0  0  0  0  0  0  0  0  0  # atno 10764 bound_to 10752
  153.1828  135.6896  153.8543 H   0  0  0  0  0  0  0  0  0  0  0  0  # atno 10765 bound_to 10752
  140.3230  134.7421  157.4078 H   0  0  0  0  0  0  0  0  0  0  0  0  # atno 11005 bound_to 11000
  146.0128  140.8419  142.9962 LP  0  0  0  0  0  0  0  0  0  0  0  0  # atno 17320 bound_to 7965
  144.6805  140.2515  143.7331 LP  0  0  0  0  0  0  0  0  0  0  0  0  # atno 17321 bound_to 7965
  139.9514  144.6618  150.8168 LP  0  0  0  0  0  0  0  0  0  0  0  0  # atno 17342 bound_to 10162
  140.7617  143.3180  151.2688 LP  0  0  0  0  0  0  0  0  0  0  0  0  # atno 17343 bound_to 10162
  157.7503  131.0291  150.4080 LP  0  0  0  0  0  0  0  0  0  0  0  0  # atno 17370 bound_to 10713
  156.4356  130.3981  149.6731 LP  0  0  0  0  0  0  0  0  0  0  0  0  # atno 17371 bound_to 10713
  140.0926  134.5581  155.8430 LP  0  0  0  0  0  0  0  0  0  0  0  0  # atno 17394 bound_to 11000
  141.2082  133.6671  156.6356 LP  0  0  0  0  0  0  0  0  0  0  0  0  # atno 17395 bound_to 11000

$$$$
