AV-unprocessed.smi:2713|AV-procd|sdf|10479|dock1
  -GOLD-   2272014523D 1   1.00000     0.00000
 Structure written by MMmdl.
 52 53  0  0  0  0  0  0  0  0  1 V2000
  152.1606  139.5800  155.4767 C   0  0  0  0  0  0  0  0  0  0  0  0
  150.6753  139.1637  155.3925 C   0  0  0  0  0  0  0  0  0  0  0  0
  150.6158  137.8990  154.5096 C   0  0  0  0  0  0  0  0  0  0  0  0
  150.1656  138.7735  156.7948 C   0  0  0  0  0  0  0  0  0  0  0  0
  149.7942  140.2537  154.6942 C   0  0  0  0  0  0  0  0  0  0  0  0
  148.2329  140.2312  154.7616 C   0  0  0  0  0  0  0  0  0  0  0  0
  147.6750  140.5607  156.1633 C   0  0  0  0  0  0  0  0  0  0  0  0
  147.7102  141.2792  153.7531 C   0  0  0  0  0  0  0  0  0  0  0  0
  147.7988  138.9099  154.2945 N   0  0  0  0  0  0  0  0  0  0  0  0
  146.3625  138.6719  154.2034 C   0  0  0  0  0  0  0  0  0  0  0  0
  146.0435  137.3869  153.4664 C   0  0  0  0  0  0  0  0  0  0  0  0
  145.3123  137.3755  152.2610 C   0  0  0  0  0  0  0  0  0  0  0  0
  145.0413  136.2254  151.6075 N   0  0  0  0  0  0  0  0  0  0  0  0
  145.4963  135.0813  152.1378 C   0  0  0  0  0  0  0  0  0  0  0  0
  145.2127  133.8908  151.4565 N   0  0  0  0  0  0  0  0  0  0  0  0
  144.3499  133.8571  150.2735 C   0  0  0  0  0  0  0  0  0  0  0  0
  143.5935  132.5203  150.1886 C   0  0  0  0  0  0  0  0  0  0  0  0
  144.5180  131.4399  150.2175 O   0  0  0  0  0  0  0  0  0  0  0  0
  145.2597  131.4184  151.4308 C   0  0  0  0  0  0  0  0  0  0  0  0
  146.0784  132.7137  151.5631 C   0  0  0  0  0  0  0  0  0  0  0  0
  146.2031  134.9908  153.2732 N   0  0  0  0  0  0  0  0  0  0  0  0
  146.4792  136.1328  153.9379 C   0  0  0  0  0  0  0  0  0  0  0  0
  152.7836  138.7432  155.7948 H   0  0  0  0  0  0  0  0  0  0  0  0
  152.3394  140.3773  156.1937 H   0  0  0  0  0  0  0  0  0  0  0  0
  152.5382  139.9124  154.5092 H   0  0  0  0  0  0  0  0  0  0  0  0
  150.9689  138.1024  153.4977 H   0  0  0  0  0  0  0  0  0  0  0  0
  149.5987  137.5135  154.4300 H   0  0  0  0  0  0  0  0  0  0  0  0
  151.2328  137.0957  154.9144 H   0  0  0  0  0  0  0  0  0  0  0  0
  150.7392  137.9420  157.2056 H   0  0  0  0  0  0  0  0  0  0  0  0
  149.1202  138.4647  156.7665 H   0  0  0  0  0  0  0  0  0  0  0  0
  150.2512  139.5958  157.5043 H   0  0  0  0  0  0  0  0  0  0  0  0
  150.1321  141.2199  155.0722 H   0  0  0  0  0  0  0  0  0  0  0  0
  150.0635  140.2757  153.6364 H   0  0  0  0  0  0  0  0  0  0  0  0
  148.1456  141.4553  156.5719 H   0  0  0  0  0  0  0  0  0  0  0  0
  147.8243  139.7430  156.8670 H   0  0  0  0  0  0  0  0  0  0  0  0
  146.6030  140.7589  156.1344 H   0  0  0  0  0  0  0  0  0  0  0  0
  148.0883  142.2742  153.9914 H   0  0  0  0  0  0  0  0  0  0  0  0
  146.6229  141.3527  153.7528 H   0  0  0  0  0  0  0  0  0  0  0  0
  148.0252  141.0484  152.7344 H   0  0  0  0  0  0  0  0  0  0  0  0
  148.2399  138.6992  153.4106 H   0  0  0  0  0  0  0  0  0  0  0  0
  145.9272  138.5996  155.1998 H   0  0  0  0  0  0  0  0  0  0  0  0
  145.8713  139.4983  153.6913 H   0  0  0  0  0  0  0  0  0  0  0  0
  144.9428  138.2891  151.8184 H   0  0  0  0  0  0  0  0  0  0  0  0
  143.6170  134.6637  150.2818 H   0  0  0  0  0  0  0  0  0  0  0  0
  144.9673  133.9966  149.3855 H   0  0  0  0  0  0  0  0  0  0  0  0
  142.8792  132.4251  151.0082 H   0  0  0  0  0  0  0  0  0  0  0  0
  143.0216  132.4717  149.2621 H   0  0  0  0  0  0  0  0  0  0  0  0
  144.5872  131.2942  152.2813 H   0  0  0  0  0  0  0  0  0  0  0  0
  145.9248  130.5546  151.4231 H   0  0  0  0  0  0  0  0  0  0  0  0
  146.8277  132.7631  150.7722 H   0  0  0  0  0  0  0  0  0  0  0  0
  146.6212  132.6819  152.5071 H   0  0  0  0  0  0  0  0  0  0  0  0
  147.0510  136.0412  154.8499 H   0  0  0  0  0  0  0  0  0  0  0  0
  1  2  1  0  0  0  0
  1 23  1  0  0  0  0
  1 24  1  0  0  0  0
  1 25  1  0  0  0  0
  2  3  1  0  0  0  0
  2  4  1  0  0  0  0
  2  5  1  0  0  0  0
  3 26  1  0  0  0  0
  3 27  1  0  0  0  0
  3 28  1  0  0  0  0
  4 29  1  0  0  0  0
  4 30  1  0  0  0  0
  4 31  1  0  0  0  0
  5  6  1  0  0  0  0
  5 32  1  0  0  0  0
  5 33  1  0  0  0  0
  6  7  1  0  0  0  0
  6  8  1  0  0  0  0
  6  9  1  0  0  0  0
  7 34  1  0  0  0  0
  7 35  1  0  0  0  0
  7 36  1  0  0  0  0
  8 37  1  0  0  0  0
  8 38  1  0  0  0  0
  8 39  1  0  0  0  0
  9 10  1  0  0  0  0
  9 40  1  0  0  0  0
 10 11  1  0  0  0  0
 10 41  1  0  0  0  0
 10 42  1  0  0  0  0
 11 22  1  0  0  0  0
 11 12  2  0  0  0  0
 12 13  1  0  0  0  0
 12 43  1  0  0  0  0
 13 14  2  0  0  0  0
 14 15  1  0  0  0  0
 14 21  1  0  0  0  0
 15 20  1  0  0  0  0
 15 16  1  0  0  0  0
 16 17  1  0  0  0  0
 16 44  1  0  0  0  0
 16 45  1  0  0  0  0
 17 18  1  0  0  0  0
 17 46  1  0  0  0  0
 17 47  1  0  0  0  0
 18 19  1  0  0  0  0
 19 20  1  0  0  0  0
 19 48  1  0  0  0  0
 19 49  1  0  0  0  0
 20 50  1  0  0  0  0
 20 51  1  0  0  0  0
 21 22  2  0  0  0  0
 22 52  1  0  0  0  0
M  END
> <s_m_source_file>
AV-unprocessed.smi

> <i_m_source_file_index>
2713

> <i_lp_mmshare_version>
43012

> <i_f3d_flags>
0

> <s_epik_input>
W0NIM11DKFtDSDNdKShbQ0gzXSlbQ0gyXUMoW0NIM10pKFtDSDNdKVtOSF1bQ0gyXWMxW2NIXW5jKG5bY0hdMSlOMltDSDJdW0NIMl1PW0NIMl1bQ0gyXTI=

> <s_epik_cmdline>
J2VwaWtfcHl0aG9uJywgJy1waCcsICc3LjAnLCAnLXRuJywgJzgnLCAnLW1hJywgJzIwMCcsICctbWV0YWxfYmluZGluZycsICctaW1hZScsICc8aW5maWxlLm1hZT4nLCAnLW9tYWUnLCAnPG91dGZpbGUubWFlPic=

> <r_lp_tautomer_probability>
1

> <r_epik_Ionization_Penalty>
1.66691

> <r_epik_Ionization_Penalty_Charging>
0

> <r_epik_Ionization_Penalty_Neutral>
1.66691

> <r_epik_State_Penalty>
1.77023

> <r_epik_Charging_Adjusted_Penalty>
1.77023

> <i_epik_Tot_Q>
0

> <i_epik_Tot_abs_Q>
0

> <r_epik_Metal_State_Penalty>
1.77023

> <b_epik_Metal_Only>
0

> <s_lp_Force_Field>
OPLS_2005

> <r_lp_Energy>
27.9038

> <b_lp_Chiralities_Consistent>
1

> <s_lp_Variant>
AV-unprocessed.smi:2713-2

> <Gold.Version>
5.8.1

> <Gold.Id.Protein>
6NUR|6NUR_protein|mol2

> <Gold.PLP.Fitness>
36.9201

> <Gold.PLP.PLP>
-31.5410

> <Gold.PLP.part.hbond>
-1.0000

> <Gold.PLP.part.metal>
0.0000

> <Gold.PLP.part.buried>
-2.3401

> <Gold.PLP.part.nonpolar>
-29.5150

> <Gold.PLP.part.repulsive>
0.4270

> <Gold.PLP.ligand.clash>
0.0000

> <Gold.PLP.ligand.torsion>
0.4650

> <Gold.PLP.Chemscore.Hbond>
0.0907

> <Gold.PLP.Chemscore.CHOScore>
1.9603

> <Gold.PLP.Chemscore.Metal>
0.0000

> <Gold.Chemscore.Hbonds>
donor molecule, donor type, donor heavy atom, donor atom, acceptor molecule, acceptor atom, score
      P1  H 10785 10796       L1    18  0.06
      L1  C    12    43       P1 10171  0.99
      L1  C    12    43       P1 10175  0.88

> <Gold.PLP.Chemscore.Internal.Correction>
0.1563

> <Gold.Rescore>
     Score         DG    S(hbond)    S(metal)    S(lipo)     H(rot)  DE(clash)    DE(int)     intcor
     11.53     -12.29       0.00        0.00      90.57       1.48       0.04       0.72       ----

> <Gold.Chemscore.Fitness>
11.5288

> <Gold.Chemscore.DG>
-12.2868

> <Gold.Chemscore.ZeroCoef>
-5.4800

> <Gold.Chemscore.Hbond>
0.0001

> <Gold.Chemscore.Metal>
0.0000

> <Gold.Chemscore.Lipo>
90.5692

> <Gold.Chemscore.Internal_Hbond>
0.0000

> <Gold.Chemscore.DEClash>
0.0381

> <Gold.Chemscore.DEInternal>
0.7199

> <Gold.Chemscore.Rot>
1.4805

> <Gold.Chemscore.Internal.Correction>
   9.000000E+99

> <Gold.Chemscore.Hbonds>
donor molecule, donor type, donor heavy atom, donor atom, acceptor molecule, acceptor atom, score
      P1  H 10785 10796       L1    18  0.01

> <Gold.Chemscore.Hbond.Weighted>
-0.0002

> <Gold.Chemscore.Metal.Weighted>
-0.0000

> <Gold.Chemscore.Lipo.Weighted>
-10.5966

> <Gold.Chemscore.Internal_Hbond.Weighted>
0.0000

> <Gold.Chemscore.DEClash.Weighted>
0.0381

> <Gold.Chemscore.DEInternal.Weighted>
0.7199

> <Gold.Chemscore.Rot.Weighted>
3.7900

> <Gold.Chemscore.Internal.Correction.Weighted>
   9.000000E+99

> <Gold.Protein.RotatedTorsions>
[ 6907 6896 6895 6894 ] final   62.06 input  -60.11 | X-H torsion
[ 7974 7965 7964 7962 ] final -124.12 input  175.53 | X-H torsion
[ 8008 7997 7996 7995 ] final   73.74 input   59.86 | X-H torsion
[ 10167 10162 10161 10158 ] final  139.04 input  -65.29 | X-H torsion
[ 10718 10713 10712 10709 ] final  143.06 input   66.30 | X-H torsion
[ 10763 10752 10751 10750 ] final   98.83 input  -60.55 | X-H torsion
[ 11005 11000 10999 10996 ] final   26.78 input  -57.11 | X-H torsion

> <Gold.Protein.ActiveResidues>
 VAL166  LYS551  ARG553  GLY616  TRP617  ASP618  TYR619  PRO620  LYS621  CYS622 
 ASP623  PHE694  ASN695  SER759  ASP760  ASP761  ALA762  ILE779  LEU786  VAL792 
 PHE793  MET794  SER795  GLU796  ALA797  LYS798  CYS799  TRP800  GLU811  SER814 

> <Gold.Protein.RotatedAtoms>
  152.4141  134.6072  160.0015 H   0  0  0  0  0  0  0  0  0  0  0  0  # atno 6907 bound_to 6896
  151.6241  133.3331  159.3102 H   0  0  0  0  0  0  0  0  0  0  0  0  # atno 6908 bound_to 6896
  150.8030  134.7177  159.6685 H   0  0  0  0  0  0  0  0  0  0  0  0  # atno 6909 bound_to 6896
  145.0114  140.7909  143.4436 H   0  0  0  0  0  0  0  0  0  0  0  0  # atno 7974 bound_to 7965
  155.7881  140.3480  155.5334 H   0  0  0  0  0  0  0  0  0  0  0  0  # atno 8008 bound_to 7997
  155.8661  140.0979  157.1602 H   0  0  0  0  0  0  0  0  0  0  0  0  # atno 8009 bound_to 7997
  154.4014  140.1349  156.4008 H   0  0  0  0  0  0  0  0  0  0  0  0  # atno 8010 bound_to 7997
  139.5091  144.6318  151.5798 H   0  0  0  0  0  0  0  0  0  0  0  0  # atno 10167 bound_to 10162
  157.3734  131.0982  151.0807 H   0  0  0  0  0  0  0  0  0  0  0  0  # atno 10718 bound_to 10713
  153.2939  135.4134  155.1192 H   0  0  0  0  0  0  0  0  0  0  0  0  # atno 10763 bound_to 10752
  154.8529  135.3525  154.5943 H   0  0  0  0  0  0  0  0  0  0  0  0  # atno 10764 bound_to 10752
  153.6366  135.7058  153.5314 H   0  0  0  0  0  0  0  0  0  0  0  0  # atno 10765 bound_to 10752
  140.3334  134.2413  155.7699 H   0  0  0  0  0  0  0  0  0  0  0  0  # atno 11005 bound_to 11000
  145.2018  139.2248  143.5189 LP  0  0  0  0  0  0  0  0  0  0  0  0  # atno 17320 bound_to 7965
  146.3470  140.1837  142.8589 LP  0  0  0  0  0  0  0  0  0  0  0  0  # atno 17321 bound_to 7965
  140.6053  143.9535  150.6414 LP  0  0  0  0  0  0  0  0  0  0  0  0  # atno 17342 bound_to 10162
  140.2760  143.3422  152.1195 LP  0  0  0  0  0  0  0  0  0  0  0  0  # atno 17343 bound_to 10162
  157.1903  130.6349  149.5702 LP  0  0  0  0  0  0  0  0  0  0  0  0  # atno 17370 bound_to 10713
  155.9760  130.4724  150.6499 LP  0  0  0  0  0  0  0  0  0  0  0  0  # atno 17371 bound_to 10713
  141.2057  133.7851  157.0215 LP  0  0  0  0  0  0  0  0  0  0  0  0  # atno 17394 bound_to 11000
  140.0842  134.9631  157.1673 LP  0  0  0  0  0  0  0  0  0  0  0  0  # atno 17395 bound_to 11000

$$$$
