AV-unprocessed.smi:1095|AV-procd|sdf|4747|dock3
  -GOLD-   22720 3283D 1   1.00000     0.00000
 Structure written by MMmdl.
 50 51  0  0  0  0  0  0  0  0  1 V2000
  153.1155  141.1310  162.3461 C   0  0  0  0  0  0  0  0  0  0  0  0
  153.3027  141.3758  160.8422 C   0  0  0  0  0  0  0  0  0  0  0  0
  151.9825  141.5448  160.0630 C   0  0  2  0  0  0  0  0  0  0  0  0
  151.6232  140.2506  159.3073 C   0  0  0  0  0  0  0  0  0  0  0  0
  150.3037  140.3892  158.5318 C   0  0  0  0  0  0  0  0  0  0  0  0
  150.3449  141.5680  157.5415 C   0  0  1  0  0  0  0  0  0  0  0  0
  149.0179  141.6754  156.7610 C   0  0  0  0  0  0  0  0  0  0  0  0
  148.9104  140.6361  155.7433 N   0  0  0  0  0  0  0  0  0  0  0  0
  149.9306  140.1198  155.0408 C   0  0  0  0  0  0  0  0  0  0  0  0
  151.0840  140.5457  155.0943 O   0  0  0  0  0  0  0  0  0  0  0  0
  149.6049  138.9020  154.1783 C   0  0  0  0  0  0  0  0  0  0  0  0
  150.2142  137.6768  154.8138 C   0  0  0  0  0  0  0  0  0  0  0  0
  151.5851  137.4526  155.1413 C   0  0  0  0  0  0  0  0  0  0  0  0
  152.7578  138.3688  154.9381 C   0  0  0  0  0  0  0  0  0  0  0  0
  151.7882  136.2591  155.6731 N   0  0  0  0  0  0  0  0  0  0  0  0
  150.5697  135.6840  155.7053 N   0  0  0  0  0  0  0  0  0  0  0  0
  150.4314  134.3422  156.2372 C   0  0  0  0  0  0  0  0  0  0  0  0
  149.5948  136.5139  155.1868 C   0  0  0  0  0  0  0  0  0  0  0  0
  148.1610  136.1010  155.0965 C   0  0  0  0  0  0  0  0  0  0  0  0
  150.7115  142.8686  158.2897 C   0  0  0  0  0  0  0  0  0  0  0  0
  152.0256  142.7286  159.0744 C   0  0  0  0  0  0  0  0  0  0  0  0
  154.0756  140.9422  162.8268 H   0  0  0  0  0  0  0  0  0  0  0  0
  152.4784  140.2653  162.5289 H   0  0  0  0  0  0  0  0  0  0  0  0
  152.6676  141.9912  162.8431 H   0  0  0  0  0  0  0  0  0  0  0  0
  153.9386  142.2486  160.6905 H   0  0  0  0  0  0  0  0  0  0  0  0
  153.8519  140.5285  160.4301 H   0  0  0  0  0  0  0  0  0  0  0  0
  151.1884  141.7344  160.7869 H   0  0  0  0  0  0  0  0  0  0  0  0
  152.4259  139.9922  158.6152 H   0  0  0  0  0  0  0  0  0  0  0  0
  151.5428  139.4191  160.0085 H   0  0  0  0  0  0  0  0  0  0  0  0
  150.0993  139.4610  157.9973 H   0  0  0  0  0  0  0  0  0  0  0  0
  149.4816  140.5263  159.2355 H   0  0  0  0  0  0  0  0  0  0  0  0
  151.1372  141.3655  156.8190 H   0  0  0  0  0  0  0  0  0  0  0  0
  148.1774  141.5531  157.4446 H   0  0  0  0  0  0  0  0  0  0  0  0
  148.9133  142.6709  156.3263 H   0  0  0  0  0  0  0  0  0  0  0  0
  147.9998  140.2164  155.6229 H   0  0  0  0  0  0  0  0  0  0  0  0
  148.5233  138.8073  154.0756 H   0  0  0  0  0  0  0  0  0  0  0  0
  149.9884  139.0651  153.1705 H   0  0  0  0  0  0  0  0  0  0  0  0
  152.4597  139.4145  155.0066 H   0  0  0  0  0  0  0  0  0  0  0  0
  153.2041  138.2147  153.9556 H   0  0  0  0  0  0  0  0  0  0  0  0
  153.5326  138.1998  155.6869 H   0  0  0  0  0  0  0  0  0  0  0  0
  150.1928  133.6520  155.4278 H   0  0  0  0  0  0  0  0  0  0  0  0
  149.6286  134.3194  156.9745 H   0  0  0  0  0  0  0  0  0  0  0  0
  151.3571  134.0201  156.7162 H   0  0  0  0  0  0  0  0  0  0  0  0
  147.5979  136.7694  154.4454 H   0  0  0  0  0  0  0  0  0  0  0  0
  147.6926  136.1151  156.0807 H   0  0  0  0  0  0  0  0  0  0  0  0
  148.0694  135.0932  154.6911 H   0  0  0  0  0  0  0  0  0  0  0  0
  150.8129  143.6979  157.5896 H   0  0  0  0  0  0  0  0  0  0  0  0
  149.9057  143.1402  158.9726 H   0  0  0  0  0  0  0  0  0  0  0  0
  152.2174  143.6613  159.6041 H   0  0  0  0  0  0  0  0  0  0  0  0
  152.8525  142.5963  158.3752 H   0  0  0  0  0  0  0  0  0  0  0  0
  1  2  1  0  0  0  0
  1 22  1  0  0  0  0
  1 23  1  0  0  0  0
  1 24  1  0  0  0  0
  2  3  1  0  0  0  0
  2 25  1  0  0  0  0
  2 26  1  0  0  0  0
  3 21  1  0  0  0  0
  3  4  1  0  0  0  0
  3 27  1  0  0  0  0
  4  5  1  0  0  0  0
  4 28  1  0  0  0  0
  4 29  1  0  0  0  0
  5  6  1  0  0  0  0
  5 30  1  0  0  0  0
  5 31  1  0  0  0  0
  6  7  1  0  0  0  0
  6 20  1  0  0  0  0
  6 32  1  0  0  0  0
  7  8  1  0  0  0  0
  7 33  1  0  0  0  0
  7 34  1  0  0  0  0
  8  9  1  0  0  0  0
  8 35  1  0  0  0  0
  9 10  2  0  0  0  0
  9 11  1  0  0  0  0
 11 12  1  0  0  0  0
 11 36  1  0  0  0  0
 11 37  1  0  0  0  0
 12 18  2  0  0  0  0
 12 13  1  0  0  0  0
 13 14  1  0  0  0  0
 13 15  2  0  0  0  0
 14 38  1  0  0  0  0
 14 39  1  0  0  0  0
 14 40  1  0  0  0  0
 15 16  1  0  0  0  0
 16 17  1  0  0  0  0
 16 18  1  0  0  0  0
 17 41  1  0  0  0  0
 17 42  1  0  0  0  0
 17 43  1  0  0  0  0
 18 19  1  0  0  0  0
 19 44  1  0  0  0  0
 19 45  1  0  0  0  0
 19 46  1  0  0  0  0
 20 21  1  0  0  0  0
 20 47  1  0  0  0  0
 20 48  1  0  0  0  0
 21 49  1  0  0  0  0
 21 50  1  0  0  0  0
M  END
> <s_m_source_file>
AV-unprocessed.smi

> <i_m_source_file_index>
1095

> <i_lp_mmshare_version>
43012

> <i_f3d_flags>
0

> <s_epik_input>
W0NIM11bQ0gyXVtDQEBIXTFbQ0gyXVtDSDJdW0NASF0oW0NIMl1bQ0gyXTEpW0NIMl1bTkhdQyg9TylbQ0gyXWMyYyhbQ0gzXSlubihbQ0gzXSljMltDSDNd

> <s_epik_cmdline>
J2VwaWtfcHl0aG9uJywgJy1waCcsICc3LjAnLCAnLXRuJywgJzgnLCAnLW1hJywgJzIwMCcsICctbWV0YWxfYmluZGluZycsICctaW1hZScsICc8aW5maWxlLm1hZT4nLCAnLW9tYWUnLCAnPG91dGZpbGUubWFlPic=

> <r_lp_tautomer_probability>
1

> <r_epik_Ionization_Penalty>
0.00317479

> <r_epik_Ionization_Penalty_Charging>
0

> <r_epik_Ionization_Penalty_Neutral>
0.00317479

> <r_epik_State_Penalty>
0.00223767

> <r_epik_Charging_Adjusted_Penalty>
0.00223767

> <i_epik_Tot_Q>
0

> <i_epik_Tot_abs_Q>
0

> <r_epik_Metal_State_Penalty>
-0

> <b_epik_Metal_Only>
0

> <s_lp_Force_Field>
OPLS_2005

> <r_lp_Energy>
5.54232

> <b_lp_Chiralities_Consistent>
1

> <s_lp_Variant>
AV-unprocessed.smi:1095-1

> <Gold.Version>
5.8.1

> <Gold.Id.Protein>
6NUR|6NUR_protein|mol2

> <Gold.PLP.Fitness>
43.9219

> <Gold.PLP.PLP>
-39.9973

> <Gold.PLP.part.hbond>
-1.7152

> <Gold.PLP.part.metal>
0.0000

> <Gold.PLP.part.buried>
-3.5878

> <Gold.PLP.part.nonpolar>
-35.8035

> <Gold.PLP.part.repulsive>
0.1637

> <Gold.PLP.ligand.clash>
0.0000

> <Gold.PLP.ligand.torsion>
1.0590

> <Gold.PLP.Chemscore.Hbond>
2.0000

> <Gold.PLP.Chemscore.CHOScore>
0.0000

> <Gold.PLP.Chemscore.Metal>
0.0000

> <Gold.Chemscore.Hbonds>
donor molecule, donor type, donor heavy atom, donor atom, acceptor molecule, acceptor atom, score
      P1  H  7989  7998       L1    10  0.96
      P1  H 10752 10764       L1    15  1.00

> <Gold.PLP.Chemscore.Internal.Correction>
0.0427

> <Gold.Rescore>
     Score         DG    S(hbond)    S(metal)    S(lipo)     H(rot)  DE(clash)    DE(int)     intcor
     15.29     -20.57       1.91        0.00     105.79       1.43       1.64       3.64       ----

> <Gold.Chemscore.Fitness>
15.2886

> <Gold.Chemscore.DG>
-20.5730

> <Gold.Chemscore.ZeroCoef>
-5.4800

> <Gold.Chemscore.Hbond>
1.9118

> <Gold.Chemscore.Metal>
0.0000

> <Gold.Chemscore.Lipo>
105.7905

> <Gold.Chemscore.Internal_Hbond>
0.0000

> <Gold.Chemscore.DEClash>
1.6397

> <Gold.Chemscore.DEInternal>
3.6447

> <Gold.Chemscore.Rot>
1.4336

> <Gold.Chemscore.Internal.Correction>
   9.000000E+99

> <Gold.Chemscore.Hbonds>
donor molecule, donor type, donor heavy atom, donor atom, acceptor molecule, acceptor atom, score
      P1  H  7989  7998       L1    10  0.69
      P1  H 10752 10764       L1    15  0.43

> <Gold.Chemscore.Hbond.Weighted>
-6.3855

> <Gold.Chemscore.Metal.Weighted>
-0.0000

> <Gold.Chemscore.Lipo.Weighted>
-12.3775

> <Gold.Chemscore.Internal_Hbond.Weighted>
0.0000

> <Gold.Chemscore.DEClash.Weighted>
1.6397

> <Gold.Chemscore.DEInternal.Weighted>
3.6447

> <Gold.Chemscore.Rot.Weighted>
3.6700

> <Gold.Chemscore.Internal.Correction.Weighted>
   9.000000E+99

> <Gold.Protein.RotatedTorsions>
[ 6907 6896 6895 6894 ] final  -76.42 input  -60.11 | X-H torsion
[ 7974 7965 7964 7962 ] final  -84.82 input  175.53 | X-H torsion
[ 8008 7997 7996 7995 ] final  -26.52 input   59.86 | X-H torsion
[ 10167 10162 10161 10158 ] final   43.78 input  -65.29 | X-H torsion
[ 10718 10713 10712 10709 ] final  150.87 input   66.30 | X-H torsion
[ 10763 10752 10751 10750 ] final  -55.26 input  -60.55 | X-H torsion
[ 11005 11000 10999 10996 ] final  -26.46 input  -57.11 | X-H torsion

> <Gold.Protein.ActiveResidues>
 VAL166  LYS551  ARG553  GLY616  TRP617  ASP618  TYR619  PRO620  LYS621  CYS622 
 ASP623  PHE694  ASN695  SER759  ASP760  ASP761  ALA762  ILE779  LEU786  VAL792 
 PHE793  MET794  SER795  GLU796  ALA797  LYS798  CYS799  TRP800  GLU811  SER814 

> <Gold.Protein.RotatedAtoms>
  150.7028  134.4574  159.5364 H   0  0  0  0  0  0  0  0  0  0  0  0  # atno 6907 bound_to 6896
  152.2255  134.8369  160.0489 H   0  0  0  0  0  0  0  0  0  0  0  0  # atno 6908 bound_to 6896
  151.9204  133.3549  159.3932 H   0  0  0  0  0  0  0  0  0  0  0  0  # atno 6909 bound_to 6896
  145.5015  140.9547  143.1757 H   0  0  0  0  0  0  0  0  0  0  0  0  # atno 7974 bound_to 7965
  154.4421  140.1897  156.0788 H   0  0  0  0  0  0  0  0  0  0  0  0  # atno 8008 bound_to 7997
  156.0455  140.3315  155.7265 H   0  0  0  0  0  0  0  0  0  0  0  0  # atno 8009 bound_to 7997
  155.5636  140.0606  157.2814 H   0  0  0  0  0  0  0  0  0  0  0  0  # atno 8010 bound_to 7997
  140.3409  144.2471  150.6156 H   0  0  0  0  0  0  0  0  0  0  0  0  # atno 10167 bound_to 10162
  157.2780  131.0830  151.1552 H   0  0  0  0  0  0  0  0  0  0  0  0  # atno 10718 bound_to 10713
  154.1880  135.6432  153.5052 H   0  0  0  0  0  0  0  0  0  0  0  0  # atno 10763 bound_to 10752
  153.0042  135.5422  154.6445 H   0  0  0  0  0  0  0  0  0  0  0  0  # atno 10764 bound_to 10752
  154.5826  135.2926  155.0690 H   0  0  0  0  0  0  0  0  0  0  0  0  # atno 10765 bound_to 10752
  140.9031  133.7511  156.0570 H   0  0  0  0  0  0  0  0  0  0  0  0  # atno 11005 bound_to 11000
  144.7777  139.6593  143.7167 LP  0  0  0  0  0  0  0  0  0  0  0  0  # atno 17320 bound_to 7965
  146.2223  139.5658  142.9610 LP  0  0  0  0  0  0  0  0  0  0  0  0  # atno 17321 bound_to 7965
  140.5309  143.2243  151.8240 LP  0  0  0  0  0  0  0  0  0  0  0  0  # atno 17342 bound_to 10162
  139.4840  144.4721  151.9412 LP  0  0  0  0  0  0  0  0  0  0  0  0  # atno 17343 bound_to 10162
  157.2998  130.6837  149.6158 LP  0  0  0  0  0  0  0  0  0  0  0  0  # atno 17370 bound_to 10713
  155.9664  130.4395  150.5263 LP  0  0  0  0  0  0  0  0  0  0  0  0  # atno 17371 bound_to 10713
  140.8205  134.3294  157.5383 LP  0  0  0  0  0  0  0  0  0  0  0  0  # atno 17394 bound_to 11000
  139.8745  134.9306  156.3508 LP  0  0  0  0  0  0  0  0  0  0  0  0  # atno 17395 bound_to 11000

$$$$
