AV-unprocessed.smi:1862|AV-procd|sdf|7549|dock10
  -GOLD-   22720 9263D 1   1.00000     0.00000
 Structure written by MMmdl.
 40 41  0  0  0  0  0  0  0  0  1 V2000
  147.1141  128.2770  151.4853 C   0  0  0  0  0  0  0  0  0  0  0  0
  148.4582  128.2595  152.2344 C   0  0  0  0  0  0  0  0  0  0  0  0
  148.6167  129.3149  153.3641 C   0  0  0  0  0  0  0  0  0  0  0  0
  147.5013  129.1260  154.4153 C   0  0  0  0  0  0  0  0  0  0  0  0
  149.9740  129.1343  154.0719 C   0  0  0  0  0  0  0  0  0  0  0  0
  148.5865  130.6868  152.8388 N   0  0  0  0  0  0  0  0  0  0  0  0
  148.7101  131.8439  153.5143 C   0  0  0  0  0  0  0  0  0  0  0  0
  148.8662  131.9112  154.7339 O   0  0  0  0  0  0  0  0  0  0  0  0
  148.6317  133.1232  152.6746 C   0  0  0  0  0  0  0  0  0  0  0  0
  147.2281  133.3723  152.2010 C   0  0  0  0  0  0  0  0  0  0  0  0
  146.4576  132.5369  151.4293 C   0  0  0  0  0  0  0  0  0  0  0  0
  144.8863  133.2147  151.1013 S   0  0  0  0  0  0  0  0  0  0  0  0
  145.3381  134.6346  152.0493 C   0  0  0  0  0  0  0  0  0  0  0  0
  144.5265  135.7813  152.2971 N   0  0  0  0  0  0  0  0  0  0  0  0
  143.1607  135.6602  152.7976 C   0  0  0  0  0  0  0  0  0  0  0  0
  142.6851  137.1046  152.9172 C   0  0  0  0  0  0  0  0  0  0  0  0
  143.8429  137.8433  152.4715 N   0  0  0  0  0  0  0  0  0  0  0  0
  144.8761  137.0718  152.1255 C   0  0  0  0  0  0  0  0  0  0  0  0
  145.9528  137.5062  151.7210 O   0  0  0  0  0  0  0  0  0  0  0  0
  146.5743  134.5579  152.5533 N   0  0  0  0  0  0  0  0  0  0  0  0
  147.0941  127.4988  150.7222 H   0  0  0  0  0  0  0  0  0  0  0  0
  146.9433  129.2278  150.9815 H   0  0  0  0  0  0  0  0  0  0  0  0
  146.2743  128.0938  152.1555 H   0  0  0  0  0  0  0  0  0  0  0  0
  148.6061  127.2590  152.6414 H   0  0  0  0  0  0  0  0  0  0  0  0
  149.2613  128.3911  151.5083 H   0  0  0  0  0  0  0  0  0  0  0  0
  147.5687  128.1447  154.8865 H   0  0  0  0  0  0  0  0  0  0  0  0
  146.5057  129.2004  153.9777 H   0  0  0  0  0  0  0  0  0  0  0  0
  147.5687  129.8735  155.2067 H   0  0  0  0  0  0  0  0  0  0  0  0
  150.0852  128.1235  154.4655 H   0  0  0  0  0  0  0  0  0  0  0  0
  150.0778  129.8234  154.9112 H   0  0  0  0  0  0  0  0  0  0  0  0
  150.8127  129.3199  153.4008 H   0  0  0  0  0  0  0  0  0  0  0  0
  148.4557  130.7629  151.8406 H   0  0  0  0  0  0  0  0  0  0  0  0
  148.9874  133.9741  153.2572 H   0  0  0  0  0  0  0  0  0  0  0  0
  149.3142  133.0226  151.8299 H   0  0  0  0  0  0  0  0  0  0  0  0
  146.7210  131.5687  151.0303 H   0  0  0  0  0  0  0  0  0  0  0  0
  142.5429  135.0934  152.0993 H   0  0  0  0  0  0  0  0  0  0  0  0
  143.1477  135.1554  153.7647 H   0  0  0  0  0  0  0  0  0  0  0  0
  141.8279  137.3089  152.2748 H   0  0  0  0  0  0  0  0  0  0  0  0
  142.4318  137.3695  153.9444 H   0  0  0  0  0  0  0  0  0  0  0  0
  143.8582  138.8523  152.4320 H   0  0  0  0  0  0  0  0  0  0  0  0
  1  2  1  0  0  0  0
  1 21  1  0  0  0  0
  1 22  1  0  0  0  0
  1 23  1  0  0  0  0
  2  3  1  0  0  0  0
  2 24  1  0  0  0  0
  2 25  1  0  0  0  0
  3  4  1  0  0  0  0
  3  5  1  0  0  0  0
  3  6  1  0  0  0  0
  4 26  1  0  0  0  0
  4 27  1  0  0  0  0
  4 28  1  0  0  0  0
  5 29  1  0  0  0  0
  5 30  1  0  0  0  0
  5 31  1  0  0  0  0
  6  7  1  0  0  0  0
  6 32  1  0  0  0  0
  7  8  2  0  0  0  0
  7  9  1  0  0  0  0
  9 10  1  0  0  0  0
  9 33  1  0  0  0  0
  9 34  1  0  0  0  0
 10 20  1  0  0  0  0
 10 11  2  0  0  0  0
 11 12  1  0  0  0  0
 11 35  1  0  0  0  0
 12 13  1  0  0  0  0
 13 14  1  0  0  0  0
 13 20  2  0  0  0  0
 14 18  1  0  0  0  0
 14 15  1  0  0  0  0
 15 16  1  0  0  0  0
 15 36  1  0  0  0  0
 15 37  1  0  0  0  0
 16 17  1  0  0  0  0
 16 38  1  0  0  0  0
 16 39  1  0  0  0  0
 17 18  1  0  0  0  0
 17 40  1  0  0  0  0
 18 19  2  0  0  0  0
M  END
> <s_m_source_file>
AV-unprocessed.smi

> <i_m_source_file_index>
1862

> <i_lp_mmshare_version>
43012

> <i_f3d_flags>
0

> <s_epik_input>
W0NIM11bQ0gyXUMoW0NIM10pKFtDSDNdKVtOSF1DKD1PKVtDSDJdYzFbY0hdc2MobjEpTjJbQ0gyXVtDSDJdW05IXUMyPU8=

> <s_epik_cmdline>
J2VwaWtfcHl0aG9uJywgJy1waCcsICc3LjAnLCAnLXRuJywgJzgnLCAnLW1hJywgJzIwMCcsICctbWV0YWxfYmluZGluZycsICctaW1hZScsICc8aW5maWxlLm1hZT4nLCAnLW9tYWUnLCAnPG91dGZpbGUubWFlPic=

> <r_lp_tautomer_probability>
1

> <r_epik_Ionization_Penalty>
0.000124031

> <r_epik_Ionization_Penalty_Charging>
0

> <r_epik_Ionization_Penalty_Neutral>
0.000124031

> <r_epik_State_Penalty>
-0

> <r_epik_Charging_Adjusted_Penalty>
0

> <i_epik_Tot_Q>
0

> <i_epik_Tot_abs_Q>
0

> <r_epik_Metal_State_Penalty>
-0

> <b_epik_Metal_Only>
0

> <s_lp_Force_Field>
OPLS_2005

> <r_lp_Energy>
34.1106

> <b_lp_Chiralities_Consistent>
1

> <s_lp_Variant>
AV-unprocessed.smi:1862-1

> <Gold.Version>
5.8.1

> <Gold.Id.Protein>
6NUR|6NUR_protein|mol2

> <Gold.PLP.Fitness>
42.5541

> <Gold.PLP.PLP>
-35.6415

> <Gold.PLP.part.hbond>
-3.0000

> <Gold.PLP.part.metal>
0.0000

> <Gold.PLP.part.buried>
-3.7956

> <Gold.PLP.part.nonpolar>
-28.5958

> <Gold.PLP.part.repulsive>
0.6647

> <Gold.PLP.ligand.clash>
0.0000

> <Gold.PLP.ligand.torsion>
1.0383

> <Gold.PLP.Chemscore.Hbond>
2.0000

> <Gold.PLP.Chemscore.CHOScore>
0.9922

> <Gold.PLP.Chemscore.Metal>
0.0000

> <Gold.Chemscore.Hbonds>
donor molecule, donor type, donor heavy atom, donor atom, acceptor molecule, acceptor atom, score
      L1  H     6    32       P1 10747  1.00
      L1  H    17    40       P1 10175  1.00
      L1  C    11    35       P1 10747  0.93

> <Gold.PLP.Chemscore.Internal.Correction>
0.0127

> <Gold.Rescore>
     Score         DG    S(hbond)    S(metal)    S(lipo)     H(rot)  DE(clash)    DE(int)     intcor
     13.79     -15.51       1.96        0.00      67.31       1.72       0.02       1.69       ----

> <Gold.Chemscore.Fitness>
13.7913

> <Gold.Chemscore.DG>
-15.5067

> <Gold.Chemscore.ZeroCoef>
-5.4800

> <Gold.Chemscore.Hbond>
1.9647

> <Gold.Chemscore.Metal>
0.0000

> <Gold.Chemscore.Lipo>
67.3057

> <Gold.Chemscore.Internal_Hbond>
0.0000

> <Gold.Chemscore.DEClash>
0.0222

> <Gold.Chemscore.DEInternal>
1.6932

> <Gold.Chemscore.Rot>
1.7228

> <Gold.Chemscore.Internal.Correction>
   9.000000E+99

> <Gold.Chemscore.Hbonds>
donor molecule, donor type, donor heavy atom, donor atom, acceptor molecule, acceptor atom, score
      L1  H     6    32       P1 10747  0.93
      L1  H    17    40       P1 10175  0.98

> <Gold.Chemscore.Hbond.Weighted>
-6.5621

> <Gold.Chemscore.Metal.Weighted>
-0.0000

> <Gold.Chemscore.Lipo.Weighted>
-7.8748

> <Gold.Chemscore.Internal_Hbond.Weighted>
0.0000

> <Gold.Chemscore.DEClash.Weighted>
0.0222

> <Gold.Chemscore.DEInternal.Weighted>
1.6932

> <Gold.Chemscore.Rot.Weighted>
4.4103

> <Gold.Chemscore.Internal.Correction.Weighted>
   9.000000E+99

> <Gold.Protein.RotatedTorsions>
[ 6907 6896 6895 6894 ] final   91.57 input  -60.11 | X-H torsion
[ 7974 7965 7964 7962 ] final -109.24 input  175.53 | X-H torsion
[ 8008 7997 7996 7995 ] final  143.31 input   59.86 | X-H torsion
[ 10167 10162 10161 10158 ] final   71.17 input  -65.29 | X-H torsion
[ 10718 10713 10712 10709 ] final  -37.11 input   66.30 | X-H torsion
[ 10763 10752 10751 10750 ] final -138.71 input  -60.55 | X-H torsion
[ 11005 11000 10999 10996 ] final  -47.34 input  -57.11 | X-H torsion

> <Gold.Protein.ActiveResidues>
 VAL166  LYS551  ARG553  GLY616  TRP617  ASP618  TYR619  PRO620  LYS621  CYS622 
 ASP623  PHE694  ASN695  SER759  ASP760  ASP761  ALA762  ILE779  LEU786  VAL792 
 PHE793  MET794  SER795  GLU796  ALA797  LYS798  CYS799  TRP800  GLU811  SER814 

> <Gold.Protein.RotatedAtoms>
  152.5450  134.1636  159.8567 H   0  0  0  0  0  0  0  0  0  0  0  0  # atno 6907 bound_to 6896
  151.1652  133.4812  159.2601 H   0  0  0  0  0  0  0  0  0  0  0  0  # atno 6908 bound_to 6896
  151.1331  135.0152  159.8647 H   0  0  0  0  0  0  0  0  0  0  0  0  # atno 6909 bound_to 6896
  145.1830  140.8980  143.3469 H   0  0  0  0  0  0  0  0  0  0  0  0  # atno 7974 bound_to 7965
  156.2932  140.2265  156.4870 H   0  0  0  0  0  0  0  0  0  0  0  0  # atno 8008 bound_to 7997
  154.7803  140.0460  157.1143 H   0  0  0  0  0  0  0  0  0  0  0  0  # atno 8009 bound_to 7997
  154.9766  140.3073  155.4968 H   0  0  0  0  0  0  0  0  0  0  0  0  # atno 8010 bound_to 7997
  140.0490  144.5328  150.7378 H   0  0  0  0  0  0  0  0  0  0  0  0  # atno 10167 bound_to 10162
  156.3190  130.4263  149.7978 H   0  0  0  0  0  0  0  0  0  0  0  0  # atno 10718 bound_to 10713
  154.8629  135.3604  154.5428 H   0  0  0  0  0  0  0  0  0  0  0  0  # atno 10763 bound_to 10752
  153.6049  135.7011  153.5374 H   0  0  0  0  0  0  0  0  0  0  0  0  # atno 10764 bound_to 10752
  153.3259  135.4138  155.1416 H   0  0  0  0  0  0  0  0  0  0  0  0  # atno 10765 bound_to 10752
  141.0634  133.6701  156.3283 H   0  0  0  0  0  0  0  0  0  0  0  0  # atno 11005 bound_to 11000
  145.0117  139.3503  143.6116 LP  0  0  0  0  0  0  0  0  0  0  0  0  # atno 17320 bound_to 7965
  146.3450  139.9383  142.8744 LP  0  0  0  0  0  0  0  0  0  0  0  0  # atno 17321 bound_to 7965
  140.7226  143.2603  151.4229 LP  0  0  0  0  0  0  0  0  0  0  0  0  # atno 17342 bound_to 10162
  139.5965  144.1386  152.2150 LP  0  0  0  0  0  0  0  0  0  0  0  0  # atno 17343 bound_to 10162
  156.5293  130.8250  151.3231 LP  0  0  0  0  0  0  0  0  0  0  0  0  # atno 17370 bound_to 10713
  157.7407  130.9856  150.2399 LP  0  0  0  0  0  0  0  0  0  0  0  0  # atno 17371 bound_to 10713
  140.5822  134.5735  157.5482 LP  0  0  0  0  0  0  0  0  0  0  0  0  # atno 17394 bound_to 11000
  139.9454  134.7712  156.0575 LP  0  0  0  0  0  0  0  0  0  0  0  0  # atno 17395 bound_to 11000

$$$$
