AV-unprocessed.smi:1429|AV-procd|sdf|5819|dock7
  -GOLD-   22720 5473D 1   1.00000     0.00000
 Structure written by MMmdl.
 30 31  0  0  0  0  0  0  0  0  1 V2000
  146.7989  139.0020  152.3683 C   0  0  0  0  0  0  0  0  0  0  0  0
  147.7389  139.6454  153.3295 C   0  0  0  0  0  0  0  0  0  0  0  0
  148.7287  138.9777  153.9352 N   0  0  0  0  0  0  0  0  0  0  0  0
  149.4676  139.7893  154.7848 N   0  0  0  0  0  0  0  0  0  0  0  0
  149.0110  141.0493  154.7949 C   0  0  0  0  0  0  0  0  0  0  0  0
  149.5825  142.0900  155.5737 N   0  0  0  0  0  0  0  0  0  0  0  0
  150.7144  142.0626  156.2988 C   0  0  0  0  0  0  0  0  0  0  0  0
  151.4572  141.0885  156.4222 O   0  0  0  0  0  0  0  0  0  0  0  0
  150.9474  143.2491  156.8784 N   0  0  0  0  0  0  0  0  0  0  0  0
  152.1038  143.5733  157.7084 C   0  0  0  0  0  0  0  0  0  0  0  0
  151.7743  143.4696  159.2093 C   0  0  1  0  0  0  0  0  0  0  0  0
  152.7228  142.5805  159.9871 C   0  0  0  0  0  0  0  0  0  0  0  0
  152.4606  143.0172  161.4260 C   0  0  0  0  0  0  0  0  0  0  0  0
  152.0744  144.3871  161.3560 O   0  0  0  0  0  0  0  0  0  0  0  0
  151.8978  144.7750  159.9973 C   0  0  0  0  0  0  0  0  0  0  0  0
  147.6270  141.3482  153.7575 S   0  0  0  0  0  0  0  0  0  0  0  0
  147.0988  137.9734  152.1649 H   0  0  0  0  0  0  0  0  0  0  0  0
  146.7905  139.5548  151.4289 H   0  0  0  0  0  0  0  0  0  0  0  0
  145.7904  138.9971  152.7819 H   0  0  0  0  0  0  0  0  0  0  0  0
  149.0757  142.9627  155.5670 H   0  0  0  0  0  0  0  0  0  0  0  0
  150.2811  143.9915  156.7231 H   0  0  0  0  0  0  0  0  0  0  0  0
  152.8955  142.8657  157.4618 H   0  0  0  0  0  0  0  0  0  0  0  0
  152.4946  144.5631  157.4653 H   0  0  0  0  0  0  0  0  0  0  0  0
  150.7615  143.0810  159.3307 H   0  0  0  0  0  0  0  0  0  0  0  0
  152.5426  141.5171  159.8279 H   0  0  0  0  0  0  0  0  0  0  0  0
  153.7572  142.7959  159.7148 H   0  0  0  0  0  0  0  0  0  0  0  0
  151.6345  142.4470  161.8523 H   0  0  0  0  0  0  0  0  0  0  0  0
  153.3323  142.8808  162.0666 H   0  0  0  0  0  0  0  0  0  0  0  0
  152.7803  145.3340  159.6826 H   0  0  0  0  0  0  0  0  0  0  0  0
  151.0279  145.4215  159.8786 H   0  0  0  0  0  0  0  0  0  0  0  0
  1  2  1  0  0  0  0
  1 17  1  0  0  0  0
  1 18  1  0  0  0  0
  1 19  1  0  0  0  0
  2 16  1  0  0  0  0
  2  3  2  0  0  0  0
  3  4  1  0  0  0  0
  4  5  2  0  0  0  0
  5  6  1  0  0  0  0
  5 16  1  0  0  0  0
  6  7  1  0  0  0  0
  6 20  1  0  0  0  0
  7  8  2  0  0  0  0
  7  9  1  0  0  0  0
  9 10  1  0  0  0  0
  9 21  1  0  0  0  0
 10 11  1  0  0  0  0
 10 22  1  0  0  0  0
 10 23  1  0  0  0  0
 11 15  1  0  0  0  0
 11 12  1  0  0  0  0
 11 24  1  0  0  0  0
 12 13  1  0  0  0  0
 12 25  1  0  0  0  0
 12 26  1  0  0  0  0
 13 14  1  0  0  0  0
 13 27  1  0  0  0  0
 13 28  1  0  0  0  0
 14 15  1  0  0  0  0
 15 29  1  0  0  0  0
 15 30  1  0  0  0  0
M  END
> <s_m_source_file>
AV-unprocessed.smi

> <i_m_source_file_index>
1429

> <i_lp_mmshare_version>
43012

> <i_f3d_flags>
0

> <s_epik_input>
W0NIM11jMW5uYyhzMSlbTkhdQyg9TylbTkhdW0NIMl1bQ0BASF0yW0NIMl1bQ0gyXU9bQ0gyXTI=

> <s_epik_cmdline>
J2VwaWtfcHl0aG9uJywgJy1waCcsICc3LjAnLCAnLXRuJywgJzgnLCAnLW1hJywgJzIwMCcsICctbWV0YWxfYmluZGluZycsICctaW1hZScsICc8aW5maWxlLm1hZT4nLCAnLW9tYWUnLCAnPG91dGZpbGUubWFlPic=

> <r_lp_tautomer_probability>
1

> <r_epik_Ionization_Penalty>
0.000468089

> <r_epik_Ionization_Penalty_Charging>
0

> <r_epik_Ionization_Penalty_Neutral>
0.000468089

> <r_epik_State_Penalty>
-0

> <r_epik_Charging_Adjusted_Penalty>
0

> <i_epik_Tot_Q>
0

> <i_epik_Tot_abs_Q>
0

> <r_epik_Metal_State_Penalty>
0.211262

> <b_epik_Metal_Only>
0

> <s_lp_Force_Field>
OPLS_2005

> <r_lp_Energy>
17.5985

> <b_lp_Chiralities_Consistent>
1

> <s_lp_Variant>
AV-unprocessed.smi:1429-2

> <Gold.Version>
5.8.1

> <Gold.Id.Protein>
6NUR|6NUR_protein|mol2

> <Gold.PLP.Fitness>
39.1492

> <Gold.PLP.PLP>
-34.9758

> <Gold.PLP.part.hbond>
-2.0000

> <Gold.PLP.part.metal>
0.0000

> <Gold.PLP.part.buried>
-3.5304

> <Gold.PLP.part.nonpolar>
-29.6963

> <Gold.PLP.part.repulsive>
0.8628

> <Gold.PLP.ligand.clash>
0.0000

> <Gold.PLP.ligand.torsion>
0.9039

> <Gold.PLP.Chemscore.Hbond>
1.9920

> <Gold.PLP.Chemscore.CHOScore>
0.0000

> <Gold.PLP.Chemscore.Metal>
0.0000

> <Gold.Chemscore.Hbonds>
donor molecule, donor type, donor heavy atom, donor atom, acceptor molecule, acceptor atom, score
      L1  H     6    20       P1  8028  1.00
      L1  H     9    21       P1  8028  0.99

> <Gold.PLP.Chemscore.Internal.Correction>
0.0052

> <Gold.Rescore>
     Score         DG    S(hbond)    S(metal)    S(lipo)     H(rot)  DE(clash)    DE(int)     intcor
     15.06     -18.37       1.94        0.00      83.61       1.31       1.14       2.17       ----

> <Gold.Chemscore.Fitness>
15.0566

> <Gold.Chemscore.DG>
-18.3729

> <Gold.Chemscore.ZeroCoef>
-5.4800

> <Gold.Chemscore.Hbond>
1.9374

> <Gold.Chemscore.Metal>
0.0000

> <Gold.Chemscore.Lipo>
83.6079

> <Gold.Chemscore.Internal_Hbond>
0.0000

> <Gold.Chemscore.DEClash>
1.1433

> <Gold.Chemscore.DEInternal>
2.1731

> <Gold.Chemscore.Rot>
1.3125

> <Gold.Chemscore.Internal.Correction>
   9.000000E+99

> <Gold.Chemscore.Hbonds>
donor molecule, donor type, donor heavy atom, donor atom, acceptor molecule, acceptor atom, score
      L1  H     6    20       P1  8028  0.99
      L1  H     9    21       P1  8028  0.94

> <Gold.Chemscore.Hbond.Weighted>
-6.4708

> <Gold.Chemscore.Metal.Weighted>
-0.0000

> <Gold.Chemscore.Lipo.Weighted>
-9.7821

> <Gold.Chemscore.Internal_Hbond.Weighted>
0.0000

> <Gold.Chemscore.DEClash.Weighted>
1.1433

> <Gold.Chemscore.DEInternal.Weighted>
2.1731

> <Gold.Chemscore.Rot.Weighted>
3.3600

> <Gold.Chemscore.Internal.Correction.Weighted>
   9.000000E+99

> <Gold.Protein.RotatedTorsions>
[ 6907 6896 6895 6894 ] final   83.28 input  -60.11 | X-H torsion
[ 7974 7965 7964 7962 ] final  155.69 input  175.53 | X-H torsion
[ 8008 7997 7996 7995 ] final  -52.73 input   59.86 | X-H torsion
[ 10167 10162 10161 10158 ] final    7.55 input  -65.29 | X-H torsion
[ 10718 10713 10712 10709 ] final  142.97 input   66.30 | X-H torsion
[ 10763 10752 10751 10750 ] final  104.48 input  -60.55 | X-H torsion
[ 11005 11000 10999 10996 ] final  -79.39 input  -57.11 | X-H torsion

> <Gold.Protein.ActiveResidues>
 VAL166  LYS551  ARG553  GLY616  TRP617  ASP618  TYR619  PRO620  LYS621  CYS622 
 ASP623  PHE694  ASN695  SER759  ASP760  ASP761  ALA762  ILE779  LEU786  VAL792 
 PHE793  MET794  SER795  GLU796  ALA797  LYS798  CYS799  TRP800  GLU811  SER814 

> <Gold.Protein.RotatedAtoms>
  152.5323  134.2919  159.9046 H   0  0  0  0  0  0  0  0  0  0  0  0  # atno 6907 bound_to 6896
  151.2871  133.4176  159.2638 H   0  0  0  0  0  0  0  0  0  0  0  0  # atno 6908 bound_to 6896
  151.0233  134.9501  159.8128 H   0  0  0  0  0  0  0  0  0  0  0  0  # atno 6909 bound_to 6896
  144.8009  139.7102  143.6182 H   0  0  0  0  0  0  0  0  0  0  0  0  # atno 7974 bound_to 7965
  154.4114  140.1217  156.5039 H   0  0  0  0  0  0  0  0  0  0  0  0  # atno 8008 bound_to 7997
  155.6867  140.3495  155.4857 H   0  0  0  0  0  0  0  0  0  0  0  0  # atno 8009 bound_to 7997
  155.9505  140.1104  157.0971 H   0  0  0  0  0  0  0  0  0  0  0  0  # atno 8010 bound_to 7997
  140.6365  143.7873  150.7367 H   0  0  0  0  0  0  0  0  0  0  0  0  # atno 10167 bound_to 10162
  157.3744  131.0983  151.0798 H   0  0  0  0  0  0  0  0  0  0  0  0  # atno 10718 bound_to 10713
  153.3666  135.3941  155.1757 H   0  0  0  0  0  0  0  0  0  0  0  0  # atno 10763 bound_to 10752
  154.8688  135.3692  154.5032 H   0  0  0  0  0  0  0  0  0  0  0  0  # atno 10764 bound_to 10752
  153.5496  135.7083  153.5658 H   0  0  0  0  0  0  0  0  0  0  0  0  # atno 10765 bound_to 10752
  141.1667  133.7104  156.8116 H   0  0  0  0  0  0  0  0  0  0  0  0  # atno 11005 bound_to 11000
  146.2290  139.5777  142.9568 LP  0  0  0  0  0  0  0  0  0  0  0  0  # atno 17320 bound_to 7965
  145.5556  141.0409  143.2254 LP  0  0  0  0  0  0  0  0  0  0  0  0  # atno 17321 bound_to 7965
  140.1496  143.4370  152.2140 LP  0  0  0  0  0  0  0  0  0  0  0  0  # atno 17342 bound_to 10162
  139.5576  144.7383  151.4250 LP  0  0  0  0  0  0  0  0  0  0  0  0  # atno 17343 bound_to 10162
  157.1890  130.6343  149.5698 LP  0  0  0  0  0  0  0  0  0  0  0  0  # atno 17370 bound_to 10713
  155.9762  130.4728  150.6513 LP  0  0  0  0  0  0  0  0  0  0  0  0  # atno 17371 bound_to 10713
  140.2184  134.8776  157.3350 LP  0  0  0  0  0  0  0  0  0  0  0  0  # atno 17394 bound_to 11000
  140.2014  134.4250  155.7661 LP  0  0  0  0  0  0  0  0  0  0  0  0  # atno 17395 bound_to 11000

$$$$
