AV-unprocessed.smi:800|AV-procd|sdf|3787|dock1
  -GOLD-   22720 1223D 1   1.00000     0.00000
 Structure written by MMmdl.
 36 37  0  0  0  0  0  0  0  0  1 V2000
  150.8541  137.0841  155.1848 C   0  0  0  0  0  0  0  0  0  0  0  0
  151.5197  138.3346  154.5957 C   0  0  0  0  0  0  0  0  0  0  0  0
  152.9968  138.0838  154.2547 C   0  0  0  0  0  0  0  0  0  0  0  0
  151.3964  139.4393  155.5412 N   0  0  0  0  0  0  0  0  0  0  0  0
  152.1106  139.5851  156.6691 C   0  0  0  0  0  0  0  0  0  0  0  0
  152.9966  138.8058  157.0220 O   0  0  0  0  0  0  0  0  0  0  0  0
  151.8193  140.8252  157.4642 C   0  0  0  0  0  0  0  0  0  0  0  0
  152.5191  140.9800  158.6116 N   0  0  0  0  0  0  0  0  0  0  0  0
  152.2931  142.0662  159.3607 C   0  0  0  0  0  0  0  0  0  0  0  0
  153.0334  142.2044  160.5420 N   0  0  0  0  0  0  0  0  0  0  0  0
  154.2686  141.4523  160.7782 C   0  0  0  0  0  0  0  0  0  0  0  0
  154.4457  141.1468  162.2751 C   0  0  0  0  0  0  0  0  0  0  0  0
  154.3931  142.3550  163.0236 O   0  0  0  0  0  0  0  0  0  0  0  0
  153.1359  143.0037  162.8796 C   0  0  0  0  0  0  0  0  0  0  0  0
  152.9100  143.3812  161.4059 C   0  0  0  0  0  0  0  0  0  0  0  0
  151.4099  143.0273  159.0636 N   0  0  0  0  0  0  0  0  0  0  0  0
  150.6892  142.8902  157.9315 C   0  0  0  0  0  0  0  0  0  0  0  0
  150.8492  141.7848  157.0737 C   0  0  0  0  0  0  0  0  0  0  0  0
  149.8620  141.6448  155.6585 Cl  0  0  0  0  0  0  0  0  0  0  0  0
  150.9098  136.2460  154.4895 H   0  0  0  0  0  0  0  0  0  0  0  0
  149.7998  137.2639  155.3981 H   0  0  0  0  0  0  0  0  0  0  0  0
  151.3352  136.7772  156.1143 H   0  0  0  0  0  0  0  0  0  0  0  0
  150.9891  138.5919  153.6773 H   0  0  0  0  0  0  0  0  0  0  0  0
  153.0996  137.2653  153.5420 H   0  0  0  0  0  0  0  0  0  0  0  0
  153.5716  137.8247  155.1446 H   0  0  0  0  0  0  0  0  0  0  0  0
  153.4562  138.9660  153.8076 H   0  0  0  0  0  0  0  0  0  0  0  0
  150.7066  140.1457  155.3289 H   0  0  0  0  0  0  0  0  0  0  0  0
  154.2871  140.5085  160.2342 H   0  0  0  0  0  0  0  0  0  0  0  0
  155.1103  142.0425  160.4147 H   0  0  0  0  0  0  0  0  0  0  0  0
  153.6774  140.4547  162.6239 H   0  0  0  0  0  0  0  0  0  0  0  0
  155.4084  140.6656  162.4475 H   0  0  0  0  0  0  0  0  0  0  0  0
  152.3353  142.3571  163.2427 H   0  0  0  0  0  0  0  0  0  0  0  0
  153.1266  143.8989  163.5012 H   0  0  0  0  0  0  0  0  0  0  0  0
  153.6465  144.1218  161.0926 H   0  0  0  0  0  0  0  0  0  0  0  0
  151.9318  143.8533  161.3215 H   0  0  0  0  0  0  0  0  0  0  0  0
  149.9714  143.6671  157.7133 H   0  0  0  0  0  0  0  0  0  0  0  0
  1  2  1  0  0  0  0
  1 20  1  0  0  0  0
  1 21  1  0  0  0  0
  1 22  1  0  0  0  0
  2  3  1  0  0  0  0
  2  4  1  0  0  0  0
  2 23  1  0  0  0  0
  3 24  1  0  0  0  0
  3 25  1  0  0  0  0
  3 26  1  0  0  0  0
  4  5  1  0  0  0  0
  4 27  1  0  0  0  0
  5  6  2  0  0  0  0
  5  7  1  0  0  0  0
  7 18  1  0  0  0  0
  7  8  2  0  0  0  0
  8  9  1  0  0  0  0
  9 10  1  0  0  0  0
  9 16  2  0  0  0  0
 10 15  1  0  0  0  0
 10 11  1  0  0  0  0
 11 12  1  0  0  0  0
 11 28  1  0  0  0  0
 11 29  1  0  0  0  0
 12 13  1  0  0  0  0
 12 30  1  0  0  0  0
 12 31  1  0  0  0  0
 13 14  1  0  0  0  0
 14 15  1  0  0  0  0
 14 32  1  0  0  0  0
 14 33  1  0  0  0  0
 15 34  1  0  0  0  0
 15 35  1  0  0  0  0
 16 17  1  0  0  0  0
 17 18  2  0  0  0  0
 17 36  1  0  0  0  0
 18 19  1  0  0  0  0
M  END
> <s_m_source_file>
AV-unprocessed.smi

> <i_m_source_file_index>
800

> <i_lp_mmshare_version>
43012

> <i_f3d_flags>
0

> <s_epik_input>
W0NIM11bQ0hdKFtDSDNdKVtOSF1DKD1PKWMxbmMobltjSF1jMUNsKU4yW0NIMl1bQ0gyXU9bQ0gyXVtDSDJdMg==

> <s_epik_cmdline>
J2VwaWtfcHl0aG9uJywgJy1waCcsICc3LjAnLCAnLXRuJywgJzgnLCAnLW1hJywgJzIwMCcsICctbWV0YWxfYmluZGluZycsICctaW1hZScsICc8aW5maWxlLm1hZT4nLCAnLW9tYWUnLCAnPG91dGZpbGUubWFlPic=

> <r_lp_tautomer_probability>
1

> <r_epik_Ionization_Penalty>
1.24434e-05

> <r_epik_Ionization_Penalty_Charging>
0

> <r_epik_Ionization_Penalty_Neutral>
1.24434e-05

> <r_epik_State_Penalty>
-0

> <r_epik_Charging_Adjusted_Penalty>
0

> <i_epik_Tot_Q>
0

> <i_epik_Tot_abs_Q>
0

> <r_epik_Metal_State_Penalty>
0.0120585

> <b_epik_Metal_Only>
0

> <s_lp_Force_Field>
OPLS_2005

> <r_lp_Energy>
14.0321

> <b_lp_Chiralities_Consistent>
1

> <s_lp_Variant>
AV-unprocessed.smi:800-1

> <Gold.Version>
5.8.1

> <Gold.Id.Protein>
6NUR|6NUR_protein|mol2

> <Gold.PLP.Fitness>
45.1914

> <Gold.PLP.PLP>
-39.5406

> <Gold.PLP.part.hbond>
-2.0000

> <Gold.PLP.part.metal>
0.0000

> <Gold.PLP.part.buried>
-1.1446

> <Gold.PLP.part.nonpolar>
-33.5263

> <Gold.PLP.part.repulsive>
0.1893

> <Gold.PLP.ligand.clash>
0.0000

> <Gold.PLP.ligand.torsion>
0.2363

> <Gold.PLP.Chemscore.Hbond>
1.0000

> <Gold.PLP.Chemscore.CHOScore>
1.0000

> <Gold.PLP.Chemscore.Metal>
0.0000

> <Gold.Chemscore.Hbonds>
donor molecule, donor type, donor heavy atom, donor atom, acceptor molecule, acceptor atom, score
      P1  H  7997  8009       L1     6  0.90
      L1  C    17    36       P1  8028  1.00

> <Gold.PLP.Chemscore.Internal.Correction>
0.1234

> <Gold.Rescore>
     Score         DG    S(hbond)    S(metal)    S(lipo)     H(rot)  DE(clash)    DE(int)     intcor
     12.84     -17.05       0.99        0.00      92.65       1.00       1.30       2.91       ----

> <Gold.Chemscore.Fitness>
12.8414

> <Gold.Chemscore.DG>
-17.0530

> <Gold.Chemscore.ZeroCoef>
-5.4800

> <Gold.Chemscore.Hbond>
0.9858

> <Gold.Chemscore.Metal>
0.0000

> <Gold.Chemscore.Lipo>
92.6531

> <Gold.Chemscore.Internal_Hbond>
0.0000

> <Gold.Chemscore.DEClash>
1.3037

> <Gold.Chemscore.DEInternal>
2.9079

> <Gold.Chemscore.Rot>
1.0000

> <Gold.Chemscore.Internal.Correction>
   9.000000E+99

> <Gold.Chemscore.Hbonds>
donor molecule, donor type, donor heavy atom, donor atom, acceptor molecule, acceptor atom, score
      P1  H  7997  8009       L1     6  0.17

> <Gold.Chemscore.Hbond.Weighted>
-3.2926

> <Gold.Chemscore.Metal.Weighted>
-0.0000

> <Gold.Chemscore.Lipo.Weighted>
-10.8404

> <Gold.Chemscore.Internal_Hbond.Weighted>
0.0000

> <Gold.Chemscore.DEClash.Weighted>
1.3037

> <Gold.Chemscore.DEInternal.Weighted>
2.9079

> <Gold.Chemscore.Rot.Weighted>
2.5600

> <Gold.Chemscore.Internal.Correction.Weighted>
   9.000000E+99

> <Gold.Protein.RotatedTorsions>
[ 6907 6896 6895 6894 ] final   68.41 input  -60.11 | X-H torsion
[ 7974 7965 7964 7962 ] final -127.09 input  175.53 | X-H torsion
[ 8008 7997 7996 7995 ] final  162.03 input   59.86 | X-H torsion
[ 10167 10162 10161 10158 ] final  -81.41 input  -65.29 | X-H torsion
[ 10718 10713 10712 10709 ] final  141.48 input   66.30 | X-H torsion
[ 10763 10752 10751 10750 ] final  -88.43 input  -60.55 | X-H torsion
[ 11005 11000 10999 10996 ] final -105.66 input  -57.11 | X-H torsion

> <Gold.Protein.ActiveResidues>
 VAL166  LYS551  ARG553  GLY616  TRP617  ASP618  TYR619  PRO620  LYS621  CYS622 
 ASP623  PHE694  ASN695  SER759  ASP760  ASP761  ALA762  ILE779  LEU786  VAL792 
 PHE793  MET794  SER795  GLU796  ALA797  LYS798  CYS799  TRP800  GLU811  SER814 

> <Gold.Protein.RotatedAtoms>
  152.4618  134.5166  159.9769 H   0  0  0  0  0  0  0  0  0  0  0  0  # atno 6907 bound_to 6896
  151.5213  133.3460  159.2910 H   0  0  0  0  0  0  0  0  0  0  0  0  # atno 6908 bound_to 6896
  150.8585  134.7959  159.7126 H   0  0  0  0  0  0  0  0  0  0  0  0  # atno 6909 bound_to 6896
  144.9806  140.7637  143.4614 H   0  0  0  0  0  0  0  0  0  0  0  0  # atno 7974 bound_to 7965
  156.2060  140.1761  156.7798 H   0  0  0  0  0  0  0  0  0  0  0  0  # atno 8008 bound_to 7997
  154.5656  140.0691  156.8917 H   0  0  0  0  0  0  0  0  0  0  0  0  # atno 8009 bound_to 7997
  155.2767  140.3346  155.4263 H   0  0  0  0  0  0  0  0  0  0  0  0  # atno 8010 bound_to 7997
  140.4415  143.2513  151.8619 H   0  0  0  0  0  0  0  0  0  0  0  0  # atno 10167 bound_to 10162
  157.3915  131.1005  151.0642 H   0  0  0  0  0  0  0  0  0  0  0  0  # atno 10718 bound_to 10713
  154.6444  135.5377  153.7827 H   0  0  0  0  0  0  0  0  0  0  0  0  # atno 10763 bound_to 10752
  153.0351  135.6467  154.1111 H   0  0  0  0  0  0  0  0  0  0  0  0  # atno 10764 bound_to 10752
  154.1033  135.2931  155.3227 H   0  0  0  0  0  0  0  0  0  0  0  0  # atno 10765 bound_to 10752
  141.1042  133.8827  157.1762 H   0  0  0  0  0  0  0  0  0  0  0  0  # atno 11005 bound_to 11000
  145.2426  139.2066  143.4985 LP  0  0  0  0  0  0  0  0  0  0  0  0  # atno 17320 bound_to 7965
  146.3407  140.2324  142.8593 LP  0  0  0  0  0  0  0  0  0  0  0  0  # atno 17321 bound_to 7965
  139.4790  144.5224  151.8783 LP  0  0  0  0  0  0  0  0  0  0  0  0  # atno 17342 bound_to 10162
  140.4313  144.2111  150.5888 LP  0  0  0  0  0  0  0  0  0  0  0  0  # atno 17343 bound_to 10162
  157.1674  130.6252  149.5629 LP  0  0  0  0  0  0  0  0  0  0  0  0  # atno 17370 bound_to 10713
  155.9799  130.4797  150.6745 LP  0  0  0  0  0  0  0  0  0  0  0  0  # atno 17371 bound_to 10713
  139.9906  135.0066  156.9965 LP  0  0  0  0  0  0  0  0  0  0  0  0  # atno 17394 bound_to 11000
  140.4944  134.1161  155.7238 LP  0  0  0  0  0  0  0  0  0  0  0  0  # atno 17395 bound_to 11000

$$$$
