AV-unprocessed.smi:336|AV-procd|sdf|2371|dock10
  -GOLD-   2262022293D 1   1.00000     0.00000
 Structure written by MMmdl.
 34 36  0  0  0  0  0  0  0  0  1 V2000
  150.8475  141.0619  157.3404 O   0  0  0  0  0  0  0  0  0  0  0  0
  150.2427  142.0285  156.8772 C   0  0  0  0  0  0  0  0  0  0  0  0
  150.2831  143.2774  157.3729 N   0  0  0  0  0  0  0  0  0  0  0  0
  150.9782  143.7524  158.5181 C   0  0  0  0  0  0  0  0  0  0  0  0
  151.7463  142.9331  159.3807 C   0  0  0  0  0  0  0  0  0  0  0  0
  152.3747  143.5211  160.4955 C   0  0  0  0  0  0  0  0  0  0  0  0
  152.2066  144.9026  160.7116 C   0  0  0  0  0  0  0  0  0  0  0  0
  151.4655  145.6925  159.9065 N   0  0  0  0  0  0  0  0  0  0  0  0
  150.8652  145.1217  158.8402 C   0  0  0  0  0  0  0  0  0  0  0  0
  149.4648  141.9678  155.7853 N   0  0  0  0  0  0  0  0  0  0  0  0
  149.1892  140.7840  154.9721 C   0  0  0  0  0  0  0  0  0  0  0  0
  150.4395  140.0665  154.4847 C   0  0  0  0  0  0  0  0  0  0  0  0
  150.4161  138.5948  154.1459 C   0  0  0  0  0  0  0  0  0  0  0  0
  151.1691  139.0805  155.3643 C   0  0  0  0  0  0  0  0  0  0  0  0
  148.2284  141.0404  153.8203 C   0  0  0  0  0  0  0  0  0  0  0  0
  147.0518  141.9734  153.9768 C   0  0  0  0  0  0  0  0  0  0  0  0
  146.8235  140.4852  153.8343 C   0  0  0  0  0  0  0  0  0  0  0  0
  149.8033  143.9841  156.8350 H   0  0  0  0  0  0  0  0  0  0  0  0
  151.8542  141.8717  159.2208 H   0  0  0  0  0  0  0  0  0  0  0  0
  152.9684  142.9249  161.1726 H   0  0  0  0  0  0  0  0  0  0  0  0
  152.6752  145.3844  161.5570 H   0  0  0  0  0  0  0  0  0  0  0  0
  150.2784  145.7838  158.2202 H   0  0  0  0  0  0  0  0  0  0  0  0
  149.0193  142.8227  155.4856 H   0  0  0  0  0  0  0  0  0  0  0  0
  148.6835  140.0997  155.6548 H   0  0  0  0  0  0  0  0  0  0  0  0
  151.0698  140.6768  153.8407 H   0  0  0  0  0  0  0  0  0  0  0  0
  149.4934  138.0441  154.3167 H   0  0  0  0  0  0  0  0  0  0  0  0
  151.0009  138.2696  153.2880 H   0  0  0  0  0  0  0  0  0  0  0  0
  152.2562  139.0778  155.3192 H   0  0  0  0  0  0  0  0  0  0  0  0
  150.7421  138.8593  156.3405 H   0  0  0  0  0  0  0  0  0  0  0  0
  148.7100  141.0505  152.8443 H   0  0  0  0  0  0  0  0  0  0  0  0
  146.8825  142.4161  154.9562 H   0  0  0  0  0  0  0  0  0  0  0  0
  146.7973  142.6055  153.1287 H   0  0  0  0  0  0  0  0  0  0  0  0
  146.4175  140.1253  152.8910 H   0  0  0  0  0  0  0  0  0  0  0  0
  146.4969  139.9427  154.7193 H   0  0  0  0  0  0  0  0  0  0  0  0
  1  2  2  0  0  0  0
  2  3  1  0  0  0  0
  2 10  1  0  0  0  0
  3  4  1  0  0  0  0
  3 18  1  0  0  0  0
  4  9  1  0  0  0  0
  4  5  2  0  0  0  0
  5  6  1  0  0  0  0
  5 19  1  0  0  0  0
  6  7  2  0  0  0  0
  6 20  1  0  0  0  0
  7  8  1  0  0  0  0
  7 21  1  0  0  0  0
  8  9  2  0  0  0  0
  9 22  1  0  0  0  0
 10 11  1  0  0  0  0
 10 23  1  0  0  0  0
 11 12  1  0  0  0  0
 11 15  1  0  0  0  0
 11 24  1  0  0  0  0
 12 14  1  0  0  0  0
 12 13  1  0  0  0  0
 12 25  1  0  0  0  0
 13 14  1  0  0  0  0
 13 26  1  0  0  0  0
 13 27  1  0  0  0  0
 14 28  1  0  0  0  0
 14 29  1  0  0  0  0
 15 17  1  0  0  0  0
 15 16  1  0  0  0  0
 15 30  1  0  0  0  0
 16 17  1  0  0  0  0
 16 31  1  0  0  0  0
 16 32  1  0  0  0  0
 17 33  1  0  0  0  0
 17 34  1  0  0  0  0
M  END
> <s_m_source_file>
AV-unprocessed.smi

> <i_m_source_file_index>
336

> <i_lp_mmshare_version>
43012

> <i_f3d_flags>
0

> <s_epik_input>
W0NIMl0xW0NIMl1bQ0hdMVtDSF0oW0NIXTJbQ0gyXVtDSDJdMilbTkhdQyg9TylbTkhdYzNbY0hdW2NIXVtjSF1uW2NIXTM=

> <s_epik_cmdline>
J2VwaWtfcHl0aG9uJywgJy1waCcsICc3LjAnLCAnLXRuJywgJzgnLCAnLW1hJywgJzIwMCcsICctbWV0YWxfYmluZGluZycsICctaW1hZScsICc8aW5maWxlLm1hZT4nLCAnLW9tYWUnLCAnPG91dGZpbGUubWFlPic=

> <r_epik_Ionization_Penalty>
0.00498677

> <r_epik_Ionization_Penalty_Charging>
0

> <r_epik_Ionization_Penalty_Neutral>
0.00498677

> <r_epik_State_Penalty>
0.00359262

> <r_epik_Charging_Adjusted_Penalty>
0.00359262

> <i_epik_Tot_Q>
0

> <i_epik_Tot_abs_Q>
0

> <r_epik_Metal_State_Penalty>
-0

> <b_epik_Metal_Only>
0

> <s_lp_Force_Field>
OPLS_2005

> <r_lp_Energy>
27.0567

> <b_lp_Chiralities_Consistent>
1

> <s_lp_Variant>
AV-unprocessed.smi:336-1

> <Gold.Version>
5.8.1

> <Gold.Id.Protein>
6NUR|6NUR_protein|mol2

> <Gold.PLP.Fitness>
45.6326

> <Gold.PLP.PLP>
-37.4211

> <Gold.PLP.part.hbond>
-2.5061

> <Gold.PLP.part.metal>
0.0000

> <Gold.PLP.part.buried>
-2.6905

> <Gold.PLP.part.nonpolar>
-33.3865

> <Gold.PLP.part.repulsive>
0.3485

> <Gold.PLP.ligand.clash>
0.0000

> <Gold.PLP.ligand.torsion>
1.4318

> <Gold.PLP.Chemscore.Hbond>
1.9760

> <Gold.PLP.Chemscore.CHOScore>
0.9942

> <Gold.PLP.Chemscore.Metal>
0.0000

> <Gold.Chemscore.Hbonds>
donor molecule, donor type, donor heavy atom, donor atom, acceptor molecule, acceptor atom, score
      L1  H     3    18       P1  8028  1.00
      L1  H    10    23       P1  8028  0.98
      L1  C     9    22       P1  8029  0.97

> <Gold.PLP.Chemscore.Internal.Correction>
2.1647

> <Gold.Rescore>
     Score         DG    S(hbond)    S(metal)    S(lipo)     H(rot)  DE(clash)    DE(int)     intcor
     14.69     -21.11       1.93        0.00     107.40       1.33       1.69       4.73       ----

> <Gold.Chemscore.Fitness>
14.6880

> <Gold.Chemscore.DG>
-21.1054

> <Gold.Chemscore.ZeroCoef>
-5.4800

> <Gold.Chemscore.Hbond>
1.9318

> <Gold.Chemscore.Metal>
0.0000

> <Gold.Chemscore.Lipo>
107.4030

> <Gold.Chemscore.Internal_Hbond>
0.0000

> <Gold.Chemscore.DEClash>
1.6875

> <Gold.Chemscore.DEInternal>
4.7299

> <Gold.Chemscore.Rot>
1.3253

> <Gold.Chemscore.Internal.Correction>
   9.000000E+99

> <Gold.Chemscore.Hbonds>
donor molecule, donor type, donor heavy atom, donor atom, acceptor molecule, acceptor atom, score
      L1  H     3    18       P1  8028  0.95
      L1  H    10    23       P1  8028  0.93

> <Gold.Chemscore.Hbond.Weighted>
-6.4521

> <Gold.Chemscore.Metal.Weighted>
-0.0000

> <Gold.Chemscore.Lipo.Weighted>
-12.5662

> <Gold.Chemscore.Internal_Hbond.Weighted>
0.0000

> <Gold.Chemscore.DEClash.Weighted>
1.6875

> <Gold.Chemscore.DEInternal.Weighted>
4.7299

> <Gold.Chemscore.Rot.Weighted>
3.3928

> <Gold.Chemscore.Internal.Correction.Weighted>
   9.000000E+99

> <Gold.Protein.RotatedTorsions>
[ 6907 6896 6895 6894 ] final -109.56 input  -60.11 | X-H torsion
[ 7974 7965 7964 7962 ] final  -49.84 input  175.53 | X-H torsion
[ 8008 7997 7996 7995 ] final -125.53 input   59.86 | X-H torsion
[ 10167 10162 10161 10158 ] final   49.93 input  -65.29 | X-H torsion
[ 10718 10713 10712 10709 ] final -110.52 input   66.30 | X-H torsion
[ 10763 10752 10751 10750 ] final -102.78 input  -60.55 | X-H torsion
[ 11005 11000 10999 10996 ] final   31.89 input  -57.11 | X-H torsion

> <Gold.Protein.ActiveResidues>
 VAL166  LYS551  ARG553  GLY616  TRP617  ASP618  TYR619  PRO620  LYS621  CYS622 
 ASP623  PHE694  ASN695  SER759  ASP760  ASP761  ALA762  ILE779  LEU786  VAL792 
 PHE793  MET794  SER795  GLU796  ALA797  LYS798  CYS799  TRP800  GLU811  SER814 

> <Gold.Protein.RotatedAtoms>
  150.7570  133.9511  159.3485 H   0  0  0  0  0  0  0  0  0  0  0  0  # atno 6907 bound_to 6896
  151.7428  135.0848  160.0328 H   0  0  0  0  0  0  0  0  0  0  0  0  # atno 6908 bound_to 6896
  152.3517  133.6150  159.5986 H   0  0  0  0  0  0  0  0  0  0  0  0  # atno 6909 bound_to 6896
  145.9362  140.7704  142.9575 H   0  0  0  0  0  0  0  0  0  0  0  0  # atno 7974 bound_to 7965
  155.2147  140.0420  157.2939 H   0  0  0  0  0  0  0  0  0  0  0  0  # atno 8008 bound_to 7997
  154.5988  140.2446  155.7791 H   0  0  0  0  0  0  0  0  0  0  0  0  # atno 8009 bound_to 7997
  156.2308  140.2939  156.0192 H   0  0  0  0  0  0  0  0  0  0  0  0  # atno 8010 bound_to 7997
  140.2777  144.3192  150.6272 H   0  0  0  0  0  0  0  0  0  0  0  0  # atno 10167 bound_to 10162
  156.0595  130.5819  150.8248 H   0  0  0  0  0  0  0  0  0  0  0  0  # atno 10718 bound_to 10713
  154.7759  135.4848  153.9743 H   0  0  0  0  0  0  0  0  0  0  0  0  # atno 10763 bound_to 10752
  153.1428  135.6776  153.9008 H   0  0  0  0  0  0  0  0  0  0  0  0  # atno 10764 bound_to 10752
  153.8677  135.3147  155.3419 H   0  0  0  0  0  0  0  0  0  0  0  0  # atno 10765 bound_to 10752
  140.2792  134.2992  155.7805 H   0  0  0  0  0  0  0  0  0  0  0  0  # atno 11005 bound_to 11000
  144.6772  140.2207  143.7367 LP  0  0  0  0  0  0  0  0  0  0  0  0  # atno 17320 bound_to 7965
  145.8360  139.2108  143.1855 LP  0  0  0  0  0  0  0  0  0  0  0  0  # atno 17321 bound_to 7965
  140.5837  143.2171  151.7381 LP  0  0  0  0  0  0  0  0  0  0  0  0  # atno 17342 bound_to 10162
  139.4971  144.4042  152.0149 LP  0  0  0  0  0  0  0  0  0  0  0  0  # atno 17343 bound_to 10162
  157.5593  131.0945  150.9583 LP  0  0  0  0  0  0  0  0  0  0  0  0  # atno 17370 bound_to 10713
  156.9825  130.5532  149.5297 LP  0  0  0  0  0  0  0  0  0  0  0  0  # atno 17371 bound_to 10713
  141.2165  133.7515  156.9454 LP  0  0  0  0  0  0  0  0  0  0  0  0  # atno 17394 bound_to 11000
  140.1299  134.9362  157.2323 LP  0  0  0  0  0  0  0  0  0  0  0  0  # atno 17395 bound_to 11000

$$$$
