AV-unprocessed.smi:1608|AV-procd|sdf|6468|dock3
  -GOLD-   22720 7123D 1   1.00000     0.00000
 Structure written by MMmdl.
 42 43  0  0  0  0  0  0  0  0  1 V2000
  146.2028  131.8881  148.9496 C   0  0  0  0  0  0  0  0  0  0  0  0
  145.4717  132.6527  149.9631 N   0  0  0  0  0  0  0  0  0  0  0  0
  146.2208  133.4353  150.8616 C   0  0  0  0  0  0  0  0  0  0  0  0
  145.6510  134.1662  151.8369 C   0  0  0  0  0  0  0  0  0  0  0  0
  146.4923  134.9074  152.6783 N   0  0  0  0  0  0  0  0  0  0  0  0
  146.2334  135.4167  153.8966 C   0  0  0  0  0  0  0  0  0  0  0  0
  145.1861  135.2802  154.5281 O   0  0  0  0  0  0  0  0  0  0  0  0
  147.2905  136.0952  154.3662 N   0  0  0  0  0  0  0  0  0  0  0  0
  147.3613  136.7502  155.6689 C   0  0  1  0  0  0  0  0  0  0  0  0
  146.3075  137.8652  155.7733 C   0  0  0  0  0  0  0  0  0  0  0  0
  146.3583  138.4996  157.1676 C   0  0  0  0  0  0  0  0  0  0  0  0
  146.1779  137.4413  158.2696 C   0  0  0  0  0  0  0  0  0  0  0  0
  147.1405  136.3307  158.1221 N   0  0  0  0  0  0  0  0  0  0  0  0
  148.5550  136.2660  159.1340 S   0  0  0  0  0  0  0  0  0  0  0  0
  149.7131  137.4742  158.3703 C   0  0  0  0  0  0  0  0  0  0  0  0
  148.1787  136.7700  160.4635 O   0  0  0  0  0  0  0  0  0  0  0  0
  149.1409  134.9232  159.0030 O   0  0  0  0  0  0  0  0  0  0  0  0
  147.1601  135.7054  156.7844 C   0  0  0  0  0  0  0  0  0  0  0  0
  144.1977  134.1358  151.9169 C   0  0  0  0  0  0  0  0  0  0  0  0
  143.4745  133.3917  151.0570 C   0  0  0  0  0  0  0  0  0  0  0  0
  144.1102  132.5859  150.0116 C   0  0  0  0  0  0  0  0  0  0  0  0
  143.4601  131.8962  149.2259 O   0  0  0  0  0  0  0  0  0  0  0  0
  147.2843  131.9956  149.0384 H   0  0  0  0  0  0  0  0  0  0  0  0
  145.9232  132.2173  147.9480 H   0  0  0  0  0  0  0  0  0  0  0  0
  145.9759  130.8242  149.0332 H   0  0  0  0  0  0  0  0  0  0  0  0
  147.2905  133.3959  150.7127 H   0  0  0  0  0  0  0  0  0  0  0  0
  147.4201  135.0670  152.3143 H   0  0  0  0  0  0  0  0  0  0  0  0
  148.1116  136.1579  153.7825 H   0  0  0  0  0  0  0  0  0  0  0  0
  148.3516  137.1913  155.7831 H   0  0  0  0  0  0  0  0  0  0  0  0
  146.4807  138.6285  155.0139 H   0  0  0  0  0  0  0  0  0  0  0  0
  145.3117  137.4594  155.5895 H   0  0  0  0  0  0  0  0  0  0  0  0
  147.3062  139.0202  157.2975 H   0  0  0  0  0  0  0  0  0  0  0  0
  145.5812  139.2590  157.2565 H   0  0  0  0  0  0  0  0  0  0  0  0
  146.2720  137.8986  159.2543 H   0  0  0  0  0  0  0  0  0  0  0  0
  145.1691  137.0304  158.2173 H   0  0  0  0  0  0  0  0  0  0  0  0
  150.6304  137.5069  158.9575 H   0  0  0  0  0  0  0  0  0  0  0  0
  149.2641  138.4659  158.3631 H   0  0  0  0  0  0  0  0  0  0  0  0
  149.9564  137.1665  157.3550 H   0  0  0  0  0  0  0  0  0  0  0  0
  146.2122  135.1856  156.6383 H   0  0  0  0  0  0  0  0  0  0  0  0
  147.9375  134.9428  156.7375 H   0  0  0  0  0  0  0  0  0  0  0  0
  143.6585  134.7168  152.6472 H   0  0  0  0  0  0  0  0  0  0  0  0
  142.3971  133.3938  151.1343 H   0  0  0  0  0  0  0  0  0  0  0  0
  1  2  1  0  0  0  0
  1 23  1  0  0  0  0
  1 24  1  0  0  0  0
  1 25  1  0  0  0  0
  2 21  1  0  0  0  0
  2  3  1  0  0  0  0
  3  4  2  0  0  0  0
  3 26  1  0  0  0  0
  4  5  1  0  0  0  0
  4 19  1  0  0  0  0
  5  6  1  0  0  0  0
  5 27  1  0  0  0  0
  6  7  2  0  0  0  0
  6  8  1  0  0  0  0
  8  9  1  0  0  0  0
  8 28  1  0  0  0  0
  9 18  1  0  0  0  0
  9 10  1  0  0  0  0
  9 29  1  0  0  0  0
 10 11  1  0  0  0  0
 10 30  1  0  0  0  0
 10 31  1  0  0  0  0
 11 12  1  0  0  0  0
 11 32  1  0  0  0  0
 11 33  1  0  0  0  0
 12 13  1  0  0  0  0
 12 34  1  0  0  0  0
 12 35  1  0  0  0  0
 13 14  1  0  0  0  0
 13 18  1  0  0  0  0
 14 15  1  0  0  0  0
 14 16  2  0  0  0  0
 14 17  2  0  0  0  0
 15 36  1  0  0  0  0
 15 37  1  0  0  0  0
 15 38  1  0  0  0  0
 18 39  1  0  0  0  0
 18 40  1  0  0  0  0
 19 20  2  0  0  0  0
 19 41  1  0  0  0  0
 20 21  1  0  0  0  0
 20 42  1  0  0  0  0
 21 22  2  0  0  0  0
M  END
> <s_m_source_file>
AV-unprocessed.smi

> <i_m_source_file_index>
1608

> <i_lp_mmshare_version>
43012

> <i_f3d_flags>
0

> <s_epik_input>
Tz1jMVtjSF1bY0hdYyhbY0hdbjFbQ0gzXSlbTkhdQyg9TylbTkhdW0NAQEhdMltDSDJdW0NIMl1bQ0gyXU4oW0NIMl0yKVMoPU8pKD1PKVtDSDNd

> <s_epik_cmdline>
J2VwaWtfcHl0aG9uJywgJy1waCcsICc3LjAnLCAnLXRuJywgJzgnLCAnLW1hJywgJzIwMCcsICctbWV0YWxfYmluZGluZycsICctaW1hZScsICc8aW5maWxlLm1hZT4nLCAnLW9tYWUnLCAnPG91dGZpbGUubWFlPic=

> <r_lp_tautomer_probability>
1

> <r_epik_Ionization_Penalty>
2.44111e-05

> <r_epik_Ionization_Penalty_Charging>
5.7429e-06

> <r_epik_Ionization_Penalty_Neutral>
1.86682e-05

> <r_epik_State_Penalty>
-0

> <r_epik_Charging_Adjusted_Penalty>
5.7429e-06

> <i_epik_Tot_Q>
0

> <i_epik_Tot_abs_Q>
0

> <r_epik_Metal_State_Penalty>
-0

> <b_epik_Metal_Only>
0

> <s_lp_Force_Field>
OPLS_2005

> <r_lp_Energy>
11.6091

> <b_lp_Chiralities_Consistent>
1

> <s_lp_Variant>
AV-unprocessed.smi:1608-2

> <Gold.Version>
5.8.1

> <Gold.Id.Protein>
6NUR|6NUR_protein|mol2

> <Gold.PLP.Fitness>
43.0144

> <Gold.PLP.PLP>
-27.5893

> <Gold.PLP.part.hbond>
-6.0000

> <Gold.PLP.part.metal>
0.0000

> <Gold.PLP.part.buried>
-3.5329

> <Gold.PLP.part.nonpolar>
-19.1244

> <Gold.PLP.part.repulsive>
0.6942

> <Gold.PLP.ligand.clash>
0.0000

> <Gold.PLP.ligand.torsion>
1.1145

> <Gold.PLP.Chemscore.Hbond>
5.1994

> <Gold.PLP.Chemscore.CHOScore>
0.0000

> <Gold.PLP.Chemscore.Metal>
0.0000

> <Gold.Chemscore.Hbonds>
donor molecule, donor type, donor heavy atom, donor atom, acceptor molecule, acceptor atom, score
      L1  H     5    27       P1  7948  1.00
      L1  H     8    28       P1  7948  0.84
      P1  H  6896  6908       L1    17  1.00
      P1  H  6931  6943       L1    16  0.45
      P1  H 10785 10796       L1    22  0.98

> <Gold.PLP.Chemscore.Internal.Correction>
2.0559

> <Gold.Rescore>
     Score         DG    S(hbond)    S(metal)    S(lipo)     H(rot)  DE(clash)    DE(int)     intcor
     20.75     -24.07       4.93        0.00      39.98       1.00       0.16       3.16       ----

> <Gold.Chemscore.Fitness>
20.7466

> <Gold.Chemscore.DG>
-24.0674

> <Gold.Chemscore.ZeroCoef>
-5.4800

> <Gold.Chemscore.Hbond>
4.9312

> <Gold.Chemscore.Metal>
0.0000

> <Gold.Chemscore.Lipo>
39.9751

> <Gold.Chemscore.Internal_Hbond>
0.0000

> <Gold.Chemscore.DEClash>
0.1594

> <Gold.Chemscore.DEInternal>
3.1614

> <Gold.Chemscore.Rot>
1.0000

> <Gold.Chemscore.Internal.Correction>
   9.000000E+99

> <Gold.Chemscore.Hbonds>
donor molecule, donor type, donor heavy atom, donor atom, acceptor molecule, acceptor atom, score
      L1  H     5    27       P1  7948  0.96
      L1  H     8    28       P1  7948  0.78
      P1  H  6896  6908       L1    17  0.99
      P1  H  6931  6943       L1    16  0.44
      P1  H  6934  6947       L1    16  0.01
      P1  H 10785 10796       L1    22  0.93

> <Gold.Chemscore.Hbond.Weighted>
-16.4703

> <Gold.Chemscore.Metal.Weighted>
-0.0000

> <Gold.Chemscore.Lipo.Weighted>
-4.6771

> <Gold.Chemscore.Internal_Hbond.Weighted>
0.0000

> <Gold.Chemscore.DEClash.Weighted>
0.1594

> <Gold.Chemscore.DEInternal.Weighted>
3.1614

> <Gold.Chemscore.Rot.Weighted>
2.5600

> <Gold.Chemscore.Internal.Correction.Weighted>
   9.000000E+99

> <Gold.Protein.RotatedTorsions>
[ 6907 6896 6895 6894 ] final  150.05 input  -60.11 | X-H torsion
[ 7974 7965 7964 7962 ] final -134.64 input  175.53 | X-H torsion
[ 8008 7997 7996 7995 ] final  104.49 input   59.86 | X-H torsion
[ 10167 10162 10161 10158 ] final  -12.18 input  -65.29 | X-H torsion
[ 10718 10713 10712 10709 ] final  -42.29 input   66.30 | X-H torsion
[ 10763 10752 10751 10750 ] final  -71.38 input  -60.55 | X-H torsion
[ 11005 11000 10999 10996 ] final   55.46 input  -57.11 | X-H torsion

> <Gold.Protein.ActiveResidues>
 VAL166  LYS551  ARG553  GLY616  TRP617  ASP618  TYR619  PRO620  LYS621  CYS622 
 ASP623  PHE694  ASN695  SER759  ASP760  ASP761  ALA762  ILE779  LEU786  VAL792 
 PHE793  MET794  SER795  GLU796  ALA797  LYS798  CYS799  TRP800  GLU811  SER814 

> <Gold.Protein.RotatedAtoms>
  152.1197  133.4346  159.4669 H   0  0  0  0  0  0  0  0  0  0  0  0  # atno 6907 bound_to 6896
  150.6871  134.2549  159.4535 H   0  0  0  0  0  0  0  0  0  0  0  0  # atno 6908 bound_to 6896
  152.0425  134.9702  160.0624 H   0  0  0  0  0  0  0  0  0  0  0  0  # atno 6909 bound_to 6896
  144.9084  140.6863  143.5040 H   0  0  0  0  0  0  0  0  0  0  0  0  # atno 7974 bound_to 7965
  156.1577  140.3147  155.8754 H   0  0  0  0  0  0  0  0  0  0  0  0  # atno 8008 bound_to 7997
  155.3845  140.0490  157.3059 H   0  0  0  0  0  0  0  0  0  0  0  0  # atno 8009 bound_to 7997
  154.5117  140.2167  155.9155 H   0  0  0  0  0  0  0  0  0  0  0  0  # atno 8010 bound_to 7997
  140.7155  143.5559  150.9249 H   0  0  0  0  0  0  0  0  0  0  0  0  # atno 10167 bound_to 10162
  156.2612  130.4197  149.8540 H   0  0  0  0  0  0  0  0  0  0  0  0  # atno 10718 bound_to 10713
  154.4309  135.5964  153.6068 H   0  0  0  0  0  0  0  0  0  0  0  0  # atno 10763 bound_to 10752
  152.9799  135.5975  154.3840 H   0  0  0  0  0  0  0  0  0  0  0  0  # atno 10764 bound_to 10752
  154.3678  135.2841  155.2262 H   0  0  0  0  0  0  0  0  0  0  0  0  # atno 10765 bound_to 10752
  140.0605  134.5609  155.9157 H   0  0  0  0  0  0  0  0  0  0  0  0  # atno 11005 bound_to 11000
  145.3496  139.1710  143.4442 LP  0  0  0  0  0  0  0  0  0  0  0  0  # atno 17320 bound_to 7965
  146.3146  140.3546  142.8659 LP  0  0  0  0  0  0  0  0  0  0  0  0  # atno 17321 bound_to 7965
  139.9284  143.6522  152.3082 LP  0  0  0  0  0  0  0  0  0  0  0  0  # atno 17342 bound_to 10162
  139.6964  144.7641  151.1349 LP  0  0  0  0  0  0  0  0  0  0  0  0  # atno 17343 bound_to 10162
  156.6055  130.8564  151.3442 LP  0  0  0  0  0  0  0  0  0  0  0  0  # atno 17370 bound_to 10713
  157.7251  130.9611  150.1601 LP  0  0  0  0  0  0  0  0  0  0  0  0  # atno 17371 bound_to 10713
  141.1971  133.6595  156.5725 LP  0  0  0  0  0  0  0  0  0  0  0  0  # atno 17394 bound_to 11000
  140.3777  134.7550  157.4641 LP  0  0  0  0  0  0  0  0  0  0  0  0  # atno 17395 bound_to 11000

$$$$
