#       Name:                AV-unprocessed.smi:3083
#       Creating user name   scv26
#       Creation time:       Fri Mar 27 17:13:57 2020


#       File generated by GOLD software.
#

@<TRIPOS>MOLECULE
AV-unprocessed.smi:3083
    29    30     1
SMALL
NO_CHARGES


@<TRIPOS>ATOM
      1 ****        -1.9404  -0.4224   1.0779 N.4            1 S1                 1.0000
      2 ****        -0.4689  -0.3409   1.0273 C.3            1 S1                 0.0000
      3 ****         0.0641   0.3956   2.2706 C.3            1 S1                 0.0000
      4 ****         1.5959   0.5122   2.2407 C.3            1 S1                 0.0000
      5 ****         2.0749   1.2025   0.9548 C.3            1 S1                 0.0000
      6 ****         1.5492   0.4773  -0.2938 C.3            1 S1                 0.0000
      7 ****         0.0114   0.3546  -0.2732 C.3            1 S1                 0.0000
      8 ****        -0.4621  -0.3157  -1.4787 N.pl3          1 S1                 0.0000
      9 ****        -1.0391   0.2533  -2.5955 C.2            1 S1                 0.0000
     10 ****        -1.2934  -0.7527  -3.4829 C.2            1 S1                 0.0000
     11 ****        -0.8158  -1.9171  -2.8201 C.2            1 S1                 0.0000
     12 ****        -0.3143  -1.6521  -1.6247 N.2            1 S1                 0.0000
     13 ****        -2.3324   0.5082   1.0734 H              1 S1                 0.0000
     14 ****        -2.2227  -0.9045   1.9192 H              1 S1                 0.0000
     15 ****        -0.0900  -1.3638   1.0525 H              1 S1                 0.0000
     16 ****        -0.3730   1.3938   2.3265 H              1 S1                 0.0000
     17 ****        -0.2439  -0.1272   3.1771 H              1 S1                 0.0000
     18 ****         1.9433   1.0680   3.1122 H              1 S1                 0.0000
     19 ****         2.0404  -0.4814   2.3100 H              1 S1                 0.0000
     20 ****         1.7353   2.2390   0.9466 H              1 S1                 0.0000
     21 ****         3.1648   1.2347   0.9342 H              1 S1                 0.0000
     22 ****         1.8693   1.0128  -1.1884 H              1 S1                 0.0000
     23 ****         2.0012  -0.5142  -0.3512 H              1 S1                 0.0000
     24 ****        -0.4027   1.3645  -0.2886 H              1 S1                 0.0000
     25 ****        -1.2190   1.3160  -2.6667 H              1 S1                 0.0000
     26 ****        -1.7442  -0.6686  -4.4608 H              1 S1                 0.0000
     27 ****        -0.8159  -2.9390  -3.1702 H              1 S1                 0.0000
     28 ****        -2.2723  -0.9321   0.2712 H              1 S1                 0.0000
     29 ****         0.0855  -2.2971  -0.9734 LP             1 S1                 0.0000
@<TRIPOS>BOND
    1    1    2 1     
    2    1   13 1     
    3    1   14 1     
    4    1   28 1     
    5    2    7 1     
    6    2    3 1     
    7    2   15 1     
    8    3    4 1     
    9    3   16 1     
   10    3   17 1     
   11    4    5 1     
   12    4   18 1     
   13    4   19 1     
   14    5    6 1     
   15    5   20 1     
   16    5   21 1     
   17    6    7 1     
   18    6   22 1     
   19    6   23 1     
   20    7    8 1     
   21    7   24 1     
   22    8   12 1     
   23    8    9 1     
   24    9   10 2     
   25    9   25 1     
   26   10   11 1     
   27   10   26 1     
   28   11   12 2     
   29   11   27 1     
   30   12   29 1     
@<TRIPOS>SUBSTRUCTURE
      1 S1             1
@<TRIPOS>SET
LONE_PAIRS      STATIC     ATOMS    <user>   **** ""
1 29
DONOR_HYDROGENS      STATIC     ATOMS    <user>   **** ""
3 13 14 28
ATOM$BLUE        STATIC     ATOMS    COLORGROUP SYSTEM
1 29
ATOM$RED        STATIC     ATOMS    COLORGROUP SYSTEM
3 13 14 28
