#       Name:                AV-unprocessed.smi:2061
#       Creating user name   scv26
#       Creation time:       Fri Mar 27 11:05:34 2020


#       File generated by GOLD software.
#

@<TRIPOS>MOLECULE
AV-unprocessed.smi:2061
    53    54     1
SMALL
NO_CHARGES


@<TRIPOS>ATOM
      1 ****        -2.5629   6.4938   3.1078 C.3            1 S1                 0.0000
      2 ****        -2.9053   5.3318   2.2394 C.2            1 S1                 0.0000
      3 ****        -2.2152   4.6639   1.2680 C.2            1 S1                 0.0000
      4 ****        -3.1299   3.6575   0.8530 C.2            1 S1                 0.0000
      5 ****        -2.9172   2.7434  -0.1062 N.pl3          1 S1                -1.0000
      6 ****        -2.2445   1.6034   0.1740 C.2            1 S1                 0.0000
      7 ****        -1.7683   1.2845   1.2660 O.2            1 S1                 0.0000
      8 ****        -2.1113   0.7836  -0.8788 N.am           1 S1                 0.0000
      9 ****        -1.4185  -0.5030  -0.8813 C.3            1 S1                 0.0000
     10 ****         0.1331  -0.3720  -0.8810 C.3            1 S1                 0.0000
     11 ****         0.5595   0.5076  -2.0845 C.3            1 S1                 0.0000
     12 ****         0.8344  -1.6777  -0.8493 N.3            1 S1                 0.0000
     13 ****         2.2925  -1.5291  -0.8274 C.3            1 S1                 0.0000
     14 ****         3.0336  -2.8780  -0.8116 C.3            1 S1                 0.0000
     15 ****         4.5517  -2.6987  -0.7033 C.3            1 S1                 0.0000
     16 ****         2.6011  -3.6467   0.3057 O.3            1 S1                 0.0000
     17 ****         1.1918  -3.8488   0.3796 C.3            1 S1                 0.0000
     18 ****         0.7032  -4.8735  -0.6588 C.3            1 S1                 0.0000
     19 ****         0.4487  -2.4999   0.3035 C.3            1 S1                 0.0000
     20 ****        -4.2799   3.7209   1.5029 N.2            1 S1                 0.0000
     21 ****        -4.1421   4.7887   2.3976 O.3            1 S1                 0.0000
     22 ****        -2.5990   7.4228   2.5387 H              1 S1                 0.0000
     23 ****        -1.5588   6.3866   3.5183 H              1 S1                 0.0000
     24 ****        -3.2601   6.5801   3.9415 H              1 S1                 0.0000
     25 ****        -1.2150   4.8600   0.9123 H              1 S1                 0.0000
     26 ****        -2.5176   1.0835  -1.7527 H              1 S1                 0.0000
     27 ****        -1.7855  -1.0541  -0.0168 H              1 S1                 0.0000
     28 ****        -1.7433  -1.0595  -1.7608 H              1 S1                 0.0000
     29 ****         0.4080   0.1743   0.0227 H              1 S1                 0.0000
     30 ****         0.0019   1.4421  -2.1362 H              1 S1                 0.0000
     31 ****         0.4075  -0.0161  -3.0288 H              1 S1                 0.0000
     32 ****         1.6044   0.8084  -2.0286 H              1 S1                 0.0000
     33 ****         2.6361  -0.9922  -1.7092 H              1 S1                 0.0000
     34 ****         2.5888  -0.9363   0.0395 H              1 S1                 0.0000
     35 ****         2.8195  -3.4214  -1.7324 H              1 S1                 0.0000
     36 ****         4.9411  -2.1262  -1.5455 H              1 S1                 0.0000
     37 ****         5.0579  -3.6643  -0.6960 H              1 S1                 0.0000
     38 ****         4.8230  -2.1735   0.2130 H              1 S1                 0.0000
     39 ****         0.9984  -4.2796   1.3623 H              1 S1                 0.0000
     40 ****        -0.3515  -5.1044  -0.5080 H              1 S1                 0.0000
     41 ****         1.2606  -5.8068  -0.5760 H              1 S1                 0.0000
     42 ****         0.8115  -4.5074  -1.6795 H              1 S1                 0.0000
     43 ****         0.6340  -1.9415   1.2225 H              1 S1                 0.0000
     44 ****        -0.6155  -2.7242   0.2847 H              1 S1                 0.0000
     45 ****        -3.2575   2.9055  -1.0324 LP             1 S1                 0.0000
     46 ****        -1.8637   1.8965   2.0510 LP             1 S1                 0.0000
     47 ****        -1.2868   0.4138   1.3664 LP             1 S1                 0.0000
     48 ****         0.5539  -2.1348  -1.6934 LP             1 S1                 0.0000
     49 ****         2.8925  -3.1767   1.1388 LP             1 S1                 0.0000
     50 ****         3.0422  -4.5429   0.2569 LP             1 S1                 0.0000
     51 ****        -5.0784   3.1312   1.3811 LP             1 S1                 0.0000
     52 ****        -4.8399   5.4793   2.2077 LP             1 S1                 0.0000
     53 ****        -4.2472   4.4578   3.3354 LP             1 S1                 0.0000
@<TRIPOS>BOND
    1    1    2 1     
    2    1   22 1     
    3    1   23 1     
    4    1   24 1     
    5    2   21 1     
    6    2    3 2     
    7    3    4 1     
    8    3   25 1     
    9    4    5 1     
   10    4   20 2     
   11    5    6 1     
   12    6    7 2     
   13    6    8 am    
   14    8    9 1     
   15    8   26 1     
   16    9   10 1     
   17    9   27 1     
   18    9   28 1     
   19   10   11 1     
   20   10   12 1     
   21   10   29 1     
   22   11   30 1     
   23   11   31 1     
   24   11   32 1     
   25   12   19 1     
   26   12   13 1     
   27   13   14 1     
   28   13   33 1     
   29   13   34 1     
   30   14   15 1     
   31   14   16 1     
   32   14   35 1     
   33   15   36 1     
   34   15   37 1     
   35   15   38 1     
   36   16   17 1     
   37   17   18 1     
   38   17   19 1     
   39   17   39 1     
   40   18   40 1     
   41   18   41 1     
   42   18   42 1     
   43   19   43 1     
   44   19   44 1     
   45   20   21 1     
   46    5   45 1     
   47    7   46 1     
   48    7   47 1     
   49   12   48 1     
   50   16   49 1     
   51   16   50 1     
   52   20   51 1     
   53   21   52 1     
   54   21   53 1     
@<TRIPOS>SUBSTRUCTURE
      1 S1             1
@<TRIPOS>SET
LONE_PAIRS      STATIC     ATOMS    <user>   **** ""
9 45 46 47 48 49 50 51 52 53
DONOR_HYDROGENS      STATIC     ATOMS    <user>   **** ""
1 26
ATOM$BLUE        STATIC     ATOMS    COLORGROUP SYSTEM
9 45 46 47 48 49 50 51 52 53
ATOM$RED        STATIC     ATOMS    COLORGROUP SYSTEM
1 26
