#       Name:                AV-unprocessed.smi:3316
#       Creating user name   scv26
#       Creation time:       Fri Mar 27 19:09:26 2020


#       File generated by GOLD software.
#

@<TRIPOS>MOLECULE
AV-unprocessed.smi:3316
    42    44     1
SMALL
NO_CHARGES


@<TRIPOS>ATOM
      1 ****        -2.9989  -2.0505   2.4464 C.3            1 S1                 0.0000
      2 ****        -2.3926  -1.2629   1.2746 C.3            1 S1                 0.0000
      3 ****        -0.8528  -1.3333   1.2846 C.3            1 S1                 0.0000
      4 ****        -0.2702  -0.6664   0.1018 N.4            1 S1                 1.0000
      5 ****         1.2056  -0.6477   0.0840 C.3            1 S1                 0.0000
      6 ****         1.7445   0.0900  -1.1645 C.3            1 S1                 0.0000
      7 ****         2.6934   1.2900  -0.8367 C.3            1 S1                 0.0000
      8 ****         3.9855   0.9418  -1.6100 C.3            1 S1                 0.0000
      9 ****         3.6720   0.9827  -3.0901 C.2            1 S1                 0.0000
     10 ****         2.8819  -0.0584  -3.3565 C.2            1 S1                 0.0000
     11 ****         2.6560  -0.7977  -2.0537 C.3            1 S1                 0.0000
     12 ****         4.0169  -0.5720  -1.3830 C.3            1 S1                 0.0000
     13 ****        -2.9004   0.1743   1.2557 C.ar           1 S1                 0.0000
     14 ****        -3.6940   0.6406   0.1862 C.ar           1 S1                 0.0000
     15 ****        -4.1331   1.9798   0.2051 C.ar           1 S1                 0.0000
     16 ****        -3.8294   2.8454   1.1956 N.ar           1 S1                 0.0000
     17 ****        -3.0719   2.3950   2.2179 C.ar           1 S1                 0.0000
     18 ****        -2.5834   1.0754   2.2956 C.ar           1 S1                 0.0000
     19 ****        -4.0884  -2.0435   2.4002 H              1 S1                 0.0000
     20 ****        -2.7043  -1.6309   3.4088 H              1 S1                 0.0000
     21 ****        -2.6771  -3.0922   2.4280 H              1 S1                 0.0000
     22 ****        -2.7347  -1.7460   0.3580 H              1 S1                 0.0000
     23 ****        -0.4577  -0.8722   2.1907 H              1 S1                 0.0000
     24 ****        -0.5287  -2.3748   1.2933 H              1 S1                 0.0000
     25 ****        -0.5977  -1.1370  -0.7298 H              1 S1                 0.0000
     26 ****         1.5554  -0.1776   1.0033 H              1 S1                 0.0000
     27 ****         1.5686  -1.6761   0.1098 H              1 S1                 0.0000
     28 ****         0.9053   0.4480  -1.7648 H              1 S1                 0.0000
     29 ****         2.2727   2.2434  -1.1590 H              1 S1                 0.0000
     30 ****         2.9074   1.3733   0.2293 H              1 S1                 0.0000
     31 ****         4.8866   1.4803  -1.3158 H              1 S1                 0.0000
     32 ****         4.0147   1.7462  -3.7729 H              1 S1                 0.0000
     33 ****         2.4384  -0.3271  -4.3039 H              1 S1                 0.0000
     34 ****         2.3574  -1.8393  -2.1751 H              1 S1                 0.0000
     35 ****         4.8383  -1.0641  -1.9083 H              1 S1                 0.0000
     36 ****         4.0500  -0.8613  -0.3308 H              1 S1                 0.0000
     37 ****        -3.9659  -0.0083  -0.6336 H              1 S1                 0.0000
     38 ****        -4.7422   2.3664  -0.5984 H              1 S1                 0.0000
     39 ****        -2.8452   3.1078   2.9969 H              1 S1                 0.0000
     40 ****        -1.9807   0.7688   3.1378 H              1 S1                 0.0000
     41 ****        -0.5996   0.2885   0.0823 H              1 S1                 0.0000
     42 ****        -4.1554   3.7905   1.1726 LP             1 S1                 0.0000
@<TRIPOS>BOND
    1    1    2 1     
    2    1   19 1     
    3    1   20 1     
    4    1   21 1     
    5    2    3 1     
    6    2   13 1     
    7    2   22 1     
    8    3    4 1     
    9    3   23 1     
   10    3   24 1     
   11    4    5 1     
   12    4   25 1     
   13    4   41 1     
   14    5    6 1     
   15    5   26 1     
   16    5   27 1     
   17    6   11 1     
   18    6    7 1     
   19    6   28 1     
   20    7    8 1     
   21    7   29 1     
   22    7   30 1     
   23    8   12 1     
   24    8    9 1     
   25    8   31 1     
   26    9   10 2     
   27    9   32 1     
   28   10   11 1     
   29   10   33 1     
   30   11   12 1     
   31   11   34 1     
   32   12   35 1     
   33   12   36 1     
   34   13   18 ar    
   35   13   14 ar    
   36   14   15 ar    
   37   14   37 1     
   38   15   16 ar    
   39   15   38 1     
   40   16   17 ar    
   41   17   18 ar    
   42   17   39 1     
   43   18   40 1     
   44   16   42 1     
@<TRIPOS>SUBSTRUCTURE
      1 S1             1
@<TRIPOS>SET
LONE_PAIRS      STATIC     ATOMS    <user>   **** ""
1 42
DONOR_HYDROGENS      STATIC     ATOMS    <user>   **** ""
2 25 41
ATOM$BLUE        STATIC     ATOMS    COLORGROUP SYSTEM
1 42
ATOM$RED        STATIC     ATOMS    COLORGROUP SYSTEM
2 25 41
