AV-unprocessed.smi:3303|AV-procd|sdf|12675|dock6
  -GOLD-   2272019 13D 1   1.00000     0.00000
 Structure written by MMmdl.
 44 45  0  0  0  0  0  0  0  0  2 V2000
  146.5622  142.7181  154.5697 C   0  0  0  0  0  0  0  0  0  0  0  0
  147.4755  141.6197  153.9997 C   0  0  2  0  0  0  0  0  0  0  0  0
  146.6196  140.4729  153.4233 C   0  0  0  0  0  0  0  0  0  0  0  0
  147.4687  139.4144  152.8769 N   0  0  0  0  0  0  0  0  0  0  0  0
  146.6625  138.4318  152.1633 C   0  0  0  0  0  0  0  0  0  0  0  0
  148.3490  138.8054  153.8850 C   0  0  2  0  0  0  0  0  0  0  0  0
  147.6134  138.0048  154.9842 C   0  0  0  0  0  0  0  0  0  0  0  0
  149.2635  139.9035  154.4647 C   0  0  0  0  0  0  0  0  0  0  0  0
  148.4705  141.0849  155.0527 C   0  0  1  0  0  0  0  0  0  0  0  0
  149.4085  142.1494  155.4744 N   0  3  0  0  0  0  0  0  0  0  0  0
  150.3303  141.7687  156.5629 C   0  0  0  0  0  0  0  0  0  0  0  0
  150.5471  142.9375  157.5334 C   0  0  0  0  0  0  0  0  0  0  0  0
  151.3415  142.5258  158.7582 C   0  0  0  0  0  0  0  0  0  0  0  0
  151.5793  143.4422  159.8047 C   0  0  0  0  0  0  0  0  0  0  0  0
  152.3160  143.0061  160.9231 C   0  0  0  0  0  0  0  0  0  0  0  0
  152.7839  141.6782  160.9510 C   0  0  0  0  0  0  0  0  0  0  0  0
  152.4912  140.8407  159.8562 C   0  0  0  0  0  0  0  0  0  0  0  0
  151.7835  141.2482  158.7799 N   0  0  0  0  0  0  0  0  0  0  0  0
  145.9762  142.3475  155.4114 H   0  0  0  0  0  0  0  0  0  0  0  0
  145.8637  143.0762  153.8129 H   0  0  0  0  0  0  0  0  0  0  0  0
  147.1343  143.5793  154.9152 H   0  0  0  0  0  0  0  0  0  0  0  0
  148.0460  142.0534  153.1764 H   0  0  0  0  0  0  0  0  0  0  0  0
  145.9450  140.0717  154.1800 H   0  0  0  0  0  0  0  0  0  0  0  0
  145.9895  140.8673  152.6248 H   0  0  0  0  0  0  0  0  0  0  0  0
  147.2916  137.6417  151.7524 H   0  0  0  0  0  0  0  0  0  0  0  0
  146.1414  138.9052  151.3306 H   0  0  0  0  0  0  0  0  0  0  0  0
  145.9118  137.9765  152.8096 H   0  0  0  0  0  0  0  0  0  0  0  0
  148.9923  138.1001  153.3570 H   0  0  0  0  0  0  0  0  0  0  0  0
  148.3285  137.5899  155.6947 H   0  0  0  0  0  0  0  0  0  0  0  0
  147.0622  137.1607  154.5710 H   0  0  0  0  0  0  0  0  0  0  0  0
  146.9122  138.6132  155.5540 H   0  0  0  0  0  0  0  0  0  0  0  0
  149.9199  139.4774  155.2247 H   0  0  0  0  0  0  0  0  0  0  0  0
  149.9188  140.2674  153.6713 H   0  0  0  0  0  0  0  0  0  0  0  0
  147.9067  140.7321  155.9177 H   0  0  0  0  0  0  0  0  0  0  0  0
  149.9529  142.4340  154.6726 H   0  0  0  0  0  0  0  0  0  0  0  0
  149.9168  140.9147  157.1011 H   0  0  0  0  0  0  0  0  0  0  0  0
  151.2813  141.4522  156.1320 H   0  0  0  0  0  0  0  0  0  0  0  0
  151.0709  143.7514  157.0294 H   0  0  0  0  0  0  0  0  0  0  0  0
  149.5851  143.3424  157.8509 H   0  0  0  0  0  0  0  0  0  0  0  0
  151.2071  144.4551  159.7553 H   0  0  0  0  0  0  0  0  0  0  0  0
  152.5178  143.6775  161.7449 H   0  0  0  0  0  0  0  0  0  0  0  0
  153.3533  141.3104  161.7919 H   0  0  0  0  0  0  0  0  0  0  0  0
  152.8330  139.8162  159.8454 H   0  0  0  0  0  0  0  0  0  0  0  0
  148.8626  142.9396  155.7866 H   0  0  0  0  0  0  0  0  0  0  0  0
  1  2  1  0  0  0  0
  1 19  1  0  0  0  0
  1 20  1  0  0  0  0
  1 21  1  0  0  0  0
  2  9  1  0  0  0  0
  2  3  1  0  0  0  0
  2 22  1  0  0  0  0
  3  4  1  0  0  0  0
  3 23  1  0  0  0  0
  3 24  1  0  0  0  0
  4  5  1  0  0  0  0
  4  6  1  0  0  0  0
  5 25  1  0  0  0  0
  5 26  1  0  0  0  0
  5 27  1  0  0  0  0
  6  7  1  0  0  0  0
  6  8  1  0  0  0  0
  6 28  1  0  0  0  0
  7 29  1  0  0  0  0
  7 30  1  0  0  0  0
  7 31  1  0  0  0  0
  8  9  1  0  0  0  0
  8 32  1  0  0  0  0
  8 33  1  0  0  0  0
  9 10  1  0  0  0  0
  9 34  1  0  0  0  0
 10 11  1  0  0  0  0
 10 35  1  0  0  0  0
 10 44  1  0  0  0  0
 11 12  1  0  0  0  0
 11 36  1  0  0  0  0
 11 37  1  0  0  0  0
 12 13  1  0  0  0  0
 12 38  1  0  0  0  0
 12 39  1  0  0  0  0
 13 18  1  0  0  0  0
 13 14  2  0  0  0  0
 14 15  1  0  0  0  0
 14 40  1  0  0  0  0
 15 16  2  0  0  0  0
 15 41  1  0  0  0  0
 16 17  1  0  0  0  0
 16 42  1  0  0  0  0
 17 18  2  0  0  0  0
 17 43  1  0  0  0  0
M  CHG  1  10   1
M  END
> <s_m_source_file>
AV-unprocessed.smi

> <i_m_source_file_index>
3303

> <i_lp_mmshare_version>
43012

> <i_f3d_flags>
0

> <s_epik_input>
W0NIM11bQ0BASF0xW0NIMl1OKFtDSDNdKVtDQEBIXShbQ0gzXSlbQ0gyXVtDQEhdMVtOSF1bQ0gyXVtDSDJdYzJbY0hdW2NIXVtjSF1bY0hdbjI=

> <s_epik_cmdline>
J2VwaWtfcHl0aG9uJywgJy1waCcsICc3LjAnLCAnLXRuJywgJzgnLCAnLW1hJywgJzIwMCcsICctbWV0YWxfYmluZGluZycsICctaW1hZScsICc8aW5maWxlLm1hZT4nLCAnLW9tYWUnLCAnPG91dGZpbGUubWFlPic=

> <r_epik_Ionization_Penalty>
1.37325

> <r_epik_Ionization_Penalty_Charging>
0.000251572

> <r_epik_Ionization_Penalty_Neutral>
1.373

> <r_epik_State_Penalty>
1.46343

> <r_epik_Charging_Adjusted_Penalty>
1.46368

> <i_epik_Tot_Q>
1

> <i_epik_Tot_abs_Q>
1

> <r_epik_Metal_State_Penalty>
1.46331

> <b_epik_Metal_Only>
0

> <s_lp_Force_Field>
OPLS_2005

> <r_lp_Energy>
23.1884

> <b_lp_Chiralities_Consistent>
1

> <s_lp_Variant>
AV-unprocessed.smi:3303-19

> <Gold.Version>
5.8.1

> <Gold.Id.Protein>
6NUR|6NUR_protein|mol2

> <Gold.PLP.Fitness>
42.9986

> <Gold.PLP.PLP>
-37.5920

> <Gold.PLP.part.hbond>
-1.0000

> <Gold.PLP.part.metal>
0.0000

> <Gold.PLP.part.buried>
-1.8874

> <Gold.PLP.part.nonpolar>
-36.7683

> <Gold.PLP.part.repulsive>
1.8939

> <Gold.PLP.ligand.clash>
0.0000

> <Gold.PLP.ligand.torsion>
0.3001

> <Gold.PLP.Chemscore.Hbond>
2.0000

> <Gold.PLP.Chemscore.CHOScore>
0.0000

> <Gold.PLP.Chemscore.Metal>
0.0000

> <Gold.Chemscore.Hbonds>
donor molecule, donor type, donor heavy atom, donor atom, acceptor molecule, acceptor atom, score
      L1  H    10    44       P1  8028  1.57

> <Gold.PLP.Chemscore.Internal.Correction>
0.0067

> <Gold.Rescore>
     Score         DG    S(hbond)    S(metal)    S(lipo)     H(rot)  DE(clash)    DE(int)     intcor
     18.08     -19.22       0.99        0.00     118.12       1.33       0.71       0.42       ----

> <Gold.Chemscore.Fitness>
18.0807

> <Gold.Chemscore.DG>
-19.2152

> <Gold.Chemscore.ZeroCoef>
-5.4800

> <Gold.Chemscore.Hbond>
0.9937

> <Gold.Chemscore.Metal>
0.0000

> <Gold.Chemscore.Lipo>
118.1245

> <Gold.Chemscore.Internal_Hbond>
0.0000

> <Gold.Chemscore.DEClash>
0.7117

> <Gold.Chemscore.DEInternal>
0.4228

> <Gold.Chemscore.Rot>
1.3298

> <Gold.Chemscore.Internal.Correction>
   9.000000E+99

> <Gold.Chemscore.Hbonds>
donor molecule, donor type, donor heavy atom, donor atom, acceptor molecule, acceptor atom, score
      L1  H    10    44       P1  8028  0.78

> <Gold.Chemscore.Hbond.Weighted>
-3.3189

> <Gold.Chemscore.Metal.Weighted>
-0.0000

> <Gold.Chemscore.Lipo.Weighted>
-13.8206

> <Gold.Chemscore.Internal_Hbond.Weighted>
0.0000

> <Gold.Chemscore.DEClash.Weighted>
0.7117

> <Gold.Chemscore.DEInternal.Weighted>
0.4228

> <Gold.Chemscore.Rot.Weighted>
3.4043

> <Gold.Chemscore.Internal.Correction.Weighted>
   9.000000E+99

> <Gold.Protein.RotatedTorsions>
[ 6907 6896 6895 6894 ] final  -32.07 input  -60.11 | X-H torsion
[ 7974 7965 7964 7962 ] final -147.33 input  175.53 | X-H torsion
[ 8008 7997 7996 7995 ] final  102.42 input   59.86 | X-H torsion
[ 10167 10162 10161 10158 ] final -176.06 input  -65.29 | X-H torsion
[ 10718 10713 10712 10709 ] final  -57.61 input   66.30 | X-H torsion
[ 10763 10752 10751 10750 ] final   76.44 input  -60.55 | X-H torsion
[ 11005 11000 10999 10996 ] final   20.44 input  -57.11 | X-H torsion

> <Gold.Protein.ActiveResidues>
 VAL166  LYS551  ARG553  GLY616  TRP617  ASP618  TYR619  PRO620  LYS621  CYS622 
 ASP623  PHE694  ASN695  SER759  ASP760  ASP761  ALA762  ILE779  LEU786  VAL792 
 PHE793  MET794  SER795  GLU796  ALA797  LYS798  CYS799  TRP800  GLU811  SER814 

> <Gold.Protein.RotatedAtoms>
  151.0837  134.9874  159.8368 H   0  0  0  0  0  0  0  0  0  0  0  0  # atno 6907 bound_to 6896
  152.5422  134.2150  159.8775 H   0  0  0  0  0  0  0  0  0  0  0  0  # atno 6908 bound_to 6896
  151.2182  133.4473  159.2633 H   0  0  0  0  0  0  0  0  0  0  0  0  # atno 6909 bound_to 6896
  144.8100  140.5340  143.5649 H   0  0  0  0  0  0  0  0  0  0  0  0  # atno 7974 bound_to 7965
  156.1391  140.3181  155.8467 H   0  0  0  0  0  0  0  0  0  0  0  0  # atno 8008 bound_to 7997
  155.4188  140.0511  157.3044 H   0  0  0  0  0  0  0  0  0  0  0  0  # atno 8009 bound_to 7997
  154.4961  140.2111  155.9456 H   0  0  0  0  0  0  0  0  0  0  0  0  # atno 8010 bound_to 7997
  139.5549  144.2015  152.1142 H   0  0  0  0  0  0  0  0  0  0  0  0  # atno 10167 bound_to 10162
  156.1197  130.4167  150.0464 H   0  0  0  0  0  0  0  0  0  0  0  0  # atno 10718 bound_to 10713
  153.0726  135.4951  154.8336 H   0  0  0  0  0  0  0  0  0  0  0  0  # atno 10763 bound_to 10752
  154.7043  135.3007  154.9296 H   0  0  0  0  0  0  0  0  0  0  0  0  # atno 10764 bound_to 10752
  154.0010  135.6766  153.4812 H   0  0  0  0  0  0  0  0  0  0  0  0  # atno 10765 bound_to 10752
  140.4026  134.1703  155.7664 H   0  0  0  0  0  0  0  0  0  0  0  0  # atno 11005 bound_to 11000
  145.5346  139.1475  143.3481 LP  0  0  0  0  0  0  0  0  0  0  0  0  # atno 17320 bound_to 7965
  146.2397  140.5486  142.8939 LP  0  0  0  0  0  0  0  0  0  0  0  0  # atno 17321 bound_to 7965
  140.1517  144.5108  150.6683 LP  0  0  0  0  0  0  0  0  0  0  0  0  # atno 17342 bound_to 10162
  140.6820  143.2331  151.5360 LP  0  0  0  0  0  0  0  0  0  0  0  0  # atno 17343 bound_to 10162
  156.8406  130.9424  151.3632 LP  0  0  0  0  0  0  0  0  0  0  0  0  # atno 17370 bound_to 10713
  157.6381  130.8783  149.9397 LP  0  0  0  0  0  0  0  0  0  0  0  0  # atno 17371 bound_to 10713
  141.1851  133.8330  157.1116 LP  0  0  0  0  0  0  0  0  0  0  0  0  # atno 17394 bound_to 11000
  140.0325  134.9894  157.0808 LP  0  0  0  0  0  0  0  0  0  0  0  0  # atno 17395 bound_to 11000

$$$$
