AV-unprocessed.smi:3352|AV-procd|sdf|12952|dock4
  -GOLD-   2272019393D 1   1.00000     0.00000
 Structure written by MMmdl.
 38 39  0  0  0  0  0  0  0  0  1 V2000
  154.2074  139.3676  160.2233 C   0  0  0  0  0  0  0  0  0  0  0  0
  154.8396  140.5806  160.9210 C   0  0  0  0  0  0  0  0  0  0  0  0
  155.4202  140.2286  162.2980 C   0  0  0  0  0  0  0  0  0  0  0  0
  153.8931  141.7381  160.9974 C   0  0  0  0  0  0  0  0  0  0  0  0
  153.3102  142.2810  159.9248 N   0  0  0  0  0  0  0  0  0  0  0  0
  152.4702  143.3524  160.2474 C   0  0  0  0  0  0  0  0  0  0  0  0
  151.7288  144.0782  159.1629 C   0  0  0  0  0  0  0  0  0  0  0  0
  150.5941  143.2056  158.6250 C   0  0  0  0  0  0  0  0  0  0  0  0
  149.5150  143.1673  159.2162 O   0  0  0  0  0  0  0  0  0  0  0  0
  150.8514  142.5133  157.5042 N   0  0  0  0  0  0  0  0  0  0  0  0
  149.9104  141.6307  156.8246 C   0  0  0  0  0  0  0  0  0  0  0  0
  150.5164  141.0371  155.5420 C   0  0  1  0  0  0  0  0  0  0  0  0
  151.6902  140.0938  155.8014 C   0  0  0  0  0  0  0  0  0  0  0  0
  151.6656  139.2264  154.5640 C   0  0  0  0  0  0  0  0  0  0  0  0
  150.1669  139.0582  154.3360 C   0  0  0  0  0  0  0  0  0  0  0  0
  149.5602  140.2456  154.8388 O   0  0  0  0  0  0  0  0  0  0  0  0
  152.4327  143.6230  161.5930 C   0  0  0  0  0  0  0  0  0  0  0  0
  153.4461  142.5377  162.5030 S   0  0  0  0  0  0  0  0  0  0  0  0
  153.8630  139.6271  159.2216 H   0  0  0  0  0  0  0  0  0  0  0  0
  153.3520  138.9864  160.7821 H   0  0  0  0  0  0  0  0  0  0  0  0
  154.9264  138.5539  160.1241 H   0  0  0  0  0  0  0  0  0  0  0  0
  155.6785  140.8967  160.2988 H   0  0  0  0  0  0  0  0  0  0  0  0
  155.9265  141.0871  162.7404 H   0  0  0  0  0  0  0  0  0  0  0  0
  156.1477  139.4202  162.2219 H   0  0  0  0  0  0  0  0  0  0  0  0
  154.6399  139.9087  162.9892 H   0  0  0  0  0  0  0  0  0  0  0  0
  151.3130  145.0125  159.5425 H   0  0  0  0  0  0  0  0  0  0  0  0
  152.3984  144.3511  158.3457 H   0  0  0  0  0  0  0  0  0  0  0  0
  151.7684  142.6064  157.0917 H   0  0  0  0  0  0  0  0  0  0  0  0
  149.6614  140.8250  157.5155 H   0  0  0  0  0  0  0  0  0  0  0  0
  148.9755  142.1499  156.6071 H   0  0  0  0  0  0  0  0  0  0  0  0
  150.8455  141.8356  154.8748 H   0  0  0  0  0  0  0  0  0  0  0  0
  152.6360  140.6189  155.9379 H   0  0  0  0  0  0  0  0  0  0  0  0
  151.5067  139.4830  156.6867 H   0  0  0  0  0  0  0  0  0  0  0  0
  152.1178  139.7573  153.7251 H   0  0  0  0  0  0  0  0  0  0  0  0
  152.1873  138.2777  154.6920 H   0  0  0  0  0  0  0  0  0  0  0  0
  149.9211  138.8981  153.2861 H   0  0  0  0  0  0  0  0  0  0  0  0
  149.7876  138.2093  154.9063 H   0  0  0  0  0  0  0  0  0  0  0  0
  151.8696  144.3915  162.1016 H   0  0  0  0  0  0  0  0  0  0  0  0
  1  2  1  0  0  0  0
  1 19  1  0  0  0  0
  1 20  1  0  0  0  0
  1 21  1  0  0  0  0
  2  3  1  0  0  0  0
  2  4  1  0  0  0  0
  2 22  1  0  0  0  0
  3 23  1  0  0  0  0
  3 24  1  0  0  0  0
  3 25  1  0  0  0  0
  4 18  1  0  0  0  0
  4  5  2  0  0  0  0
  5  6  1  0  0  0  0
  6  7  1  0  0  0  0
  6 17  2  0  0  0  0
  7  8  1  0  0  0  0
  7 26  1  0  0  0  0
  7 27  1  0  0  0  0
  8  9  2  0  0  0  0
  8 10  1  0  0  0  0
 10 11  1  0  0  0  0
 10 28  1  0  0  0  0
 11 12  1  0  0  0  0
 11 29  1  0  0  0  0
 11 30  1  0  0  0  0
 12 16  1  0  0  0  0
 12 13  1  0  0  0  0
 12 31  1  0  0  0  0
 13 14  1  0  0  0  0
 13 32  1  0  0  0  0
 13 33  1  0  0  0  0
 14 15  1  0  0  0  0
 14 34  1  0  0  0  0
 14 35  1  0  0  0  0
 15 16  1  0  0  0  0
 15 36  1  0  0  0  0
 15 37  1  0  0  0  0
 17 18  1  0  0  0  0
 17 38  1  0  0  0  0
M  END
> <s_m_source_file>
AV-unprocessed.smi

> <i_m_source_file_index>
3352

> <i_lp_mmshare_version>
43012

> <i_f3d_flags>
0

> <s_epik_input>
W0NIM11bQ0hdKFtDSDNdKWMxbmMoW2NIXXMxKVtDSDJdQyg9TylbTkhdW0NIMl1bQ0BASF0yW0NIMl1bQ0gyXVtDSDJdTzI=

> <s_epik_cmdline>
J2VwaWtfcHl0aG9uJywgJy1waCcsICc3LjAnLCAnLXRuJywgJzgnLCAnLW1hJywgJzIwMCcsICctbWV0YWxfYmluZGluZycsICctaW1hZScsICc8aW5maWxlLm1hZT4nLCAnLW9tYWUnLCAnPG91dGZpbGUubWFlPic=

> <r_lp_tautomer_probability>
1

> <r_epik_Ionization_Penalty>
4.66014e-05

> <r_epik_Ionization_Penalty_Charging>
0

> <r_epik_Ionization_Penalty_Neutral>
4.66014e-05

> <r_epik_State_Penalty>
-0

> <r_epik_Charging_Adjusted_Penalty>
0

> <i_epik_Tot_Q>
0

> <i_epik_Tot_abs_Q>
0

> <r_epik_Metal_State_Penalty>
-0

> <b_epik_Metal_Only>
0

> <s_lp_Force_Field>
OPLS_2005

> <r_lp_Energy>
9.02769

> <b_lp_Chiralities_Consistent>
1

> <s_lp_Variant>
AV-unprocessed.smi:3352-2

> <Gold.Version>
5.8.1

> <Gold.Id.Protein>
6NUR|6NUR_protein|mol2

> <Gold.PLP.Fitness>
43.8415

> <Gold.PLP.PLP>
-44.7779

> <Gold.PLP.part.hbond>
-0.6370

> <Gold.PLP.part.metal>
0.0000

> <Gold.PLP.part.buried>
-4.6168

> <Gold.PLP.part.nonpolar>
-38.1815

> <Gold.PLP.part.repulsive>
0.2366

> <Gold.PLP.ligand.clash>
0.0000

> <Gold.PLP.ligand.torsion>
0.5022

> <Gold.PLP.Chemscore.Hbond>
0.0000

> <Gold.PLP.Chemscore.CHOScore>
0.0000

> <Gold.PLP.Chemscore.Metal>
0.0000

> <Gold.PLP.Chemscore.Internal.Correction>
0.0680

> <Gold.Rescore>
     Score         DG    S(hbond)    S(metal)    S(lipo)     H(rot)  DE(clash)    DE(int)     intcor
     14.76     -15.29       0.00        0.00     117.81       1.55       0.07       0.46       ----

> <Gold.Chemscore.Fitness>
14.7556

> <Gold.Chemscore.DG>
-15.2907

> <Gold.Chemscore.ZeroCoef>
-5.4800

> <Gold.Chemscore.Hbond>
0.0000

> <Gold.Chemscore.Metal>
0.0000

> <Gold.Chemscore.Lipo>
117.8061

> <Gold.Chemscore.Internal_Hbond>
0.0000

> <Gold.Chemscore.DEClash>
0.0712

> <Gold.Chemscore.DEInternal>
0.4639

> <Gold.Chemscore.Rot>
1.5518

> <Gold.Chemscore.Internal.Correction>
   9.000000E+99

> <Gold.Chemscore.Hbond.Weighted>
-0.0000

> <Gold.Chemscore.Metal.Weighted>
-0.0000

> <Gold.Chemscore.Lipo.Weighted>
-13.7833

> <Gold.Chemscore.Internal_Hbond.Weighted>
0.0000

> <Gold.Chemscore.DEClash.Weighted>
0.0712

> <Gold.Chemscore.DEInternal.Weighted>
0.4639

> <Gold.Chemscore.Rot.Weighted>
3.9727

> <Gold.Chemscore.Internal.Correction.Weighted>
   9.000000E+99

> <Gold.Protein.RotatedTorsions>
[ 6907 6896 6895 6894 ] final  135.62 input  -60.11 | X-H torsion
[ 7974 7965 7964 7962 ] final  -98.98 input  175.53 | X-H torsion
[ 8008 7997 7996 7995 ] final  138.23 input   59.86 | X-H torsion
[ 10167 10162 10161 10158 ] final  -92.43 input  -65.29 | X-H torsion
[ 10718 10713 10712 10709 ] final  -48.45 input   66.30 | X-H torsion
[ 10763 10752 10751 10750 ] final  -94.42 input  -60.55 | X-H torsion
[ 11005 11000 10999 10996 ] final  149.89 input  -57.11 | X-H torsion

> <Gold.Protein.ActiveResidues>
 VAL166  LYS551  ARG553  GLY616  TRP617  ASP618  TYR619  PRO620  LYS621  CYS622 
 ASP623  PHE694  ASN695  SER759  ASP760  ASP761  ALA762  ILE779  LEU786  VAL792 
 PHE793  MET794  SER795  GLU796  ALA797  LYS798  CYS799  TRP800  GLU811  SER814 

> <Gold.Protein.RotatedAtoms>
  152.2984  133.5631  159.5602 H   0  0  0  0  0  0  0  0  0  0  0  0  # atno 6907 bound_to 6896
  150.7266  134.0327  159.3748 H   0  0  0  0  0  0  0  0  0  0  0  0  # atno 6908 bound_to 6896
  151.8228  135.0646  160.0478 H   0  0  0  0  0  0  0  0  0  0  0  0  # atno 6909 bound_to 6896
  145.3135  140.9406  143.2756 H   0  0  0  0  0  0  0  0  0  0  0  0  # atno 7974 bound_to 7965
  156.2998  140.2399  156.4040 H   0  0  0  0  0  0  0  0  0  0  0  0  # atno 8008 bound_to 7997
  154.8501  140.0424  157.1618 H   0  0  0  0  0  0  0  0  0  0  0  0  # atno 8009 bound_to 7997
  154.9008  140.2976  155.5322 H   0  0  0  0  0  0  0  0  0  0  0  0  # atno 8010 bound_to 7997
  140.3349  143.2974  151.9901 H   0  0  0  0  0  0  0  0  0  0  0  0  # atno 10167 bound_to 10162
  156.1986  130.4155  149.9271 H   0  0  0  0  0  0  0  0  0  0  0  0  # atno 10718 bound_to 10713
  154.7053  135.5158  153.8586 H   0  0  0  0  0  0  0  0  0  0  0  0  # atno 10763 bound_to 10752
  153.0736  135.6609  154.0202 H   0  0  0  0  0  0  0  0  0  0  0  0  # atno 10764 bound_to 10752
  154.0054  135.3007  155.3378 H   0  0  0  0  0  0  0  0  0  0  0  0  # atno 10765 bound_to 10752
  140.1084  134.8940  157.1899 H   0  0  0  0  0  0  0  0  0  0  0  0  # atno 11005 bound_to 11000
  144.8997  139.4666  143.6638 LP  0  0  0  0  0  0  0  0  0  0  0  0  # atno 17320 bound_to 7965
  146.3109  139.7743  142.9020 LP  0  0  0  0  0  0  0  0  0  0  0  0  # atno 17321 bound_to 7965
  139.4850  144.6205  151.7265 LP  0  0  0  0  0  0  0  0  0  0  0  0  # atno 17342 bound_to 10162
  140.5363  144.0651  150.6071 LP  0  0  0  0  0  0  0  0  0  0  0  0  # atno 17343 bound_to 10162
  156.6988  130.8925  151.3597 LP  0  0  0  0  0  0  0  0  0  0  0  0  # atno 17370 bound_to 10713
  157.6972  130.9295  150.0680 LP  0  0  0  0  0  0  0  0  0  0  0  0  # atno 17371 bound_to 10713
  140.3125  134.3008  155.7264 LP  0  0  0  0  0  0  0  0  0  0  0  0  # atno 17394 bound_to 11000
  141.2124  133.7659  156.9796 LP  0  0  0  0  0  0  0  0  0  0  0  0  # atno 17395 bound_to 11000

$$$$
