#       Name:                AV-unprocessed.smi:2024
#       Creating user name   scv26
#       Creation time:       Fri Mar 27 10:44:50 2020


#       File generated by GOLD software.
#

@<TRIPOS>MOLECULE
AV-unprocessed.smi:2024
    48    49     1
SMALL
NO_CHARGES


@<TRIPOS>ATOM
      1 ****        -3.0907  -2.8671   2.8594 C.3            1 S1                 0.0000
      2 ****        -2.1429  -2.0217   3.5773 N.3            1 S1                 0.0000
      3 ****        -0.7573  -2.2080   3.1489 C.3            1 S1                 0.0000
      4 ****        -0.5035  -1.6329   1.7406 C.3            1 S1                 0.0000
      5 ****        -0.8311  -0.1776   1.6912 N.4            1 S1                 1.0000
      6 ****        -0.4158   0.5371   0.4268 C.3            1 S1                 0.0000
      7 ****        -0.9434  -0.2026  -0.8275 C.3            1 S1                 0.0000
      8 ****        -0.9781   1.9835   0.3940 C.3            1 S1                 0.0000
      9 ****         1.1420   0.6360   0.4013 C.3            1 S1                 0.0000
     10 ****         1.6818   1.3696  -0.7441 N.am           1 S1                 0.0000
     11 ****         2.1407   0.8204  -1.8784 C.2            1 S1                 0.0000
     12 ****         2.1487  -0.3927  -2.0893 O.2            1 S1                 0.0000
     13 ****         2.5747   1.7622  -2.7340 N.am           1 S1                 0.0000
     14 ****         3.1058   1.5843  -4.0383 C.2            1 S1                 0.0000
     15 ****         3.2480   0.3974  -4.6396 N.2            1 S1                 0.0000
     16 ****         3.7948   0.5206  -5.9194 C.2            1 S1                 0.0000
     17 ****         4.0633   1.8177  -6.2793 C.2            1 S1                 0.0000
     18 ****         3.6376   2.9432  -5.0179 S.3            1 S1                 0.0000
     19 ****        -2.2458   0.0124   2.1259 C.3            1 S1                 0.0000
     20 ****        -2.4838  -0.6016   3.5225 C.3            1 S1                 0.0000
     21 ****        -2.8231  -3.9176   2.9771 H              1 S1                 0.0000
     22 ****        -3.1290  -2.6459   1.7934 H              1 S1                 0.0000
     23 ****        -4.0944  -2.7356   3.2653 H              1 S1                 0.0000
     24 ****        -0.0996  -1.7172   3.8678 H              1 S1                 0.0000
     25 ****        -0.5076  -3.2693   3.1764 H              1 S1                 0.0000
     26 ****         0.5413  -1.8124   1.4995 H              1 S1                 0.0000
     27 ****        -1.0852  -2.1838   1.0016 H              1 S1                 0.0000
     28 ****        -0.7657   0.3745  -1.7354 H              1 S1                 0.0000
     29 ****        -2.0181  -0.3760  -0.7741 H              1 S1                 0.0000
     30 ****        -0.4564  -1.1676  -0.9702 H              1 S1                 0.0000
     31 ****        -0.6012   2.5515  -0.4563 H              1 S1                 0.0000
     32 ****        -0.7115   2.5369   1.2952 H              1 S1                 0.0000
     33 ****        -2.0631   2.0026   0.2910 H              1 S1                 0.0000
     34 ****         1.4872   1.1481   1.3001 H              1 S1                 0.0000
     35 ****         1.6128  -0.3453   0.4289 H              1 S1                 0.0000
     36 ****         1.7146   2.3754  -0.6615 H              1 S1                 0.0000
     37 ****         2.5133   2.7192  -2.4194 H              1 S1                 0.0000
     38 ****         3.9593  -0.3700  -6.5077 H              1 S1                 0.0000
     39 ****         4.4836   2.1776  -7.2065 H              1 S1                 0.0000
     40 ****        -2.4914   1.0683   2.2189 H              1 S1                 0.0000
     41 ****        -2.9320  -0.4075   1.3902 H              1 S1                 0.0000
     42 ****        -3.5224  -0.4646   3.8256 H              1 S1                 0.0000
     43 ****        -1.8771  -0.0730   4.2590 H              1 S1                 0.0000
     44 ****        -0.2794   0.2498   2.4213 H              1 S1                 0.0000
     45 ****        -2.2175  -2.3273   4.5265 LP             1 S1                 0.0000
     46 ****         1.8007  -1.0231  -1.3954 LP             1 S1                 0.0000
     47 ****         2.5032  -0.7474  -2.9545 LP             1 S1                 0.0000
     48 ****         2.9930  -0.4748  -4.2222 LP             1 S1                 0.0000
@<TRIPOS>BOND
    1    1    2 1     
    2    1   21 1     
    3    1   22 1     
    4    1   23 1     
    5    2   20 1     
    6    2    3 1     
    7    3    4 1     
    8    3   24 1     
    9    3   25 1     
   10    4    5 1     
   11    4   26 1     
   12    4   27 1     
   13    5    6 1     
   14    5   19 1     
   15    5   44 1     
   16    6    7 1     
   17    6    8 1     
   18    6    9 1     
   19    7   28 1     
   20    7   29 1     
   21    7   30 1     
   22    8   31 1     
   23    8   32 1     
   24    8   33 1     
   25    9   10 1     
   26    9   34 1     
   27    9   35 1     
   28   10   11 am    
   29   10   36 1     
   30   11   12 2     
   31   11   13 am    
   32   13   14 1     
   33   13   37 1     
   34   14   18 1     
   35   14   15 2     
   36   15   16 1     
   37   16   17 2     
   38   16   38 1     
   39   17   18 1     
   40   17   39 1     
   41   19   20 1     
   42   19   40 1     
   43   19   41 1     
   44   20   42 1     
   45   20   43 1     
   46    2   45 1     
   47   12   46 1     
   48   12   47 1     
   49   15   48 1     
@<TRIPOS>SUBSTRUCTURE
      1 S1             1
@<TRIPOS>SET
LONE_PAIRS      STATIC     ATOMS    <user>   **** ""
4 45 46 47 48
DONOR_HYDROGENS      STATIC     ATOMS    <user>   **** ""
3 44 36 37
ATOM$BLUE        STATIC     ATOMS    COLORGROUP SYSTEM
4 45 46 47 48
ATOM$RED        STATIC     ATOMS    COLORGROUP SYSTEM
3 44 36 37
