AV-unprocessed.smi:2250|AV-procd|sdf|9100|dock8
  -GOLD-   2272012303D 1   1.00000     0.00000
 Structure written by MMmdl.
 43 44  0  0  0  0  0  0  0  0  1 V2000
  152.2294  144.0432  161.6210 C   0  0  0  0  0  0  0  0  0  0  0  0
  152.9459  142.7653  161.2385 C   0  0  0  0  0  0  0  0  0  0  0  0
  153.6871  142.0335  162.1854 C   0  0  0  0  0  0  0  0  0  0  0  0
  154.3320  140.8509  161.7753 C   0  0  0  0  0  0  0  0  0  0  0  0
  154.2226  140.4287  160.4312 C   0  0  0  0  0  0  0  0  0  0  0  0
  154.9092  139.2245  160.1227 N   0  0  0  0  0  0  0  0  0  0  0  0
  154.9054  138.5360  158.9678 C   0  0  0  0  0  0  0  0  0  0  0  0
  154.3012  138.8622  157.9455 O   0  0  0  0  0  0  0  0  0  0  0  0
  155.6577  137.4312  159.0640 N   0  0  0  0  0  0  0  0  0  0  0  0
  155.8679  136.4603  157.9969 C   0  0  0  0  0  0  0  0  0  0  0  0
  156.5032  137.1462  156.7737 C   0  0  0  0  0  0  0  0  0  0  0  0
  156.9261  136.1723  155.6597 C   0  0  0  0  0  0  0  0  0  0  0  0
  156.5817  134.9918  155.7366 O   0  0  0  0  0  0  0  0  0  0  0  0
  157.6714  136.6403  154.6283 N   0  0  0  0  0  0  0  0  0  0  0  0
  158.1161  135.8531  153.4697 C   0  0  0  0  0  0  0  0  0  0  0  0
  157.3135  136.2988  152.2340 C   0  0  0  0  0  0  0  0  0  0  0  0
  157.4700  137.8132  151.9966 C   0  0  0  0  0  0  0  0  0  0  0  0
  157.1973  138.6239  153.2784 C   0  0  0  0  0  0  0  0  0  0  0  0
  157.9982  138.0633  154.4685 C   0  0  0  0  0  0  0  0  0  0  0  0
  153.5044  141.1395  159.5265 N   0  0  0  0  0  0  0  0  0  0  0  0
  152.8860  142.2724  159.9206 C   0  0  0  0  0  0  0  0  0  0  0  0
  152.5454  144.3941  162.6039 H   0  0  0  0  0  0  0  0  0  0  0  0
  151.1522  143.8778  161.6458 H   0  0  0  0  0  0  0  0  0  0  0  0
  152.4403  144.8297  160.8960 H   0  0  0  0  0  0  0  0  0  0  0  0
  153.7633  142.3690  163.2094 H   0  0  0  0  0  0  0  0  0  0  0  0
  154.9052  140.2775  162.4892 H   0  0  0  0  0  0  0  0  0  0  0  0
  155.4673  138.8406  160.8709 H   0  0  0  0  0  0  0  0  0  0  0  0
  156.1218  137.2477  159.9415 H   0  0  0  0  0  0  0  0  0  0  0  0
  156.5099  135.6459  158.3385 H   0  0  0  0  0  0  0  0  0  0  0  0
  154.9026  136.0233  157.7370 H   0  0  0  0  0  0  0  0  0  0  0  0
  155.7988  137.8659  156.3544 H   0  0  0  0  0  0  0  0  0  0  0  0
  157.3804  137.7034  157.1058 H   0  0  0  0  0  0  0  0  0  0  0  0
  159.1799  136.0307  153.3048 H   0  0  0  0  0  0  0  0  0  0  0  0
  158.0248  134.7770  153.6076 H   0  0  0  0  0  0  0  0  0  0  0  0
  157.6414  135.7469  151.3525 H   0  0  0  0  0  0  0  0  0  0  0  0
  156.2594  136.0569  152.3773 H   0  0  0  0  0  0  0  0  0  0  0  0
  158.4868  138.0162  151.6581 H   0  0  0  0  0  0  0  0  0  0  0  0
  156.8079  138.1400  151.1943 H   0  0  0  0  0  0  0  0  0  0  0  0
  157.4475  139.6728  153.1174 H   0  0  0  0  0  0  0  0  0  0  0  0
  156.1319  138.5921  153.5111 H   0  0  0  0  0  0  0  0  0  0  0  0
  157.7912  138.6500  155.3644 H   0  0  0  0  0  0  0  0  0  0  0  0
  159.0684  138.1709  154.2861 H   0  0  0  0  0  0  0  0  0  0  0  0
  152.3273  142.7996  159.1610 H   0  0  0  0  0  0  0  0  0  0  0  0
  1  2  1  0  0  0  0
  1 22  1  0  0  0  0
  1 23  1  0  0  0  0
  1 24  1  0  0  0  0
  2 21  1  0  0  0  0
  2  3  2  0  0  0  0
  3  4  1  0  0  0  0
  3 25  1  0  0  0  0
  4  5  2  0  0  0  0
  4 26  1  0  0  0  0
  5  6  1  0  0  0  0
  5 20  1  0  0  0  0
  6  7  1  0  0  0  0
  6 27  1  0  0  0  0
  7  8  2  0  0  0  0
  7  9  1  0  0  0  0
  9 10  1  0  0  0  0
  9 28  1  0  0  0  0
 10 11  1  0  0  0  0
 10 29  1  0  0  0  0
 10 30  1  0  0  0  0
 11 12  1  0  0  0  0
 11 31  1  0  0  0  0
 11 32  1  0  0  0  0
 12 13  2  0  0  0  0
 12 14  1  0  0  0  0
 14 19  1  0  0  0  0
 14 15  1  0  0  0  0
 15 16  1  0  0  0  0
 15 33  1  0  0  0  0
 15 34  1  0  0  0  0
 16 17  1  0  0  0  0
 16 35  1  0  0  0  0
 16 36  1  0  0  0  0
 17 18  1  0  0  0  0
 17 37  1  0  0  0  0
 17 38  1  0  0  0  0
 18 19  1  0  0  0  0
 18 39  1  0  0  0  0
 18 40  1  0  0  0  0
 19 41  1  0  0  0  0
 19 42  1  0  0  0  0
 20 21  2  0  0  0  0
 21 43  1  0  0  0  0
M  END
> <s_m_source_file>
AV-unprocessed.smi

> <i_m_source_file_index>
2250

> <i_lp_mmshare_version>
43012

> <i_f3d_flags>
0

> <s_epik_input>
W0NIM11jMVtjSF1bY0hdYyhuW2NIXTEpW05IXUMoPU8pW05IXVtDSDJdW0NIMl1DKD1PKU4yW0NIMl1bQ0gyXVtDSDJdW0NIMl1bQ0gyXTI=

> <s_epik_cmdline>
J2VwaWtfcHl0aG9uJywgJy1waCcsICc3LjAnLCAnLXRuJywgJzgnLCAnLW1hJywgJzIwMCcsICctbWV0YWxfYmluZGluZycsICctaW1hZScsICc8aW5maWxlLm1hZT4nLCAnLW9tYWUnLCAnPG91dGZpbGUubWFlPic=

> <r_lp_tautomer_probability>
1

> <r_epik_Ionization_Penalty>
5.00358e-05

> <r_epik_Ionization_Penalty_Charging>
0

> <r_epik_Ionization_Penalty_Neutral>
5.00358e-05

> <r_epik_State_Penalty>
-0

> <r_epik_Charging_Adjusted_Penalty>
0

> <i_epik_Tot_Q>
0

> <i_epik_Tot_abs_Q>
0

> <r_epik_Metal_State_Penalty>
-0

> <b_epik_Metal_Only>
0

> <s_lp_Force_Field>
OPLS_2005

> <r_lp_Energy>
26.56

> <b_lp_Chiralities_Consistent>
1

> <s_lp_Variant>
AV-unprocessed.smi:2250-1

> <Gold.Version>
5.8.1

> <Gold.Id.Protein>
6NUR|6NUR_protein|mol2

> <Gold.PLP.Fitness>
45.7791

> <Gold.PLP.PLP>
-40.8030

> <Gold.PLP.part.hbond>
-1.5817

> <Gold.PLP.part.metal>
0.0000

> <Gold.PLP.part.buried>
-4.2639

> <Gold.PLP.part.nonpolar>
-33.5449

> <Gold.PLP.part.repulsive>
0.1094

> <Gold.PLP.ligand.clash>
0.0000

> <Gold.PLP.ligand.torsion>
0.1118

> <Gold.PLP.Chemscore.Hbond>
1.7275

> <Gold.PLP.Chemscore.CHOScore>
0.0000

> <Gold.PLP.Chemscore.Metal>
0.0000

> <Gold.Chemscore.Hbonds>
donor molecule, donor type, donor heavy atom, donor atom, acceptor molecule, acceptor atom, score
      P1  H  7997  8010       L1     8  0.89
      P1  H 10752 10764       L1    13  0.80

> <Gold.PLP.Chemscore.Internal.Correction>
0.0172

> <Gold.Rescore>
     Score         DG    S(hbond)    S(metal)    S(lipo)     H(rot)  DE(clash)    DE(int)     intcor
     17.06     -19.46       1.20        0.00     118.26       1.51       0.10       2.31       ----

> <Gold.Chemscore.Fitness>
17.0602

> <Gold.Chemscore.DG>
-19.4649

> <Gold.Chemscore.ZeroCoef>
-5.4800

> <Gold.Chemscore.Hbond>
1.2042

> <Gold.Chemscore.Metal>
0.0000

> <Gold.Chemscore.Lipo>
118.2588

> <Gold.Chemscore.Internal_Hbond>
0.0000

> <Gold.Chemscore.DEClash>
0.0951

> <Gold.Chemscore.DEInternal>
2.3096

> <Gold.Chemscore.Rot>
1.5131

> <Gold.Chemscore.Internal.Correction>
   9.000000E+99

> <Gold.Chemscore.Hbonds>
donor molecule, donor type, donor heavy atom, donor atom, acceptor molecule, acceptor atom, score
      P1  H  7997  8010       L1     8  0.57
      P1  H 10752 10764       L1    13  0.11

> <Gold.Chemscore.Hbond.Weighted>
-4.0221

> <Gold.Chemscore.Metal.Weighted>
-0.0000

> <Gold.Chemscore.Lipo.Weighted>
-13.8363

> <Gold.Chemscore.Internal_Hbond.Weighted>
0.0000

> <Gold.Chemscore.DEClash.Weighted>
0.0951

> <Gold.Chemscore.DEInternal.Weighted>
2.3096

> <Gold.Chemscore.Rot.Weighted>
3.8735

> <Gold.Chemscore.Internal.Correction.Weighted>
   9.000000E+99

> <Gold.Protein.RotatedTorsions>
[ 6907 6896 6895 6894 ] final  173.60 input  -60.11 | X-H torsion
[ 7974 7965 7964 7962 ] final  -40.45 input  175.53 | X-H torsion
[ 8008 7997 7996 7995 ] final    4.76 input   59.86 | X-H torsion
[ 10167 10162 10161 10158 ] final -118.14 input  -65.29 | X-H torsion
[ 10718 10713 10712 10709 ] final   -5.24 input   66.30 | X-H torsion
[ 10763 10752 10751 10750 ] final   70.65 input  -60.55 | X-H torsion
[ 11005 11000 10999 10996 ] final   93.86 input  -57.11 | X-H torsion

> <Gold.Protein.ActiveResidues>
 VAL166  LYS551  ARG553  GLY616  TRP617  ASP618  TYR619  PRO620  LYS621  CYS622 
 ASP623  PHE694  ASN695  SER759  ASP760  ASP761  ALA762  ILE779  LEU786  VAL792 
 PHE793  MET794  SER795  GLU796  ALA797  LYS798  CYS799  TRP800  GLU811  SER814 

> <Gold.Protein.RotatedAtoms>
  151.7657  133.3337  159.3429 H   0  0  0  0  0  0  0  0  0  0  0  0  # atno 6907 bound_to 6896
  150.7481  134.6065  159.6073 H   0  0  0  0  0  0  0  0  0  0  0  0  # atno 6908 bound_to 6896
  152.3375  134.7180  160.0324 H   0  0  0  0  0  0  0  0  0  0  0  0  # atno 6909 bound_to 6896
  146.0303  140.6739  142.9136 H   0  0  0  0  0  0  0  0  0  0  0  0  # atno 7974 bound_to 7965
  154.7199  140.2709  155.6551 H   0  0  0  0  0  0  0  0  0  0  0  0  # atno 8008 bound_to 7997
  156.2820  140.2736  156.1792 H   0  0  0  0  0  0  0  0  0  0  0  0  # atno 8009 bound_to 7997
  155.0521  140.0371  157.2537 H   0  0  0  0  0  0  0  0  0  0  0  0  # atno 8010 bound_to 7997
  140.0608  143.4970  152.2033 H   0  0  0  0  0  0  0  0  0  0  0  0  # atno 10167 bound_to 10162
  156.7494  130.5235  149.5807 H   0  0  0  0  0  0  0  0  0  0  0  0  # atno 10718 bound_to 10713
  153.0354  135.5166  154.7474 H   0  0  0  0  0  0  0  0  0  0  0  0  # atno 10763 bound_to 10752
  154.6455  135.2918  155.0054 H   0  0  0  0  0  0  0  0  0  0  0  0  # atno 10764 bound_to 10752
  154.0957  135.6644  153.4912 H   0  0  0  0  0  0  0  0  0  0  0  0  # atno 10765 bound_to 10752
  139.8805  134.8813  156.3779 H   0  0  0  0  0  0  0  0  0  0  0  0  # atno 11005 bound_to 11000
  144.7027  140.3724  143.7142 LP  0  0  0  0  0  0  0  0  0  0  0  0  # atno 17320 bound_to 7965
  145.7051  139.1670  143.2571 LP  0  0  0  0  0  0  0  0  0  0  0  0  # atno 17321 bound_to 7965
  139.5895  144.7544  151.3436 LP  0  0  0  0  0  0  0  0  0  0  0  0  # atno 17342 bound_to 10162
  140.7173  143.7232  150.7680 LP  0  0  0  0  0  0  0  0  0  0  0  0  # atno 17343 bound_to 10162
  156.1411  130.6245  151.0468 LP  0  0  0  0  0  0  0  0  0  0  0  0  # atno 17370 bound_to 10713
  157.6783  131.0844  150.7436 LP  0  0  0  0  0  0  0  0  0  0  0  0  # atno 17371 bound_to 10713
  140.9419  133.7509  156.0157 LP  0  0  0  0  0  0  0  0  0  0  0  0  # atno 17394 bound_to 11000
  140.8209  134.3290  157.5382 LP  0  0  0  0  0  0  0  0  0  0  0  0  # atno 17395 bound_to 11000

$$$$
