AV-unprocessed.smi:21|AV-procd|sdf|155|dock1
  -GOLD-   2262015383D 1   1.00000     0.00000
 Structure written by MMmdl.
 61 64  0  0  0  0  0  0  0  0  1 V2000
  145.9686  132.8931  154.4838 C   0  0  0  0  0  0  0  0  0  0  0  0
  146.3925  133.0314  153.1373 O   0  0  0  0  0  0  0  0  0  0  0  0
  147.8042  132.9928  152.9835 C   0  0  1  0  0  0  0  0  0  0  0  0
  148.4621  134.1343  153.7746 C   0  0  0  0  0  0  0  0  0  0  0  0
  149.3530  133.4295  154.8105 C   0  0  2  0  0  0  0  0  0  0  0  0
  150.5848  134.2587  155.2350 C   0  0  0  0  0  0  0  0  0  0  0  0
  150.2264  135.4123  156.0657 N   0  0  0  0  0  0  0  0  0  0  0  0
  149.2108  135.2132  157.0926 C   0  0  0  0  0  0  0  0  0  0  0  0
  150.6126  136.6755  155.7177 C   0  0  0  0  0  0  0  0  0  0  0  0
  151.2655  136.8466  154.5367 N   0  0  0  0  0  0  0  0  0  0  0  0
  151.6606  138.0561  154.1351 C   0  0  0  0  0  0  0  0  0  0  0  0
  151.5128  139.2263  154.7533 N   0  0  0  0  0  0  0  0  0  0  0  0
  150.8707  139.0764  155.9453 C   0  0  0  0  0  0  0  0  0  0  0  0
  150.3899  137.8527  156.5008 C   0  0  0  0  0  0  0  0  0  0  0  0
  149.7821  138.1163  157.7252 N   0  0  0  0  0  0  0  0  0  0  0  0
  149.9011  139.4049  157.8835 C   0  0  0  0  0  0  0  0  0  0  0  0
  150.5475  140.0610  156.8633 N   0  0  0  0  0  0  0  0  0  0  0  0
  150.8103  141.4885  156.7872 C   0  0  0  0  0  0  0  0  0  0  0  0
  150.0663  142.2849  157.8936 C   0  0  2  0  0  0  0  0  0  0  0  0
  148.5522  142.3602  157.5939 C   0  0  0  0  0  0  0  0  0  0  0  0
  147.8110  142.5579  158.7803 O   0  0  0  0  0  0  0  0  0  0  0  0
  150.6650  143.7020  158.0857 C   0  0  2  0  0  0  0  0  0  0  0  0
  152.1368  143.7308  158.4597 C   0  0  0  0  0  0  0  0  0  0  0  0
  152.3010  145.1300  159.0405 C   0  0  0  0  0  0  0  0  0  0  0  0
  151.0555  145.4405  159.6526 O   0  0  0  0  0  0  0  0  0  0  0  0
  150.0691  144.4933  159.2566 C   0  0  0  0  0  0  0  0  0  0  0  0
  149.6669  132.1437  154.2077 N   0  0  0  0  0  0  0  0  0  0  0  0
  150.1731  131.1567  155.1522 C   0  0  0  0  0  0  0  0  0  0  0  0
  148.4161  131.7295  153.6035 C   0  0  0  0  0  0  0  0  0  0  0  0
  148.0817  133.0827  151.9315 H   0  0  0  0  0  0  0  0  0  0  0  0
  148.7395  133.2463  155.6947 H   0  0  0  0  0  0  0  0  0  0  0  0
  144.8800  132.9187  154.5271 H   0  0  0  0  0  0  0  0  0  0  0  0
  146.3471  133.7018  155.1096 H   0  0  0  0  0  0  0  0  0  0  0  0
  146.2979  131.9421  154.9043 H   0  0  0  0  0  0  0  0  0  0  0  0
  149.0623  134.7400  153.0950 H   0  0  0  0  0  0  0  0  0  0  0  0
  147.7359  134.7941  154.2510 H   0  0  0  0  0  0  0  0  0  0  0  0
  151.2542  133.6376  155.8295 H   0  0  0  0  0  0  0  0  0  0  0  0
  151.1709  134.5391  154.3601 H   0  0  0  0  0  0  0  0  0  0  0  0
  149.4881  135.7199  158.0172 H   0  0  0  0  0  0  0  0  0  0  0  0
  149.0918  134.1539  157.3224 H   0  0  0  0  0  0  0  0  0  0  0  0
  148.2440  135.5892  156.7564 H   0  0  0  0  0  0  0  0  0  0  0  0
  152.1675  138.0901  153.1821 H   0  0  0  0  0  0  0  0  0  0  0  0
  149.5185  139.9145  158.7555 H   0  0  0  0  0  0  0  0  0  0  0  0
  151.8872  141.6524  156.8291 H   0  0  0  0  0  0  0  0  0  0  0  0
  150.5135  141.8224  155.7922 H   0  0  0  0  0  0  0  0  0  0  0  0
  150.1785  141.7591  158.8439 H   0  0  0  0  0  0  0  0  0  0  0  0
  148.3228  143.1930  156.9300 H   0  0  0  0  0  0  0  0  0  0  0  0
  148.2082  141.4519  157.0983 H   0  0  0  0  0  0  0  0  0  0  0  0
  147.1922  143.2574  158.6351 H   0  0  0  0  0  0  0  0  0  0  0  0
  150.5314  144.2817  157.1705 H   0  0  0  0  0  0  0  0  0  0  0  0
  152.3545  142.9793  159.2202 H   0  0  0  0  0  0  0  0  0  0  0  0
  152.8007  143.5638  157.6122 H   0  0  0  0  0  0  0  0  0  0  0  0
  153.1240  145.1922  159.7526 H   0  0  0  0  0  0  0  0  0  0  0  0
  152.4858  145.8522  158.2445 H   0  0  0  0  0  0  0  0  0  0  0  0
  149.1377  144.9940  158.9919 H   0  0  0  0  0  0  0  0  0  0  0  0
  149.8694  143.8376  160.1053 H   0  0  0  0  0  0  0  0  0  0  0  0
  150.3331  130.1995  154.6553 H   0  0  0  0  0  0  0  0  0  0  0  0
  149.4737  130.9988  155.9740 H   0  0  0  0  0  0  0  0  0  0  0  0
  151.1279  131.4707  155.5729 H   0  0  0  0  0  0  0  0  0  0  0  0
  147.7450  131.3440  154.3734 H   0  0  0  0  0  0  0  0  0  0  0  0
  148.5667  130.9374  152.8694 H   0  0  0  0  0  0  0  0  0  0  0  0
  1  2  1  0  0  0  0
  1 32  1  0  0  0  0
  1 33  1  0  0  0  0
  1 34  1  0  0  0  0
  2  3  1  0  0  0  0
  3 30  1  0  0  0  0
  3 29  1  0  0  0  0
  3  4  1  0  0  0  0
  4  5  1  0  0  0  0
  4 35  1  0  0  0  0
  4 36  1  0  0  0  0
  5 31  1  0  0  0  0
  5  6  1  0  0  0  0
  5 27  1  0  0  0  0
  6  7  1  0  0  0  0
  6 37  1  0  0  0  0
  6 38  1  0  0  0  0
  7  8  1  0  0  0  0
  7  9  1  0  0  0  0
  8 39  1  0  0  0  0
  8 40  1  0  0  0  0
  8 41  1  0  0  0  0
  9 14  1  0  0  0  0
  9 10  2  0  0  0  0
 10 11  1  0  0  0  0
 11 12  2  0  0  0  0
 11 42  1  0  0  0  0
 12 13  1  0  0  0  0
 13 17  1  0  0  0  0
 13 14  2  0  0  0  0
 14 15  1  0  0  0  0
 15 16  2  0  0  0  0
 16 17  1  0  0  0  0
 16 43  1  0  0  0  0
 17 18  1  0  0  0  0
 18 19  1  0  0  0  0
 18 44  1  0  0  0  0
 18 45  1  0  0  0  0
 19 20  1  0  0  0  0
 19 22  1  0  0  0  0
 19 46  1  0  0  0  0
 20 21  1  0  0  0  0
 20 47  1  0  0  0  0
 20 48  1  0  0  0  0
 21 49  1  0  0  0  0
 22 26  1  0  0  0  0
 22 23  1  0  0  0  0
 22 50  1  0  0  0  0
 23 24  1  0  0  0  0
 23 51  1  0  0  0  0
 23 52  1  0  0  0  0
 24 25  1  0  0  0  0
 24 53  1  0  0  0  0
 24 54  1  0  0  0  0
 25 26  1  0  0  0  0
 26 55  1  0  0  0  0
 26 56  1  0  0  0  0
 27 28  1  0  0  0  0
 27 29  1  0  0  0  0
 28 57  1  0  0  0  0
 28 58  1  0  0  0  0
 28 59  1  0  0  0  0
 29 60  1  0  0  0  0
 29 61  1  0  0  0  0
M  END
> <s_m_source_file>
AV-unprocessed.smi

> <i_m_source_file_index>
21

> <i_lp_mmshare_version>
43012

> <i_f3d_flags>
0

> <s_epik_input>
W0NIM11PW0NASF0xW0NIMl1bQ0BIXShOKFtDSDNdKVtDSDJdMSlbQ0gyXU4oW0NIM10pYyhuW2NIXW4yKWMoYzIzKW5bY0hdbjNbQ0gyXVtDQEhdKFtDSDJdW09IXSlbQ0BASF00W0NIMl1bQ0gyXU9bQ0gyXTQ=

> <s_epik_cmdline>
J2VwaWtfcHl0aG9uJywgJy1waCcsICc3LjAnLCAnLXRuJywgJzgnLCAnLW1hJywgJzIwMCcsICctbWV0YWxfYmluZGluZycsICctaW1hZScsICc8aW5maWxlLm1hZT4nLCAnLW9tYWUnLCAnPG91dGZpbGUubWFlPic=

> <r_lp_tautomer_probability>
1

> <r_epik_Ionization_Penalty>
2.17574

> <r_epik_Ionization_Penalty_Charging>
0

> <r_epik_Ionization_Penalty_Neutral>
2.17574

> <r_epik_State_Penalty>
2.31336

> <r_epik_Charging_Adjusted_Penalty>
2.31336

> <i_epik_Tot_Q>
0

> <i_epik_Tot_abs_Q>
0

> <r_epik_Metal_State_Penalty>
2.31025

> <b_epik_Metal_Only>
0

> <s_lp_Force_Field>
OPLS_2005

> <r_lp_Energy>
70.8096

> <b_lp_Chiralities_Consistent>
1

> <s_lp_Variant>
AV-unprocessed.smi:21-35

> <Gold.Version>
5.8.1

> <Gold.Id.Protein>
6NUR|6NUR_protein|mol2

> <Gold.PLP.Fitness>
49.7529

> <Gold.PLP.PLP>
-43.6364

> <Gold.PLP.part.hbond>
-3.5313

> <Gold.PLP.part.metal>
0.0000

> <Gold.PLP.part.buried>
-6.0528

> <Gold.PLP.part.nonpolar>
-33.3386

> <Gold.PLP.part.repulsive>
0.5589

> <Gold.PLP.ligand.clash>
0.0000

> <Gold.PLP.ligand.torsion>
0.7270

> <Gold.PLP.Chemscore.Hbond>
1.9588

> <Gold.PLP.Chemscore.CHOScore>
0.2454

> <Gold.PLP.Chemscore.Metal>
0.0000

> <Gold.Chemscore.Hbonds>
donor molecule, donor type, donor heavy atom, donor atom, acceptor molecule, acceptor atom, score
      P1  H  7989  7998       L1    12  0.93
      P1  H 10752 10763       L1    10  0.93
      L1  C    11    42       P1  7949  0.10

> <Gold.PLP.Chemscore.Internal.Correction>
0.9580

> <Gold.Rescore>
     Score         DG    S(hbond)    S(metal)    S(lipo)     H(rot)  DE(clash)    DE(int)     intcor
     11.33     -13.41       1.22        0.00      98.58       3.00       0.05       2.03       ----

> <Gold.Chemscore.Fitness>
11.3321

> <Gold.Chemscore.DG>
-13.4122

> <Gold.Chemscore.ZeroCoef>
-5.4800

> <Gold.Chemscore.Hbond>
1.2235

> <Gold.Chemscore.Metal>
0.0000

> <Gold.Chemscore.Lipo>
98.5795

> <Gold.Chemscore.Internal_Hbond>
0.0000

> <Gold.Chemscore.DEClash>
0.0524

> <Gold.Chemscore.DEInternal>
2.0278

> <Gold.Chemscore.Rot>
3.0031

> <Gold.Chemscore.Internal.Correction>
   9.000000E+99

> <Gold.Chemscore.Hbonds>
donor molecule, donor type, donor heavy atom, donor atom, acceptor molecule, acceptor atom, score
      P1  H  7989  7998       L1    12  0.78
      P1  H 10752 10763       L1    10  0.38

> <Gold.Chemscore.Hbond.Weighted>
-4.0864

> <Gold.Chemscore.Metal.Weighted>
-0.0000

> <Gold.Chemscore.Lipo.Weighted>
-11.5338

> <Gold.Chemscore.Internal_Hbond.Weighted>
0.0000

> <Gold.Chemscore.DEClash.Weighted>
0.0524

> <Gold.Chemscore.DEInternal.Weighted>
2.0278

> <Gold.Chemscore.Rot.Weighted>
7.6880

> <Gold.Chemscore.Internal.Correction.Weighted>
   9.000000E+99

> <Gold.Protein.RotatedTorsions>
[ 6907 6896 6895 6894 ] final  -27.25 input  -60.11 | X-H torsion
[ 7974 7965 7964 7962 ] final   -8.83 input  175.53 | X-H torsion
[ 8008 7997 7996 7995 ] final -128.44 input   59.86 | X-H torsion
[ 10167 10162 10161 10158 ] final   47.04 input  -65.29 | X-H torsion
[ 10718 10713 10712 10709 ] final  153.69 input   66.30 | X-H torsion
[ 10763 10752 10751 10750 ] final   50.21 input  -60.55 | X-H torsion
[ 11005 11000 10999 10996 ] final  106.73 input  -57.11 | X-H torsion

> <Gold.Protein.ActiveResidues>
 VAL166  LYS551  ARG553  GLY616  TRP617  ASP618  TYR619  PRO620  LYS621  CYS622 
 ASP623  PHE694  ASN695  SER759  ASP760  ASP761  ALA762  ILE779  LEU786  VAL792 
 PHE793  MET794  SER795  GLU796  ALA797  LYS798  CYS799  TRP800  GLU811  SER814 

> <Gold.Protein.RotatedAtoms>
  151.1496  135.0220  159.8661 H   0  0  0  0  0  0  0  0  0  0  0  0  # atno 6907 bound_to 6896
  152.5453  134.1404  159.8487 H   0  0  0  0  0  0  0  0  0  0  0  0  # atno 6908 bound_to 6896
  151.1488  133.4875  159.2628 H   0  0  0  0  0  0  0  0  0  0  0  0  # atno 6909 bound_to 6896
  146.2269  140.2526  142.8348 H   0  0  0  0  0  0  0  0  0  0  0  0  # atno 7974 bound_to 7965
  155.2627  140.0436  157.2999 H   0  0  0  0  0  0  0  0  0  0  0  0  # atno 8008 bound_to 7997
  154.5701  140.2371  155.8174 H   0  0  0  0  0  0  0  0  0  0  0  0  # atno 8009 bound_to 7997
  156.2115  140.2997  155.9752 H   0  0  0  0  0  0  0  0  0  0  0  0  # atno 8010 bound_to 7997
  140.3077  144.2857  150.6206 H   0  0  0  0  0  0  0  0  0  0  0  0  # atno 10167 bound_to 10162
  157.2414  131.0760  151.1790 H   0  0  0  0  0  0  0  0  0  0  0  0  # atno 10718 bound_to 10713
  152.9785  135.5886  154.4214 H   0  0  0  0  0  0  0  0  0  0  0  0  # atno 10763 bound_to 10752
  154.3838  135.2767  155.2197 H   0  0  0  0  0  0  0  0  0  0  0  0  # atno 10764 bound_to 10752
  154.4099  135.6084  153.6001 H   0  0  0  0  0  0  0  0  0  0  0  0  # atno 10765 bound_to 10752
  139.8818  134.9378  156.5710 H   0  0  0  0  0  0  0  0  0  0  0  0  # atno 11005 bound_to 11000
  144.9400  140.8068  143.5636 LP  0  0  0  0  0  0  0  0  0  0  0  0  # atno 17320 bound_to 7965
  145.2477  139.2045  143.4959 LP  0  0  0  0  0  0  0  0  0  0  0  0  # atno 17321 bound_to 7965
  140.5595  143.2194  151.7789 LP  0  0  0  0  0  0  0  0  0  0  0  0  # atno 17342 bound_to 10162
  139.4900  144.4368  151.9810 LP  0  0  0  0  0  0  0  0  0  0  0  0  # atno 17343 bound_to 10162
  157.3375  130.7016  149.6361 LP  0  0  0  0  0  0  0  0  0  0  0  0  # atno 17370 bound_to 10713
  155.9670  130.4289  150.4811 LP  0  0  0  0  0  0  0  0  0  0  0  0  # atno 17371 bound_to 10713
  140.8098  133.8438  155.8800 LP  0  0  0  0  0  0  0  0  0  0  0  0  # atno 17394 bound_to 11000
  140.9517  134.1770  157.4723 LP  0  0  0  0  0  0  0  0  0  0  0  0  # atno 17395 bound_to 11000

$$$$
