#       Name:                AV-unprocessed.smi:2259
#       Creating user name   scv26
#       Creation time:       Fri Mar 27 12:33:53 2020


#       File generated by GOLD software.
#

@<TRIPOS>MOLECULE
AV-unprocessed.smi:2259
    47    48     1
SMALL
NO_CHARGES


@<TRIPOS>ATOM
      1 ****        -3.7247   3.0623   1.1306 C.3            1 S1                 0.0000
      2 ****        -3.0836   1.6896   1.2317 C.2            1 S1                 0.0000
      3 ****        -3.1894   0.8886   0.0914 N.2            1 S1                 0.0000
      4 ****        -2.6658  -0.2933   0.0829 C.2            1 S1                 0.0000
      5 ****        -1.9813  -0.8071   1.1981 N.am           1 S1                 0.0000
      6 ****        -1.4290  -2.1681   1.0659 C.3            1 S1                 0.0000
      7 ****         0.1091  -2.1919   0.9004 C.3            1 S1                 0.0000
      8 ****         0.5036  -3.5488   0.9148 O.3            1 S1                 0.0000
      9 ****         0.6051  -1.5583  -0.4122 C.3            1 S1                 0.0000
     10 ****         1.9952  -1.2870  -0.2935 O.3            1 S1                 0.0000
     11 ****         2.6434  -0.7129  -1.3661 C.ar           1 S1                 0.0000
     12 ****         4.0287  -0.4888  -1.2298 C.ar           1 S1                 0.0000
     13 ****         4.7726   0.0931  -2.2744 C.ar           1 S1                 0.0000
     14 ****         4.1335   0.4612  -3.4746 C.ar           1 S1                 0.0000
     15 ****         4.8984   1.0626  -4.5544 C.1            1 S1                 0.0000
     16 ****         5.5072   1.5415  -5.4140 N.1            1 S1                 0.0000
     17 ****         2.7493   0.2438  -3.6228 C.ar           1 S1                 0.0000
     18 ****         2.0071  -0.3398  -2.5772 C.ar           1 S1                 0.0000
     19 ****        -1.8517  -0.0993   2.3576 C.2            1 S1                 0.0000
     20 ****        -1.2738  -0.5677   3.3401 O.2            1 S1                 0.0000
     21 ****        -2.4442   1.2481   2.3490 C.2            1 S1                 0.0000
     22 ****        -2.2979   2.0760   3.6198 C.3            1 S1                 0.0000
     23 ****        -4.5025   3.1766   1.8861 H              1 S1                 0.0000
     24 ****        -4.1842   3.2153   0.1532 H              1 S1                 0.0000
     25 ****        -2.9786   3.8443   1.2748 H              1 S1                 0.0000
     26 ****        -2.7188  -0.9537  -0.7842 H              1 S1                 0.0000
     27 ****        -1.7067  -2.7399   1.9537 H              1 S1                 0.0000
     28 ****        -1.8908  -2.7096   0.2375 H              1 S1                 0.0000
     29 ****         0.5777  -1.6924   1.7488 H              1 S1                 0.0000
     30 ****         0.1074  -3.9865   0.1771 H              1 S1                 0.0000
     31 ****         0.3919  -2.2092  -1.2621 H              1 S1                 0.0000
     32 ****         0.0948  -0.6100  -0.5803 H              1 S1                 0.0000
     33 ****         4.5280  -0.7677  -0.3133 H              1 S1                 0.0000
     34 ****         5.8337   0.2539  -2.1474 H              1 S1                 0.0000
     35 ****         2.2479   0.5229  -4.5386 H              1 S1                 0.0000
     36 ****         0.9492  -0.4891  -2.7299 H              1 S1                 0.0000
     37 ****        -2.7686   1.5627   4.4587 H              1 S1                 0.0000
     38 ****        -2.7505   3.0635   3.5444 H              1 S1                 0.0000
     39 ****        -1.2427   2.2167   3.8572 H              1 S1                 0.0000
     40 ****        -3.6695   1.2292  -0.7169 LP             1 S1                 0.0000
     41 ****         0.1993  -3.9790   1.7647 LP             1 S1                 0.0000
     42 ****         1.4995  -3.6107   0.8479 LP             1 S1                 0.0000
     43 ****         2.4512  -2.1564  -0.1028 LP             1 S1                 0.0000
     44 ****         2.1112  -0.6718   0.4863 LP             1 S1                 0.0000
     45 ****         6.0334   1.9553  -6.1569 LP             1 S1                 0.0000
     46 ****        -0.8855  -1.4884   3.3000 LP             1 S1                 0.0000
     47 ****        -1.1931  -0.0271   4.1775 LP             1 S1                 0.0000
@<TRIPOS>BOND
    1    1    2 1     
    2    1   23 1     
    3    1   24 1     
    4    1   25 1     
    5    2   21 2     
    6    2    3 1     
    7    3    4 2     
    8    4    5 1     
    9    4   26 1     
   10    5    6 1     
   11    5   19 am    
   12    6    7 1     
   13    6   27 1     
   14    6   28 1     
   15    7    8 1     
   16    7    9 1     
   17    7   29 1     
   18    8   30 1     
   19    9   10 1     
   20    9   31 1     
   21    9   32 1     
   22   10   11 1     
   23   11   18 ar    
   24   11   12 ar    
   25   12   13 ar    
   26   12   33 1     
   27   13   14 ar    
   28   13   34 1     
   29   14   15 1     
   30   14   17 ar    
   31   15   16 3     
   32   17   18 ar    
   33   17   35 1     
   34   18   36 1     
   35   19   20 2     
   36   19   21 1     
   37   21   22 1     
   38   22   37 1     
   39   22   38 1     
   40   22   39 1     
   41    3   40 1     
   42    8   41 1     
   43    8   42 1     
   44   10   43 1     
   45   10   44 1     
   46   16   45 1     
   47   20   46 1     
   48   20   47 1     
@<TRIPOS>SUBSTRUCTURE
      1 S1             1
@<TRIPOS>SET
LONE_PAIRS      STATIC     ATOMS    <user>   **** ""
8 40 41 42 43 44 45 46 47
DONOR_HYDROGENS      STATIC     ATOMS    <user>   **** ""
1 30
ATOM$BLUE        STATIC     ATOMS    COLORGROUP SYSTEM
8 40 41 42 43 44 45 46 47
ATOM$RED        STATIC     ATOMS    COLORGROUP SYSTEM
1 30
