#       Name:                AV-unprocessed.smi:2046
#       Creating user name   scv26
#       Creation time:       Fri Mar 27 10:57:55 2020


#       File generated by GOLD software.
#

@<TRIPOS>MOLECULE
AV-unprocessed.smi:2046
    36    37     1
SMALL
NO_CHARGES


@<TRIPOS>ATOM
      1 ****         1.9820   0.5577   0.6321 O.2            1 S1                 0.0000
      2 ****         1.6726  -0.4552   0.0036 C.2            1 S1                 0.0000
      3 ****         2.5101  -1.4561  -0.3203 N.am           1 S1                 0.0000
      4 ****         3.8941  -1.5765  -0.0259 C.2            1 S1                 0.0000
      5 ****         4.5925  -0.6580   0.6603 N.2            1 S1                 0.0000
      6 ****         5.9250  -1.0215   0.8072 N.2            1 S1                 0.0000
      7 ****         6.1788  -2.1980   0.2272 C.2            1 S1                 0.0000
      8 ****         4.8148  -2.9772  -0.5555 S.3            1 S1                 0.0000
      9 ****         0.4331  -0.6962  -0.4480 N.am           1 S1                 0.0000
     10 ****        -0.7187   0.1934  -0.2980 C.3            1 S1                 0.0000
     11 ****        -1.3398   0.0527   1.1157 C.3            1 S1                 0.0000
     12 ****        -2.8264   0.4457   1.2455 C.3            1 S1                 0.0000
     13 ****        -3.1901   1.8512   0.7251 C.3            1 S1                 0.0000
     14 ****        -2.8093   2.1711  -0.7406 C.3            1 S1                 0.0000
     15 ****        -2.6616   0.9954  -1.5980 N.am           1 S1                 0.0000
     16 ****        -1.7091   0.0554  -1.4703 C.2            1 S1                 0.0000
     17 ****        -1.6386  -0.8970  -2.2463 O.2            1 S1                 0.0000
     18 ****         2.1105  -2.2227  -0.8413 H              1 S1                 0.0000
     19 ****         7.1767  -2.6097   0.2604 H              1 S1                 0.0000
     20 ****         0.2709  -1.5524  -0.9581 H              1 S1                 0.0000
     21 ****        -0.3248   1.2073  -0.3803 H              1 S1                 0.0000
     22 ****        -1.2454  -0.9814   1.4503 H              1 S1                 0.0000
     23 ****        -0.7507   0.6424   1.8193 H              1 S1                 0.0000
     24 ****        -3.4432  -0.2967   0.7372 H              1 S1                 0.0000
     25 ****        -3.1133   0.3778   2.2952 H              1 S1                 0.0000
     26 ****        -4.2688   1.9707   0.8322 H              1 S1                 0.0000
     27 ****        -2.7490   2.6063   1.3765 H              1 S1                 0.0000
     28 ****        -3.5662   2.8222  -1.1787 H              1 S1                 0.0000
     29 ****        -1.8852   2.7495  -0.7682 H              1 S1                 0.0000
     30 ****        -3.3203   0.8984  -2.3572 H              1 S1                 0.0000
     31 ****         2.9233   0.6839   0.9450 LP             1 S1                 0.0000
     32 ****         1.2919   1.2540   0.8294 LP             1 S1                 0.0000
     33 ****         4.2000   0.1874   1.0226 LP             1 S1                 0.0000
     34 ****         6.6086  -0.4715   1.2869 LP             1 S1                 0.0000
     35 ****        -0.9322  -1.5934  -2.1202 LP             1 S1                 0.0000
     36 ****        -2.2877  -0.9744  -3.0031 LP             1 S1                 0.0000
@<TRIPOS>BOND
    1    1    2 2     
    2    2    3 am    
    3    2    9 am    
    4    3    4 1     
    5    3   18 1     
    6    4    8 1     
    7    4    5 2     
    8    5    6 1     
    9    6    7 2     
   10    7    8 1     
   11    7   19 1     
   12    9   10 1     
   13    9   20 1     
   14   10   16 1     
   15   10   11 1     
   16   10   21 1     
   17   11   12 1     
   18   11   22 1     
   19   11   23 1     
   20   12   13 1     
   21   12   24 1     
   22   12   25 1     
   23   13   14 1     
   24   13   26 1     
   25   13   27 1     
   26   14   15 1     
   27   14   28 1     
   28   14   29 1     
   29   15   16 am    
   30   15   30 1     
   31   16   17 2     
   32    1   31 1     
   33    1   32 1     
   34    5   33 1     
   35    6   34 1     
   36   17   35 1     
   37   17   36 1     
@<TRIPOS>SUBSTRUCTURE
      1 S1             1
@<TRIPOS>SET
LONE_PAIRS      STATIC     ATOMS    <user>   **** ""
6 31 32 33 34 35 36
DONOR_HYDROGENS      STATIC     ATOMS    <user>   **** ""
3 18 20 30
ATOM$BLUE        STATIC     ATOMS    COLORGROUP SYSTEM
6 31 32 33 34 35 36
ATOM$RED        STATIC     ATOMS    COLORGROUP SYSTEM
3 18 20 30
