#       Name:                AV-unprocessed.smi:2045
#       Creating user name   scv26
#       Creation time:       Fri Mar 27 10:57:43 2020


#       File generated by GOLD software.
#

@<TRIPOS>MOLECULE
AV-unprocessed.smi:2045
    44    45     1
SMALL
NO_CHARGES


@<TRIPOS>ATOM
      1 ****        -5.9662   4.0761   0.2940 C.3            1 S1                 0.0000
      2 ****        -4.6829   3.6860   0.9431 C.2            1 S1                 0.0000
      3 ****        -4.0760   2.4806   1.1566 C.2            1 S1                 0.0000
      4 ****        -2.8727   2.8370   1.8244 C.2            1 S1                 0.0000
      5 ****        -1.9315   1.9853   2.2604 N.pl3          1 S1                -1.0000
      6 ****        -0.9393   1.5861   1.4331 C.2            1 S1                 0.0000
      7 ****        -0.7878   1.9199   0.2554 O.2            1 S1                 0.0000
      8 ****        -0.0683   0.7417   2.0042 N.am           1 S1                 0.0000
      9 ****         1.0915   0.1485   1.3497 C.3            1 S1                 0.0000
     10 ****         0.6797  -1.0140   0.4273 C.3            1 S1                 0.0000
     11 ****         1.8472  -1.6552  -0.2267 N.4            1 S1                 1.0000
     12 ****         2.3979  -0.8547  -1.3537 C.3            1 S1                 0.0000
     13 ****         3.6789  -1.4948  -1.9148 C.3            1 S1                 0.0000
     14 ****         3.4240  -2.9431  -2.3518 C.3            1 S1                 0.0000
     15 ****         2.8216  -3.7424  -1.1891 C.3            1 S1                 0.0000
     16 ****         1.5602  -3.0535  -0.6411 C.3            1 S1                 0.0000
     17 ****        -2.7661   4.1416   2.0131 N.2            1 S1                 0.0000
     18 ****        -3.9202   4.6940   1.4448 O.3            1 S1                 0.0000
     19 ****        -6.5553   3.1963   0.0351 H              1 S1                 0.0000
     20 ****        -5.7794   4.6395  -0.6201 H              1 S1                 0.0000
     21 ****        -6.5634   4.6986   0.9606 H              1 S1                 0.0000
     22 ****        -4.4338   1.5008   0.8782 H              1 S1                 0.0000
     23 ****        -0.2258   0.4978   2.9714 H              1 S1                 0.0000
     24 ****         1.6300   0.9254   0.8066 H              1 S1                 0.0000
     25 ****         1.7680  -0.2138   2.1240 H              1 S1                 0.0000
     26 ****         0.1555  -1.7525   1.0356 H              1 S1                 0.0000
     27 ****        -0.0297  -0.6856  -0.3338 H              1 S1                 0.0000
     28 ****         1.6470  -0.7686  -2.1408 H              1 S1                 0.0000
     29 ****         2.6262   0.1590  -1.0268 H              1 S1                 0.0000
     30 ****         4.0487  -0.9108  -2.7582 H              1 S1                 0.0000
     31 ****         4.4623  -1.4723  -1.1560 H              1 S1                 0.0000
     32 ****         2.7406  -2.9573  -3.2019 H              1 S1                 0.0000
     33 ****         4.3526  -3.4059  -2.6879 H              1 S1                 0.0000
     34 ****         2.5806  -4.7536  -1.5179 H              1 S1                 0.0000
     35 ****         3.5595  -3.8433  -0.3921 H              1 S1                 0.0000
     36 ****         1.1872  -3.6224   0.2114 H              1 S1                 0.0000
     37 ****         0.7708  -3.0562  -1.3946 H              1 S1                 0.0000
     38 ****         2.5695  -1.7126   0.4768 H              1 S1                 0.0000
     39 ****        -1.9642   1.6448   3.2001 LP             1 S1                 0.0000
     40 ****        -1.4381   2.5464  -0.1743 LP             1 S1                 0.0000
     41 ****        -0.0148   1.5640  -0.2696 LP             1 S1                 0.0000
     42 ****        -2.0198   4.6297   2.4656 LP             1 S1                 0.0000
     43 ****        -4.4353   5.1902   2.1437 LP             1 S1                 0.0000
     44 ****        -3.6660   5.3220   0.7093 LP             1 S1                 0.0000
@<TRIPOS>BOND
    1    1    2 1     
    2    1   19 1     
    3    1   20 1     
    4    1   21 1     
    5    2   18 1     
    6    2    3 2     
    7    3    4 1     
    8    3   22 1     
    9    4    5 1     
   10    4   17 2     
   11    5    6 1     
   12    6    7 2     
   13    6    8 am    
   14    8    9 1     
   15    8   23 1     
   16    9   10 1     
   17    9   24 1     
   18    9   25 1     
   19   10   11 1     
   20   10   26 1     
   21   10   27 1     
   22   11   16 1     
   23   11   12 1     
   24   11   38 1     
   25   12   13 1     
   26   12   28 1     
   27   12   29 1     
   28   13   14 1     
   29   13   30 1     
   30   13   31 1     
   31   14   15 1     
   32   14   32 1     
   33   14   33 1     
   34   15   16 1     
   35   15   34 1     
   36   15   35 1     
   37   16   36 1     
   38   16   37 1     
   39   17   18 1     
   40    5   39 1     
   41    7   40 1     
   42    7   41 1     
   43   17   42 1     
   44   18   43 1     
   45   18   44 1     
@<TRIPOS>SUBSTRUCTURE
      1 S1             1
@<TRIPOS>SET
LONE_PAIRS      STATIC     ATOMS    <user>   **** ""
6 39 40 41 42 43 44
DONOR_HYDROGENS      STATIC     ATOMS    <user>   **** ""
2 23 38
ATOM$BLUE        STATIC     ATOMS    COLORGROUP SYSTEM
6 39 40 41 42 43 44
ATOM$RED        STATIC     ATOMS    COLORGROUP SYSTEM
2 23 38
