#       Name:                AV-unprocessed.smi:450
#       Creating user name   scv26
#       Creation time:       Thu Mar 26 23:00:26 2020


#       File generated by GOLD software.
#

@<TRIPOS>MOLECULE
AV-unprocessed.smi:450
    37    37     1
SMALL
NO_CHARGES


@<TRIPOS>ATOM
      1 ****        -2.1688  -1.6300   2.3273 C.3            1 S1                 0.0000
      2 ****        -2.4178  -2.4231   1.0361 C.3            1 S1                 0.0000
      3 ****        -2.0721  -1.6464  -0.2492 C.3            1 S1                 0.0000
      4 ****        -2.4230  -2.4493  -1.5096 C.3            1 S1                 0.0000
      5 ****        -0.6504  -1.3061  -0.2762 N.am           1 S1                 0.0000
      6 ****        -0.1339  -0.0679  -0.2418 C.2            1 S1                 0.0000
      7 ****        -0.8210   0.9532  -0.1868 O.2            1 S1                 0.0000
      8 ****         1.3974   0.0094  -0.2691 C.3            1 S1                 0.0000
      9 ****         1.8959   1.3840  -0.2502 N.pl3          1 S1                 0.0000
     10 ****         2.1703   2.1557   0.8210 C.2            1 S1                 0.0000
     11 ****         1.9917   1.6778   2.1109 N.pl3          1 S1                 0.0000
     12 ****         2.6075   3.3760   0.5223 N.2            1 S1                 0.0000
     13 ****         2.6173   3.4263  -0.8703 C.2            1 S1                 0.0000
     14 ****         3.0260   4.5920  -1.5786 C.1            1 S1                 0.0000
     15 ****         3.3587   5.5374  -2.1565 N.1            1 S1                 0.0000
     16 ****         2.1788   2.2063  -1.3384 C.2            1 S1                 0.0000
     17 ****         2.0272   1.8329  -2.6906 C.1            1 S1                 0.0000
     18 ****         1.9028   1.5255  -3.7988 N.1            1 S1                 0.0000
     19 ****        -2.4868  -2.2018   3.1991 H              1 S1                 0.0000
     20 ****        -2.7236  -0.6914   2.3255 H              1 S1                 0.0000
     21 ****        -1.1122  -1.3951   2.4573 H              1 S1                 0.0000
     22 ****        -1.8502  -3.3539   1.0706 H              1 S1                 0.0000
     23 ****        -3.4691  -2.7115   1.0052 H              1 S1                 0.0000
     24 ****        -2.6780  -0.7389  -0.2645 H              1 S1                 0.0000
     25 ****        -3.4842  -2.6985  -1.5329 H              1 S1                 0.0000
     26 ****        -1.8610  -3.3826  -1.5568 H              1 S1                 0.0000
     27 ****        -2.1999  -1.8799  -2.4126 H              1 S1                 0.0000
     28 ****        -0.0047  -2.0813  -0.3202 H              1 S1                 0.0000
     29 ****         1.8042  -0.5321   0.5857 H              1 S1                 0.0000
     30 ****         1.7708  -0.4970  -1.1597 H              1 S1                 0.0000
     31 ****         1.6524   0.7418   2.2806 H              1 S1                 0.0000
     32 ****         2.2353   2.2310   2.9195 H              1 S1                 0.0000
     33 ****        -1.8184   0.8841  -0.1656 LP             1 S1                 0.0000
     34 ****        -0.3813   1.8510  -0.1635 LP             1 S1                 0.0000
     35 ****         2.8719   4.1003   1.1590 LP             1 S1                 0.0000
     36 ****         3.6463   6.3545  -2.6561 LP             1 S1                 0.0000
     37 ****         1.7953   1.2597  -4.7569 LP             1 S1                 0.0000
@<TRIPOS>BOND
    1    1    2 1     
    2    1   19 1     
    3    1   20 1     
    4    1   21 1     
    5    2    3 1     
    6    2   22 1     
    7    2   23 1     
    8    3    4 1     
    9    3    5 1     
   10    3   24 1     
   11    4   25 1     
   12    4   26 1     
   13    4   27 1     
   14    5    6 am    
   15    5   28 1     
   16    6    7 2     
   17    6    8 1     
   18    8    9 1     
   19    8   29 1     
   20    8   30 1     
   21    9   16 1     
   22    9   10 1     
   23   10   11 1     
   24   10   12 2     
   25   11   31 1     
   26   11   32 1     
   27   12   13 1     
   28   13   14 1     
   29   13   16 2     
   30   14   15 3     
   31   16   17 1     
   32   17   18 3     
   33    7   33 1     
   34    7   34 1     
   35   12   35 1     
   36   15   36 1     
   37   18   37 1     
@<TRIPOS>SUBSTRUCTURE
      1 S1             1
@<TRIPOS>SET
LONE_PAIRS      STATIC     ATOMS    <user>   **** ""
5 33 34 35 36 37
DONOR_HYDROGENS      STATIC     ATOMS    <user>   **** ""
3 28 31 32
ATOM$BLUE        STATIC     ATOMS    COLORGROUP SYSTEM
5 33 34 35 36 37
ATOM$RED        STATIC     ATOMS    COLORGROUP SYSTEM
3 28 31 32
