#       Name:                AV-unprocessed.smi:1216
#       Creating user name   scv26
#       Creation time:       Fri Mar 27 04:15:25 2020


#       File generated by GOLD software.
#

@<TRIPOS>MOLECULE
AV-unprocessed.smi:1216
    47    48     1
SMALL
NO_CHARGES


@<TRIPOS>ATOM
      1 ****        -3.0278  -2.4609   2.7556 C.3            1 S1                 0.0000
      2 ****        -2.6536  -1.3729   1.7405 C.3            1 S1                 0.0000
      3 ****        -3.3760  -1.5896   0.3929 C.3            1 S1                 0.0000
      4 ****        -3.1458  -0.5093  -0.5498 N.pl3          1 S1                 0.0000
      5 ****        -3.6582   0.7800  -0.4902 C.2            1 S1                 0.0000
      6 ****        -3.1603   1.4519  -1.5838 C.2            1 S1                 0.0000
      7 ****        -2.3530   0.5981  -2.3315 N.2            1 S1                 0.0000
      8 ****        -2.3971  -0.5458  -1.6607 C.2            1 S1                 0.0000
      9 ****        -1.2025  -1.3714   1.5583 N.am           1 S1                 0.0000
     10 ****        -0.4326  -0.2793   1.4278 C.2            1 S1                 0.0000
     11 ****        -0.8678   0.8705   1.5010 O.2            1 S1                 0.0000
     12 ****         1.0603  -0.5242   1.1818 C.3            1 S1                 0.0000
     13 ****         1.5907   0.3496   0.1251 N.am           1 S1                 0.0000
     14 ****         2.2319   1.6019   0.5579 C.3            1 S1                 0.0000
     15 ****         3.7573   1.6433   0.3085 C.3            1 S1                 0.0000
     16 ****         4.2729   0.8377  -0.9003 C.3            1 S1                 0.0000
     17 ****         3.5573   1.1322  -2.2352 C.3            1 S1                 0.0000
     18 ****         2.0154   1.0017  -2.2361 C.3            1 S1                 0.0000
     19 ****         1.4600   0.0258  -1.1862 C.2            1 S1                 0.0000
     20 ****         0.9173  -1.0107  -1.5706 O.2            1 S1                 0.0000
     21 ****        -4.1026  -2.4728   2.9390 H              1 S1                 0.0000
     22 ****        -2.5337  -2.2924   3.7131 H              1 S1                 0.0000
     23 ****        -2.7402  -3.4514   2.4014 H              1 S1                 0.0000
     24 ****        -2.9756  -0.4182   2.1605 H              1 S1                 0.0000
     25 ****        -3.0610  -2.5292  -0.0636 H              1 S1                 0.0000
     26 ****        -4.4520  -1.6663   0.5532 H              1 S1                 0.0000
     27 ****        -4.3078   1.1063   0.3083 H              1 S1                 0.0000
     28 ****        -3.3209   2.4757  -1.8882 H              1 S1                 0.0000
     29 ****        -1.8635  -1.4287  -1.9803 H              1 S1                 0.0000
     30 ****        -0.7536  -2.2734   1.4906 H              1 S1                 0.0000
     31 ****         1.5968  -0.3575   2.1164 H              1 S1                 0.0000
     32 ****         1.2357  -1.5724   0.9318 H              1 S1                 0.0000
     33 ****         1.7516   2.4419   0.0556 H              1 S1                 0.0000
     34 ****         2.0401   1.7864   1.6156 H              1 S1                 0.0000
     35 ****         4.0695   2.6840   0.2148 H              1 S1                 0.0000
     36 ****         4.2631   1.2647   1.1973 H              1 S1                 0.0000
     37 ****         5.3389   1.0322  -1.0218 H              1 S1                 0.0000
     38 ****         4.2050  -0.2283  -0.6789 H              1 S1                 0.0000
     39 ****         3.8193   2.1390  -2.5621 H              1 S1                 0.0000
     40 ****         3.9651   0.4639  -2.9943 H              1 S1                 0.0000
     41 ****         1.5554   1.9784  -2.0878 H              1 S1                 0.0000
     42 ****         1.6830   0.6876  -3.2265 H              1 S1                 0.0000
     43 ****        -1.8566   0.7999  -3.1758 LP             1 S1                 0.0000
     44 ****        -1.8417   1.0270   1.6656 LP             1 S1                 0.0000
     45 ****        -0.2473   1.6477   1.3959 LP             1 S1                 0.0000
     46 ****         0.5484  -1.6587  -0.9043 LP             1 S1                 0.0000
     47 ****         0.8455  -1.2043  -2.5490 LP             1 S1                 0.0000
@<TRIPOS>BOND
    1    1    2 1     
    2    1   21 1     
    3    1   22 1     
    4    1   23 1     
    5    2    3 1     
    6    2    9 1     
    7    2   24 1     
    8    3    4 1     
    9    3   25 1     
   10    3   26 1     
   11    4    8 1     
   12    4    5 1     
   13    5    6 2     
   14    5   27 1     
   15    6    7 1     
   16    6   28 1     
   17    7    8 2     
   18    8   29 1     
   19    9   10 am    
   20    9   30 1     
   21   10   11 2     
   22   10   12 1     
   23   12   13 1     
   24   12   31 1     
   25   12   32 1     
   26   13   19 am    
   27   13   14 1     
   28   14   15 1     
   29   14   33 1     
   30   14   34 1     
   31   15   16 1     
   32   15   35 1     
   33   15   36 1     
   34   16   17 1     
   35   16   37 1     
   36   16   38 1     
   37   17   18 1     
   38   17   39 1     
   39   17   40 1     
   40   18   19 1     
   41   18   41 1     
   42   18   42 1     
   43   19   20 2     
   44    7   43 1     
   45   11   44 1     
   46   11   45 1     
   47   20   46 1     
   48   20   47 1     
@<TRIPOS>SUBSTRUCTURE
      1 S1             1
@<TRIPOS>SET
LONE_PAIRS      STATIC     ATOMS    <user>   **** ""
5 43 44 45 46 47
DONOR_HYDROGENS      STATIC     ATOMS    <user>   **** ""
1 30
ATOM$BLUE        STATIC     ATOMS    COLORGROUP SYSTEM
5 43 44 45 46 47
ATOM$RED        STATIC     ATOMS    COLORGROUP SYSTEM
1 30
