AV-unprocessed.smi:2124|AV-procd|sdf|8673|dock1
  -GOLD-   2272011423D 1   1.00000     0.00000
 Structure written by MMmdl.
 46 48  0  0  0  0  0  0  0  0  2 V2000
  151.2599  133.2111  156.5621 C   0  0  0  0  0  0  0  0  0  0  0  0
  150.8358  134.6607  156.6632 C   0  0  0  0  0  0  0  0  0  0  0  0
  151.3086  135.5092  155.8318 N   0  0  0  0  0  0  0  0  0  0  0  0
  150.9178  136.8559  155.9208 C   0  0  0  0  0  0  0  0  0  0  0  0
  151.5244  137.7914  154.8895 C   0  0  0  0  0  0  0  0  0  0  0  0
  150.0451  137.2758  156.8812 C   0  0  0  0  0  0  0  0  0  0  0  0
  149.5912  138.7287  157.0180 C   0  0  0  0  0  0  0  0  0  0  0  0
  150.6903  139.7387  157.3551 C   0  0  0  0  0  0  0  0  0  0  0  0
  151.2917  140.3265  156.4560 O   0  0  0  0  0  0  0  0  0  0  0  0
  150.9386  139.9277  158.6608 N   0  0  0  0  0  0  0  0  0  0  0  0
  151.9228  140.8481  159.2281 C   0  0  1  0  0  0  0  0  0  0  0  0
  153.3098  140.1929  159.1436 C   0  0  0  0  0  0  0  0  0  0  0  0
  151.8606  142.2046  158.4843 C   0  0  1  0  0  0  0  0  0  0  0  0
  150.5256  142.9714  158.6320 C   0  0  0  0  0  0  0  0  0  0  0  0
  150.9802  144.3902  159.0203 C   0  0  1  0  0  0  0  0  0  0  0  0
  151.4574  144.3797  160.4840 C   0  0  0  0  0  0  0  0  0  0  0  0
  152.8004  143.6327  160.3949 C   0  0  0  0  0  0  0  0  0  0  0  0
  152.8979  143.2792  158.8964 C   0  0  2  0  0  0  0  0  0  0  0  0
  152.2945  144.5279  158.2609 C   0  0  0  0  0  0  0  0  0  0  0  0
  149.5265  136.2673  157.8229 C   0  0  0  0  0  0  0  0  0  0  0  0
  148.7457  136.5937  158.7162 O   0  0  0  0  0  0  0  0  0  0  0  0
  149.9459  134.9794  157.6643 N   0  5  0  0  0  0  0  0  0  0  0  0
  152.1195  133.0989  155.9001 H   0  0  0  0  0  0  0  0  0  0  0  0
  150.4418  132.6070  156.1686 H   0  0  0  0  0  0  0  0  0  0  0  0
  151.5355  132.8241  157.5436 H   0  0  0  0  0  0  0  0  0  0  0  0
  150.7461  138.2196  154.2578 H   0  0  0  0  0  0  0  0  0  0  0  0
  152.2263  137.2636  154.2431 H   0  0  0  0  0  0  0  0  0  0  0  0
  152.0648  138.6033  155.3762 H   0  0  0  0  0  0  0  0  0  0  0  0
  149.1157  139.0249  156.0823 H   0  0  0  0  0  0  0  0  0  0  0  0
  148.8040  138.8211  157.7665 H   0  0  0  0  0  0  0  0  0  0  0  0
  150.3918  139.3927  159.3197 H   0  0  0  0  0  0  0  0  0  0  0  0
  151.6993  141.0076  160.2830 H   0  0  0  0  0  0  0  0  0  0  0  0
  154.0716  140.8136  159.6152 H   0  0  0  0  0  0  0  0  0  0  0  0
  153.6085  140.0255  158.1085 H   0  0  0  0  0  0  0  0  0  0  0  0
  153.3182  139.2288  159.6533 H   0  0  0  0  0  0  0  0  0  0  0  0
  152.0125  142.0021  157.4223 H   0  0  0  0  0  0  0  0  0  0  0  0
  149.9812  142.9770  157.6868 H   0  0  0  0  0  0  0  0  0  0  0  0
  149.8667  142.5439  159.3885 H   0  0  0  0  0  0  0  0  0  0  0  0
  150.2392  145.1612  158.8076 H   0  0  0  0  0  0  0  0  0  0  0  0
  151.6067  145.3948  160.8536 H   0  0  0  0  0  0  0  0  0  0  0  0
  150.7485  143.8827  161.1475 H   0  0  0  0  0  0  0  0  0  0  0  0
  153.6179  144.2960  160.6800 H   0  0  0  0  0  0  0  0  0  0  0  0
  152.8478  142.7656  161.0521 H   0  0  0  0  0  0  0  0  0  0  0  0
  153.9128  143.0551  158.5672 H   0  0  0  0  0  0  0  0  0  0  0  0
  152.1791  144.4535  157.1780 H   0  0  0  0  0  0  0  0  0  0  0  0
  152.8383  145.4436  158.5000 H   0  0  0  0  0  0  0  0  0  0  0  0
  1  2  1  0  0  0  0
  1 23  1  0  0  0  0
  1 24  1  0  0  0  0
  1 25  1  0  0  0  0
  2 22  1  0  0  0  0
  2  3  2  0  0  0  0
  3  4  1  0  0  0  0
  4  5  1  0  0  0  0
  4  6  2  0  0  0  0
  5 26  1  0  0  0  0
  5 27  1  0  0  0  0
  5 28  1  0  0  0  0
  6  7  1  0  0  0  0
  6 20  1  0  0  0  0
  7  8  1  0  0  0  0
  7 29  1  0  0  0  0
  7 30  1  0  0  0  0
  8  9  2  0  0  0  0
  8 10  1  0  0  0  0
 10 11  1  0  0  0  0
 10 31  1  0  0  0  0
 11 12  1  0  0  0  0
 11 13  1  0  0  0  0
 11 32  1  0  0  0  0
 12 33  1  0  0  0  0
 12 34  1  0  0  0  0
 12 35  1  0  0  0  0
 13 18  1  0  0  0  0
 13 14  1  0  0  0  0
 13 36  1  0  0  0  0
 14 15  1  0  0  0  0
 14 37  1  0  0  0  0
 14 38  1  0  0  0  0
 15 19  1  0  0  0  0
 15 16  1  0  0  0  0
 15 39  1  0  0  0  0
 16 17  1  0  0  0  0
 16 40  1  0  0  0  0
 16 41  1  0  0  0  0
 17 18  1  0  0  0  0
 17 42  1  0  0  0  0
 17 43  1  0  0  0  0
 18 19  1  0  0  0  0
 18 44  1  0  0  0  0
 19 45  1  0  0  0  0
 19 46  1  0  0  0  0
 20 21  2  0  0  0  0
 20 22  1  0  0  0  0
M  CHG  1  22  -1
M  END
> <s_m_source_file>
AV-unprocessed.smi

> <i_m_source_file_index>
2124

> <i_lp_mmshare_version>
43012

> <i_f3d_flags>
0

> <s_epik_input>
W0NIM11jMW5jKFtDSDNdKWMoYyg9TylbbkhdMSlbQ0gyXUMoPU8pW05IXVtDQEhdKFtDSDNdKVtDQEhdKFtDSDJdW0NASF0yMylbQ0BIXShbQ0gyXTMpW0NIMl1bQ0gyXTI=

> <s_epik_cmdline>
J2VwaWtfcHl0aG9uJywgJy1waCcsICc3LjAnLCAnLXRuJywgJzgnLCAnLW1hJywgJzIwMCcsICctbWV0YWxfYmluZGluZycsICctaW1hZScsICc8aW5maWxlLm1hZT4nLCAnLW9tYWUnLCAnPG91dGZpbGUubWFlPic=

> <r_lp_tautomer_probability>
0.839158

> <r_epik_Ionization_Penalty>
6.63797

> <r_epik_Ionization_Penalty_Charging>
7.48558e-08

> <r_epik_Ionization_Penalty_Neutral>
6.63797

> <r_epik_State_Penalty>
4.49496

> <r_epik_Charging_Adjusted_Penalty>
4.49496

> <i_epik_Tot_Q>
-1

> <i_epik_Tot_abs_Q>
1

> <r_epik_Metal_State_Penalty>
0.841241

> <b_epik_Metal_Only>
1

> <s_lp_Force_Field>
OPLS_2005

> <r_lp_Energy>
55.5119

> <b_lp_Chiralities_Consistent>
1

> <s_lp_Variant>
AV-unprocessed.smi:2124-24

> <Gold.Version>
5.8.1

> <Gold.Id.Protein>
6NUR|6NUR_protein|mol2

> <Gold.PLP.Fitness>
43.9450

> <Gold.PLP.PLP>
-37.1363

> <Gold.PLP.part.hbond>
-2.0000

> <Gold.PLP.part.metal>
0.0000

> <Gold.PLP.part.buried>
-6.6652

> <Gold.PLP.part.nonpolar>
-29.9947

> <Gold.PLP.part.repulsive>
0.2276

> <Gold.PLP.ligand.clash>
0.0000

> <Gold.PLP.ligand.torsion>
0.6496

> <Gold.PLP.Chemscore.Hbond>
2.6960

> <Gold.PLP.Chemscore.CHOScore>
0.0000

> <Gold.PLP.Chemscore.Metal>
0.0000

> <Gold.Chemscore.Hbonds>
donor molecule, donor type, donor heavy atom, donor atom, acceptor molecule, acceptor atom, score
      P1  H  6896  6908       L1    22  1.73
      P1  H 10752 10763       L1     3  1.00

> <Gold.PLP.Chemscore.Internal.Correction>
0.0199

> <Gold.Rescore>
     Score         DG    S(hbond)    S(metal)    S(lipo)     H(rot)  DE(clash)    DE(int)     intcor
     17.71     -19.89       1.45        0.00     116.96       1.61       0.01       2.17       ----

> <Gold.Chemscore.Fitness>
17.7127

> <Gold.Chemscore.DG>
-19.8918

> <Gold.Chemscore.ZeroCoef>
-5.4800

> <Gold.Chemscore.Hbond>
1.4481

> <Gold.Chemscore.Metal>
0.0000

> <Gold.Chemscore.Lipo>
116.9573

> <Gold.Chemscore.Internal_Hbond>
0.0000

> <Gold.Chemscore.DEClash>
0.0106

> <Gold.Chemscore.DEInternal>
2.1684

> <Gold.Chemscore.Rot>
1.6051

> <Gold.Chemscore.Internal.Correction>
   9.000000E+99

> <Gold.Chemscore.Hbonds>
donor molecule, donor type, donor heavy atom, donor atom, acceptor molecule, acceptor atom, score
      P1  H  6896  6908       L1    22  0.40
      P1  H 10752 10763       L1     3  0.48

> <Gold.Chemscore.Hbond.Weighted>
-4.8368

> <Gold.Chemscore.Metal.Weighted>
-0.0000

> <Gold.Chemscore.Lipo.Weighted>
-13.6840

> <Gold.Chemscore.Internal_Hbond.Weighted>
0.0000

> <Gold.Chemscore.DEClash.Weighted>
0.0106

> <Gold.Chemscore.DEInternal.Weighted>
2.1684

> <Gold.Chemscore.Rot.Weighted>
4.1090

> <Gold.Chemscore.Internal.Correction.Weighted>
   9.000000E+99

> <Gold.Protein.RotatedTorsions>
[ 6907 6896 6895 6894 ] final  152.33 input  -60.11 | X-H torsion
[ 7974 7965 7964 7962 ] final -166.21 input  175.53 | X-H torsion
[ 8008 7997 7996 7995 ] final   19.70 input   59.86 | X-H torsion
[ 10167 10162 10161 10158 ] final  126.84 input  -65.29 | X-H torsion
[ 10718 10713 10712 10709 ] final  172.54 input   66.30 | X-H torsion
[ 10763 10752 10751 10750 ] final   68.10 input  -60.55 | X-H torsion
[ 11005 11000 10999 10996 ] final   17.34 input  -57.11 | X-H torsion

> <Gold.Protein.ActiveResidues>
 VAL166  LYS551  ARG553  GLY616  TRP617  ASP618  TYR619  PRO620  LYS621  CYS622 
 ASP623  PHE694  ASN695  SER759  ASP760  ASP761  ALA762  ILE779  LEU786  VAL792 
 PHE793  MET794  SER795  GLU796  ALA797  LYS798  CYS799  TRP800  GLU811  SER814 

> <Gold.Protein.RotatedAtoms>
  152.0882  133.4187  159.4531 H   0  0  0  0  0  0  0  0  0  0  0  0  # atno 6907 bound_to 6896
  150.6862  134.2903  159.4673 H   0  0  0  0  0  0  0  0  0  0  0  0  # atno 6908 bound_to 6896
  152.0751  134.9507  160.0625 H   0  0  0  0  0  0  0  0  0  0  0  0  # atno 6909 bound_to 6896
  144.7251  140.2700  143.6252 H   0  0  0  0  0  0  0  0  0  0  0  0  # atno 7974 bound_to 7965
  154.9246  140.3032  155.5199 H   0  0  0  0  0  0  0  0  0  0  0  0  # atno 8008 bound_to 7997
  156.3007  140.2365  156.4236 H   0  0  0  0  0  0  0  0  0  0  0  0  # atno 8009 bound_to 7997
  154.8297  140.0419  157.1457 H   0  0  0  0  0  0  0  0  0  0  0  0  # atno 8010 bound_to 7997
  139.5609  144.6881  151.4045 H   0  0  0  0  0  0  0  0  0  0  0  0  # atno 10167 bound_to 10162
  156.9775  131.0109  151.2890 H   0  0  0  0  0  0  0  0  0  0  0  0  # atno 10718 bound_to 10713
  153.0218  135.5260  154.7082 H   0  0  0  0  0  0  0  0  0  0  0  0  # atno 10763 bound_to 10752
  154.6172  135.2885  155.0369 H   0  0  0  0  0  0  0  0  0  0  0  0  # atno 10764 bound_to 10752
  154.1369  135.6584  153.4986 H   0  0  0  0  0  0  0  0  0  0  0  0  # atno 10765 bound_to 10752
  140.4370  134.1361  155.7686 H   0  0  0  0  0  0  0  0  0  0  0  0  # atno 11005 bound_to 11000
  145.8052  139.1980  143.2025 LP  0  0  0  0  0  0  0  0  0  0  0  0  # atno 17320 bound_to 7965
  146.0643  140.7938  142.9719 LP  0  0  0  0  0  0  0  0  0  0  0  0  # atno 17321 bound_to 7965
  140.6889  143.7909  150.7226 LP  0  0  0  0  0  0  0  0  0  0  0  0  # atno 17342 bound_to 10162
  140.1385  143.4462  152.2209 LP  0  0  0  0  0  0  0  0  0  0  0  0  # atno 17343 bound_to 10162
  157.5549  130.8207  149.8192 LP  0  0  0  0  0  0  0  0  0  0  0  0  # atno 17370 bound_to 10713
  156.0258  130.3780  150.1829 LP  0  0  0  0  0  0  0  0  0  0  0  0  # atno 17371 bound_to 10713
  141.1721  133.8587  157.1536 LP  0  0  0  0  0  0  0  0  0  0  0  0  # atno 17394 bound_to 11000
  140.0095  134.9994  157.0365 LP  0  0  0  0  0  0  0  0  0  0  0  0  # atno 17395 bound_to 11000

$$$$
