#       Name:                AV-unprocessed.smi:1094
#       Creating user name   scv26
#       Creation time:       Fri Mar 27 03:28:14 2020


#       File generated by GOLD software.
#

@<TRIPOS>MOLECULE
AV-unprocessed.smi:1094
    53    54     1
SMALL
NO_CHARGES


@<TRIPOS>ATOM
      1 ****        -5.6118  -0.4277   2.3576 C.3            1 S1                 0.0000
      2 ****        -5.2265  -0.4114   0.8714 C.3            1 S1                 0.0000
      3 ****        -4.4143   0.7674   0.5394 N.am           1 S1                 0.0000
      4 ****        -3.0158   0.6250   0.6339 C.2            1 S1                 0.0000
      5 ****        -2.1637   1.6370   0.3578 C.2            1 S1                 0.0000
      6 ****        -0.7637   1.5697   0.4274 N.am           1 S1                 0.0000
      7 ****         0.0272   0.5521   0.8170 C.2            1 S1                 0.0000
      8 ****        -0.3529  -0.5458   1.2233 O.2            1 S1                 0.0000
      9 ****         1.3212   0.8835   0.6991 N.am           1 S1                 0.0000
     10 ****         2.4570   0.0209   1.0246 C.3            1 S1                 0.0000
     11 ****         3.1343  -0.6365  -0.2130 C.3            1 S1                 0.0000
     12 ****         4.3591  -1.4219   0.3328 C.2            1 S1                 0.0000
     13 ****         4.2326  -2.7336   0.5600 N.am           1 S1                 0.0000
     14 ****         5.4176  -0.8417   0.5695 O.2            1 S1                 0.0000
     15 ****         2.1453  -1.5477  -0.9971 C.3            1 S1                 0.0000
     16 ****         2.7432  -2.0676  -2.3205 C.3            1 S1                 0.0000
     17 ****         3.1408  -0.9707  -3.1349 O.3            1 S1                 0.0000
     18 ****         4.1427  -0.1607  -2.5306 C.3            1 S1                 0.0000
     19 ****         3.6022   0.4496  -1.2222 C.3            1 S1                 0.0000
     20 ****        -2.7540   2.8939  -0.0503 C.2            1 S1                 0.0000
     21 ****        -4.0899   3.0438  -0.1345 C.2            1 S1                 0.0000
     22 ****        -5.0061   1.9449   0.1786 C.2            1 S1                 0.0000
     23 ****        -6.2288   2.0772   0.1203 O.2            1 S1                 0.0000
     24 ****        -6.2042  -1.3119   2.5938 H              1 S1                 0.0000
     25 ****        -6.2041   0.4483   2.6239 H              1 S1                 0.0000
     26 ****        -4.7271  -0.4409   2.9946 H              1 S1                 0.0000
     27 ****        -4.6813  -1.3245   0.6275 H              1 S1                 0.0000
     28 ****        -6.1268  -0.4502   0.2555 H              1 S1                 0.0000
     29 ****        -2.7115  -0.3608   0.9471 H              1 S1                 0.0000
     30 ****        -0.2892   2.4110   0.1342 H              1 S1                 0.0000
     31 ****         1.5423   1.8066   0.3557 H              1 S1                 0.0000
     32 ****         3.1789   0.6462   1.5523 H              1 S1                 0.0000
     33 ****         2.1556  -0.7448   1.7426 H              1 S1                 0.0000
     34 ****         5.0165  -3.2620   0.9141 H              1 S1                 0.0000
     35 ****         3.3516  -3.1913   0.3756 H              1 S1                 0.0000
     36 ****         1.7986  -2.3799  -0.3834 H              1 S1                 0.0000
     37 ****         1.2470  -0.9860  -1.2516 H              1 S1                 0.0000
     38 ****         3.5898  -2.7335  -2.1510 H              1 S1                 0.0000
     39 ****         1.9953  -2.6474  -2.8617 H              1 S1                 0.0000
     40 ****         5.0473  -0.7459  -2.3598 H              1 S1                 0.0000
     41 ****         4.4119   0.6339  -3.2264 H              1 S1                 0.0000
     42 ****         2.7692   1.1030  -1.4826 H              1 S1                 0.0000
     43 ****         4.3552   1.1020  -0.7778 H              1 S1                 0.0000
     44 ****        -2.1156   3.7316  -0.2916 H              1 S1                 0.0000
     45 ****        -4.4971   3.9962  -0.4413 H              1 S1                 0.0000
     46 ****        -1.3310  -0.7444   1.2864 LP             1 S1                 0.0000
     47 ****         0.3163  -1.2392   1.4902 LP             1 S1                 0.0000
     48 ****         5.4945   0.1426   0.4108 LP             1 S1                 0.0000
     49 ****         6.2011  -1.3543   0.9205 LP             1 S1                 0.0000
     50 ****         2.3385  -0.4020  -3.3165 LP             1 S1                 0.0000
     51 ****         3.4982  -1.3281  -3.9978 LP             1 S1                 0.0000
     52 ****        -6.8263   1.3064   0.3413 LP             1 S1                 0.0000
     53 ****        -6.6245   2.9555  -0.1482 LP             1 S1                 0.0000
@<TRIPOS>BOND
    1    1    2 1     
    2    1   24 1     
    3    1   25 1     
    4    1   26 1     
    5    2    3 1     
    6    2   27 1     
    7    2   28 1     
    8    3   22 am    
    9    3    4 1     
   10    4    5 2     
   11    4   29 1     
   12    5    6 1     
   13    5   20 1     
   14    6    7 am    
   15    6   30 1     
   16    7    8 2     
   17    7    9 am    
   18    9   10 1     
   19    9   31 1     
   20   10   11 1     
   21   10   32 1     
   22   10   33 1     
   23   11   19 1     
   24   11   12 1     
   25   11   15 1     
   26   12   13 am    
   27   12   14 2     
   28   13   34 1     
   29   13   35 1     
   30   15   16 1     
   31   15   36 1     
   32   15   37 1     
   33   16   17 1     
   34   16   38 1     
   35   16   39 1     
   36   17   18 1     
   37   18   19 1     
   38   18   40 1     
   39   18   41 1     
   40   19   42 1     
   41   19   43 1     
   42   20   21 2     
   43   20   44 1     
   44   21   22 1     
   45   21   45 1     
   46   22   23 2     
   47    8   46 1     
   48    8   47 1     
   49   14   48 1     
   50   14   49 1     
   51   17   50 1     
   52   17   51 1     
   53   23   52 1     
   54   23   53 1     
@<TRIPOS>SUBSTRUCTURE
      1 S1             1
@<TRIPOS>SET
LONE_PAIRS      STATIC     ATOMS    <user>   **** ""
8 46 47 48 49 50 51 52 53
DONOR_HYDROGENS      STATIC     ATOMS    <user>   **** ""
4 30 31 34 35
ATOM$BLUE        STATIC     ATOMS    COLORGROUP SYSTEM
8 46 47 48 49 50 51 52 53
ATOM$RED        STATIC     ATOMS    COLORGROUP SYSTEM
4 30 31 34 35
