AV-unprocessed.smi:63|AV-procd|sdf|608|dock1
  -GOLD-   2262016503D 1   1.00000     0.00000
 Structure written by MMmdl.
 29 30  0  0  0  0  0  0  0  0  1 V2000
  155.9327  139.3517  161.4924 C   0  0  0  0  0  0  0  0  0  0  0  0
  154.9055  140.4195  161.1804 C   0  0  0  0  0  0  0  0  0  0  0  0
  154.2187  141.0811  162.2146 C   0  0  0  0  0  0  0  0  0  0  0  0
  153.2821  142.0603  161.8425 C   0  0  0  0  0  0  0  0  0  0  0  0
  153.0962  142.3114  160.4639 C   0  0  0  0  0  0  0  0  0  0  0  0
  152.1698  143.2878  160.0411 N   0  0  0  0  0  0  0  0  0  0  0  0
  152.0418  144.4810  160.8719 C   0  0  0  0  0  0  0  0  0  0  0  0
  151.8523  145.6593  159.9098 C   0  0  0  0  0  0  0  0  0  0  0  0
  151.3097  145.0097  158.6405 C   0  0  0  0  0  0  0  0  0  0  0  0
  152.0261  143.6549  158.6330 C   0  0  2  0  0  0  0  0  0  0  0  0
  151.3615  142.5654  157.7611 C   0  0  0  0  0  0  0  0  0  0  0  0
  151.2066  142.9841  156.4201 O   0  0  0  0  0  0  0  0  0  0  0  0
  153.8004  141.6288  159.5248 N   0  0  0  0  0  0  0  0  0  0  0  0
  154.6927  140.6962  159.8742 N   0  0  0  0  0  0  0  0  0  0  0  0
  155.5231  138.6256  162.1950 H   0  0  0  0  0  0  0  0  0  0  0  0
  156.8183  139.8025  161.9408 H   0  0  0  0  0  0  0  0  0  0  0  0
  156.2393  138.8168  160.5925 H   0  0  0  0  0  0  0  0  0  0  0  0
  154.4010  140.8469  163.2530 H   0  0  0  0  0  0  0  0  0  0  0  0
  152.7219  142.5939  162.5962 H   0  0  0  0  0  0  0  0  0  0  0  0
  151.1650  144.3646  161.5095 H   0  0  0  0  0  0  0  0  0  0  0  0
  152.9085  144.6410  161.5152 H   0  0  0  0  0  0  0  0  0  0  0  0
  151.1937  146.4306  160.3094 H   0  0  0  0  0  0  0  0  0  0  0  0
  152.8188  146.1190  159.6992 H   0  0  0  0  0  0  0  0  0  0  0  0
  150.2300  144.8881  158.7335 H   0  0  0  0  0  0  0  0  0  0  0  0
  151.5073  145.5980  157.7441 H   0  0  0  0  0  0  0  0  0  0  0  0
  153.0317  143.8256  158.2451 H   0  0  0  0  0  0  0  0  0  0  0  0
  151.9831  141.6699  157.7627 H   0  0  0  0  0  0  0  0  0  0  0  0
  150.3898  142.2687  158.1539 H   0  0  0  0  0  0  0  0  0  0  0  0
  150.6199  143.7246  156.4031 H   0  0  0  0  0  0  0  0  0  0  0  0
  1  2  1  0  0  0  0
  1 15  1  0  0  0  0
  1 16  1  0  0  0  0
  1 17  1  0  0  0  0
  2 14  1  0  0  0  0
  2  3  2  0  0  0  0
  3  4  1  0  0  0  0
  3 18  1  0  0  0  0
  4  5  2  0  0  0  0
  4 19  1  0  0  0  0
  5  6  1  0  0  0  0
  5 13  1  0  0  0  0
  6 10  1  0  0  0  0
  6  7  1  0  0  0  0
  7  8  1  0  0  0  0
  7 20  1  0  0  0  0
  7 21  1  0  0  0  0
  8  9  1  0  0  0  0
  8 22  1  0  0  0  0
  8 23  1  0  0  0  0
  9 10  1  0  0  0  0
  9 24  1  0  0  0  0
  9 25  1  0  0  0  0
 10 11  1  0  0  0  0
 10 26  1  0  0  0  0
 11 12  1  0  0  0  0
 11 27  1  0  0  0  0
 11 28  1  0  0  0  0
 12 29  1  0  0  0  0
 13 14  2  0  0  0  0
M  END
> <s_m_source_file>
AV-unprocessed.smi

> <i_m_source_file_index>
63

> <i_lp_mmshare_version>
43012

> <i_f3d_flags>
0

> <s_epik_input>
W0NIM11jMVtjSF1bY0hdYyhubjEpTjJbQ0gyXVtDSDJdW0NIMl1bQ0BIXTJbQ0gyXVtPSF0=

> <s_epik_cmdline>
J2VwaWtfcHl0aG9uJywgJy1waCcsICc3LjAnLCAnLXRuJywgJzgnLCAnLW1hJywgJzIwMCcsICctbWV0YWxfYmluZGluZycsICctaW1hZScsICc8aW5maWxlLm1hZT4nLCAnLW9tYWUnLCAnPG91dGZpbGUubWFlPic=

> <r_lp_tautomer_probability>
1

> <r_epik_Ionization_Penalty>
4.30639e-05

> <r_epik_Ionization_Penalty_Charging>
0

> <r_epik_Ionization_Penalty_Neutral>
4.30639e-05

> <r_epik_State_Penalty>
-0

> <r_epik_Charging_Adjusted_Penalty>
0

> <i_epik_Tot_Q>
0

> <i_epik_Tot_abs_Q>
0

> <r_epik_Metal_State_Penalty>
-0

> <b_epik_Metal_Only>
0

> <s_lp_Force_Field>
OPLS_2005

> <r_lp_Energy>
38.8504

> <b_lp_Chiralities_Consistent>
1

> <s_lp_Variant>
AV-unprocessed.smi:63-2

> <Gold.Version>
5.8.1

> <Gold.Id.Protein>
6NUR|6NUR_protein|mol2

> <Gold.PLP.Fitness>
38.2712

> <Gold.PLP.PLP>
-35.6648

> <Gold.PLP.part.hbond>
-1.0000

> <Gold.PLP.part.metal>
0.0000

> <Gold.PLP.part.buried>
-3.8588

> <Gold.PLP.part.nonpolar>
-29.2379

> <Gold.PLP.part.repulsive>
0.0147

> <Gold.PLP.ligand.clash>
0.0000

> <Gold.PLP.ligand.torsion>
0.3698

> <Gold.PLP.Chemscore.Hbond>
1.0000

> <Gold.PLP.Chemscore.CHOScore>
0.0000

> <Gold.PLP.Chemscore.Metal>
0.0000

> <Gold.Chemscore.Hbonds>
donor molecule, donor type, donor heavy atom, donor atom, acceptor molecule, acceptor atom, score
      L1  H    12    29       P1  8028  0.78

> <Gold.PLP.Chemscore.Internal.Correction>
0.3459

> <Gold.Rescore>
     Score         DG    S(hbond)    S(metal)    S(lipo)     H(rot)  DE(clash)    DE(int)     intcor
     14.80     -15.10       0.98        0.00      91.72       1.71       0.07       0.24       ----

> <Gold.Chemscore.Fitness>
14.7952

> <Gold.Chemscore.DG>
-15.1049

> <Gold.Chemscore.ZeroCoef>
-5.4800

> <Gold.Chemscore.Hbond>
0.9824

> <Gold.Chemscore.Metal>
0.0000

> <Gold.Chemscore.Lipo>
91.7168

> <Gold.Chemscore.Internal_Hbond>
0.0000

> <Gold.Chemscore.DEClash>
0.0677

> <Gold.Chemscore.DEInternal>
0.2419

> <Gold.Chemscore.Rot>
1.7138

> <Gold.Chemscore.Internal.Correction>
   9.000000E+99

> <Gold.Chemscore.Hbonds>
donor molecule, donor type, donor heavy atom, donor atom, acceptor molecule, acceptor atom, score
      L1  H    12    29       P1  8028  0.74

> <Gold.Chemscore.Hbond.Weighted>
-3.2813

> <Gold.Chemscore.Metal.Weighted>
-0.0000

> <Gold.Chemscore.Lipo.Weighted>
-10.7309

> <Gold.Chemscore.Internal_Hbond.Weighted>
0.0000

> <Gold.Chemscore.DEClash.Weighted>
0.0677

> <Gold.Chemscore.DEInternal.Weighted>
0.2419

> <Gold.Chemscore.Rot.Weighted>
4.3872

> <Gold.Chemscore.Internal.Correction.Weighted>
   9.000000E+99

> <Gold.Protein.RotatedTorsions>
[ 6907 6896 6895 6894 ] final  158.37 input  -60.11 | X-H torsion
[ 7974 7965 7964 7962 ] final   -1.72 input  175.53 | X-H torsion
[ 8008 7997 7996 7995 ] final  -83.30 input   59.86 | X-H torsion
[ 10167 10162 10161 10158 ] final  -73.87 input  -65.29 | X-H torsion
[ 10718 10713 10712 10709 ] final   -5.40 input   66.30 | X-H torsion
[ 10763 10752 10751 10750 ] final -146.29 input  -60.55 | X-H torsion
[ 11005 11000 10999 10996 ] final  173.33 input  -57.11 | X-H torsion

> <Gold.Protein.ActiveResidues>
 VAL166  LYS551  ARG553  GLY616  TRP617  ASP618  TYR619  PRO620  LYS621  CYS622 
 ASP623  PHE694  ASN695  SER759  ASP760  ASP761  ALA762  ILE779  LEU786  VAL792 
 PHE793  MET794  SER795  GLU796  ALA797  LYS798  CYS799  TRP800  GLU811  SER814 

> <Gold.Protein.RotatedAtoms>
  152.0014  133.3827  159.4182 H   0  0  0  0  0  0  0  0  0  0  0  0  # atno 6907 bound_to 6896
  150.6909  134.3830  159.5051 H   0  0  0  0  0  0  0  0  0  0  0  0  # atno 6908 bound_to 6896
  152.1577  134.8937  160.0594 H   0  0  0  0  0  0  0  0  0  0  0  0  # atno 6909 bound_to 6896
  146.2413  140.1462  142.8334 H   0  0  0  0  0  0  0  0  0  0  0  0  # atno 7974 bound_to 7965
  154.6176  140.0621  156.9574 H   0  0  0  0  0  0  0  0  0  0  0  0  # atno 8008 bound_to 7997
  155.1870  140.3304  155.4346 H   0  0  0  0  0  0  0  0  0  0  0  0  # atno 8009 bound_to 7997
  156.2413  140.1887  156.6963 H   0  0  0  0  0  0  0  0  0  0  0  0  # atno 8010 bound_to 7997
  140.5074  143.2350  151.7650 H   0  0  0  0  0  0  0  0  0  0  0  0  # atno 10167 bound_to 10162
  156.7471  130.5228  149.5812 H   0  0  0  0  0  0  0  0  0  0  0  0  # atno 10718 bound_to 10713
  154.8343  135.3390  154.6638 H   0  0  0  0  0  0  0  0  0  0  0  0  # atno 10763 bound_to 10752
  153.7255  135.6955  153.5006 H   0  0  0  0  0  0  0  0  0  0  0  0  # atno 10764 bound_to 10752
  153.2350  135.4403  155.0589 H   0  0  0  0  0  0  0  0  0  0  0  0  # atno 10765 bound_to 10752
  140.3393  134.7290  157.4191 H   0  0  0  0  0  0  0  0  0  0  0  0  # atno 11005 bound_to 11000
  145.0205  140.8790  143.5169 LP  0  0  0  0  0  0  0  0  0  0  0  0  # atno 17320 bound_to 7965
  145.1510  139.2514  143.5441 LP  0  0  0  0  0  0  0  0  0  0  0  0  # atno 17321 bound_to 7965
  139.4887  144.4438  151.9734 LP  0  0  0  0  0  0  0  0  0  0  0  0  # atno 17342 bound_to 10162
  140.3529  144.3067  150.5946 LP  0  0  0  0  0  0  0  0  0  0  0  0  # atno 17343 bound_to 10162
  156.1426  130.6255  151.0488 LP  0  0  0  0  0  0  0  0  0  0  0  0  # atno 17370 bound_to 10713
  157.6793  131.0842  150.7411 LP  0  0  0  0  0  0  0  0  0  0  0  0  # atno 17371 bound_to 10713
  140.0795  134.5751  155.8556 LP  0  0  0  0  0  0  0  0  0  0  0  0  # atno 17394 bound_to 11000
  141.2043  133.6638  156.6111 LP  0  0  0  0  0  0  0  0  0  0  0  0  # atno 17395 bound_to 11000

$$$$
