AV-unprocessed.smi:1762|AV-procd|sdf|7106|dock6
  -GOLD-   22720 8333D 1   1.00000     0.00000
 Structure written by MMmdl.
 53 54  0  0  0  0  0  0  0  0  2 V2000
  145.4447  136.2732  151.7191 C   0  0  0  0  0  0  0  0  0  0  0  0
  145.7651  134.8115  151.3863 C   0  0  1  0  0  0  0  0  0  0  0  0
  145.7392  133.9072  152.6340 C   0  0  0  0  0  0  0  0  0  0  0  0
  145.9589  132.4858  152.3142 N   0  0  0  0  0  0  0  0  0  0  0  0
  145.9479  131.5817  153.4984 C   0  0  2  0  0  0  0  0  0  0  0  0
  146.3396  132.2919  154.8164 C   0  0  0  0  0  0  0  0  0  0  0  0
  147.4560  132.7954  154.9469 O   0  0  0  0  0  0  0  0  0  0  0  0
  145.4044  132.3337  155.7788 N   0  0  0  0  0  0  0  0  0  0  0  0
  145.5805  132.9470  157.0895 C   0  0  0  0  0  0  0  0  0  0  0  0
  145.7596  131.8873  158.1897 C   0  0  0  0  0  0  0  0  0  0  0  0
  146.0920  132.5059  159.5337 C   0  0  0  0  0  0  0  0  0  0  0  0
  145.2718  132.3215  160.6680 C   0  0  0  0  0  0  0  0  0  0  0  0
  145.6426  132.9187  161.8910 C   0  0  0  0  0  0  0  0  0  0  0  0
  146.8249  133.6851  161.9543 C   0  0  0  0  0  0  0  0  0  0  0  0
  147.6073  133.8355  160.7912 C   0  0  0  0  0  0  0  0  0  0  0  0
  147.2182  133.2482  159.6380 N   0  3  0  0  0  0  0  0  0  0  0  0
  146.7612  130.2546  153.3254 C   0  0  0  0  0  0  0  0  0  0  0  0
  148.2862  130.4440  153.4580 C   0  0  0  0  0  0  0  0  0  0  0  0
  146.4284  129.4845  152.0323 C   0  0  0  0  0  0  0  0  0  0  0  0
  144.9937  132.0879  151.2819 C   0  0  0  0  0  0  0  0  0  0  0  0
  145.0298  133.0054  150.0447 C   0  0  1  0  0  0  0  0  0  0  0  0
  143.9649  132.6279  149.0087 C   0  0  0  0  0  0  0  0  0  0  0  0
  144.7988  134.3479  150.4517 O   0  0  0  0  0  0  0  0  0  0  0  0
  146.1685  136.6834  152.4236 H   0  0  0  0  0  0  0  0  0  0  0  0
  144.4533  136.3692  152.1625 H   0  0  0  0  0  0  0  0  0  0  0  0
  145.4690  136.8912  150.8213 H   0  0  0  0  0  0  0  0  0  0  0  0
  146.7535  134.7682  150.9254 H   0  0  0  0  0  0  0  0  0  0  0  0
  146.5056  134.2849  153.3098 H   0  0  0  0  0  0  0  0  0  0  0  0
  144.7840  134.0237  153.1492 H   0  0  0  0  0  0  0  0  0  0  0  0
  144.9102  131.2697  153.6362 H   0  0  0  0  0  0  0  0  0  0  0  0
  144.5098  131.9054  155.5885 H   0  0  0  0  0  0  0  0  0  0  0  0
  146.4337  133.6277  157.0709 H   0  0  0  0  0  0  0  0  0  0  0  0
  144.7011  133.5574  157.2966 H   0  0  0  0  0  0  0  0  0  0  0  0
  144.8502  131.2926  158.2882 H   0  0  0  0  0  0  0  0  0  0  0  0
  146.5529  131.1894  157.9175 H   0  0  0  0  0  0  0  0  0  0  0  0
  144.3703  131.7291  160.6044 H   0  0  0  0  0  0  0  0  0  0  0  0
  145.0280  132.7895  162.7701 H   0  0  0  0  0  0  0  0  0  0  0  0
  147.1266  134.1501  162.8816 H   0  0  0  0  0  0  0  0  0  0  0  0
  148.5254  134.4034  160.7486 H   0  0  0  0  0  0  0  0  0  0  0  0
  146.5073  129.6003  154.1577 H   0  0  0  0  0  0  0  0  0  0  0  0
  148.7079  130.9920  152.6148 H   0  0  0  0  0  0  0  0  0  0  0  0
  148.7939  129.4799  153.5011 H   0  0  0  0  0  0  0  0  0  0  0  0
  148.5381  130.9851  154.3704 H   0  0  0  0  0  0  0  0  0  0  0  0
  146.7370  130.0309  151.1415 H   0  0  0  0  0  0  0  0  0  0  0  0
  145.3601  129.2851  151.9476 H   0  0  0  0  0  0  0  0  0  0  0  0
  146.9380  128.5208  152.0139 H   0  0  0  0  0  0  0  0  0  0  0  0
  145.1991  131.0792  150.9297 H   0  0  0  0  0  0  0  0  0  0  0  0
  143.9858  132.0773  151.7006 H   0  0  0  0  0  0  0  0  0  0  0  0
  146.0120  132.9420  149.5727 H   0  0  0  0  0  0  0  0  0  0  0  0
  144.1079  131.6074  148.6526 H   0  0  0  0  0  0  0  0  0  0  0  0
  144.0107  133.2904  148.1443 H   0  0  0  0  0  0  0  0  0  0  0  0
  142.9616  132.6984  149.4299 H   0  0  0  0  0  0  0  0  0  0  0  0
  147.7997  133.3709  158.8086 H   0  0  0  0  0  0  0  0  0  0  0  0
  1  2  1  0  0  0  0
  1 24  1  0  0  0  0
  1 25  1  0  0  0  0
  1 26  1  0  0  0  0
  2 23  1  0  0  0  0
  2  3  1  0  0  0  0
  2 27  1  0  0  0  0
  3  4  1  0  0  0  0
  3 28  1  0  0  0  0
  3 29  1  0  0  0  0
  4  5  1  0  0  0  0
  4 20  1  0  0  0  0
  5  6  1  0  0  0  0
  5 17  1  0  0  0  0
  5 30  1  0  0  0  0
  6  7  2  0  0  0  0
  6  8  1  0  0  0  0
  8  9  1  0  0  0  0
  8 31  1  0  0  0  0
  9 10  1  0  0  0  0
  9 32  1  0  0  0  0
  9 33  1  0  0  0  0
 10 11  1  0  0  0  0
 10 34  1  0  0  0  0
 10 35  1  0  0  0  0
 11 16  1  0  0  0  0
 11 12  2  0  0  0  0
 12 13  1  0  0  0  0
 12 36  1  0  0  0  0
 13 14  2  0  0  0  0
 13 37  1  0  0  0  0
 14 15  1  0  0  0  0
 14 38  1  0  0  0  0
 15 16  2  0  0  0  0
 15 39  1  0  0  0  0
 16 53  1  0  0  0  0
 17 18  1  0  0  0  0
 17 19  1  0  0  0  0
 17 40  1  0  0  0  0
 18 41  1  0  0  0  0
 18 42  1  0  0  0  0
 18 43  1  0  0  0  0
 19 44  1  0  0  0  0
 19 45  1  0  0  0  0
 19 46  1  0  0  0  0
 20 21  1  0  0  0  0
 20 47  1  0  0  0  0
 20 48  1  0  0  0  0
 21 22  1  0  0  0  0
 21 23  1  0  0  0  0
 21 49  1  0  0  0  0
 22 50  1  0  0  0  0
 22 51  1  0  0  0  0
 22 52  1  0  0  0  0
M  CHG  1  16   1
M  END
> <s_m_source_file>
AV-unprocessed.smi

> <i_m_source_file_index>
1762

> <i_lp_mmshare_version>
43012

> <i_f3d_flags>
0

> <s_epik_input>
W0NIM11bQ0BASF0xW0NIMl1OKFtDSDJdW0NASF0oTzEpW0NIM10pW0NAQEhdKFtDSF0oW0NIM10pW0NIM10pQyg9TylbTkhdW0NIMl1bQ0gyXWMyW2NIXVtjSF1bY0hdW2NIXW4y

> <s_epik_cmdline>
J2VwaWtfcHl0aG9uJywgJy1waCcsICc3LjAnLCAnLXRuJywgJzgnLCAnLW1hJywgJzIwMCcsICctbWV0YWxfYmluZGluZycsICctaW1hZScsICc8aW5maWxlLm1hZT4nLCAnLW9tYWUnLCAnPG91dGZpbGUubWFlPic=

> <r_epik_Ionization_Penalty>
1.86475

> <r_epik_Ionization_Penalty_Charging>
1.85347

> <r_epik_Ionization_Penalty_Neutral>
0.0112771

> <r_epik_State_Penalty>
1.99714

> <r_epik_Charging_Adjusted_Penalty>
3.85061

> <i_epik_Tot_Q>
1

> <i_epik_Tot_abs_Q>
1

> <r_epik_Metal_State_Penalty>
2.02271

> <b_epik_Metal_Only>
0

> <s_lp_Force_Field>
OPLS_2005

> <r_lp_Energy>
32.9979

> <b_lp_Chiralities_Consistent>
1

> <s_lp_Variant>
AV-unprocessed.smi:1762-8

> <Gold.Version>
5.8.1

> <Gold.Id.Protein>
6NUR|6NUR_protein|mol2

> <Gold.PLP.Fitness>
34.3911

> <Gold.PLP.PLP>
-32.9710

> <Gold.PLP.part.hbond>
-1.0000

> <Gold.PLP.part.metal>
0.0000

> <Gold.PLP.part.buried>
-5.3374

> <Gold.PLP.part.nonpolar>
-26.6561

> <Gold.PLP.part.repulsive>
0.3618

> <Gold.PLP.ligand.clash>
0.0000

> <Gold.PLP.ligand.torsion>
0.9471

> <Gold.PLP.Chemscore.Hbond>
1.0000

> <Gold.PLP.Chemscore.CHOScore>
0.0000

> <Gold.PLP.Chemscore.Metal>
0.0000

> <Gold.Chemscore.Hbonds>
donor molecule, donor type, donor heavy atom, donor atom, acceptor molecule, acceptor atom, score
      L1  H     8    31       P1 10957  1.00

> <Gold.PLP.Chemscore.Internal.Correction>
0.3144

> <Gold.Rescore>
     Score         DG    S(hbond)    S(metal)    S(lipo)     H(rot)  DE(clash)    DE(int)     intcor
     12.50     -15.58       0.94        0.00      97.10       1.72       0.08       3.00       ----

> <Gold.Chemscore.Fitness>
12.5001

> <Gold.Chemscore.DG>
-15.5802

> <Gold.Chemscore.ZeroCoef>
-5.4800

> <Gold.Chemscore.Hbond>
0.9388

> <Gold.Chemscore.Metal>
0.0000

> <Gold.Chemscore.Lipo>
97.1043

> <Gold.Chemscore.Internal_Hbond>
0.0000

> <Gold.Chemscore.DEClash>
0.0787

> <Gold.Chemscore.DEInternal>
3.0014

> <Gold.Chemscore.Rot>
1.7174

> <Gold.Chemscore.Internal.Correction>
   9.000000E+99

> <Gold.Chemscore.Hbonds>
donor molecule, donor type, donor heavy atom, donor atom, acceptor molecule, acceptor atom, score
      L1  H     8    31       P1 10957  0.59

> <Gold.Chemscore.Hbond.Weighted>
-3.1356

> <Gold.Chemscore.Metal.Weighted>
-0.0000

> <Gold.Chemscore.Lipo.Weighted>
-11.3612

> <Gold.Chemscore.Internal_Hbond.Weighted>
0.0000

> <Gold.Chemscore.DEClash.Weighted>
0.0787

> <Gold.Chemscore.DEInternal.Weighted>
3.0014

> <Gold.Chemscore.Rot.Weighted>
4.3966

> <Gold.Chemscore.Internal.Correction.Weighted>
   9.000000E+99

> <Gold.Protein.RotatedTorsions>
[ 6907 6896 6895 6894 ] final  122.33 input  -60.11 | X-H torsion
[ 7974 7965 7964 7962 ] final -153.03 input  175.53 | X-H torsion
[ 8008 7997 7996 7995 ] final  139.46 input   59.86 | X-H torsion
[ 10167 10162 10161 10158 ] final  -40.17 input  -65.29 | X-H torsion
[ 10718 10713 10712 10709 ] final  -77.06 input   66.30 | X-H torsion
[ 10763 10752 10751 10750 ] final  -93.19 input  -60.55 | X-H torsion
[ 11005 11000 10999 10996 ] final  138.96 input  -57.11 | X-H torsion

> <Gold.Protein.ActiveResidues>
 VAL166  LYS551  ARG553  GLY616  TRP617  ASP618  TYR619  PRO620  LYS621  CYS622 
 ASP623  PHE694  ASN695  SER759  ASP760  ASP761  ALA762  ILE779  LEU786  VAL792 
 PHE793  MET794  SER795  GLU796  ALA797  LYS798  CYS799  TRP800  GLU811  SER814 

> <Gold.Protein.RotatedAtoms>
  152.4252  133.7183  159.6518 H   0  0  0  0  0  0  0  0  0  0  0  0  # atno 6907 bound_to 6896
  150.8128  133.8380  159.3180 H   0  0  0  0  0  0  0  0  0  0  0  0  # atno 6908 bound_to 6896
  151.6085  135.1044  160.0127 H   0  0  0  0  0  0  0  0  0  0  0  0  # atno 6909 bound_to 6896
  144.7762  140.4581  143.5872 H   0  0  0  0  0  0  0  0  0  0  0  0  # atno 7974 bound_to 7965
  156.2989  140.2367  156.4241 H   0  0  0  0  0  0  0  0  0  0  0  0  # atno 8008 bound_to 7997
  154.8329  140.0432  157.1509 H   0  0  0  0  0  0  0  0  0  0  0  0  # atno 8009 bound_to 7997
  154.9188  140.3001  155.5231 H   0  0  0  0  0  0  0  0  0  0  0  0  # atno 8010 bound_to 7997
  140.7042  143.3169  151.2886 H   0  0  0  0  0  0  0  0  0  0  0  0  # atno 10167 bound_to 10162
  156.0156  130.4481  150.3287 H   0  0  0  0  0  0  0  0  0  0  0  0  # atno 10718 bound_to 10713
  154.6935  135.5203  153.8426 H   0  0  0  0  0  0  0  0  0  0  0  0  # atno 10763 bound_to 10752
  153.0650  135.6581  154.0385 H   0  0  0  0  0  0  0  0  0  0  0  0  # atno 10764 bound_to 10752
  154.0255  135.2990  155.3355 H   0  0  0  0  0  0  0  0  0  0  0  0  # atno 10765 bound_to 10752
  140.0220  134.9392  157.0493 H   0  0  0  0  0  0  0  0  0  0  0  0  # atno 11005 bound_to 11000
  145.6179  139.1520  143.3039 LP  0  0  0  0  0  0  0  0  0  0  0  0  # atno 17320 bound_to 7965
  146.1943  140.6291  142.9131 LP  0  0  0  0  0  0  0  0  0  0  0  0  # atno 17321 bound_to 7965
  139.6611  144.0188  152.2693 LP  0  0  0  0  0  0  0  0  0  0  0  0  # atno 17342 bound_to 10162
  139.9755  144.6464  150.7949 LP  0  0  0  0  0  0  0  0  0  0  0  0  # atno 17343 bound_to 10162
  157.1386  131.0290  151.2938 LP  0  0  0  0  0  0  0  0  0  0  0  0  # atno 17370 bound_to 10713
  157.4491  130.7588  149.7135 LP  0  0  0  0  0  0  0  0  0  0  0  0  # atno 17371 bound_to 10713
  140.4371  134.1720  155.7171 LP  0  0  0  0  0  0  0  0  0  0  0  0  # atno 17394 bound_to 11000
  141.1780  133.8474  157.1357 LP  0  0  0  0  0  0  0  0  0  0  0  0  # atno 17395 bound_to 11000

$$$$
