#       Name:                AV-unprocessed.smi:2924
#       Creating user name   scv26
#       Creation time:       Fri Mar 27 16:11:01 2020


#       File generated by GOLD software.
#

@<TRIPOS>MOLECULE
AV-unprocessed.smi:2924
    33    35     1
SMALL
NO_CHARGES


@<TRIPOS>ATOM
      1 ****        -0.8827  -3.9275   0.6905 N.1            1 S1                 0.0000
      2 ****        -1.4216  -2.9064   0.6154 C.1            1 S1                 0.0000
      3 ****        -2.0996  -1.6192   0.5204 C.ar           1 S1                 0.0000
      4 ****        -3.4894  -1.5947   0.2793 C.ar           1 S1                 0.0000
      5 ****        -4.1472  -0.3549   0.1819 C.ar           1 S1                 0.0000
      6 ****        -3.3838   0.8171   0.3313 C.ar           1 S1                 0.0000
      7 ****        -2.0548   0.8077   0.5635 N.ar           1 S1                 0.0000
      8 ****        -1.4132  -0.3827   0.6563 C.ar           1 S1                 0.0000
      9 ****        -0.0280  -0.3610   0.9013 N.pl3          1 S1                 0.0000
     10 ****         0.7557   0.8573   0.7199 C.3            1 S1                 0.0000
     11 ****         2.2172   0.6952   1.1444 C.3            1 S1                 0.0000
     12 ****         2.9649   1.1580  -0.1141 C.3            1 S1                 0.0000
     13 ****         2.9053   0.1020  -1.2253 C.3            1 S1                 0.0000
     14 ****         1.4519   0.2135  -1.6811 C.3            1 S1                 0.0000
     15 ****         0.9079   1.3083  -0.7472 C.3            1 S1                 0.0000
     16 ****         2.0617   2.1235  -0.6264 O.3            1 S1                 0.0000
     17 ****        -4.0498  -2.5120   0.1684 H              1 S1                 0.0000
     18 ****        -5.2100  -0.3035  -0.0029 H              1 S1                 0.0000
     19 ****        -3.8521   1.7879   0.2630 H              1 S1                 0.0000
     20 ****         0.4697  -1.2392   0.9331 H              1 S1                 0.0000
     21 ****         0.3133   1.6641   1.3061 H              1 S1                 0.0000
     22 ****         2.4379   1.3467   1.9904 H              1 S1                 0.0000
     23 ****         2.4849  -0.3243   1.4255 H              1 S1                 0.0000
     24 ****         3.9680   1.5377   0.0814 H              1 S1                 0.0000
     25 ****         3.5824   0.3569  -2.0414 H              1 S1                 0.0000
     26 ****         3.1618  -0.8952  -0.8660 H              1 S1                 0.0000
     27 ****         1.4066   0.5410  -2.7204 H              1 S1                 0.0000
     28 ****         0.9067  -0.7273  -1.6028 H              1 S1                 0.0000
     29 ****         0.0366   1.8306  -1.1435 H              1 S1                 0.0000
     30 ****        -0.4169  -4.8100   0.7554 LP             1 S1                 0.0000
     31 ****        -1.5510   1.6655   0.6655 LP             1 S1                 0.0000
     32 ****         2.3600   2.4839  -1.5102 LP             1 S1                 0.0000
     33 ****         1.9206   2.8804   0.0117 LP             1 S1                 0.0000
@<TRIPOS>BOND
    1    1    2 3     
    2    2    3 1     
    3    3    8 ar    
    4    3    4 ar    
    5    4    5 ar    
    6    4   17 1     
    7    5    6 ar    
    8    5   18 1     
    9    6    7 ar    
   10    6   19 1     
   11    7    8 ar    
   12    8    9 1     
   13    9   10 1     
   14    9   20 1     
   15   10   15 1     
   16   10   11 1     
   17   10   21 1     
   18   11   12 1     
   19   11   22 1     
   20   11   23 1     
   21   12   16 1     
   22   12   13 1     
   23   12   24 1     
   24   13   14 1     
   25   13   25 1     
   26   13   26 1     
   27   14   15 1     
   28   14   27 1     
   29   14   28 1     
   30   15   16 1     
   31   15   29 1     
   32    1   30 1     
   33    7   31 1     
   34   16   32 1     
   35   16   33 1     
@<TRIPOS>SUBSTRUCTURE
      1 S1             1
@<TRIPOS>SET
LONE_PAIRS      STATIC     ATOMS    <user>   **** ""
4 30 31 32 33
DONOR_HYDROGENS      STATIC     ATOMS    <user>   **** ""
1 20
ATOM$BLUE        STATIC     ATOMS    COLORGROUP SYSTEM
4 30 31 32 33
ATOM$RED        STATIC     ATOMS    COLORGROUP SYSTEM
1 20
