AV-unprocessed.smi:2902|AV-procd|sdf|11156|dock9
  -GOLD-   2272016 43D 1   1.00000     0.00000
 Structure written by MMmdl.
 47 48  0  0  0  0  0  0  0  0  1 V2000
  149.5446  140.3104  154.8447 C   0  0  0  0  0  0  0  0  0  0  0  0
  150.0229  141.5352  155.6340 C   0  0  0  0  0  0  0  0  0  0  0  0
  149.5476  141.5233  157.0989 C   0  0  1  0  0  0  0  0  0  0  0  0
  149.9832  142.7351  157.7137 O   0  0  0  0  0  0  0  0  0  0  0  0
  151.3672  142.8176  158.0432 C   0  0  0  0  0  0  0  0  0  0  0  0
  151.8348  141.6763  158.9518 C   0  0  0  0  0  0  0  0  0  0  0  0
  153.0453  142.2366  159.7083 C   0  0  0  0  0  0  0  0  0  0  0  0
  152.9378  143.7673  159.6238 C   0  0  0  0  0  0  0  0  0  0  0  0
  151.6242  144.0604  158.8932 C   0  0  0  0  0  0  0  0  0  0  0  0
  148.0194  141.3941  157.1838 C   0  0  0  0  0  0  0  0  0  0  0  0
  147.5094  140.4774  157.8280 O   0  0  0  0  0  0  0  0  0  0  0  0
  147.3080  142.3261  156.5290 N   0  0  0  0  0  0  0  0  0  0  0  0
  145.8486  142.4384  156.5109 C   0  0  2  0  0  0  0  0  0  0  0  0
  145.2716  141.0417  156.2264 C   0  0  0  0  0  0  0  0  0  0  0  0
  145.4036  143.5072  155.4744 C   0  0  1  0  0  0  0  0  0  0  0  0
  145.6590  143.0801  154.0156 C   0  0  0  0  0  0  0  0  0  0  0  0
  144.0018  143.8699  155.6528 N   0  0  0  0  0  0  0  0  0  0  0  0
  143.0068  143.9219  154.7644 C   0  0  0  0  0  0  0  0  0  0  0  0
  141.8581  144.3512  155.2675 N   0  0  0  0  0  0  0  0  0  0  0  0
  142.2419  144.5641  156.5613 C   0  0  0  0  0  0  0  0  0  0  0  0
  143.5159  144.2942  156.8450 N   0  0  0  0  0  0  0  0  0  0  0  0
  149.8918  140.3549  153.8123 H   0  0  0  0  0  0  0  0  0  0  0  0
  148.4560  140.2533  154.8274 H   0  0  0  0  0  0  0  0  0  0  0  0
  149.9225  139.3861  155.2823 H   0  0  0  0  0  0  0  0  0  0  0  0
  151.1122  141.5846  155.5948 H   0  0  0  0  0  0  0  0  0  0  0  0
  149.6577  142.4346  155.1351 H   0  0  0  0  0  0  0  0  0  0  0  0
  150.0113  140.6725  157.6023 H   0  0  0  0  0  0  0  0  0  0  0  0
  151.9959  142.8715  157.1520 H   0  0  0  0  0  0  0  0  0  0  0  0
  151.0456  141.4303  159.6636 H   0  0  0  0  0  0  0  0  0  0  0  0
  152.0764  140.7662  158.4029 H   0  0  0  0  0  0  0  0  0  0  0  0
  153.0571  141.8879  160.7416 H   0  0  0  0  0  0  0  0  0  0  0  0
  153.9729  141.9036  159.2410 H   0  0  0  0  0  0  0  0  0  0  0  0
  152.9632  144.2364  160.6079 H   0  0  0  0  0  0  0  0  0  0  0  0
  153.7775  144.1633  159.0511 H   0  0  0  0  0  0  0  0  0  0  0  0
  151.6663  144.9738  158.2990 H   0  0  0  0  0  0  0  0  0  0  0  0
  150.8225  144.1784  159.6239 H   0  0  0  0  0  0  0  0  0  0  0  0
  147.8204  143.0312  156.0197 H   0  0  0  0  0  0  0  0  0  0  0  0
  145.4887  142.7402  157.4962 H   0  0  0  0  0  0  0  0  0  0  0  0
  144.1855  141.0291  156.3127 H   0  0  0  0  0  0  0  0  0  0  0  0
  145.6541  140.3089  156.9378 H   0  0  0  0  0  0  0  0  0  0  0  0
  145.5335  140.6992  155.2248 H   0  0  0  0  0  0  0  0  0  0  0  0
  145.9854  144.4130  155.6516 H   0  0  0  0  0  0  0  0  0  0  0  0
  146.7237  142.9817  153.8066 H   0  0  0  0  0  0  0  0  0  0  0  0
  145.2657  143.8202  153.3180 H   0  0  0  0  0  0  0  0  0  0  0  0
  145.1847  142.1248  153.7886 H   0  0  0  0  0  0  0  0  0  0  0  0
  143.1288  143.6530  153.7255 H   0  0  0  0  0  0  0  0  0  0  0  0
  141.5621  144.9310  157.3162 H   0  0  0  0  0  0  0  0  0  0  0  0
  1  2  1  0  0  0  0
  1 22  1  0  0  0  0
  1 23  1  0  0  0  0
  1 24  1  0  0  0  0
  2  3  1  0  0  0  0
  2 25  1  0  0  0  0
  2 26  1  0  0  0  0
  3  4  1  0  0  0  0
  3 10  1  0  0  0  0
  3 27  1  0  0  0  0
  4  5  1  0  0  0  0
  5  9  1  0  0  0  0
  5  6  1  0  0  0  0
  5 28  1  0  0  0  0
  6  7  1  0  0  0  0
  6 29  1  0  0  0  0
  6 30  1  0  0  0  0
  7  8  1  0  0  0  0
  7 31  1  0  0  0  0
  7 32  1  0  0  0  0
  8  9  1  0  0  0  0
  8 33  1  0  0  0  0
  8 34  1  0  0  0  0
  9 35  1  0  0  0  0
  9 36  1  0  0  0  0
 10 11  2  0  0  0  0
 10 12  1  0  0  0  0
 12 13  1  0  0  0  0
 12 37  1  0  0  0  0
 13 14  1  0  0  0  0
 13 15  1  0  0  0  0
 13 38  1  0  0  0  0
 14 39  1  0  0  0  0
 14 40  1  0  0  0  0
 14 41  1  0  0  0  0
 15 16  1  0  0  0  0
 15 17  1  0  0  0  0
 15 42  1  0  0  0  0
 16 43  1  0  0  0  0
 16 44  1  0  0  0  0
 16 45  1  0  0  0  0
 17 21  1  0  0  0  0
 17 18  1  0  0  0  0
 18 19  2  0  0  0  0
 18 46  1  0  0  0  0
 19 20  1  0  0  0  0
 20 21  2  0  0  0  0
 20 47  1  0  0  0  0
M  END
> <s_m_source_file>
AV-unprocessed.smi

> <i_m_source_file_index>
2902

> <i_lp_mmshare_version>
43012

> <i_f3d_flags>
0

> <s_epik_input>
W0NIMl0xW0NIMl1bQ0gyXVtDSDJdW0NIXTFPW0NAQEhdKFtDSDJdW0NIM10pQyg9TylbTkhdW0NASF0oW0NIM10pW0NASF0oW0NIM10pbjJbY0hdbltjSF1uMg==

> <s_epik_cmdline>
J2VwaWtfcHl0aG9uJywgJy1waCcsICc3LjAnLCAnLXRuJywgJzgnLCAnLW1hJywgJzIwMCcsICctbWV0YWxfYmluZGluZycsICctaW1hZScsICc8aW5maWxlLm1hZT4nLCAnLW9tYWUnLCAnPG91dGZpbGUubWFlPic=

> <r_lp_tautomer_probability>
1

> <r_epik_Ionization_Penalty>
6.95617e-05

> <r_epik_Ionization_Penalty_Charging>
0

> <r_epik_Ionization_Penalty_Neutral>
6.95617e-05

> <r_epik_State_Penalty>
-0

> <r_epik_Charging_Adjusted_Penalty>
0

> <i_epik_Tot_Q>
0

> <i_epik_Tot_abs_Q>
0

> <r_epik_Metal_State_Penalty>
-0

> <b_epik_Metal_Only>
0

> <s_lp_Force_Field>
OPLS_2005

> <r_lp_Energy>
29.6491

> <b_lp_Chiralities_Consistent>
1

> <s_lp_Variant>
AV-unprocessed.smi:2902-6

> <Gold.Version>
5.8.1

> <Gold.Id.Protein>
6NUR|6NUR_protein|mol2

> <Gold.PLP.Fitness>
38.7097

> <Gold.PLP.PLP>
-33.4340

> <Gold.PLP.part.hbond>
-1.6358

> <Gold.PLP.part.metal>
0.0000

> <Gold.PLP.part.buried>
-5.8710

> <Gold.PLP.part.nonpolar>
-27.5282

> <Gold.PLP.part.repulsive>
0.6712

> <Gold.PLP.ligand.clash>
0.0000

> <Gold.PLP.ligand.torsion>
0.4733

> <Gold.PLP.Chemscore.Hbond>
1.0000

> <Gold.PLP.Chemscore.CHOScore>
1.0000

> <Gold.PLP.Chemscore.Metal>
0.0000

> <Gold.Chemscore.Hbonds>
donor molecule, donor type, donor heavy atom, donor atom, acceptor molecule, acceptor atom, score
      L1  H    12    37       P1  8028  1.00
      L1  C    18    46       P1 10174  0.98

> <Gold.PLP.Chemscore.Internal.Correction>
0.2223

> <Gold.Rescore>
     Score         DG    S(hbond)    S(metal)    S(lipo)     H(rot)  DE(clash)    DE(int)     intcor
      8.25      -9.97       0.26        0.00      89.99       2.69       0.32       1.40       ----

> <Gold.Chemscore.Fitness>
8.2521

> <Gold.Chemscore.DG>
-9.9663

> <Gold.Chemscore.ZeroCoef>
-5.4800

> <Gold.Chemscore.Hbond>
0.2552

> <Gold.Chemscore.Metal>
0.0000

> <Gold.Chemscore.Lipo>
89.9936

> <Gold.Chemscore.Internal_Hbond>
0.0000

> <Gold.Chemscore.DEClash>
0.3168

> <Gold.Chemscore.DEInternal>
1.3974

> <Gold.Chemscore.Rot>
2.6935

> <Gold.Chemscore.Internal.Correction>
   9.000000E+99

> <Gold.Chemscore.Hbonds>
donor molecule, donor type, donor heavy atom, donor atom, acceptor molecule, acceptor atom, score
      L1  H    12    37       P1  8028  0.33

> <Gold.Chemscore.Hbond.Weighted>
-0.8524

> <Gold.Chemscore.Metal.Weighted>
-0.0000

> <Gold.Chemscore.Lipo.Weighted>
-10.5292

> <Gold.Chemscore.Internal_Hbond.Weighted>
0.0000

> <Gold.Chemscore.DEClash.Weighted>
0.3168

> <Gold.Chemscore.DEInternal.Weighted>
1.3974

> <Gold.Chemscore.Rot.Weighted>
6.8954

> <Gold.Chemscore.Internal.Correction.Weighted>
   9.000000E+99

> <Gold.Protein.RotatedTorsions>
[ 6907 6896 6895 6894 ] final  175.38 input  -60.11 | X-H torsion
[ 7974 7965 7964 7962 ] final  -51.04 input  175.53 | X-H torsion
[ 8008 7997 7996 7995 ] final  146.94 input   59.86 | X-H torsion
[ 10167 10162 10161 10158 ] final   17.75 input  -65.29 | X-H torsion
[ 10718 10713 10712 10709 ] final   -8.32 input   66.30 | X-H torsion
[ 10763 10752 10751 10750 ] final  151.00 input  -60.55 | X-H torsion
[ 11005 11000 10999 10996 ] final  159.32 input  -57.11 | X-H torsion

> <Gold.Protein.ActiveResidues>
 VAL166  LYS551  ARG553  GLY616  TRP617  ASP618  TYR619  PRO620  LYS621  CYS622 
 ASP623  PHE694  ASN695  SER759  ASP760  ASP761  ALA762  ILE779  LEU786  VAL792 
 PHE793  MET794  SER795  GLU796  ALA797  LYS798  CYS799  TRP800  GLU811  SER814 

> <Gold.Protein.RotatedAtoms>
  151.7371  133.3320  159.3355 H   0  0  0  0  0  0  0  0  0  0  0  0  # atno 6907 bound_to 6896
  150.7588  134.6311  159.6196 H   0  0  0  0  0  0  0  0  0  0  0  0  # atno 6908 bound_to 6896
  152.3554  134.6949  160.0275 H   0  0  0  0  0  0  0  0  0  0  0  0  # atno 6909 bound_to 6896
  145.9233  140.7814  142.9636 H   0  0  0  0  0  0  0  0  0  0  0  0  # atno 7974 bound_to 7965
  156.2840  140.2169  156.5458 H   0  0  0  0  0  0  0  0  0  0  0  0  # atno 8008 bound_to 7997
  154.7332  140.0494  157.0767 H   0  0  0  0  0  0  0  0  0  0  0  0  # atno 8009 bound_to 7997
  155.0326  140.3136  155.4756 H   0  0  0  0  0  0  0  0  0  0  0  0  # atno 8010 bound_to 7997
  140.5703  143.9173  150.6708 H   0  0  0  0  0  0  0  0  0  0  0  0  # atno 10167 bound_to 10162
  156.7043  130.5102  149.5909 H   0  0  0  0  0  0  0  0  0  0  0  0  # atno 10718 bound_to 10713
  154.0967  135.2848  155.3260 H   0  0  0  0  0  0  0  0  0  0  0  0  # atno 10763 bound_to 10752
  154.6583  135.5344  153.7990 H   0  0  0  0  0  0  0  0  0  0  0  0  # atno 10764 bound_to 10752
  153.0394  135.6527  154.1133 H   0  0  0  0  0  0  0  0  0  0  0  0  # atno 10765 bound_to 10752
  140.1950  134.8379  157.2955 H   0  0  0  0  0  0  0  0  0  0  0  0  # atno 11005 bound_to 11000
  144.6755  140.2010  143.7387 LP  0  0  0  0  0  0  0  0  0  0  0  0  # atno 17320 bound_to 7965
  145.8522  139.2181  143.1765 LP  0  0  0  0  0  0  0  0  0  0  0  0  # atno 17321 bound_to 7965
  140.2646  143.3499  152.1292 LP  0  0  0  0  0  0  0  0  0  0  0  0  # atno 17342 bound_to 10162
  139.5114  144.6900  151.5785 LP  0  0  0  0  0  0  0  0  0  0  0  0  # atno 17343 bound_to 10162
  156.1706  130.6435  151.0833 LP  0  0  0  0  0  0  0  0  0  0  0  0  # atno 17370 bound_to 10713
  157.6961  131.0793  150.6964 LP  0  0  0  0  0  0  0  0  0  0  0  0  # atno 17371 bound_to 10713
  140.2117  134.4130  155.7609 LP  0  0  0  0  0  0  0  0  0  0  0  0  # atno 17394 bound_to 11000
  141.2227  133.7122  156.8349 LP  0  0  0  0  0  0  0  0  0  0  0  0  # atno 17395 bound_to 11000

$$$$
