AV-unprocessed.smi:3118|AV-procd|sdf|11886|dock5
  -GOLD-   2272017273D 1   1.00000     0.00000
 Structure written by MMmdl.
 33 34  0  0  0  0  0  0  0  0  2 V2000
  149.2196  140.4227  157.2186 C   0  0  0  0  0  0  0  0  0  0  0  0
  149.9288  141.3378  156.2113 C   0  0  2  0  0  0  0  0  0  0  0  0
  151.2671  140.7248  155.7449 C   0  0  0  0  0  0  0  0  0  0  0  0
  151.1245  139.3522  155.2475 N   0  0  0  0  0  0  0  0  0  0  0  0
  151.7398  138.2267  155.7320 C   0  0  0  0  0  0  0  0  0  0  0  0
  151.2953  137.1787  154.9679 C   0  0  0  0  0  0  0  0  0  0  0  0
  150.4324  137.7090  154.0467 N   0  3  0  0  0  0  0  0  0  0  0  0
  150.3336  139.0316  154.2150 C   0  0  0  0  0  0  0  0  0  0  0  0
  150.1353  142.6478  156.8282 N   0  0  0  0  0  0  0  0  0  0  0  0
  150.8484  142.8891  157.9395 C   0  0  0  0  0  0  0  0  0  0  0  0
  151.4209  142.0063  158.5797 O   0  0  0  0  0  0  0  0  0  0  0  0
  150.9049  144.3522  158.3962 C   0  0  0  0  0  0  0  0  0  0  0  0
  152.3024  144.8540  158.8020 C   0  0  0  0  0  0  0  0  0  0  0  0
  151.6637  145.5141  160.0275 C   0  0  0  0  0  0  0  0  0  0  0  0
  150.4687  144.5720  159.8551 C   0  0  0  0  0  0  0  0  0  0  0  0
  149.0154  139.4440  156.7834 H   0  0  0  0  0  0  0  0  0  0  0  0
  148.2649  140.8471  157.5314 H   0  0  0  0  0  0  0  0  0  0  0  0
  149.8252  140.2689  158.1125 H   0  0  0  0  0  0  0  0  0  0  0  0
  149.2671  141.4381  155.3488 H   0  0  0  0  0  0  0  0  0  0  0  0
  151.7266  141.3353  154.9655 H   0  0  0  0  0  0  0  0  0  0  0  0
  151.9746  140.6890  156.5742 H   0  0  0  0  0  0  0  0  0  0  0  0
  152.4240  138.2533  156.5677 H   0  0  0  0  0  0  0  0  0  0  0  0
  151.5213  136.1231  155.0107 H   0  0  0  0  0  0  0  0  0  0  0  0
  149.7246  139.7048  153.6384 H   0  0  0  0  0  0  0  0  0  0  0  0
  149.7056  143.4369  156.3673 H   0  0  0  0  0  0  0  0  0  0  0  0
  150.4071  145.0424  157.7120 H   0  0  0  0  0  0  0  0  0  0  0  0
  153.0080  144.0654  159.0694 H   0  0  0  0  0  0  0  0  0  0  0  0
  152.7468  145.5607  158.1007 H   0  0  0  0  0  0  0  0  0  0  0  0
  152.2182  145.3815  160.9569 H   0  0  0  0  0  0  0  0  0  0  0  0
  151.4044  146.5599  159.8555 H   0  0  0  0  0  0  0  0  0  0  0  0
  149.5001  145.0601  159.9653 H   0  0  0  0  0  0  0  0  0  0  0  0
  150.5395  143.6819  160.4831 H   0  0  0  0  0  0  0  0  0  0  0  0
  149.9374  137.1785  153.3408 H   0  0  0  0  0  0  0  0  0  0  0  0
  1  2  1  0  0  0  0
  1 16  1  0  0  0  0
  1 17  1  0  0  0  0
  1 18  1  0  0  0  0
  2  3  1  0  0  0  0
  2  9  1  0  0  0  0
  2 19  1  0  0  0  0
  3  4  1  0  0  0  0
  3 20  1  0  0  0  0
  3 21  1  0  0  0  0
  4  8  1  0  0  0  0
  4  5  1  0  0  0  0
  5  6  2  0  0  0  0
  5 22  1  0  0  0  0
  6  7  1  0  0  0  0
  6 23  1  0  0  0  0
  7  8  2  0  0  0  0
  7 33  1  0  0  0  0
  8 24  1  0  0  0  0
  9 10  1  0  0  0  0
  9 25  1  0  0  0  0
 10 11  2  0  0  0  0
 10 12  1  0  0  0  0
 12 15  1  0  0  0  0
 12 13  1  0  0  0  0
 12 26  1  0  0  0  0
 13 14  1  0  0  0  0
 13 27  1  0  0  0  0
 13 28  1  0  0  0  0
 14 15  1  0  0  0  0
 14 29  1  0  0  0  0
 14 30  1  0  0  0  0
 15 31  1  0  0  0  0
 15 32  1  0  0  0  0
M  CHG  1   7   1
M  END
> <s_m_source_file>
AV-unprocessed.smi

> <i_m_source_file_index>
3118

> <i_lp_mmshare_version>
43012

> <i_f3d_flags>
0

> <s_epik_input>
W0NIMl0xW0NIMl1bQ0gyXVtDSF0xQyg9TylbTkhdW0NASF0oW0NIM10pW0NIMl1uMltjSF1bY0hdbltjSF0y

> <s_epik_cmdline>
J2VwaWtfcHl0aG9uJywgJy1waCcsICc3LjAnLCAnLXRuJywgJzgnLCAnLW1hJywgJzIwMCcsICctbWV0YWxfYmluZGluZycsICctaW1hZScsICc8aW5maWxlLm1hZT4nLCAnLW9tYWUnLCAnPG91dGZpbGUubWFlPic=

> <r_lp_tautomer_probability>
1

> <r_epik_Ionization_Penalty>
0.244425

> <r_epik_Ionization_Penalty_Charging>
0

> <r_epik_Ionization_Penalty_Neutral>
0.244425

> <r_epik_State_Penalty>
0.23553

> <r_epik_Charging_Adjusted_Penalty>
0.23553

> <i_epik_Tot_Q>
1

> <i_epik_Tot_abs_Q>
1

> <r_epik_Metal_State_Penalty>
0.5288

> <b_epik_Metal_Only>
0

> <s_lp_Force_Field>
OPLS_2005

> <r_lp_Energy>
13.9066

> <b_lp_Chiralities_Consistent>
1

> <s_lp_Variant>
AV-unprocessed.smi:3118-1

> <Gold.Version>
5.8.1

> <Gold.Id.Protein>
6NUR|6NUR_protein|mol2

> <Gold.PLP.Fitness>
48.0453

> <Gold.PLP.PLP>
-36.1145

> <Gold.PLP.part.hbond>
-2.5325

> <Gold.PLP.part.metal>
0.0000

> <Gold.PLP.part.buried>
-3.8548

> <Gold.PLP.part.nonpolar>
-30.2624

> <Gold.PLP.part.repulsive>
0.1285

> <Gold.PLP.ligand.clash>
0.0000

> <Gold.PLP.ligand.torsion>
0.2432

> <Gold.PLP.Chemscore.Hbond>
3.0000

> <Gold.PLP.Chemscore.CHOScore>
1.0000

> <Gold.PLP.Chemscore.Metal>
0.0000

> <Gold.Chemscore.Hbonds>
donor molecule, donor type, donor heavy atom, donor atom, acceptor molecule, acceptor atom, score
      L1  H     7    33       P1  7948  2.00
      L1  H     9    25       P1  8028  1.00
      L1  C     8    24       P1  7957  0.99

> <Gold.PLP.Chemscore.Internal.Correction>
0.4172

> <Gold.Rescore>
     Score         DG    S(hbond)    S(metal)    S(lipo)     H(rot)  DE(clash)    DE(int)     intcor
     15.23     -16.30       1.96        0.00      77.26       1.86       0.05       1.02       ----

> <Gold.Chemscore.Fitness>
15.2290

> <Gold.Chemscore.DG>
-16.3040

> <Gold.Chemscore.ZeroCoef>
-5.4800

> <Gold.Chemscore.Hbond>
1.9568

> <Gold.Chemscore.Metal>
0.0000

> <Gold.Chemscore.Lipo>
77.2625

> <Gold.Chemscore.Internal_Hbond>
0.0000

> <Gold.Chemscore.DEClash>
0.0536

> <Gold.Chemscore.DEInternal>
1.0213

> <Gold.Chemscore.Rot>
1.8561

> <Gold.Chemscore.Internal.Correction>
   9.000000E+99

> <Gold.Chemscore.Hbonds>
donor molecule, donor type, donor heavy atom, donor atom, acceptor molecule, acceptor atom, score
      L1  H     7    33       P1  7948  0.34
      L1  H     9    25       P1  8028  1.00

> <Gold.Chemscore.Hbond.Weighted>
-6.5359

> <Gold.Chemscore.Metal.Weighted>
-0.0000

> <Gold.Chemscore.Lipo.Weighted>
-9.0397

> <Gold.Chemscore.Internal_Hbond.Weighted>
0.0000

> <Gold.Chemscore.DEClash.Weighted>
0.0536

> <Gold.Chemscore.DEInternal.Weighted>
1.0213

> <Gold.Chemscore.Rot.Weighted>
4.7516

> <Gold.Chemscore.Internal.Correction.Weighted>
   9.000000E+99

> <Gold.Protein.RotatedTorsions>
[ 6907 6896 6895 6894 ] final  146.26 input  -60.11 | X-H torsion
[ 7974 7965 7964 7962 ] final  -47.63 input  175.53 | X-H torsion
[ 8008 7997 7996 7995 ] final  -66.09 input   59.86 | X-H torsion
[ 10167 10162 10161 10158 ] final   89.02 input  -65.29 | X-H torsion
[ 10718 10713 10712 10709 ] final -108.38 input   66.30 | X-H torsion
[ 10763 10752 10751 10750 ] final  163.63 input  -60.55 | X-H torsion
[ 11005 11000 10999 10996 ] final  135.00 input  -57.11 | X-H torsion

> <Gold.Protein.ActiveResidues>
 VAL166  LYS551  ARG553  GLY616  TRP617  ASP618  TYR619  PRO620  LYS621  CYS622 
 ASP623  PHE694  ASN695  SER759  ASP760  ASP761  ALA762  ILE779  LEU786  VAL792 
 PHE793  MET794  SER795  GLU796  ALA797  LYS798  CYS799  TRP800  GLU811  SER814 

> <Gold.Protein.RotatedAtoms>
  152.1702  133.4638  159.4904 H   0  0  0  0  0  0  0  0  0  0  0  0  # atno 6907 bound_to 6896
  150.6918  134.1963  159.4314 H   0  0  0  0  0  0  0  0  0  0  0  0  # atno 6908 bound_to 6896
  151.9869  134.9999  160.0610 H   0  0  0  0  0  0  0  0  0  0  0  0  # atno 6909 bound_to 6896
  145.9596  140.7492  142.9464 H   0  0  0  0  0  0  0  0  0  0  0  0  # atno 7974 bound_to 7965
  154.4713  140.0920  156.7151 H   0  0  0  0  0  0  0  0  0  0  0  0  # atno 8008 bound_to 7997
  155.4717  140.3464  155.4308 H   0  0  0  0  0  0  0  0  0  0  0  0  # atno 8009 bound_to 7997
  156.1043  140.1430  156.9414 H   0  0  0  0  0  0  0  0  0  0  0  0  # atno 8010 bound_to 7997
  139.8614  144.6542  150.9053 H   0  0  0  0  0  0  0  0  0  0  0  0  # atno 10167 bound_to 10162
  156.0483  130.5710  150.7953 H   0  0  0  0  0  0  0  0  0  0  0  0  # atno 10718 bound_to 10713
  154.2967  135.2760  155.2630 H   0  0  0  0  0  0  0  0  0  0  0  0  # atno 10763 bound_to 10752
  154.5085  135.5789  153.6590 H   0  0  0  0  0  0  0  0  0  0  0  0  # atno 10764 bound_to 10752
  152.9906  135.6175  154.3135 H   0  0  0  0  0  0  0  0  0  0  0  0  # atno 10765 bound_to 10752
  139.9951  134.9500  156.9946 H   0  0  0  0  0  0  0  0  0  0  0  0  # atno 11005 bound_to 11000
  144.6812  140.2569  143.7324 LP  0  0  0  0  0  0  0  0  0  0  0  0  # atno 17320 bound_to 7965
  145.8058  139.1983  143.2021 LP  0  0  0  0  0  0  0  0  0  0  0  0  # atno 17321 bound_to 7965
  140.7774  143.3741  151.1596 LP  0  0  0  0  0  0  0  0  0  0  0  0  # atno 17342 bound_to 10162
  139.7370  143.8984  152.3038 LP  0  0  0  0  0  0  0  0  0  0  0  0  # atno 17343 bound_to 10162
  157.5382  131.0939  150.9863 LP  0  0  0  0  0  0  0  0  0  0  0  0  # atno 17370 bound_to 10713
  157.0153  130.5652  149.5325 LP  0  0  0  0  0  0  0  0  0  0  0  0  # atno 17371 bound_to 10713
  140.4833  134.1267  155.7220 LP  0  0  0  0  0  0  0  0  0  0  0  0  # atno 17394 bound_to 11000
  141.1598  133.8814  157.1879 LP  0  0  0  0  0  0  0  0  0  0  0  0  # atno 17395 bound_to 11000

$$$$
