AV-unprocessed.smi:1631|AV-procd|sdf|6526|dock5
  -GOLD-   22720 7203D 1   1.00000     0.00000
 Structure written by MMmdl.
 38 39  0  0  0  0  0  0  0  0  1 V2000
  150.9442  144.7938  161.0521 C   0  0  0  0  0  0  0  0  0  0  0  0
  151.3438  143.5020  160.3873 C   0  0  0  0  0  0  0  0  0  0  0  0
  150.6033  143.1424  159.3911 N   0  0  0  0  0  0  0  0  0  0  0  0
  150.8546  141.9845  158.6833 N   0  0  0  0  0  0  0  0  0  0  0  0
  149.9152  141.7474  157.5790 C   0  0  0  0  0  0  0  0  0  0  0  0
  150.6175  141.7325  156.2016 C   0  0  2  0  0  0  0  0  0  0  0  0
  150.8867  143.0687  155.8227 O   0  0  0  0  0  0  0  0  0  0  0  0
  149.7564  141.0321  155.1502 C   0  0  0  0  0  0  0  0  0  0  0  0
  148.5822  141.6876  154.7114 C   0  0  0  0  0  0  0  0  0  0  0  0
  147.7389  141.0997  153.7528 C   0  0  0  0  0  0  0  0  0  0  0  0
  148.0621  139.8422  153.2182 C   0  0  0  0  0  0  0  0  0  0  0  0
  149.2270  139.1786  153.6428 C   0  0  0  0  0  0  0  0  0  0  0  0
  150.0870  139.7572  154.6068 C   0  0  0  0  0  0  0  0  0  0  0  0
  151.3447  138.9959  155.0279 C   0  0  0  0  0  0  0  0  0  0  0  0
  151.4916  137.8611  154.3428 F   0  0  0  0  0  0  0  0  0  0  0  0
  152.4278  139.7417  154.8080 F   0  0  0  0  0  0  0  0  0  0  0  0
  151.2798  138.6782  156.3202 F   0  0  0  0  0  0  0  0  0  0  0  0
  151.8723  141.1182  158.9509 C   0  0  0  0  0  0  0  0  0  0  0  0
  152.0595  140.0924  158.2959 O   0  0  0  0  0  0  0  0  0  0  0  0
  152.7098  141.5276  160.0802 C   0  0  0  0  0  0  0  0  0  0  0  0
  153.7906  140.6475  160.3887 C   0  0  0  0  0  0  0  0  0  0  0  0
  154.6538  139.9185  160.6416 N   0  0  0  0  0  0  0  0  0  0  0  0
  152.4753  142.6643  160.7835 C   0  0  0  0  0  0  0  0  0  0  0  0
  153.3241  143.1212  161.9622 C   0  0  0  0  0  0  0  0  0  0  0  0
  151.5792  145.0527  161.8972 H   0  0  0  0  0  0  0  0  0  0  0  0
  149.9202  144.7350  161.4225 H   0  0  0  0  0  0  0  0  0  0  0  0
  150.9941  145.6212  160.3435 H   0  0  0  0  0  0  0  0  0  0  0  0
  149.4169  140.7896  157.7422 H   0  0  0  0  0  0  0  0  0  0  0  0
  149.1113  142.4862  157.5929 H   0  0  0  0  0  0  0  0  0  0  0  0
  151.5822  141.2422  156.2986 H   0  0  0  0  0  0  0  0  0  0  0  0
  150.0735  143.4754  155.5652 H   0  0  0  0  0  0  0  0  0  0  0  0
  148.3208  142.6554  155.1138 H   0  0  0  0  0  0  0  0  0  0  0  0
  146.8456  141.6129  153.4285 H   0  0  0  0  0  0  0  0  0  0  0  0
  147.4173  139.3861  152.4816 H   0  0  0  0  0  0  0  0  0  0  0  0
  149.4501  138.2137  153.2128 H   0  0  0  0  0  0  0  0  0  0  0  0
  154.1357  142.4285  162.1821 H   0  0  0  0  0  0  0  0  0  0  0  0
  152.7152  143.2036  162.8633 H   0  0  0  0  0  0  0  0  0  0  0  0
  153.7725  144.0935  161.7555 H   0  0  0  0  0  0  0  0  0  0  0  0
  1  2  1  0  0  0  0
  1 25  1  0  0  0  0
  1 26  1  0  0  0  0
  1 27  1  0  0  0  0
  2 23  1  0  0  0  0
  2  3  2  0  0  0  0
  3  4  1  0  0  0  0
  4  5  1  0  0  0  0
  4 18  1  0  0  0  0
  5  6  1  0  0  0  0
  5 28  1  0  0  0  0
  5 29  1  0  0  0  0
  6  7  1  0  0  0  0
  6  8  1  0  0  0  0
  6 30  1  0  0  0  0
  7 31  1  0  0  0  0
  8 13  1  0  0  0  0
  8  9  2  0  0  0  0
  9 10  1  0  0  0  0
  9 32  1  0  0  0  0
 10 11  2  0  0  0  0
 10 33  1  0  0  0  0
 11 12  1  0  0  0  0
 11 34  1  0  0  0  0
 12 13  2  0  0  0  0
 12 35  1  0  0  0  0
 13 14  1  0  0  0  0
 14 15  1  0  0  0  0
 14 16  1  0  0  0  0
 14 17  1  0  0  0  0
 18 19  2  0  0  0  0
 18 20  1  0  0  0  0
 20 21  1  0  0  0  0
 20 23  2  0  0  0  0
 21 22  3  0  0  0  0
 23 24  1  0  0  0  0
 24 36  1  0  0  0  0
 24 37  1  0  0  0  0
 24 38  1  0  0  0  0
M  END
> <s_m_source_file>
AV-unprocessed.smi

> <i_m_source_file_index>
1631

> <i_lp_mmshare_version>
43012

> <i_f3d_flags>
0

> <s_epik_input>
TiNDYyhjMVtDSDNdKWMoPU8pbihuYzFbQ0gzXSlbQ0gyXVtDQEhdKFtPSF0pYzJbY0hdW2NIXVtjSF1bY0hdYzJDKEYpKEYpRg==

> <s_epik_cmdline>
J2VwaWtfcHl0aG9uJywgJy1waCcsICc3LjAnLCAnLXRuJywgJzgnLCAnLW1hJywgJzIwMCcsICctbWV0YWxfYmluZGluZycsICctaW1hZScsICc8aW5maWxlLm1hZT4nLCAnLW9tYWUnLCAnPG91dGZpbGUubWFlPic=

> <r_lp_tautomer_probability>
1

> <r_epik_Ionization_Penalty>
7.1854e-08

> <r_epik_Ionization_Penalty_Charging>
1.40848e-10

> <r_epik_Ionization_Penalty_Neutral>
7.17131e-08

> <r_epik_State_Penalty>
-0

> <r_epik_Charging_Adjusted_Penalty>
1.40848e-10

> <i_epik_Tot_Q>
0

> <i_epik_Tot_abs_Q>
0

> <r_epik_Metal_State_Penalty>
-0

> <b_epik_Metal_Only>
0

> <s_lp_Force_Field>
OPLS_2005

> <r_lp_Energy>
30.0509

> <b_lp_Chiralities_Consistent>
1

> <s_lp_Variant>
AV-unprocessed.smi:1631-1

> <Gold.Version>
5.8.1

> <Gold.Id.Protein>
6NUR|6NUR_protein|mol2

> <Gold.PLP.Fitness>
42.2871

> <Gold.PLP.PLP>
-40.0245

> <Gold.PLP.part.hbond>
-1.0305

> <Gold.PLP.part.metal>
0.0000

> <Gold.PLP.part.buried>
7.1652

> <Gold.PLP.part.nonpolar>
-45.1741

> <Gold.PLP.part.repulsive>
0.0619

> <Gold.PLP.ligand.clash>
1.3770

> <Gold.PLP.ligand.torsion>
0.3934

> <Gold.PLP.Chemscore.Hbond>
1.0000

> <Gold.PLP.Chemscore.CHOScore>
0.0000

> <Gold.PLP.Chemscore.Metal>
0.0000

> <Gold.Chemscore.Hbonds>
donor molecule, donor type, donor heavy atom, donor atom, acceptor molecule, acceptor atom, score
      L1  H     7    31       P1  8028  1.00

> <Gold.PLP.Chemscore.Internal.Correction>
1.4263

> <Gold.Rescore>
     Score         DG    S(hbond)    S(metal)    S(lipo)     H(rot)  DE(clash)    DE(int)     intcor
      9.04     -15.88       0.99        0.00     106.75       2.11       2.90       3.94       ----

> <Gold.Chemscore.Fitness>
9.0353

> <Gold.Chemscore.DG>
-15.8805

> <Gold.Chemscore.ZeroCoef>
-5.4800

> <Gold.Chemscore.Hbond>
0.9937

> <Gold.Chemscore.Metal>
0.0000

> <Gold.Chemscore.Lipo>
106.7457

> <Gold.Chemscore.Internal_Hbond>
0.0000

> <Gold.Chemscore.DEClash>
2.9007

> <Gold.Chemscore.DEInternal>
3.9445

> <Gold.Chemscore.Rot>
2.1124

> <Gold.Chemscore.Internal.Correction>
   9.000000E+99

> <Gold.Chemscore.Hbonds>
donor molecule, donor type, donor heavy atom, donor atom, acceptor molecule, acceptor atom, score
      L1  H     7    31       P1  8028  0.97

> <Gold.Chemscore.Hbond.Weighted>
-3.3190

> <Gold.Chemscore.Metal.Weighted>
-0.0000

> <Gold.Chemscore.Lipo.Weighted>
-12.4893

> <Gold.Chemscore.Internal_Hbond.Weighted>
0.0000

> <Gold.Chemscore.DEClash.Weighted>
2.9007

> <Gold.Chemscore.DEInternal.Weighted>
3.9445

> <Gold.Chemscore.Rot.Weighted>
5.4078

> <Gold.Chemscore.Internal.Correction.Weighted>
   9.000000E+99

> <Gold.Protein.RotatedTorsions>
[ 6907 6896 6895 6894 ] final  -57.19 input  -60.11 | X-H torsion
[ 7974 7965 7964 7962 ] final   16.06 input  175.53 | X-H torsion
[ 8008 7997 7996 7995 ] final   38.54 input   59.86 | X-H torsion
[ 10167 10162 10161 10158 ] final  109.59 input  -65.29 | X-H torsion
[ 10718 10713 10712 10709 ] final -134.34 input   66.30 | X-H torsion
[ 10763 10752 10751 10750 ] final  -79.84 input  -60.55 | X-H torsion
[ 11005 11000 10999 10996 ] final  -50.12 input  -57.11 | X-H torsion

> <Gold.Protein.ActiveResidues>
 VAL166  LYS551  ARG553  GLY616  TRP617  ASP618  TYR619  PRO620  LYS621  CYS622 
 ASP623  PHE694  ASN695  SER759  ASP760  ASP761  ALA762  ILE779  LEU786  VAL792 
 PHE793  MET794  SER795  GLU796  ALA797  LYS798  CYS799  TRP800  GLU811  SER814 

> <Gold.Protein.RotatedAtoms>
  150.8106  134.7259  159.6684 H   0  0  0  0  0  0  0  0  0  0  0  0  # atno 6907 bound_to 6896
  152.4226  134.5924  159.9987 H   0  0  0  0  0  0  0  0  0  0  0  0  # atno 6908 bound_to 6896
  151.6135  133.3308  159.3108 H   0  0  0  0  0  0  0  0  0  0  0  0  # atno 6909 bound_to 6896
  146.2260  139.8803  142.8572 H   0  0  0  0  0  0  0  0  0  0  0  0  # atno 7974 bound_to 7965
  155.2219  140.3331  155.4314 H   0  0  0  0  0  0  0  0  0  0  0  0  # atno 8008 bound_to 7997
  156.2330  140.1859  156.7241 H   0  0  0  0  0  0  0  0  0  0  0  0  # atno 8009 bound_to 7997
  154.6010  140.0623  156.9354 H   0  0  0  0  0  0  0  0  0  0  0  0  # atno 8010 bound_to 7997
  139.6755  144.7122  151.1610 H   0  0  0  0  0  0  0  0  0  0  0  0  # atno 10167 bound_to 10162
  156.2544  130.7172  151.1083 H   0  0  0  0  0  0  0  0  0  0  0  0  # atno 10718 bound_to 10713
  154.5437  135.5682  153.6861 H   0  0  0  0  0  0  0  0  0  0  0  0  # atno 10763 bound_to 10752
  152.9970  135.6234  154.2467 H   0  0  0  0  0  0  0  0  0  0  0  0  # atno 10764 bound_to 10752
  154.2400  135.2863  155.2837 H   0  0  0  0  0  0  0  0  0  0  0  0  # atno 10765 bound_to 10752
  141.0798  133.6656  156.3685 H   0  0  0  0  0  0  0  0  0  0  0  0  # atno 11005 bound_to 11000
  145.2519  141.0047  143.3876 LP  0  0  0  0  0  0  0  0  0  0  0  0  # atno 17320 bound_to 7965
  144.9368  139.4235  143.6468 LP  0  0  0  0  0  0  0  0  0  0  0  0  # atno 17321 bound_to 7965
  140.7634  143.5779  150.8926 LP  0  0  0  0  0  0  0  0  0  0  0  0  # atno 17342 bound_to 10162
  139.9447  143.6341  152.3045 LP  0  0  0  0  0  0  0  0  0  0  0  0  # atno 17343 bound_to 10162
  157.7227  131.0671  150.6067 LP  0  0  0  0  0  0  0  0  0  0  0  0  # atno 17370 bound_to 10713
  156.6150  130.4390  149.5844 LP  0  0  0  0  0  0  0  0  0  0  0  0  # atno 17371 bound_to 10713
  140.5493  134.6043  157.5403 LP  0  0  0  0  0  0  0  0  0  0  0  0  # atno 17394 bound_to 11000
  139.9611  134.7450  156.0234 LP  0  0  0  0  0  0  0  0  0  0  0  0  # atno 17395 bound_to 11000

$$$$
