AV-unprocessed.smi:3290|AV-procd|sdf|12614|dock2
  -GOLD-   2272018543D 1   1.00000     0.00000
 Structure written by MMmdl.
 43 44  0  0  0  0  0  0  0  0  2 V2000
  153.3978  141.5252  159.0853 C   0  0  0  0  0  0  0  0  0  0  0  0
  152.5097  142.5582  159.8018 C   0  0  1  0  0  0  0  0  0  0  0  0
  153.0308  142.7739  161.2387 C   0  0  0  0  0  0  0  0  0  0  0  0
  152.1597  143.7600  162.0280 C   0  0  0  0  0  0  0  0  0  0  0  0
  152.0513  145.0993  161.2914 C   0  0  0  0  0  0  0  0  0  0  0  0
  151.5204  144.8967  159.8658 C   0  0  0  0  0  0  0  0  0  0  0  0
  152.3921  143.9167  159.0487 C   0  0  2  0  0  0  0  0  0  0  0  0
  151.8152  143.7880  157.6204 C   0  0  0  0  0  0  0  0  0  0  0  0
  150.4499  143.2250  157.6186 N   0  3  0  0  0  0  0  0  0  0  0  0
  150.3835  141.8002  157.2361 C   0  0  0  0  0  0  0  0  0  0  0  0
  150.5126  141.6172  155.7137 C   0  0  2  0  0  0  0  0  0  0  0  0
  149.2650  141.9035  155.1116 O   0  0  0  0  0  0  0  0  0  0  0  0
  150.9958  140.2174  155.3687 C   0  0  0  0  0  0  0  0  0  0  0  0
  150.2564  139.3823  154.5031 C   0  0  0  0  0  0  0  0  0  0  0  0
  150.7514  138.0927  154.2247 C   0  0  0  0  0  0  0  0  0  0  0  0
  151.8998  137.6113  154.7466 N   0  0  0  0  0  0  0  0  0  0  0  0
  152.6017  138.4128  155.5757 C   0  0  0  0  0  0  0  0  0  0  0  0
  152.1950  139.7180  155.9190 C   0  0  0  0  0  0  0  0  0  0  0  0
  154.3896  141.9286  158.8785 H   0  0  0  0  0  0  0  0  0  0  0  0
  152.9587  141.1977  158.1435 H   0  0  0  0  0  0  0  0  0  0  0  0
  153.5269  140.6310  159.6960 H   0  0  0  0  0  0  0  0  0  0  0  0
  151.5103  142.1268  159.8789 H   0  0  0  0  0  0  0  0  0  0  0  0
  153.0641  141.8228  161.7715 H   0  0  0  0  0  0  0  0  0  0  0  0
  154.0569  143.1431  161.2068 H   0  0  0  0  0  0  0  0  0  0  0  0
  151.1645  143.3379  162.1733 H   0  0  0  0  0  0  0  0  0  0  0  0
  152.5795  143.9144  163.0225 H   0  0  0  0  0  0  0  0  0  0  0  0
  151.3947  145.7742  161.8413 H   0  0  0  0  0  0  0  0  0  0  0  0
  153.0298  145.5799  161.2550 H   0  0  0  0  0  0  0  0  0  0  0  0
  150.4943  144.5283  159.9103 H   0  0  0  0  0  0  0  0  0  0  0  0
  151.4768  145.8651  159.3657 H   0  0  0  0  0  0  0  0  0  0  0  0
  153.3870  144.3603  158.9762 H   0  0  0  0  0  0  0  0  0  0  0  0
  151.8260  144.7548  157.1150 H   0  0  0  0  0  0  0  0  0  0  0  0
  152.4383  143.1179  157.0264 H   0  0  0  0  0  0  0  0  0  0  0  0
  150.0610  143.3211  158.5461 H   0  0  0  0  0  0  0  0  0  0  0  0
  151.1927  141.2684  157.7389 H   0  0  0  0  0  0  0  0  0  0  0  0
  149.4468  141.3692  157.5937 H   0  0  0  0  0  0  0  0  0  0  0  0
  151.2341  142.3372  155.3245 H   0  0  0  0  0  0  0  0  0  0  0  0
  149.2117  142.8358  154.9620 H   0  0  0  0  0  0  0  0  0  0  0  0
  149.3297  139.7174  154.0604 H   0  0  0  0  0  0  0  0  0  0  0  0
  150.2097  137.4301  153.5661 H   0  0  0  0  0  0  0  0  0  0  0  0
  153.5151  138.0017  155.9794 H   0  0  0  0  0  0  0  0  0  0  0  0
  152.7946  140.3166  156.5889 H   0  0  0  0  0  0  0  0  0  0  0  0
  149.8833  143.7585  156.9751 H   0  0  0  0  0  0  0  0  0  0  0  0
  1  2  1  0  0  0  0
  1 19  1  0  0  0  0
  1 20  1  0  0  0  0
  1 21  1  0  0  0  0
  2  7  1  0  0  0  0
  2  3  1  0  0  0  0
  2 22  1  0  0  0  0
  3  4  1  0  0  0  0
  3 23  1  0  0  0  0
  3 24  1  0  0  0  0
  4  5  1  0  0  0  0
  4 25  1  0  0  0  0
  4 26  1  0  0  0  0
  5  6  1  0  0  0  0
  5 27  1  0  0  0  0
  5 28  1  0  0  0  0
  6  7  1  0  0  0  0
  6 29  1  0  0  0  0
  6 30  1  0  0  0  0
  7  8  1  0  0  0  0
  7 31  1  0  0  0  0
  8  9  1  0  0  0  0
  8 32  1  0  0  0  0
  8 33  1  0  0  0  0
  9 10  1  0  0  0  0
  9 34  1  0  0  0  0
  9 43  1  0  0  0  0
 10 11  1  0  0  0  0
 10 35  1  0  0  0  0
 10 36  1  0  0  0  0
 11 12  1  0  0  0  0
 11 13  1  0  0  0  0
 11 37  1  0  0  0  0
 12 38  1  0  0  0  0
 13 18  1  0  0  0  0
 13 14  2  0  0  0  0
 14 15  1  0  0  0  0
 14 39  1  0  0  0  0
 15 16  2  0  0  0  0
 15 40  1  0  0  0  0
 16 17  1  0  0  0  0
 17 18  2  0  0  0  0
 17 41  1  0  0  0  0
 18 42  1  0  0  0  0
M  CHG  1   9   1
M  END
> <s_m_source_file>
AV-unprocessed.smi

> <i_m_source_file_index>
3290

> <i_lp_mmshare_version>
43012

> <i_f3d_flags>
0

> <s_epik_input>
W0NIM11bQ0BASF0xW0NIMl1bQ0gyXVtDSDJdW0NIMl1bQ0BIXTFbQ0gyXVtOSF1bQ0gyXVtDQEhdKFtPSF0pYzJbY0hdW2NIXW5bY0hdW2NIXTI=

> <s_epik_cmdline>
J2VwaWtfcHl0aG9uJywgJy1waCcsICc3LjAnLCAnLXRuJywgJzgnLCAnLW1hJywgJzIwMCcsICctbWV0YWxfYmluZGluZycsICctaW1hZScsICc8aW5maWxlLm1hZT4nLCAnLW9tYWUnLCAnPG91dGZpbGUubWFlPic=

> <r_lp_tautomer_probability>
1

> <r_epik_Ionization_Penalty>
0.00420552

> <r_epik_Ionization_Penalty_Charging>
0.00207255

> <r_epik_Ionization_Penalty_Neutral>
0.00213297

> <r_epik_State_Penalty>
-0

> <r_epik_Charging_Adjusted_Penalty>
0.00207255

> <i_epik_Tot_Q>
1

> <i_epik_Tot_abs_Q>
1

> <r_epik_Metal_State_Penalty>
-0

> <b_epik_Metal_Only>
0

> <s_lp_Force_Field>
OPLS_2005

> <r_lp_Energy>
17.7323

> <b_lp_Chiralities_Consistent>
1

> <s_lp_Variant>
AV-unprocessed.smi:3290-4

> <Gold.Version>
5.8.1

> <Gold.Id.Protein>
6NUR|6NUR_protein|mol2

> <Gold.PLP.Fitness>
58.8426

> <Gold.PLP.PLP>
-46.3187

> <Gold.PLP.part.hbond>
-2.7962

> <Gold.PLP.part.metal>
0.0000

> <Gold.PLP.part.buried>
-0.1311

> <Gold.PLP.part.nonpolar>
-43.0415

> <Gold.PLP.part.repulsive>
0.1192

> <Gold.PLP.ligand.clash>
0.0000

> <Gold.PLP.ligand.torsion>
0.6091

> <Gold.PLP.Chemscore.Hbond>
3.4307

> <Gold.PLP.Chemscore.CHOScore>
1.1278

> <Gold.PLP.Chemscore.Metal>
0.0000

> <Gold.Chemscore.Hbonds>
donor molecule, donor type, donor heavy atom, donor atom, acceptor molecule, acceptor atom, score
      L1  H     9    43       P1  8028  2.00
      L1  H    12    38       P1  8028  1.00
      P1  H 10752 10765       L1    16  0.41
      L1  C    15    40       P1  7948  0.99
      L1  C    15    40       P1  7949  0.14

> <Gold.PLP.Chemscore.Internal.Correction>
0.0667

> <Gold.Rescore>
     Score         DG    S(hbond)    S(metal)    S(lipo)     H(rot)  DE(clash)    DE(int)     intcor
     22.99     -25.25       2.44        0.00     144.32       2.05       1.72       0.54       ----

> <Gold.Chemscore.Fitness>
22.9892

> <Gold.Chemscore.DG>
-25.2543

> <Gold.Chemscore.ZeroCoef>
-5.4800

> <Gold.Chemscore.Hbond>
2.4361

> <Gold.Chemscore.Metal>
0.0000

> <Gold.Chemscore.Lipo>
144.3195

> <Gold.Chemscore.Internal_Hbond>
0.0000

> <Gold.Chemscore.DEClash>
1.7217

> <Gold.Chemscore.DEInternal>
0.5434

> <Gold.Chemscore.Rot>
2.0498

> <Gold.Chemscore.Internal.Correction>
   9.000000E+99

> <Gold.Chemscore.Hbonds>
donor molecule, donor type, donor heavy atom, donor atom, acceptor molecule, acceptor atom, score
      L1  H     9    43       P1  8028  0.97
      L1  H    12    38       P1  8028  0.89
      P1  H 10752 10765       L1    16  0.32

> <Gold.Chemscore.Hbond.Weighted>
-8.1365

> <Gold.Chemscore.Metal.Weighted>
-0.0000

> <Gold.Chemscore.Lipo.Weighted>
-16.8854

> <Gold.Chemscore.Internal_Hbond.Weighted>
0.0000

> <Gold.Chemscore.DEClash.Weighted>
1.7217

> <Gold.Chemscore.DEInternal.Weighted>
0.5434

> <Gold.Chemscore.Rot.Weighted>
5.2475

> <Gold.Chemscore.Internal.Correction.Weighted>
   9.000000E+99

> <Gold.Protein.RotatedTorsions>
[ 6907 6896 6895 6894 ] final  104.86 input  -60.11 | X-H torsion
[ 7974 7965 7964 7962 ] final -135.92 input  175.53 | X-H torsion
[ 8008 7997 7996 7995 ] final  155.58 input   59.86 | X-H torsion
[ 10167 10162 10161 10158 ] final  176.19 input  -65.29 | X-H torsion
[ 10718 10713 10712 10709 ] final   87.50 input   66.30 | X-H torsion
[ 10763 10752 10751 10750 ] final  171.30 input  -60.55 | X-H torsion
[ 11005 11000 10999 10996 ] final   93.70 input  -57.11 | X-H torsion

> <Gold.Protein.ActiveResidues>
 VAL166  LYS551  ARG553  GLY616  TRP617  ASP618  TYR619  PRO620  LYS621  CYS622 
 ASP623  PHE694  ASN695  SER759  ASP760  ASP761  ALA762  ILE779  LEU786  VAL792 
 PHE793  MET794  SER795  GLU796  ALA797  LYS798  CYS799  TRP800  GLU811  SER814 

> <Gold.Protein.RotatedAtoms>
  152.5250  133.9614  159.7718 H   0  0  0  0  0  0  0  0  0  0  0  0  # atno 6907 bound_to 6896
  150.9904  133.6148  159.2716 H   0  0  0  0  0  0  0  0  0  0  0  0  # atno 6908 bound_to 6896
  151.3293  135.0844  159.9386 H   0  0  0  0  0  0  0  0  0  0  0  0  # atno 6909 bound_to 6896
  144.8971  140.6722  143.5108 H   0  0  0  0  0  0  0  0  0  0  0  0  # atno 7974 bound_to 7965
  156.2470  140.1935  156.6824 H   0  0  0  0  0  0  0  0  0  0  0  0  # atno 8008 bound_to 7997
  154.6312  140.0595  156.9760 H   0  0  0  0  0  0  0  0  0  0  0  0  # atno 8009 bound_to 7997
  155.1707  140.3268  155.4396 H   0  0  0  0  0  0  0  0  0  0  0  0  # atno 8010 bound_to 7997
  139.5205  144.2944  152.0435 H   0  0  0  0  0  0  0  0  0  0  0  0  # atno 10167 bound_to 10162
  157.6940  131.0258  150.3132 H   0  0  0  0  0  0  0  0  0  0  0  0  # atno 10718 bound_to 10713
  154.4099  135.2756  155.2043 H   0  0  0  0  0  0  0  0  0  0  0  0  # atno 10763 bound_to 10752
  154.4033  135.6039  153.5913 H   0  0  0  0  0  0  0  0  0  0  0  0  # atno 10764 bound_to 10752
  152.9831  135.5932  154.4379 H   0  0  0  0  0  0  0  0  0  0  0  0  # atno 10765 bound_to 10752
  139.8807  134.8805  156.3757 H   0  0  0  0  0  0  0  0  0  0  0  0  # atno 11005 bound_to 11000
  145.3680  139.1665  143.4347 LP  0  0  0  0  0  0  0  0  0  0  0  0  # atno 17320 bound_to 7965
  146.3088  140.3749  142.8678 LP  0  0  0  0  0  0  0  0  0  0  0  0  # atno 17321 bound_to 7965
  140.2394  144.4285  150.6266 LP  0  0  0  0  0  0  0  0  0  0  0  0  # atno 17342 bound_to 10162
  140.6301  143.2186  151.6514 LP  0  0  0  0  0  0  0  0  0  0  0  0  # atno 17343 bound_to 10162
  156.3631  130.3850  149.7235 LP  0  0  0  0  0  0  0  0  0  0  0  0  # atno 17370 bound_to 10713
  156.4675  130.7981  151.3000 LP  0  0  0  0  0  0  0  0  0  0  0  0  # atno 17371 bound_to 10713
  140.9434  133.7499  156.0176 LP  0  0  0  0  0  0  0  0  0  0  0  0  # atno 17394 bound_to 11000
  140.8192  134.3308  157.5387 LP  0  0  0  0  0  0  0  0  0  0  0  0  # atno 17395 bound_to 11000

$$$$
