AV-unprocessed.smi:1717|AV-procd|sdf|6918|dock1
  -GOLD-   22720 8123D 1   1.00000     0.00000
 Structure written by MMmdl.
 41 42  0  0  0  0  0  0  0  0  2 V2000
  150.5582  141.7988  155.9301 C   0  0  0  0  0  0  0  0  0  0  0  0
  149.1965  141.9463  155.4388 N   0  0  0  0  0  0  0  0  0  0  0  0
  148.5353  141.0004  154.7575 C   0  0  0  0  0  0  0  0  0  0  0  0
  149.0249  139.9067  154.4735 O   0  0  0  0  0  0  0  0  0  0  0  0
  147.1116  141.3546  154.3157 C   0  0  0  0  0  0  0  0  0  0  0  0
  146.5150  140.3391  153.4102 N   0  3  2  0  0  0  0  0  0  0  0  0
  146.3499  139.0184  154.0690 C   0  0  0  0  0  0  0  0  0  0  0  0
  145.5946  138.0354  153.1587 C   0  0  0  0  0  0  0  0  0  0  0  0
  146.3026  137.8757  151.8039 C   0  0  1  0  0  0  0  0  0  0  0  0
  145.5185  137.0029  150.9351 N   0  0  0  0  0  0  0  0  0  0  0  0
  145.3636  135.6820  151.1058 C   0  0  0  0  0  0  0  0  0  0  0  0
  145.8884  135.0494  152.0221 O   0  0  0  0  0  0  0  0  0  0  0  0
  144.5729  135.1562  150.1565 N   0  0  0  0  0  0  0  0  0  0  0  0
  144.1772  133.8020  150.0231 C   0  0  0  0  0  0  0  0  0  0  0  0
  144.1027  132.9934  148.8508 C   0  0  0  0  0  0  0  0  0  0  0  0
  143.6866  131.7684  149.1390 N   0  0  0  0  0  0  0  0  0  0  0  0
  143.4957  131.7865  150.4773 N   0  0  0  0  0  0  0  0  0  0  0  0
  143.7829  133.0034  151.0548 C   0  0  0  0  0  0  0  0  0  0  0  0
  146.5010  139.2603  151.1601 C   0  0  0  0  0  0  0  0  0  0  0  0
  147.2354  140.2164  152.1146 C   0  0  0  0  0  0  0  0  0  0  0  0
  143.1744  130.9690  150.9762 H   0  0  0  0  0  0  0  0  0  0  0  0
  150.8585  142.6976  156.4685 H   0  0  0  0  0  0  0  0  0  0  0  0
  151.2547  141.6481  155.1043 H   0  0  0  0  0  0  0  0  0  0  0  0
  150.6373  140.9512  156.6118 H   0  0  0  0  0  0  0  0  0  0  0  0
  148.7314  142.8230  155.6264 H   0  0  0  0  0  0  0  0  0  0  0  0
  146.4672  141.5089  155.1828 H   0  0  0  0  0  0  0  0  0  0  0  0
  147.1774  142.3134  153.7997 H   0  0  0  0  0  0  0  0  0  0  0  0
  147.3298  138.6157  154.3308 H   0  0  0  0  0  0  0  0  0  0  0  0
  145.7959  139.1378  155.0009 H   0  0  0  0  0  0  0  0  0  0  0  0
  145.5096  137.0670  153.6535 H   0  0  0  0  0  0  0  0  0  0  0  0
  144.5759  138.3953  153.0056 H   0  0  0  0  0  0  0  0  0  0  0  0
  147.2794  137.4205  151.9804 H   0  0  0  0  0  0  0  0  0  0  0  0
  145.0510  137.4376  150.1529 H   0  0  0  0  0  0  0  0  0  0  0  0
  144.2110  135.7905  149.4598 H   0  0  0  0  0  0  0  0  0  0  0  0
  144.3293  133.2382  147.8237 H   0  0  0  0  0  0  0  0  0  0  0  0
  143.6840  133.1860  152.1147 H   0  0  0  0  0  0  0  0  0  0  0  0
  147.0653  139.1679  150.2315 H   0  0  0  0  0  0  0  0  0  0  0  0
  145.5340  139.6888  150.8923 H   0  0  0  0  0  0  0  0  0  0  0  0
  147.3254  141.1941  151.6404 H   0  0  0  0  0  0  0  0  0  0  0  0
  148.2505  139.8592  152.2942 H   0  0  0  0  0  0  0  0  0  0  0  0
  145.5837  140.6688  153.1984 H   0  0  0  0  0  0  0  0  0  0  0  0
  1  2  1  0  0  0  0
  1 22  1  0  0  0  0
  1 23  1  0  0  0  0
  1 24  1  0  0  0  0
  2  3  1  0  0  0  0
  2 25  1  0  0  0  0
  3  4  2  0  0  0  0
  3  5  1  0  0  0  0
  5  6  1  0  0  0  0
  5 26  1  0  0  0  0
  5 27  1  0  0  0  0
  6 20  1  0  0  0  0
  6  7  1  0  0  0  0
  6 41  1  0  0  0  0
  7  8  1  0  0  0  0
  7 28  1  0  0  0  0
  7 29  1  0  0  0  0
  8  9  1  0  0  0  0
  8 30  1  0  0  0  0
  8 31  1  0  0  0  0
  9 10  1  0  0  0  0
  9 19  1  0  0  0  0
  9 32  1  0  0  0  0
 10 11  1  0  0  0  0
 10 33  1  0  0  0  0
 11 12  2  0  0  0  0
 11 13  1  0  0  0  0
 13 14  1  0  0  0  0
 13 34  1  0  0  0  0
 14 18  2  0  0  0  0
 14 15  1  0  0  0  0
 15 16  2  0  0  0  0
 15 35  1  0  0  0  0
 16 17  1  0  0  0  0
 17 21  1  0  0  0  0
 17 18  1  0  0  0  0
 18 36  1  0  0  0  0
 19 20  1  0  0  0  0
 19 37  1  0  0  0  0
 19 38  1  0  0  0  0
 20 39  1  0  0  0  0
 20 40  1  0  0  0  0
M  CHG  1   6   1
M  END
> <s_m_source_file>
AV-unprocessed.smi

> <i_m_source_file_index>
1717

> <i_lp_mmshare_version>
43012

> <i_f3d_flags>
0

> <s_epik_input>
W0NIM11bTkhdQyg9TylbQ0gyXU4xW0NIMl1bQ0gyXVtDSF0oW0NIMl1bQ0gyXTEpW05IXUMoPU8pW05IXWMyW2NIXW5bbkhdW2NIXTI=

> <s_epik_cmdline>
J2VwaWtfcHl0aG9uJywgJy1waCcsICc3LjAnLCAnLXRuJywgJzgnLCAnLW1hJywgJzIwMCcsICctbWV0YWxfYmluZGluZycsICctaW1hZScsICc8aW5maWxlLm1hZT4nLCAnLW9tYWUnLCAnPG91dGZpbGUubWFlPic=

> <r_lp_tautomer_probability>
0.5

> <r_epik_Ionization_Penalty>
0.838906

> <r_epik_Ionization_Penalty_Charging>
0.838844

> <r_epik_Ionization_Penalty_Neutral>
6.24243e-05

> <r_epik_State_Penalty>
0.8734

> <r_epik_Charging_Adjusted_Penalty>
1.71224

> <i_epik_Tot_Q>
1

> <i_epik_Tot_abs_Q>
1

> <r_epik_Metal_State_Penalty>
0.877921

> <b_epik_Metal_Only>
0

> <s_lp_Force_Field>
OPLS_2005

> <r_lp_Energy>
17.0094

> <b_lp_Chiralities_Consistent>
1

> <s_lp_Variant>
AV-unprocessed.smi:1717-2

> <Gold.Version>
5.8.1

> <Gold.Id.Protein>
6NUR|6NUR_protein|mol2

> <Gold.PLP.Fitness>
47.0359

> <Gold.PLP.PLP>
-32.1989

> <Gold.PLP.part.hbond>
-5.5371

> <Gold.PLP.part.metal>
0.0000

> <Gold.PLP.part.buried>
3.0446

> <Gold.PLP.part.nonpolar>
-30.8931

> <Gold.PLP.part.repulsive>
0.9094

> <Gold.PLP.ligand.clash>
0.0000

> <Gold.PLP.ligand.torsion>
0.5215

> <Gold.PLP.Chemscore.Hbond>
4.6065

> <Gold.PLP.Chemscore.CHOScore>
0.6748

> <Gold.PLP.Chemscore.Metal>
0.0000

> <Gold.Chemscore.Hbonds>
donor molecule, donor type, donor heavy atom, donor atom, acceptor molecule, acceptor atom, score
      L1  H     2    25       P1  8028  0.93
      L1  H     6    41       P1 10175  1.98
      L1  H    10    33       P1 10171  0.85
      P1  H 10785 10796       L1    16  0.82
      L1  C    15    35       P1  7921  0.67

> <Gold.PLP.Chemscore.Internal.Correction>
0.0363

> <Gold.Rescore>
     Score         DG    S(hbond)    S(metal)    S(lipo)     H(rot)  DE(clash)    DE(int)     intcor
     17.72     -21.86       3.63        0.00      75.91       1.81       1.98       2.16       ----

> <Gold.Chemscore.Fitness>
17.7224

> <Gold.Chemscore.DG>
-21.8560

> <Gold.Chemscore.ZeroCoef>
-5.4800

> <Gold.Chemscore.Hbond>
3.6310

> <Gold.Chemscore.Metal>
0.0000

> <Gold.Chemscore.Lipo>
75.9054

> <Gold.Chemscore.Internal_Hbond>
0.0000

> <Gold.Chemscore.DEClash>
1.9786

> <Gold.Chemscore.DEInternal>
2.1550

> <Gold.Chemscore.Rot>
1.8096

> <Gold.Chemscore.Internal.Correction>
   9.000000E+99

> <Gold.Chemscore.Hbonds>
donor molecule, donor type, donor heavy atom, donor atom, acceptor molecule, acceptor atom, score
      L1  H     2    25       P1  8028  0.91
      L1  H     6    41       P1 10175  0.74
      L1  H    10    33       P1 10171  0.83
      P1  H 10785 10796       L1    16  0.28

> <Gold.Chemscore.Hbond.Weighted>
-12.1276

> <Gold.Chemscore.Metal.Weighted>
-0.0000

> <Gold.Chemscore.Lipo.Weighted>
-8.8809

> <Gold.Chemscore.Internal_Hbond.Weighted>
0.0000

> <Gold.Chemscore.DEClash.Weighted>
1.9786

> <Gold.Chemscore.DEInternal.Weighted>
2.1550

> <Gold.Chemscore.Rot.Weighted>
4.6325

> <Gold.Chemscore.Internal.Correction.Weighted>
   9.000000E+99

> <Gold.Protein.RotatedTorsions>
[ 6907 6896 6895 6894 ] final -148.45 input  -60.11 | X-H torsion
[ 7974 7965 7964 7962 ] final  -77.34 input  175.53 | X-H torsion
[ 8008 7997 7996 7995 ] final -111.19 input   59.86 | X-H torsion
[ 10167 10162 10161 10158 ] final  -54.60 input  -65.29 | X-H torsion
[ 10718 10713 10712 10709 ] final -137.23 input   66.30 | X-H torsion
[ 10763 10752 10751 10750 ] final  -55.37 input  -60.55 | X-H torsion
[ 11005 11000 10999 10996 ] final   80.50 input  -57.11 | X-H torsion

> <Gold.Protein.ActiveResidues>
 VAL166  LYS551  ARG553  GLY616  TRP617  ASP618  TYR619  PRO620  LYS621  CYS622 
 ASP623  PHE694  ASN695  SER759  ASP760  ASP761  ALA762  ILE779  LEU786  VAL792 
 PHE793  MET794  SER795  GLU796  ALA797  LYS798  CYS799  TRP800  GLU811  SER814 

> <Gold.Protein.RotatedAtoms>
  151.1700  133.4790  159.2593 H   0  0  0  0  0  0  0  0  0  0  0  0  # atno 6907 bound_to 6896
  151.1366  135.0157  159.8616 H   0  0  0  0  0  0  0  0  0  0  0  0  # atno 6908 bound_to 6896
  152.5461  134.1598  159.8606 H   0  0  0  0  0  0  0  0  0  0  0  0  # atno 6909 bound_to 6896
  145.6009  140.9409  143.1241 H   0  0  0  0  0  0  0  0  0  0  0  0  # atno 7974 bound_to 7965
  154.9861  140.0395  157.2299 H   0  0  0  0  0  0  0  0  0  0  0  0  # atno 8008 bound_to 7997
  154.7671  140.2795  155.6145 H   0  0  0  0  0  0  0  0  0  0  0  0  # atno 8009 bound_to 7997
  156.2914  140.2617  156.2464 H   0  0  0  0  0  0  0  0  0  0  0  0  # atno 8010 bound_to 7997
  140.6421  143.2514  151.4960 H   0  0  0  0  0  0  0  0  0  0  0  0  # atno 10167 bound_to 10162
  156.2858  130.7347  151.1358 H   0  0  0  0  0  0  0  0  0  0  0  0  # atno 10718 bound_to 10713
  154.1897  135.6429  153.5056 H   0  0  0  0  0  0  0  0  0  0  0  0  # atno 10763 bound_to 10752
  153.0038  135.5426  154.6428 H   0  0  0  0  0  0  0  0  0  0  0  0  # atno 10764 bound_to 10752
  154.5813  135.2925  155.0702 H   0  0  0  0  0  0  0  0  0  0  0  0  # atno 10765 bound_to 10752
  139.9132  134.7925  156.1918 H   0  0  0  0  0  0  0  0  0  0  0  0  # atno 11005 bound_to 11000
  144.7310  139.7726  143.7347 LP  0  0  0  0  0  0  0  0  0  0  0  0  # atno 17320 bound_to 7965
  146.1577  139.4680  143.0008 LP  0  0  0  0  0  0  0  0  0  0  0  0  # atno 17321 bound_to 7965
  139.5631  144.2108  152.1722 LP  0  0  0  0  0  0  0  0  0  0  0  0  # atno 17342 bound_to 10162
  140.1382  144.5226  150.6760 LP  0  0  0  0  0  0  0  0  0  0  0  0  # atno 17343 bound_to 10162
  157.7328  131.0596  150.5609 LP  0  0  0  0  0  0  0  0  0  0  0  0  # atno 17370 bound_to 10713
  156.5720  130.4282  149.6015 LP  0  0  0  0  0  0  0  0  0  0  0  0  # atno 17371 bound_to 10713
  141.0579  133.6856  156.1896 LP  0  0  0  0  0  0  0  0  0  0  0  0  # atno 17394 bound_to 11000
  140.6707  134.4870  157.5587 LP  0  0  0  0  0  0  0  0  0  0  0  0  # atno 17395 bound_to 11000

$$$$
