AV-unprocessed.smi:910|AV-procd|sdf|4119|dock5
  -GOLD-   22720 2 13D 1   1.00000     0.00000
 Structure written by MMmdl.
 46 47  0  0  0  0  0  0  0  0  1 V2000
  144.5491  134.6996  162.3792 C   0  0  0  0  0  0  0  0  0  0  0  0
  145.8461  134.8966  161.6591 C   0  0  0  0  0  0  0  0  0  0  0  0
  146.3081  136.1550  161.3005 N   0  0  0  0  0  0  0  0  0  0  0  0
  147.4719  135.9235  160.6906 C   0  0  0  0  0  0  0  0  0  0  0  0
  148.3407  136.8941  160.1328 N   0  0  0  0  0  0  0  0  0  0  0  0
  149.2954  136.7023  159.2077 C   0  0  0  0  0  0  0  0  0  0  0  0
  149.5525  135.6279  158.6638 O   0  0  0  0  0  0  0  0  0  0  0  0
  149.9561  137.8398  158.9503 N   0  0  0  0  0  0  0  0  0  0  0  0
  151.1069  137.9630  158.0612 C   0  0  0  0  0  0  0  0  0  0  0  0
  151.3633  139.4259  157.6693 C   0  0  0  0  0  0  0  0  0  0  0  0
  151.6843  140.1586  158.8427 O   0  0  0  0  0  0  0  0  0  0  0  0
  152.1479  141.4810  158.6063 C   0  0  1  0  0  0  0  0  0  0  0  0
  151.0874  142.2603  157.8018 C   0  0  0  0  0  0  0  0  0  0  0  0
  151.4749  143.7378  157.6435 C   0  0  0  0  0  0  0  0  0  0  0  0
  151.7201  144.3932  159.0100 C   0  0  0  0  0  0  0  0  0  0  0  0
  152.7839  143.6242  159.8083 C   0  0  0  0  0  0  0  0  0  0  0  0
  152.4069  142.1389  159.9801 C   0  0  2  0  0  0  0  0  0  0  0  0
  153.4919  141.3896  160.7721 C   0  0  0  0  0  0  0  0  0  0  0  0
  147.8059  134.6074  160.6239 O   0  0  0  0  0  0  0  0  0  0  0  0
  146.7656  133.9671  161.2431 C   0  0  0  0  0  0  0  0  0  0  0  0
  146.8227  132.4804  161.3401 C   0  0  0  0  0  0  0  0  0  0  0  0
  144.0316  133.8089  162.0226 H   0  0  0  0  0  0  0  0  0  0  0  0
  143.8796  135.5484  162.2355 H   0  0  0  0  0  0  0  0  0  0  0  0
  144.7104  134.5825  163.4508 H   0  0  0  0  0  0  0  0  0  0  0  0
  148.2385  137.8313  160.4933 H   0  0  0  0  0  0  0  0  0  0  0  0
  149.6746  138.6751  159.4419 H   0  0  0  0  0  0  0  0  0  0  0  0
  151.9922  137.5353  158.5341 H   0  0  0  0  0  0  0  0  0  0  0  0
  150.9122  137.3699  157.1674 H   0  0  0  0  0  0  0  0  0  0  0  0
  152.1795  139.4802  156.9475 H   0  0  0  0  0  0  0  0  0  0  0  0
  150.4784  139.8452  157.1900 H   0  0  0  0  0  0  0  0  0  0  0  0
  153.0890  141.4649  158.0533 H   0  0  0  0  0  0  0  0  0  0  0  0
  150.9531  141.8139  156.8167 H   0  0  0  0  0  0  0  0  0  0  0  0
  150.1226  142.1908  158.3059 H   0  0  0  0  0  0  0  0  0  0  0  0
  152.3749  143.8171  157.0324 H   0  0  0  0  0  0  0  0  0  0  0  0
  150.6892  144.2734  157.1098 H   0  0  0  0  0  0  0  0  0  0  0  0
  152.0330  145.4289  158.8748 H   0  0  0  0  0  0  0  0  0  0  0  0
  150.7881  144.4223  159.5758 H   0  0  0  0  0  0  0  0  0  0  0  0
  153.7457  143.7035  159.2991 H   0  0  0  0  0  0  0  0  0  0  0  0
  152.9137  144.0916  160.7850 H   0  0  0  0  0  0  0  0  0  0  0  0
  151.4828  142.0933  160.5584 H   0  0  0  0  0  0  0  0  0  0  0  0
  154.4420  141.3853  160.2369 H   0  0  0  0  0  0  0  0  0  0  0  0
  153.2091  140.3519  160.9518 H   0  0  0  0  0  0  0  0  0  0  0  0
  153.6595  141.8543  161.7440 H   0  0  0  0  0  0  0  0  0  0  0  0
  146.4840  132.1430  162.3197 H   0  0  0  0  0  0  0  0  0  0  0  0
  147.8397  132.1168  161.1917 H   0  0  0  0  0  0  0  0  0  0  0  0
  146.1850  132.0207  160.5849 H   0  0  0  0  0  0  0  0  0  0  0  0
  1  2  1  0  0  0  0
  1 22  1  0  0  0  0
  1 23  1  0  0  0  0
  1 24  1  0  0  0  0
  2 20  2  0  0  0  0
  2  3  1  0  0  0  0
  3  4  2  0  0  0  0
  4  5  1  0  0  0  0
  4 19  1  0  0  0  0
  5  6  1  0  0  0  0
  5 25  1  0  0  0  0
  6  7  2  0  0  0  0
  6  8  1  0  0  0  0
  8  9  1  0  0  0  0
  8 26  1  0  0  0  0
  9 10  1  0  0  0  0
  9 27  1  0  0  0  0
  9 28  1  0  0  0  0
 10 11  1  0  0  0  0
 10 29  1  0  0  0  0
 10 30  1  0  0  0  0
 11 12  1  0  0  0  0
 12 17  1  0  0  0  0
 12 13  1  0  0  0  0
 12 31  1  0  0  0  0
 13 14  1  0  0  0  0
 13 32  1  0  0  0  0
 13 33  1  0  0  0  0
 14 15  1  0  0  0  0
 14 34  1  0  0  0  0
 14 35  1  0  0  0  0
 15 16  1  0  0  0  0
 15 36  1  0  0  0  0
 15 37  1  0  0  0  0
 16 17  1  0  0  0  0
 16 38  1  0  0  0  0
 16 39  1  0  0  0  0
 17 18  1  0  0  0  0
 17 40  1  0  0  0  0
 18 41  1  0  0  0  0
 18 42  1  0  0  0  0
 18 43  1  0  0  0  0
 19 20  1  0  0  0  0
 20 21  1  0  0  0  0
 21 44  1  0  0  0  0
 21 45  1  0  0  0  0
 21 46  1  0  0  0  0
M  END
> <s_m_source_file>
AV-unprocessed.smi

> <i_m_source_file_index>
910

> <i_lp_mmshare_version>
43012

> <i_f3d_flags>
0

> <s_epik_input>
W0NIM11jMW5jKG9jMVtDSDNdKVtOSF1DKD1PKVtOSF1bQ0gyXVtDSDJdT1tDQEBIXTJbQ0gyXVtDSDJdW0NIMl1bQ0gyXVtDQEhdMltDSDNd

> <s_epik_cmdline>
J2VwaWtfcHl0aG9uJywgJy1waCcsICc3LjAnLCAnLXRuJywgJzgnLCAnLW1hJywgJzIwMCcsICctbWV0YWxfYmluZGluZycsICctaW1hZScsICc8aW5maWxlLm1hZT4nLCAnLW9tYWUnLCAnPG91dGZpbGUubWFlPic=

> <r_lp_tautomer_probability>
0.785861

> <r_epik_Ionization_Penalty>
4.15957e-05

> <r_epik_Ionization_Penalty_Charging>
0

> <r_epik_Ionization_Penalty_Neutral>
4.15957e-05

> <r_epik_State_Penalty>
0.0240523

> <r_epik_Charging_Adjusted_Penalty>
0.0240523

> <i_epik_Tot_Q>
0

> <i_epik_Tot_abs_Q>
0

> <r_epik_Metal_State_Penalty>
0.057053

> <b_epik_Metal_Only>
0

> <s_lp_Force_Field>
OPLS_2005

> <r_lp_Energy>
8.26637

> <b_lp_Chiralities_Consistent>
1

> <s_lp_Variant>
AV-unprocessed.smi:910-4

> <Gold.Version>
5.8.1

> <Gold.Id.Protein>
6NUR|6NUR_protein|mol2

> <Gold.PLP.Fitness>
43.4217

> <Gold.PLP.PLP>
-40.8619

> <Gold.PLP.part.hbond>
-1.0000

> <Gold.PLP.part.metal>
0.0000

> <Gold.PLP.part.buried>
-6.3912

> <Gold.PLP.part.nonpolar>
-34.9285

> <Gold.PLP.part.repulsive>
1.2769

> <Gold.PLP.ligand.clash>
0.0000

> <Gold.PLP.ligand.torsion>
0.2288

> <Gold.PLP.Chemscore.Hbond>
1.0000

> <Gold.PLP.Chemscore.CHOScore>
0.0000

> <Gold.PLP.Chemscore.Metal>
0.0000

> <Gold.Chemscore.Hbonds>
donor molecule, donor type, donor heavy atom, donor atom, acceptor molecule, acceptor atom, score
      P1  H  6896  6907       L1     7  1.00

> <Gold.PLP.Chemscore.Internal.Correction>
0.0173

> <Gold.Rescore>
     Score         DG    S(hbond)    S(metal)    S(lipo)     H(rot)  DE(clash)    DE(int)     intcor
     15.41     -17.22       0.88        0.00     111.43       1.66       0.20       1.61       ----

> <Gold.Chemscore.Fitness>
15.4054

> <Gold.Chemscore.DG>
-17.2153

> <Gold.Chemscore.ZeroCoef>
-5.4800

> <Gold.Chemscore.Hbond>
0.8808

> <Gold.Chemscore.Metal>
0.0000

> <Gold.Chemscore.Lipo>
111.4278

> <Gold.Chemscore.Internal_Hbond>
0.0000

> <Gold.Chemscore.DEClash>
0.2047

> <Gold.Chemscore.DEInternal>
1.6051

> <Gold.Chemscore.Rot>
1.6576

> <Gold.Chemscore.Internal.Correction>
   9.000000E+99

> <Gold.Chemscore.Hbonds>
donor molecule, donor type, donor heavy atom, donor atom, acceptor molecule, acceptor atom, score
      P1  H  6896  6907       L1     7  0.94

> <Gold.Chemscore.Hbond.Weighted>
-2.9418

> <Gold.Chemscore.Metal.Weighted>
-0.0000

> <Gold.Chemscore.Lipo.Weighted>
-13.0371

> <Gold.Chemscore.Internal_Hbond.Weighted>
0.0000

> <Gold.Chemscore.DEClash.Weighted>
0.2047

> <Gold.Chemscore.DEInternal.Weighted>
1.6051

> <Gold.Chemscore.Rot.Weighted>
4.2436

> <Gold.Chemscore.Internal.Correction.Weighted>
   9.000000E+99

> <Gold.Protein.RotatedTorsions>
[ 6907 6896 6895 6894 ] final  -84.14 input  -60.11 | X-H torsion
[ 7974 7965 7964 7962 ] final   22.26 input  175.53 | X-H torsion
[ 8008 7997 7996 7995 ] final  129.57 input   59.86 | X-H torsion
[ 10167 10162 10161 10158 ] final  -38.18 input  -65.29 | X-H torsion
[ 10718 10713 10712 10709 ] final  -86.29 input   66.30 | X-H torsion
[ 10763 10752 10751 10750 ] final -164.21 input  -60.55 | X-H torsion
[ 11005 11000 10999 10996 ] final  143.83 input  -57.11 | X-H torsion

> <Gold.Protein.ActiveResidues>
 VAL166  LYS551  ARG553  GLY616  TRP617  ASP618  TYR619  PRO620  LYS621  CYS622 
 ASP623  PHE694  ASN695  SER759  ASP760  ASP761  ALA762  ILE779  LEU786  VAL792 
 PHE793  MET794  SER795  GLU796  ALA797  LYS798  CYS799  TRP800  GLU811  SER814 

> <Gold.Protein.RotatedAtoms>
  150.6879  134.3405  159.4865 H   0  0  0  0  0  0  0  0  0  0  0  0  # atno 6907 bound_to 6896
  152.1258  134.9169  160.0570 H   0  0  0  0  0  0  0  0  0  0  0  0  # atno 6908 bound_to 6896
  152.0357  133.3921  159.4353 H   0  0  0  0  0  0  0  0  0  0  0  0  # atno 6909 bound_to 6896
  146.2037  139.7911  142.8742 H   0  0  0  0  0  0  0  0  0  0  0  0  # atno 7974 bound_to 7965
  156.2939  140.2617  156.2621 H   0  0  0  0  0  0  0  0  0  0  0  0  # atno 8008 bound_to 7997
  154.9778  140.0390  157.2282 H   0  0  0  0  0  0  0  0  0  0  0  0  # atno 8009 bound_to 7997
  154.7799  140.2793  155.6076 H   0  0  0  0  0  0  0  0  0  0  0  0  # atno 8010 bound_to 7997
  140.7099  143.3293  151.2605 H   0  0  0  0  0  0  0  0  0  0  0  0  # atno 10167 bound_to 10162
  155.9991  130.4760  150.4693 H   0  0  0  0  0  0  0  0  0  0  0  0  # atno 10718 bound_to 10713
  154.7050  135.2995  154.9284 H   0  0  0  0  0  0  0  0  0  0  0  0  # atno 10763 bound_to 10752
  154.0204  135.6683  153.4776 H   0  0  0  0  0  0  0  0  0  0  0  0  # atno 10764 bound_to 10752
  153.0710  135.5061  154.8215 H   0  0  0  0  0  0  0  0  0  0  0  0  # atno 10765 bound_to 10752
  140.0584  134.9218  157.1141 H   0  0  0  0  0  0  0  0  0  0  0  0  # atno 11005 bound_to 11000
  145.3396  141.0285  143.3400 LP  0  0  0  0  0  0  0  0  0  0  0  0  # atno 17320 bound_to 7965
  144.8741  139.4996  143.6754 LP  0  0  0  0  0  0  0  0  0  0  0  0  # atno 17321 bound_to 7965
  139.6771  143.9919  152.2787 LP  0  0  0  0  0  0  0  0  0  0  0  0  # atno 17342 bound_to 10162
  139.9536  144.6604  150.8147 LP  0  0  0  0  0  0  0  0  0  0  0  0  # atno 17343 bound_to 10162
  157.2709  131.0587  151.2260 LP  0  0  0  0  0  0  0  0  0  0  0  0  # atno 17370 bound_to 10713
  157.3341  130.7000  149.6342 LP  0  0  0  0  0  0  0  0  0  0  0  0  # atno 17371 bound_to 10713
  140.3808  134.2289  155.7171 LP  0  0  0  0  0  0  0  0  0  0  0  0  # atno 17394 bound_to 11000
  141.1962  133.8087  157.0680 LP  0  0  0  0  0  0  0  0  0  0  0  0  # atno 17395 bound_to 11000

$$$$
