AV-unprocessed.smi:3245|AV-procd|sdf|12402|dock4
  -GOLD-   2272018283D 1   1.00000     0.00000
 Structure written by MMmdl.
 36 37  0  0  0  0  0  0  0  0  2 V2000
  146.9150  140.3597  153.7517 C   0  0  0  0  0  0  0  0  0  0  0  0
  147.0048  139.0013  153.0435 C   0  0  2  0  0  0  0  0  0  0  0  0
  146.1812  137.9372  153.8015 C   0  0  0  0  0  0  0  0  0  0  0  0
  145.4586  137.0418  152.9156 N   0  0  0  0  0  0  0  0  0  0  0  0
  145.9148  136.4046  151.7812 C   0  0  0  0  0  0  0  0  0  0  0  0
  144.8838  135.6520  151.2965 C   0  0  0  0  0  0  0  0  0  0  0  0
  143.8226  135.9013  152.2107 C   0  0  0  0  0  0  0  0  0  0  0  0
  144.1699  136.7333  153.1795 N   0  0  0  0  0  0  0  0  0  0  0  0
  148.4251  138.5983  152.9307 N   0  3  0  0  0  0  0  0  0  0  0  0
  149.1843  138.6274  154.1977 C   0  0  0  0  0  0  0  0  0  0  0  0
  150.6421  138.2010  153.9729 C   0  0  0  0  0  0  0  0  0  0  0  0
  151.4762  138.5340  155.1301 N   0  0  0  0  0  0  0  0  0  0  0  0
  151.5999  139.7678  155.6366 C   0  0  0  0  0  0  0  0  0  0  0  0
  151.0610  140.7984  155.2344 O   0  0  0  0  0  0  0  0  0  0  0  0
  152.5240  139.7040  156.8330 C   0  0  0  0  0  0  0  0  0  0  0  0
  152.8096  138.2851  156.8328 N   0  0  0  0  0  0  0  0  0  0  0  0
  152.1845  137.6379  155.8407 C   0  0  0  0  0  0  0  0  0  0  0  0
  152.2503  136.4278  155.6304 O   0  0  0  0  0  0  0  0  0  0  0  0
  145.8815  140.7020  153.8142 H   0  0  0  0  0  0  0  0  0  0  0  0
  147.4800  141.1224  153.2147 H   0  0  0  0  0  0  0  0  0  0  0  0
  147.3090  140.3063  154.7674 H   0  0  0  0  0  0  0  0  0  0  0  0
  146.5879  139.1299  152.0430 H   0  0  0  0  0  0  0  0  0  0  0  0
  146.8263  137.3462  154.4543 H   0  0  0  0  0  0  0  0  0  0  0  0
  145.4511  138.4235  154.4497 H   0  0  0  0  0  0  0  0  0  0  0  0
  146.9244  136.5342  151.4204 H   0  0  0  0  0  0  0  0  0  0  0  0
  144.8861  135.0202  150.4207 H   0  0  0  0  0  0  0  0  0  0  0  0
  142.8187  135.5031  152.2006 H   0  0  0  0  0  0  0  0  0  0  0  0
  148.4632  137.6544  152.5737 H   0  0  0  0  0  0  0  0  0  0  0  0
  149.1604  139.6304  154.6232 H   0  0  0  0  0  0  0  0  0  0  0  0
  148.6993  137.9671  154.9177 H   0  0  0  0  0  0  0  0  0  0  0  0
  150.6913  137.1301  153.7679 H   0  0  0  0  0  0  0  0  0  0  0  0
  151.0402  138.6913  153.0827 H   0  0  0  0  0  0  0  0  0  0  0  0
  153.4260  140.2969  156.6788 H   0  0  0  0  0  0  0  0  0  0  0  0
  152.0201  140.0129  157.7492 H   0  0  0  0  0  0  0  0  0  0  0  0
  153.4100  137.8448  157.5149 H   0  0  0  0  0  0  0  0  0  0  0  0
  148.8732  139.2121  152.2649 H   0  0  0  0  0  0  0  0  0  0  0  0
  1  2  1  0  0  0  0
  1 19  1  0  0  0  0
  1 20  1  0  0  0  0
  1 21  1  0  0  0  0
  2  3  1  0  0  0  0
  2  9  1  0  0  0  0
  2 22  1  0  0  0  0
  3  4  1  0  0  0  0
  3 23  1  0  0  0  0
  3 24  1  0  0  0  0
  4  8  1  0  0  0  0
  4  5  1  0  0  0  0
  5  6  2  0  0  0  0
  5 25  1  0  0  0  0
  6  7  1  0  0  0  0
  6 26  1  0  0  0  0
  7  8  2  0  0  0  0
  7 27  1  0  0  0  0
  9 10  1  0  0  0  0
  9 28  1  0  0  0  0
  9 36  1  0  0  0  0
 10 11  1  0  0  0  0
 10 29  1  0  0  0  0
 10 30  1  0  0  0  0
 11 12  1  0  0  0  0
 11 31  1  0  0  0  0
 11 32  1  0  0  0  0
 12 17  1  0  0  0  0
 12 13  1  0  0  0  0
 13 14  2  0  0  0  0
 13 15  1  0  0  0  0
 15 16  1  0  0  0  0
 15 33  1  0  0  0  0
 15 34  1  0  0  0  0
 16 17  1  0  0  0  0
 16 35  1  0  0  0  0
 17 18  2  0  0  0  0
M  CHG  1   9   1
M  END
> <s_m_source_file>
AV-unprocessed.smi

> <i_m_source_file_index>
3245

> <i_lp_mmshare_version>
43012

> <i_f3d_flags>
0

> <s_epik_input>
bjFbY0hdW2NIXVtjSF1uMVtDSDJdW0NAQEhdKFtDSDNdKVtOSF1bQ0gyXVtDSDJdTjJDKD1PKVtDSDJdW05IXUMyPU8=

> <s_epik_cmdline>
J2VwaWtfcHl0aG9uJywgJy1waCcsICc3LjAnLCAnLXRuJywgJzgnLCAnLW1hJywgJzIwMCcsICctbWV0YWxfYmluZGluZycsICctaW1hZScsICc8aW5maWxlLm1hZT4nLCAnLW9tYWUnLCAnPG91dGZpbGUubWFlPic=

> <r_lp_tautomer_probability>
1

> <r_epik_Ionization_Penalty>
0.0160742

> <r_epik_Ionization_Penalty_Charging>
0.0159586

> <r_epik_Ionization_Penalty_Neutral>
0.000115543

> <r_epik_State_Penalty>
0.0125702

> <r_epik_Charging_Adjusted_Penalty>
0.0285288

> <i_epik_Tot_Q>
1

> <i_epik_Tot_abs_Q>
1

> <r_epik_Metal_State_Penalty>
0.0881892

> <b_epik_Metal_Only>
0

> <s_lp_Force_Field>
OPLS_2005

> <r_lp_Energy>
19.7378

> <b_lp_Chiralities_Consistent>
1

> <s_lp_Variant>
AV-unprocessed.smi:3245-1

> <Gold.Version>
5.8.1

> <Gold.Id.Protein>
6NUR|6NUR_protein|mol2

> <Gold.PLP.Fitness>
44.7470

> <Gold.PLP.PLP>
-29.0418

> <Gold.PLP.part.hbond>
-3.9758

> <Gold.PLP.part.metal>
0.0000

> <Gold.PLP.part.buried>
-2.7972

> <Gold.PLP.part.nonpolar>
-23.9389

> <Gold.PLP.part.repulsive>
0.4191

> <Gold.PLP.ligand.clash>
0.0000

> <Gold.PLP.ligand.torsion>
0.8285

> <Gold.PLP.Chemscore.Hbond>
4.7590

> <Gold.PLP.Chemscore.CHOScore>
1.0000

> <Gold.PLP.Chemscore.Metal>
0.0000

> <Gold.Chemscore.Hbonds>
donor molecule, donor type, donor heavy atom, donor atom, acceptor molecule, acceptor atom, score
      L1  H     9    28       P1  7948  2.00
      L1  H     9    36       P1  7957  1.00
      P1  H  7989  7998       L1    14  0.80
      P1  H 10752 10764       L1    18  0.70
      L1  C     5    25       P1  7948  1.00

> <Gold.PLP.Chemscore.Internal.Correction>
0.0852

> <Gold.Rescore>
     Score         DG    S(hbond)    S(metal)    S(lipo)     H(rot)  DE(clash)    DE(int)     intcor
     15.85     -16.63       3.56        0.00      53.61       2.74       0.07       0.71       ----

> <Gold.Chemscore.Fitness>
15.8498

> <Gold.Chemscore.DG>
-16.6277

> <Gold.Chemscore.ZeroCoef>
-5.4800

> <Gold.Chemscore.Hbond>
3.5573

> <Gold.Chemscore.Metal>
0.0000

> <Gold.Chemscore.Lipo>
53.6143

> <Gold.Chemscore.Internal_Hbond>
0.0000

> <Gold.Chemscore.DEClash>
0.0727

> <Gold.Chemscore.DEInternal>
0.7051

> <Gold.Chemscore.Rot>
2.7369

> <Gold.Chemscore.Internal.Correction>
   9.000000E+99

> <Gold.Chemscore.Hbonds>
donor molecule, donor type, donor heavy atom, donor atom, acceptor molecule, acceptor atom, score
      L1  H     9    28       P1  7948  1.00
      L1  H     9    36       P1  7957  0.95
      P1  H  7989  7998       L1    14  0.28
      P1  H 10752 10764       L1    18  0.68

> <Gold.Chemscore.Hbond.Weighted>
-11.8813

> <Gold.Chemscore.Metal.Weighted>
-0.0000

> <Gold.Chemscore.Lipo.Weighted>
-6.2729

> <Gold.Chemscore.Internal_Hbond.Weighted>
0.0000

> <Gold.Chemscore.DEClash.Weighted>
0.0727

> <Gold.Chemscore.DEInternal.Weighted>
0.7051

> <Gold.Chemscore.Rot.Weighted>
7.0065

> <Gold.Chemscore.Internal.Correction.Weighted>
   9.000000E+99

> <Gold.Protein.RotatedTorsions>
[ 6907 6896 6895 6894 ] final -122.33 input  -60.11 | X-H torsion
[ 7974 7965 7964 7962 ] final   81.33 input  175.53 | X-H torsion
[ 8008 7997 7996 7995 ] final -174.23 input   59.86 | X-H torsion
[ 10167 10162 10161 10158 ] final  -15.39 input  -65.29 | X-H torsion
[ 10718 10713 10712 10709 ] final   -4.57 input   66.30 | X-H torsion
[ 10763 10752 10751 10750 ] final  -33.88 input  -60.55 | X-H torsion
[ 11005 11000 10999 10996 ] final  -15.01 input  -57.11 | X-H torsion

> <Gold.Protein.ActiveResidues>
 VAL166  LYS551  ARG553  GLY616  TRP617  ASP618  TYR619  PRO620  LYS621  CYS622 
 ASP623  PHE694  ASN695  SER759  ASP760  ASP761  ALA762  ILE779  LEU786  VAL792 
 PHE793  MET794  SER795  GLU796  ALA797  LYS798  CYS799  TRP800  GLU811  SER814 

> <Gold.Protein.RotatedAtoms>
  150.8566  133.7707  159.3006 H   0  0  0  0  0  0  0  0  0  0  0  0  # atno 6907 bound_to 6896
  151.5362  135.1067  159.9924 H   0  0  0  0  0  0  0  0  0  0  0  0  # atno 6908 bound_to 6896
  152.4594  133.7747  159.6874 H   0  0  0  0  0  0  0  0  0  0  0  0  # atno 6909 bound_to 6896
  145.6396  139.2422  143.2038 H   0  0  0  0  0  0  0  0  0  0  0  0  # atno 7974 bound_to 7965
  155.9675  140.1156  157.0841 H   0  0  0  0  0  0  0  0  0  0  0  0  # atno 8008 bound_to 7997
  154.4147  140.1170  156.5329 H   0  0  0  0  0  0  0  0  0  0  0  0  # atno 8009 bound_to 7997
  155.6640  140.3473  155.4795 H   0  0  0  0  0  0  0  0  0  0  0  0  # atno 8010 bound_to 7997
  140.7217  143.5223  150.9619 H   0  0  0  0  0  0  0  0  0  0  0  0  # atno 10167 bound_to 10162
  156.7594  130.5264  149.5788 H   0  0  0  0  0  0  0  0  0  0  0  0  # atno 10718 bound_to 10713
  153.8375  135.6860  153.4807 H   0  0  0  0  0  0  0  0  0  0  0  0  # atno 10763 bound_to 10752
  153.1474  135.4632  154.9584 H   0  0  0  0  0  0  0  0  0  0  0  0  # atno 10764 bound_to 10752
  154.7860  135.3285  154.7832 H   0  0  0  0  0  0  0  0  0  0  0  0  # atno 10765 bound_to 10752
  140.7923  133.8278  155.9391 H   0  0  0  0  0  0  0  0  0  0  0  0  # atno 11005 bound_to 11000
  146.1292  140.7208  142.9420 LP  0  0  0  0  0  0  0  0  0  0  0  0  # atno 17320 bound_to 7965
  144.7162  140.4219  143.7042 LP  0  0  0  0  0  0  0  0  0  0  0  0  # atno 17321 bound_to 7965
  139.8940  143.6917  152.3141 LP  0  0  0  0  0  0  0  0  0  0  0  0  # atno 17342 bound_to 10162
  139.7243  144.7596  151.0904 LP  0  0  0  0  0  0  0  0  0  0  0  0  # atno 17343 bound_to 10162
  156.1349  130.6204  151.0386 LP  0  0  0  0  0  0  0  0  0  0  0  0  # atno 17370 bound_to 10713
  157.6741  131.0854  150.7538 LP  0  0  0  0  0  0  0  0  0  0  0  0  # atno 17371 bound_to 10713
  140.9377  134.1941  157.4820 LP  0  0  0  0  0  0  0  0  0  0  0  0  # atno 17394 bound_to 11000
  139.8730  134.9859  156.5301 LP  0  0  0  0  0  0  0  0  0  0  0  0  # atno 17395 bound_to 11000

$$$$
