AV-unprocessed.smi:115|AV-procd|sdf|1123|dock9
  -GOLD-   2262018243D 1   1.00000     0.00000
 Structure written by MMmdl.
 55 57  0  0  0  0  0  0  0  0  1 V2000
  144.9145  147.6540  157.8941 C   0  0  0  0  0  0  0  0  0  0  0  0
  144.1297  146.6648  157.2459 O   0  0  0  0  0  0  0  0  0  0  0  0
  144.5196  146.3944  155.9056 C   0  0  0  0  0  0  0  0  0  0  0  0
  143.9684  145.0432  155.3996 C   0  0  2  0  0  0  0  0  0  0  0  0
  142.4398  144.9049  155.5357 C   0  0  0  0  0  0  0  0  0  0  0  0
  144.7182  143.9069  155.9613 N   0  0  0  0  0  0  0  0  0  0  0  0
  144.6114  143.4917  157.2882 C   0  0  0  0  0  0  0  0  0  0  0  0
  143.7188  144.1510  158.2924 C   0  0  0  0  0  0  0  0  0  0  0  0
  145.4459  142.4302  157.4654 C   0  0  0  0  0  0  0  0  0  0  0  0
  146.0826  142.1429  156.2292 C   0  0  0  0  0  0  0  0  0  0  0  0
  147.0974  141.0933  155.9518 C   0  0  0  0  0  0  0  0  0  0  0  0
  146.9510  139.9107  156.2640 O   0  0  0  0  0  0  0  0  0  0  0  0
  148.3673  141.5679  155.2205 C   0  0  0  0  0  0  0  0  0  0  0  0
  149.5970  141.1723  155.8974 N   0  0  0  0  0  0  0  0  0  0  0  0
  150.4700  140.2887  155.2159 C   0  0  0  0  0  0  0  0  0  0  0  0
  150.2277  139.8725  154.0816 O   0  0  0  0  0  0  0  0  0  0  0  0
  151.6646  139.9221  155.9669 C   0  0  0  0  0  0  0  0  0  0  0  0
  152.5330  139.0394  155.4445 F   0  0  0  0  0  0  0  0  0  0  0  0
  151.9069  140.4414  157.1898 C   0  0  0  0  0  0  0  0  0  0  0  0
  151.0740  141.3634  157.8039 N   0  0  0  0  0  0  0  0  0  0  0  0
  151.3345  141.8556  159.2132 C   0  0  2  0  0  0  0  0  0  0  0  0
  151.5369  143.3771  159.3227 C   0  0  0  0  0  0  0  0  0  0  0  0
  153.0346  143.4914  159.5305 C   0  0  0  0  0  0  0  0  0  0  0  0
  153.3410  142.2001  160.2787 C   0  0  0  0  0  0  0  0  0  0  0  0
  152.4992  141.2320  159.6658 O   0  0  0  0  0  0  0  0  0  0  0  0
  149.8539  141.7138  157.1808 C   0  0  0  0  0  0  0  0  0  0  0  0
  149.0543  142.4732  157.7333 O   0  0  0  0  0  0  0  0  0  0  0  0
  145.5965  143.0347  155.2985 C   0  0  0  0  0  0  0  0  0  0  0  0
  145.8906  143.1419  153.8274 C   0  0  0  0  0  0  0  0  0  0  0  0
  144.5761  147.7646  158.9242 H   0  0  0  0  0  0  0  0  0  0  0  0
  144.8274  148.6275  157.4128 H   0  0  0  0  0  0  0  0  0  0  0  0
  145.9669  147.3693  157.9191 H   0  0  0  0  0  0  0  0  0  0  0  0
  144.2078  147.2105  155.2515 H   0  0  0  0  0  0  0  0  0  0  0  0
  145.6072  146.3946  155.8837 H   0  0  0  0  0  0  0  0  0  0  0  0
  144.1289  145.0169  154.3253 H   0  0  0  0  0  0  0  0  0  0  0  0
  141.9361  145.6034  154.8669 H   0  0  0  0  0  0  0  0  0  0  0  0
  142.0757  145.1219  156.5374 H   0  0  0  0  0  0  0  0  0  0  0  0
  142.1094  143.9019  155.2639 H   0  0  0  0  0  0  0  0  0  0  0  0
  143.7099  143.5921  159.2285 H   0  0  0  0  0  0  0  0  0  0  0  0
  142.6913  144.2040  157.9313 H   0  0  0  0  0  0  0  0  0  0  0  0
  144.0602  145.1624  158.5146 H   0  0  0  0  0  0  0  0  0  0  0  0
  145.5871  141.9121  158.4025 H   0  0  0  0  0  0  0  0  0  0  0  0
  148.3994  141.1809  154.2010 H   0  0  0  0  0  0  0  0  0  0  0  0
  148.3747  142.6540  155.1159 H   0  0  0  0  0  0  0  0  0  0  0  0
  152.7963  140.1043  157.6973 H   0  0  0  0  0  0  0  0  0  0  0  0
  150.4729  141.5488  159.8077 H   0  0  0  0  0  0  0  0  0  0  0  0
  151.1458  143.9313  158.4698 H   0  0  0  0  0  0  0  0  0  0  0  0
  151.0141  143.7238  160.2150 H   0  0  0  0  0  0  0  0  0  0  0  0
  153.5588  143.5043  158.5747 H   0  0  0  0  0  0  0  0  0  0  0  0
  153.3209  144.3838  160.0875 H   0  0  0  0  0  0  0  0  0  0  0  0
  154.3913  141.9150  160.2177 H   0  0  0  0  0  0  0  0  0  0  0  0
  153.0711  142.2932  161.3317 H   0  0  0  0  0  0  0  0  0  0  0  0
  146.1317  142.1725  153.3945 H   0  0  0  0  0  0  0  0  0  0  0  0
  146.7338  143.8090  153.6482 H   0  0  0  0  0  0  0  0  0  0  0  0
  145.0389  143.5013  153.2578 H   0  0  0  0  0  0  0  0  0  0  0  0
  1  2  1  0  0  0  0
  1 30  1  0  0  0  0
  1 31  1  0  0  0  0
  1 32  1  0  0  0  0
  2  3  1  0  0  0  0
  3  4  1  0  0  0  0
  3 33  1  0  0  0  0
  3 34  1  0  0  0  0
  4  5  1  0  0  0  0
  4  6  1  0  0  0  0
  4 35  1  0  0  0  0
  5 36  1  0  0  0  0
  5 37  1  0  0  0  0
  5 38  1  0  0  0  0
  6 28  1  0  0  0  0
  6  7  1  0  0  0  0
  7  8  1  0  0  0  0
  7  9  2  0  0  0  0
  8 39  1  0  0  0  0
  8 40  1  0  0  0  0
  8 41  1  0  0  0  0
  9 10  1  0  0  0  0
  9 42  1  0  0  0  0
 10 11  1  0  0  0  0
 10 28  2  0  0  0  0
 11 12  2  0  0  0  0
 11 13  1  0  0  0  0
 13 14  1  0  0  0  0
 13 43  1  0  0  0  0
 13 44  1  0  0  0  0
 14 26  1  0  0  0  0
 14 15  1  0  0  0  0
 15 16  2  0  0  0  0
 15 17  1  0  0  0  0
 17 18  1  0  0  0  0
 17 19  2  0  0  0  0
 19 20  1  0  0  0  0
 19 45  1  0  0  0  0
 20 21  1  0  0  0  0
 20 26  1  0  0  0  0
 21 25  1  0  0  0  0
 21 22  1  0  0  0  0
 21 46  1  0  0  0  0
 22 23  1  0  0  0  0
 22 47  1  0  0  0  0
 22 48  1  0  0  0  0
 23 24  1  0  0  0  0
 23 49  1  0  0  0  0
 23 50  1  0  0  0  0
 24 25  1  0  0  0  0
 24 51  1  0  0  0  0
 24 52  1  0  0  0  0
 26 27  2  0  0  0  0
 28 29  1  0  0  0  0
 29 53  1  0  0  0  0
 29 54  1  0  0  0  0
 29 55  1  0  0  0  0
M  END
> <s_m_source_file>
AV-unprocessed.smi

> <i_m_source_file_index>
115

> <i_lp_mmshare_version>
43012

> <i_f3d_flags>
0

> <s_epik_input>
W0NIM11PW0NIMl1bQ0BIXShbQ0gzXSluMWMoW0NIM10pW2NIXWMoYzFbQ0gzXSlDKD1PKVtDSDJdbjJjKD1PKWMoRilbY0hdbihjMj1PKVtDQEBIXTNbQ0gyXVtDSDJdW0NIMl1PMw==

> <s_epik_cmdline>
J2VwaWtfcHl0aG9uJywgJy1waCcsICc3LjAnLCAnLXRuJywgJzgnLCAnLW1hJywgJzIwMCcsICctbWV0YWxfYmluZGluZycsICctaW1hZScsICc8aW5maWxlLm1hZT4nLCAnLW9tYWUnLCAnPG91dGZpbGUubWFlPic=

> <r_lp_tautomer_probability>
1

> <r_epik_Ionization_Penalty>
5.02611e-09

> <r_epik_Ionization_Penalty_Charging>
5.01743e-09

> <r_epik_Ionization_Penalty_Neutral>
8.68114e-12

> <r_epik_State_Penalty>
-0

> <r_epik_Charging_Adjusted_Penalty>
5.01743e-09

> <i_epik_Tot_Q>
0

> <i_epik_Tot_abs_Q>
0

> <r_epik_Metal_State_Penalty>
-0

> <b_epik_Metal_Only>
0

> <s_epik_Chemistry_Notes>
This compound contains an acetal/aminal-like group ( X-CH(R)-Y where X, Y are N, S, or O) that may be acid/base labile, releasing an aldehyde.

> <s_lp_Force_Field>
OPLS_2005

> <r_lp_Energy>
47.9533

> <b_lp_Chiralities_Consistent>
1

> <s_lp_Variant>
AV-unprocessed.smi:115-1

> <Gold.Version>
5.8.1

> <Gold.Id.Protein>
6NUR|6NUR_protein|mol2

> <Gold.PLP.Fitness>
44.9991

> <Gold.PLP.PLP>
-45.9325

> <Gold.PLP.part.hbond>
-1.0000

> <Gold.PLP.part.metal>
0.0000

> <Gold.PLP.part.buried>
-7.6766

> <Gold.PLP.part.nonpolar>
-39.7616

> <Gold.PLP.part.repulsive>
1.9421

> <Gold.PLP.ligand.clash>
0.0000

> <Gold.PLP.ligand.torsion>
1.3048

> <Gold.PLP.Chemscore.Hbond>
0.4000

> <Gold.PLP.Chemscore.CHOScore>
0.0000

> <Gold.PLP.Chemscore.Metal>
0.0000

> <Gold.Chemscore.Hbonds>
donor molecule, donor type, donor heavy atom, donor atom, acceptor molecule, acceptor atom, score
      P1  H  7989  7998       L1    16  0.45

> <Gold.PLP.Chemscore.Internal.Correction>
0.4762

> <Gold.Rescore>
     Score         DG    S(hbond)    S(metal)    S(lipo)     H(rot)  DE(clash)    DE(int)     intcor
      5.69     -10.99       0.07        0.00      93.02       2.19       1.57       3.73       ----

> <Gold.Chemscore.Fitness>
5.6891

> <Gold.Chemscore.DG>
-10.9920

> <Gold.Chemscore.ZeroCoef>
-5.4800

> <Gold.Chemscore.Hbond>
0.0731

> <Gold.Chemscore.Metal>
0.0000

> <Gold.Chemscore.Lipo>
93.0246

> <Gold.Chemscore.Internal_Hbond>
0.0000

> <Gold.Chemscore.DEClash>
1.5705

> <Gold.Chemscore.DEInternal>
3.7324

> <Gold.Chemscore.Rot>
2.1938

> <Gold.Chemscore.Internal.Correction>
   9.000000E+99

> <Gold.Chemscore.Hbonds>
donor molecule, donor type, donor heavy atom, donor atom, acceptor molecule, acceptor atom, score
      P1  H  7989  7998       L1    16  0.02

> <Gold.Chemscore.Hbond.Weighted>
-0.2441

> <Gold.Chemscore.Metal.Weighted>
-0.0000

> <Gold.Chemscore.Lipo.Weighted>
-10.8839

> <Gold.Chemscore.Internal_Hbond.Weighted>
0.0000

> <Gold.Chemscore.DEClash.Weighted>
1.5705

> <Gold.Chemscore.DEInternal.Weighted>
3.7324

> <Gold.Chemscore.Rot.Weighted>
5.6160

> <Gold.Chemscore.Internal.Correction.Weighted>
   9.000000E+99

> <Gold.Protein.RotatedTorsions>
[ 6907 6896 6895 6894 ] final  -83.42 input  -60.11 | X-H torsion
[ 7974 7965 7964 7962 ] final -140.43 input  175.53 | X-H torsion
[ 8008 7997 7996 7995 ] final   16.99 input   59.86 | X-H torsion
[ 10167 10162 10161 10158 ] final  -35.00 input  -65.29 | X-H torsion
[ 10718 10713 10712 10709 ] final    6.18 input   66.30 | X-H torsion
[ 10763 10752 10751 10750 ] final   18.21 input  -60.55 | X-H torsion
[ 11005 11000 10999 10996 ] final  -85.15 input  -57.11 | X-H torsion

> <Gold.Protein.ActiveResidues>
 VAL166  LYS551  ARG553  GLY616  TRP617  ASP618  TYR619  PRO620  LYS621  CYS622 
 ASP623  PHE694  ASN695  SER759  ASP760  ASP761  ALA762  ILE779  LEU786  VAL792 
 PHE793  MET794  SER795  GLU796  ALA797  LYS798  CYS799  TRP800  GLU811  SER814 

> <Gold.Protein.RotatedAtoms>
  150.6886  134.3514  159.4910 H   0  0  0  0  0  0  0  0  0  0  0  0  # atno 6907 bound_to 6896
  152.1354  134.9100  160.0566 H   0  0  0  0  0  0  0  0  0  0  0  0  # atno 6908 bound_to 6896
  152.0254  133.3880  159.4312 H   0  0  0  0  0  0  0  0  0  0  0  0  # atno 6909 bound_to 6896
  144.8598  140.6201  143.5336 H   0  0  0  0  0  0  0  0  0  0  0  0  # atno 7974 bound_to 7965
  154.8850  140.2978  155.5403 H   0  0  0  0  0  0  0  0  0  0  0  0  # atno 8008 bound_to 7997
  156.3021  140.2435  156.3792 H   0  0  0  0  0  0  0  0  0  0  0  0  # atno 8009 bound_to 7997
  154.8677  140.0402  157.1694 H   0  0  0  0  0  0  0  0  0  0  0  0  # atno 8010 bound_to 7997
  140.7174  143.3508  151.2160 H   0  0  0  0  0  0  0  0  0  0  0  0  # atno 10167 bound_to 10162
  156.9183  130.5781  149.5647 H   0  0  0  0  0  0  0  0  0  0  0  0  # atno 10718 bound_to 10713
  153.1269  135.6732  153.9241 H   0  0  0  0  0  0  0  0  0  0  0  0  # atno 10763 bound_to 10752
  153.8739  135.3066  155.3444 H   0  0  0  0  0  0  0  0  0  0  0  0  # atno 10764 bound_to 10752
  154.7673  135.4957  153.9660 H   0  0  0  0  0  0  0  0  0  0  0  0  # atno 10765 bound_to 10752
  141.1644  133.7384  156.8972 H   0  0  0  0  0  0  0  0  0  0  0  0  # atno 11005 bound_to 11000
  145.4335  139.1545  143.4009 LP  0  0  0  0  0  0  0  0  0  0  0  0  # atno 17320 bound_to 7965
  146.2851  140.4452  142.8761 LP  0  0  0  0  0  0  0  0  0  0  0  0  # atno 17321 bound_to 7965
  139.7038  143.9489  152.2917 LP  0  0  0  0  0  0  0  0  0  0  0  0  # atno 17342 bound_to 10162
  139.9191  144.6810  150.8480 LP  0  0  0  0  0  0  0  0  0  0  0  0  # atno 17343 bound_to 10162
  156.0503  130.5573  150.8974 LP  0  0  0  0  0  0  0  0  0  0  0  0  # atno 17370 bound_to 10713
  157.5924  131.0944  150.9097 LP  0  0  0  0  0  0  0  0  0  0  0  0  # atno 17371 bound_to 10713
  140.1607  134.9167  157.2711 LP  0  0  0  0  0  0  0  0  0  0  0  0  # atno 17394 bound_to 11000
  140.2614  134.3566  155.7405 LP  0  0  0  0  0  0  0  0  0  0  0  0  # atno 17395 bound_to 11000

$$$$
