#       Name:                AV-unprocessed.smi:680
#       Creating user name   scv26
#       Creation time:       Fri Mar 27 00:29:13 2020


#       File generated by GOLD software.
#

@<TRIPOS>MOLECULE
AV-unprocessed.smi:680
    37    38     1
SMALL
NO_CHARGES


@<TRIPOS>ATOM
      1 ****        -6.2771   0.4503  -1.0715 C.3            1 S1                 0.0000
      2 ****        -4.8850   1.0088  -1.0976 C.2            1 S1                 0.0000
      3 ****        -3.6506   0.3019  -1.1186 C.2            1 S1                 0.0000
      4 ****        -2.7241   1.3101  -1.1389 C.2            1 S1                 0.0000
      5 ****        -1.3694   1.2124  -1.1702 N.am           1 S1                 0.0000
      6 ****        -0.6006   0.1100  -1.1203 C.2            1 S1                 0.0000
      7 ****        -1.0147  -1.0463  -1.0364 O.2            1 S1                 0.0000
      8 ****         0.7012   0.4290  -1.1680 N.am           1 S1                 0.0000
      9 ****         1.8123  -0.5178  -1.1106 C.3            1 S1                 0.0000
     10 ****         2.6509  -0.3368   0.1693 C.3            1 S1                 0.0000
     11 ****         3.9297  -1.1923   0.1149 C.3            1 S1                 0.0000
     12 ****         5.1151  -0.7437   1.4143 S.3            1 S1                 0.0000
     13 ****         4.1291  -1.1353   2.8848 C.3            1 S1                 0.0000
     14 ****         2.8486  -0.2946   2.9538 C.3            1 S1                 0.0000
     15 ****         1.6715  -0.7461   1.6494 S.3            1 S1                 0.0000
     16 ****        -3.3218   2.5263  -1.1348 O.3            1 S1                 0.0000
     17 ****        -4.7063   2.3216  -1.1060 N.2            1 S1                 0.0000
     18 ****        -6.2633  -0.6398  -1.0668 H              1 S1                 0.0000
     19 ****        -6.8450   0.7704  -1.9453 H              1 S1                 0.0000
     20 ****        -6.8165   0.7791  -0.1828 H              1 S1                 0.0000
     21 ****        -3.4939  -0.7661  -1.1202 H              1 S1                 0.0000
     22 ****        -0.8785   2.0925  -1.2259 H              1 S1                 0.0000
     23 ****         0.9456   1.4062  -1.2360 H              1 S1                 0.0000
     24 ****         1.4707  -1.5511  -1.1933 H              1 S1                 0.0000
     25 ****         2.4340  -0.3343  -1.9873 H              1 S1                 0.0000
     26 ****         2.9393   0.7129   0.2410 H              1 S1                 0.0000
     27 ****         3.6897  -2.2534   0.1919 H              1 S1                 0.0000
     28 ****         4.4332  -1.0524  -0.8420 H              1 S1                 0.0000
     29 ****         3.8918  -2.1996   2.8898 H              1 S1                 0.0000
     30 ****         4.7436  -0.9428   3.7644 H              1 S1                 0.0000
     31 ****         2.3600  -0.4490   3.9159 H              1 S1                 0.0000
     32 ****         3.0799   0.7686   2.8826 H              1 S1                 0.0000
     33 ****        -1.9981  -1.2237  -0.9997 LP             1 S1                 0.0000
     34 ****        -0.3676  -1.8080  -1.0049 LP             1 S1                 0.0000
     35 ****        -3.0696   3.0323  -1.9597 LP             1 S1                 0.0000
     36 ****        -3.0372   3.0427  -0.3271 LP             1 S1                 0.0000
     37 ****        -5.4173   3.0247  -1.0941 LP             1 S1                 0.0000
@<TRIPOS>BOND
    1    1    2 1     
    2    1   18 1     
    3    1   19 1     
    4    1   20 1     
    5    2   17 2     
    6    2    3 1     
    7    3    4 2     
    8    3   21 1     
    9    4    5 1     
   10    4   16 1     
   11    5    6 am    
   12    5   22 1     
   13    6    7 2     
   14    6    8 am    
   15    8    9 1     
   16    8   23 1     
   17    9   10 1     
   18    9   24 1     
   19    9   25 1     
   20   10   15 1     
   21   10   11 1     
   22   10   26 1     
   23   11   12 1     
   24   11   27 1     
   25   11   28 1     
   26   12   13 1     
   27   13   14 1     
   28   13   29 1     
   29   13   30 1     
   30   14   15 1     
   31   14   31 1     
   32   14   32 1     
   33   16   17 1     
   34    7   33 1     
   35    7   34 1     
   36   16   35 1     
   37   16   36 1     
   38   17   37 1     
@<TRIPOS>SUBSTRUCTURE
      1 S1             1
@<TRIPOS>SET
LONE_PAIRS      STATIC     ATOMS    <user>   **** ""
5 33 34 35 36 37
DONOR_HYDROGENS      STATIC     ATOMS    <user>   **** ""
2 22 23
ATOM$BLUE        STATIC     ATOMS    COLORGROUP SYSTEM
5 33 34 35 36 37
ATOM$RED        STATIC     ATOMS    COLORGROUP SYSTEM
2 22 23
