#       Name:                AV-unprocessed.smi:3250
#       Creating user name   scv26
#       Creation time:       Fri Mar 27 18:32:25 2020


#       File generated by GOLD software.
#

@<TRIPOS>MOLECULE
AV-unprocessed.smi:3250
    45    46     1
SMALL
NO_CHARGES


@<TRIPOS>ATOM
      1 ****        -4.1455   2.7524   1.1665 C.3            1 S1                 0.0000
      2 ****        -3.7097   2.5746  -0.2947 C.3            1 S1                 0.0000
      3 ****        -2.2376   2.4533  -0.4411 N.4            1 S1                 1.0000
      4 ****        -1.7904   2.7178  -1.8290 C.3            1 S1                 0.0000
      5 ****        -0.2603   2.6207  -1.9300 C.3            1 S1                 0.0000
      6 ****         0.1619   1.3385  -1.4835 O.3            1 S1                 0.0000
      7 ****        -0.1630   1.1090  -0.1161 C.3            1 S1                 0.0000
      8 ****         0.4057  -0.2591   0.2877 C.3            1 S1                 0.0000
      9 ****         1.8612  -0.2644   0.2744 N.pl3          1 S1                 0.0000
     10 ****         2.6247  -1.3869   0.5361 C.ar           1 S1                 0.0000
     11 ****         3.9587  -1.2552   0.4885 N.pl3          1 S1                 1.0000
     12 ****         4.7507  -2.3286   0.7306 C.ar           1 S1                 0.0000
     13 ****         4.1805  -3.5780   1.0340 C.ar           1 S1                 0.0000
     14 ****         2.7781  -3.6456   1.0721 C.ar           1 S1                 0.0000
     15 ****         2.1637  -4.8442   1.3703 O.3            1 S1                 0.0000
     16 ****         0.7416  -4.8804   1.4203 C.3            1 S1                 0.0000
     17 ****         2.0218  -2.5503   0.8213 N.ar           1 S1                 0.0000
     18 ****        -1.6969   1.1563   0.0388 C.3            1 S1                 0.0000
     19 ****        -5.2189   2.9344   1.2257 H              1 S1                 0.0000
     20 ****        -3.6415   3.6019   1.6283 H              1 S1                 0.0000
     21 ****        -3.9361   1.8672   1.7662 H              1 S1                 0.0000
     22 ****        -4.2037   1.7104  -0.7412 H              1 S1                 0.0000
     23 ****        -4.0506   3.4476  -0.8530 H              1 S1                 0.0000
     24 ****        -2.2557   2.0005  -2.5070 H              1 S1                 0.0000
     25 ****        -2.1144   3.7115  -2.1409 H              1 S1                 0.0000
     26 ****         0.0577   2.7577  -2.9637 H              1 S1                 0.0000
     27 ****         0.2214   3.4036  -1.3418 H              1 S1                 0.0000
     28 ****         0.2899   1.8841   0.5055 H              1 S1                 0.0000
     29 ****         0.0708  -0.5143   1.2939 H              1 S1                 0.0000
     30 ****         0.0326  -1.0355  -0.3813 H              1 S1                 0.0000
     31 ****         2.3386   0.5496  -0.0844 H              1 S1                 0.0000
     32 ****         5.8149  -2.1520   0.6738 H              1 S1                 0.0000
     33 ****         4.7932  -4.4457   1.2309 H              1 S1                 0.0000
     34 ****         0.4154  -5.8902   1.6693 H              1 S1                 0.0000
     35 ****         0.3004  -4.6181   0.4577 H              1 S1                 0.0000
     36 ****         0.3526  -4.2093   2.1874 H              1 S1                 0.0000
     37 ****        -1.9555   1.0061   1.0866 H              1 S1                 0.0000
     38 ****        -2.1564   0.3414  -0.5236 H              1 S1                 0.0000
     39 ****        -1.8297   3.1783   0.1318 H              1 S1                 0.0000
     40 ****         4.3897  -0.3569   0.2693 H              1 S1                 0.0000
     41 ****         1.1534   1.2696  -1.5945 LP             1 S1                 0.0000
     42 ****        -0.2853   0.6400  -2.0421 LP             1 S1                 0.0000
     43 ****         2.4988  -5.1335   2.2670 LP             1 S1                 0.0000
     44 ****         2.4523  -5.5051   0.6775 LP             1 S1                 0.0000
     45 ****         1.0239  -2.6086   0.8485 LP             1 S1                 0.0000
@<TRIPOS>BOND
    1    1    2 1     
    2    1   19 1     
    3    1   20 1     
    4    1   21 1     
    5    2    3 1     
    6    2   22 1     
    7    2   23 1     
    8    3   18 1     
    9    3    4 1     
   10    3   39 1     
   11    4    5 1     
   12    4   24 1     
   13    4   25 1     
   14    5    6 1     
   15    5   26 1     
   16    5   27 1     
   17    6    7 1     
   18    7    8 1     
   19    7   18 1     
   20    7   28 1     
   21    8    9 1     
   22    8   29 1     
   23    8   30 1     
   24    9   10 1     
   25    9   31 1     
   26   10   17 ar    
   27   10   11 ar    
   28   11   12 ar    
   29   11   40 1     
   30   12   13 ar    
   31   12   32 1     
   32   13   14 ar    
   33   13   33 1     
   34   14   15 1     
   35   14   17 ar    
   36   15   16 1     
   37   16   34 1     
   38   16   35 1     
   39   16   36 1     
   40   18   37 1     
   41   18   38 1     
   42    6   41 1     
   43    6   42 1     
   44   15   43 1     
   45   15   44 1     
   46   17   45 1     
@<TRIPOS>SUBSTRUCTURE
      1 S1             1
@<TRIPOS>SET
LONE_PAIRS      STATIC     ATOMS    <user>   **** ""
5 41 42 43 44 45
DONOR_HYDROGENS      STATIC     ATOMS    <user>   **** ""
3 39 31 40
ATOM$BLUE        STATIC     ATOMS    COLORGROUP SYSTEM
5 41 42 43 44 45
ATOM$RED        STATIC     ATOMS    COLORGROUP SYSTEM
3 39 31 40
