AV-unprocessed.smi:1697|AV-procd|sdf|6808|dock3
  -GOLD-   22720 7583D 1   1.00000     0.00000
 Structure written by MMmdl.
 55 57  0  0  0  0  0  0  0  0  3 V2000
  143.7043  146.3884  155.6117 C   0  0  0  0  0  0  0  0  0  0  0  0
  143.1452  145.0717  156.1673 C   0  0  0  0  0  0  0  0  0  0  0  0
  144.1676  144.3051  156.7916 O   0  0  0  0  0  0  0  0  0  0  0  0
  144.7677  143.3103  155.9715 C   0  0  2  0  0  0  0  0  0  0  0  0
  145.9730  142.7378  156.7297 C   0  0  0  0  0  0  0  0  0  0  0  0
  146.7433  141.7291  155.8622 C   0  0  0  0  0  0  0  0  0  0  0  0
  147.1876  142.3466  154.5854 N   0  3  1  0  0  0  0  0  0  0  0  0
  148.0420  141.4278  153.7893 C   0  0  0  0  0  0  0  0  0  0  0  0
  149.1370  140.7350  154.6315 C   0  0  1  0  0  0  0  0  0  0  0  0
  149.8920  139.8796  153.7979 O   0  0  0  0  0  0  0  0  0  0  0  0
  150.1244  141.7278  155.2795 C   0  0  0  0  0  0  0  0  0  0  0  0
  150.9479  141.1227  156.3345 N   0  0  0  0  0  0  0  0  0  0  0  0
  151.4880  139.8761  156.4197 C   0  0  0  0  0  0  0  0  0  0  0  0
  152.1684  139.8036  157.5973 N   0  3  0  0  0  0  0  0  0  0  0  0
  152.0497  141.0163  158.2798 C   0  0  0  0  0  0  0  0  0  0  0  0
  152.5569  141.4243  159.5076 C   0  0  0  0  0  0  0  0  0  0  0  0
  152.2452  142.7364  159.9302 C   0  0  0  0  0  0  0  0  0  0  0  0
  152.7804  143.2130  161.2698 C   0  0  0  0  0  0  0  0  0  0  0  0
  151.4464  143.5918  159.1276 C   0  0  0  0  0  0  0  0  0  0  0  0
  151.1122  144.9982  159.5953 C   0  0  0  0  0  0  0  0  0  0  0  0
  150.9430  143.1592  157.8800 C   0  0  0  0  0  0  0  0  0  0  0  0
  151.2619  141.8647  157.4781 C   0  0  0  0  0  0  0  0  0  0  0  0
  146.0375  142.8943  153.8160 C   0  0  0  0  0  0  0  0  0  0  0  0
  145.2506  143.9228  154.6453 C   0  0  0  0  0  0  0  0  0  0  0  0
  142.9314  146.9413  155.0777 H   0  0  0  0  0  0  0  0  0  0  0  0
  144.5204  146.2010  154.9134 H   0  0  0  0  0  0  0  0  0  0  0  0
  144.0830  147.0357  156.4021 H   0  0  0  0  0  0  0  0  0  0  0  0
  142.3086  145.2552  156.8419 H   0  0  0  0  0  0  0  0  0  0  0  0
  142.7504  144.4817  155.3399 H   0  0  0  0  0  0  0  0  0  0  0  0
  144.0678  142.4978  155.7714 H   0  0  0  0  0  0  0  0  0  0  0  0
  146.6412  143.5468  157.0288 H   0  0  0  0  0  0  0  0  0  0  0  0
  145.6387  142.2568  157.6498 H   0  0  0  0  0  0  0  0  0  0  0  0
  147.6093  141.3704  156.4199 H   0  0  0  0  0  0  0  0  0  0  0  0
  146.1193  140.8593  155.6505 H   0  0  0  0  0  0  0  0  0  0  0  0
  147.4257  140.6538  153.3284 H   0  0  0  0  0  0  0  0  0  0  0  0
  148.4795  141.9935  152.9658 H   0  0  0  0  0  0  0  0  0  0  0  0
  148.6919  140.1267  155.4172 H   0  0  0  0  0  0  0  0  0  0  0  0
  149.5969  139.9767  152.9054 H   0  0  0  0  0  0  0  0  0  0  0  0
  150.7918  142.1603  154.5324 H   0  0  0  0  0  0  0  0  0  0  0  0
  149.5825  142.5613  155.7291 H   0  0  0  0  0  0  0  0  0  0  0  0
  151.3976  139.0882  155.6856 H   0  0  0  0  0  0  0  0  0  0  0  0
  153.1609  140.7664  160.1155 H   0  0  0  0  0  0  0  0  0  0  0  0
  153.3719  144.1208  161.1487 H   0  0  0  0  0  0  0  0  0  0  0  0
  153.4183  142.4609  161.7354 H   0  0  0  0  0  0  0  0  0  0  0  0
  151.9584  143.4236  161.9545 H   0  0  0  0  0  0  0  0  0  0  0  0
  150.4691  145.5140  158.8817 H   0  0  0  0  0  0  0  0  0  0  0  0
  152.0212  145.5888  159.7123 H   0  0  0  0  0  0  0  0  0  0  0  0
  150.5909  144.9700  160.5526 H   0  0  0  0  0  0  0  0  0  0  0  0
  150.3324  143.8089  157.2703 H   0  0  0  0  0  0  0  0  0  0  0  0
  146.3835  143.3740  152.9013 H   0  0  0  0  0  0  0  0  0  0  0  0
  145.3790  142.0788  153.5127 H   0  0  0  0  0  0  0  0  0  0  0  0
  144.4061  144.2897  154.0623 H   0  0  0  0  0  0  0  0  0  0  0  0
  145.8833  144.7879  154.8489 H   0  0  0  0  0  0  0  0  0  0  0  0
  147.7718  143.1288  154.8445 H   0  0  0  0  0  0  0  0  0  0  0  0
  152.6695  138.9830  157.9137 H   0  0  0  0  0  0  0  0  0  0  0  0
  1  2  1  0  0  0  0
  1 25  1  0  0  0  0
  1 26  1  0  0  0  0
  1 27  1  0  0  0  0
  2  3  1  0  0  0  0
  2 28  1  0  0  0  0
  2 29  1  0  0  0  0
  3  4  1  0  0  0  0
  4 24  1  0  0  0  0
  4  5  1  0  0  0  0
  4 30  1  0  0  0  0
  5  6  1  0  0  0  0
  5 31  1  0  0  0  0
  5 32  1  0  0  0  0
  6  7  1  0  0  0  0
  6 33  1  0  0  0  0
  6 34  1  0  0  0  0
  7  8  1  0  0  0  0
  7 23  1  0  0  0  0
  7 54  1  0  0  0  0
  8  9  1  0  0  0  0
  8 35  1  0  0  0  0
  8 36  1  0  0  0  0
  9 10  1  0  0  0  0
  9 11  1  0  0  0  0
  9 37  1  0  0  0  0
 10 38  1  0  0  0  0
 11 12  1  0  0  0  0
 11 39  1  0  0  0  0
 11 40  1  0  0  0  0
 12 22  1  0  0  0  0
 12 13  1  0  0  0  0
 13 14  2  0  0  0  0
 13 41  1  0  0  0  0
 14 15  1  0  0  0  0
 14 55  1  0  0  0  0
 15 22  2  0  0  0  0
 15 16  1  0  0  0  0
 16 17  2  0  0  0  0
 16 42  1  0  0  0  0
 17 18  1  0  0  0  0
 17 19  1  0  0  0  0
 18 43  1  0  0  0  0
 18 44  1  0  0  0  0
 18 45  1  0  0  0  0
 19 20  1  0  0  0  0
 19 21  2  0  0  0  0
 20 46  1  0  0  0  0
 20 47  1  0  0  0  0
 20 48  1  0  0  0  0
 21 22  1  0  0  0  0
 21 49  1  0  0  0  0
 23 24  1  0  0  0  0
 23 50  1  0  0  0  0
 23 51  1  0  0  0  0
 24 52  1  0  0  0  0
 24 53  1  0  0  0  0
M  CHG  1   7   1
M  CHG  1  14   1
M  END
> <s_m_source_file>
AV-unprocessed.smi

> <i_m_source_file_index>
1697

> <i_lp_mmshare_version>
43012

> <i_f3d_flags>
0

> <s_epik_input>
W0NIM11bQ0gyXU9bQ0hdMVtDSDJdW0NIMl1OKFtDSDJdW0NIMl0xKVtDSDJdW0NASF0oW09IXSlbQ0gyXW4oW2NIXW4yKWMoYzIzKVtjSF1jKFtDSDNdKWMoW2NIXTMpW0NIM10=

> <s_epik_cmdline>
J2VwaWtfcHl0aG9uJywgJy1waCcsICc3LjAnLCAnLXRuJywgJzgnLCAnLW1hJywgJzIwMCcsICctbWV0YWxfYmluZGluZycsICctaW1hZScsICc8aW5maWxlLm1hZT4nLCAnLW9tYWUnLCAnPG91dGZpbGUubWFlPic=

> <r_epik_Ionization_Penalty>
1.20016

> <r_epik_Ionization_Penalty_Charging>
1.20016

> <r_epik_Ionization_Penalty_Neutral>
1.70998e-06

> <r_epik_State_Penalty>
1.27959

> <r_epik_Charging_Adjusted_Penalty>
2.47975

> <i_epik_Tot_Q>
2

> <i_epik_Tot_abs_Q>
2

> <r_epik_Metal_State_Penalty>
5.29682

> <b_epik_Metal_Only>
0

> <s_lp_Force_Field>
OPLS_2005

> <r_lp_Energy>
35.517

> <b_lp_Chiralities_Consistent>
1

> <s_lp_Variant>
AV-unprocessed.smi:1697-6

> <Gold.Version>
5.8.1

> <Gold.Id.Protein>
6NUR|6NUR_protein|mol2

> <Gold.PLP.Fitness>
60.9684

> <Gold.PLP.PLP>
-51.5717

> <Gold.PLP.part.hbond>
-3.0000

> <Gold.PLP.part.metal>
0.0000

> <Gold.PLP.part.buried>
-7.0703

> <Gold.PLP.part.nonpolar>
-41.0111

> <Gold.PLP.part.repulsive>
0.2795

> <Gold.PLP.ligand.clash>
0.0000

> <Gold.PLP.ligand.torsion>
0.7588

> <Gold.PLP.Chemscore.Hbond>
3.5824

> <Gold.PLP.Chemscore.CHOScore>
0.0000

> <Gold.PLP.Chemscore.Metal>
0.0000

> <Gold.Chemscore.Hbonds>
donor molecule, donor type, donor heavy atom, donor atom, acceptor molecule, acceptor atom, score
      L1  H     7    54       P1  8028  1.82
      L1  H    10    38       P1  7957  1.00
      P1  H  7989  7998       L1    10  0.54

> <Gold.PLP.Chemscore.Internal.Correction>
0.1671

> <Gold.Rescore>
     Score         DG    S(hbond)    S(metal)    S(lipo)     H(rot)  DE(clash)    DE(int)     intcor
     20.17     -21.32       1.84        0.00     134.23       2.35       0.40       0.74       ----

> <Gold.Chemscore.Fitness>
20.1734

> <Gold.Chemscore.DG>
-21.3151

> <Gold.Chemscore.ZeroCoef>
-5.4800

> <Gold.Chemscore.Hbond>
1.8378

> <Gold.Chemscore.Metal>
0.0000

> <Gold.Chemscore.Lipo>
134.2260

> <Gold.Chemscore.Internal_Hbond>
0.0000

> <Gold.Chemscore.DEClash>
0.4041

> <Gold.Chemscore.DEInternal>
0.7376

> <Gold.Chemscore.Rot>
2.3468

> <Gold.Chemscore.Internal.Correction>
   9.000000E+99

> <Gold.Chemscore.Hbonds>
donor molecule, donor type, donor heavy atom, donor atom, acceptor molecule, acceptor atom, score
      L1  H     7    54       P1  8028  0.61
      L1  H    10    38       P1  7957  1.00
      P1  H  7989  7998       L1    10  0.02

> <Gold.Chemscore.Hbond.Weighted>
-6.1384

> <Gold.Chemscore.Metal.Weighted>
-0.0000

> <Gold.Chemscore.Lipo.Weighted>
-15.7044

> <Gold.Chemscore.Internal_Hbond.Weighted>
0.0000

> <Gold.Chemscore.DEClash.Weighted>
0.4041

> <Gold.Chemscore.DEInternal.Weighted>
0.7376

> <Gold.Chemscore.Rot.Weighted>
6.0077

> <Gold.Chemscore.Internal.Correction.Weighted>
   9.000000E+99

> <Gold.Protein.RotatedTorsions>
[ 6907 6896 6895 6894 ] final  167.52 input  -60.11 | X-H torsion
[ 7974 7965 7964 7962 ] final  -70.29 input  175.53 | X-H torsion
[ 8008 7997 7996 7995 ] final  116.55 input   59.86 | X-H torsion
[ 10167 10162 10161 10158 ] final  167.53 input  -65.29 | X-H torsion
[ 10718 10713 10712 10709 ] final   45.87 input   66.30 | X-H torsion
[ 10763 10752 10751 10750 ] final  -34.70 input  -60.55 | X-H torsion
[ 11005 11000 10999 10996 ] final  -24.16 input  -57.11 | X-H torsion

> <Gold.Protein.ActiveResidues>
 VAL166  LYS551  ARG553  GLY616  TRP617  ASP618  TYR619  PRO620  LYS621  CYS622 
 ASP623  PHE694  ASN695  SER759  ASP760  ASP761  ALA762  ILE779  LEU786  VAL792 
 PHE793  MET794  SER795  GLU796  ALA797  LYS798  CYS799  TRP800  GLU811  SER814 

> <Gold.Protein.RotatedAtoms>
  151.8620  133.3459  159.3706 H   0  0  0  0  0  0  0  0  0  0  0  0  # atno 6907 bound_to 6896
  150.7176  134.5197  159.5657 H   0  0  0  0  0  0  0  0  0  0  0  0  # atno 6908 bound_to 6896
  152.2712  134.7931  160.0465 H   0  0  0  0  0  0  0  0  0  0  0  0  # atno 6909 bound_to 6896
  145.6928  140.9146  143.0772 H   0  0  0  0  0  0  0  0  0  0  0  0  # atno 7974 bound_to 7965
  156.2445  140.2915  156.0540 H   0  0  0  0  0  0  0  0  0  0  0  0  # atno 8008 bound_to 7997
  155.1849  140.0405  157.2906 H   0  0  0  0  0  0  0  0  0  0  0  0  # atno 8009 bound_to 7997
  154.6234  140.2481  155.7529 H   0  0  0  0  0  0  0  0  0  0  0  0  # atno 8010 bound_to 7997
  139.4947  144.3912  151.9515 H   0  0  0  0  0  0  0  0  0  0  0  0  # atno 10167 bound_to 10162
  157.4421  130.8087  149.7704 H   0  0  0  0  0  0  0  0  0  0  0  0  # atno 10718 bound_to 10713
  153.8511  135.6849  153.4792 H   0  0  0  0  0  0  0  0  0  0  0  0  # atno 10763 bound_to 10752
  153.1397  135.4663  154.9474 H   0  0  0  0  0  0  0  0  0  0  0  0  # atno 10764 bound_to 10752
  154.7802  135.3266  154.7955 H   0  0  0  0  0  0  0  0  0  0  0  0  # atno 10765 bound_to 10752
  140.8819  133.7648  156.0313 H   0  0  0  0  0  0  0  0  0  0  0  0  # atno 11005 bound_to 11000
  144.6991  139.8844  143.7449 LP  0  0  0  0  0  0  0  0  0  0  0  0  # atno 17320 bound_to 7965
  146.0867  139.3855  143.0431 LP  0  0  0  0  0  0  0  0  0  0  0  0  # atno 17321 bound_to 7965
  140.3349  144.3272  150.5979 LP  0  0  0  0  0  0  0  0  0  0  0  0  # atno 17342 bound_to 10162
  140.5614  143.2191  151.7759 LP  0  0  0  0  0  0  0  0  0  0  0  0  # atno 17343 bound_to 10162
  155.9953  130.3913  150.2825 LP  0  0  0  0  0  0  0  0  0  0  0  0  # atno 17370 bound_to 10713
  157.0991  131.0190  151.3092 LP  0  0  0  0  0  0  0  0  0  0  0  0  # atno 17371 bound_to 10713
  140.8451  134.3021  157.5298 LP  0  0  0  0  0  0  0  0  0  0  0  0  # atno 17394 bound_to 11000
  139.8720  134.9437  156.3861 LP  0  0  0  0  0  0  0  0  0  0  0  0  # atno 17395 bound_to 11000

$$$$
