AV-unprocessed.smi:72|AV-procd|sdf|749|dock2
  -GOLD-   2262017 83D 1   1.00000     0.00000
 Structure written by MMmdl.
 29 30  0  0  0  0  0  0  0  0  1 V2000
  148.3692  135.5125  160.3777 N   0  0  0  0  0  0  0  0  0  0  0  0
  149.0358  136.1311  159.3413 C   0  0  0  0  0  0  0  0  0  0  0  0
  149.0420  137.5320  159.3534 N   0  0  0  0  0  0  0  0  0  0  0  0
  149.6536  138.1182  158.3736 C   0  0  0  0  0  0  0  0  0  0  0  0
  150.2760  137.3543  157.3028 N   0  0  0  0  0  0  0  0  0  0  0  0
  151.0244  138.0086  156.1506 C   0  0  2  0  0  0  0  0  0  0  0  0
  150.7842  139.3841  156.1333 O   0  0  0  0  0  0  0  0  0  0  0  0
  149.7055  139.6696  155.2517 C   0  0  1  0  0  0  0  0  0  0  0  0
  149.7385  141.1506  154.8471 C   0  0  0  0  0  0  0  0  0  0  0  0
  149.3550  141.9575  155.9400 O   0  0  0  0  0  0  0  0  0  0  0  0
  149.9805  138.7092  154.0936 C   0  0  2  0  0  0  0  0  0  0  0  0
  148.7802  138.4014  153.4133 O   0  0  0  0  0  0  0  0  0  0  0  0
  150.5422  137.4683  154.7850 C   0  0  1  0  0  0  0  0  0  0  0  0
  151.6101  136.9334  154.0300 O   0  0  0  0  0  0  0  0  0  0  0  0
  150.2735  135.9333  157.3863 C   0  0  0  0  0  0  0  0  0  0  0  0
  150.8542  135.2630  156.5322 O   0  0  0  0  0  0  0  0  0  0  0  0
  149.5928  135.3505  158.4612 N   0  0  0  0  0  0  0  0  0  0  0  0
  152.0781  137.8220  156.3658 H   0  0  0  0  0  0  0  0  0  0  0  0
  148.7555  139.4138  155.7251 H   0  0  0  0  0  0  0  0  0  0  0  0
  150.7102  139.1438  153.4080 H   0  0  0  0  0  0  0  0  0  0  0  0
  149.7705  136.7102  154.9299 H   0  0  0  0  0  0  0  0  0  0  0  0
  148.3008  134.5099  160.4736 H   0  0  0  0  0  0  0  0  0  0  0  0
  147.9038  136.0158  161.1187 H   0  0  0  0  0  0  0  0  0  0  0  0
  149.7361  139.2026  158.3007 H   0  0  0  0  0  0  0  0  0  0  0  0
  150.7247  141.4423  154.4851 H   0  0  0  0  0  0  0  0  0  0  0  0
  149.0288  141.3343  154.0401 H   0  0  0  0  0  0  0  0  0  0  0  0
  149.0672  142.7945  155.6092 H   0  0  0  0  0  0  0  0  0  0  0  0
  148.8116  138.8028  152.5584 H   0  0  0  0  0  0  0  0  0  0  0  0
  151.2633  136.5998  153.2166 H   0  0  0  0  0  0  0  0  0  0  0  0
  1  2  1  0  0  0  0
  1 22  1  0  0  0  0
  1 23  1  0  0  0  0
  2 17  2  0  0  0  0
  2  3  1  0  0  0  0
  3  4  2  0  0  0  0
  4  5  1  0  0  0  0
  4 24  1  0  0  0  0
  5  6  1  0  0  0  0
  5 15  1  0  0  0  0
  6 18  1  0  0  0  0
  6 13  1  0  0  0  0
  6  7  1  0  0  0  0
  7  8  1  0  0  0  0
  8 19  1  0  0  0  0
  8  9  1  0  0  0  0
  8 11  1  0  0  0  0
  9 10  1  0  0  0  0
  9 25  1  0  0  0  0
  9 26  1  0  0  0  0
 10 27  1  0  0  0  0
 11 20  1  0  0  0  0
 11 12  1  0  0  0  0
 11 13  1  0  0  0  0
 12 28  1  0  0  0  0
 13 21  1  0  0  0  0
 13 14  1  0  0  0  0
 14 29  1  0  0  0  0
 15 16  2  0  0  0  0
 15 17  1  0  0  0  0
M  END
> <s_m_source_file>
AV-unprocessed.smi

> <i_m_source_file_index>
72

> <i_lp_mmshare_version>
43012

> <i_f3d_flags>
0

> <s_epik_input>
W05IMl1jMW5bY0hdbihjKD1PKW4xKVtDQEBIXTJPW0NASF0oW0NIMl1bT0hdKVtDQEBIXShbT0hdKVtDQEhdMltPSF0=

> <s_epik_cmdline>
J2VwaWtfcHl0aG9uJywgJy1waCcsICc3LjAnLCAnLXRuJywgJzgnLCAnLW1hJywgJzIwMCcsICctbWV0YWxfYmluZGluZycsICctaW1hZScsICc8aW5maWxlLm1hZT4nLCAnLW9tYWUnLCAnPG91dGZpbGUubWFlPic=

> <r_lp_tautomer_probability>
4.77166e-05

> <r_epik_Ionization_Penalty>
1.3546

> <r_epik_Ionization_Penalty_Charging>
1.46833e-10

> <r_epik_Ionization_Penalty_Neutral>
1.3546

> <r_epik_State_Penalty>
3.51908

> <r_epik_Charging_Adjusted_Penalty>
3.51908

> <i_epik_Tot_Q>
0

> <i_epik_Tot_abs_Q>
0

> <r_epik_Metal_State_Penalty>
3.44088

> <b_epik_Metal_Only>
1

> <s_epik_Chemistry_Notes>
This compound contains an acetal/aminal-like group ( X-CH(R)-Y where X, Y are N, S, or O) that may be acid/base labile, releasing an aldehyde.

> <s_lp_Force_Field>
OPLS_2005

> <r_lp_Energy>
23.1621

> <b_lp_Chiralities_Consistent>
1

> <s_lp_Variant>
AV-unprocessed.smi:72-87

> <Gold.Version>
5.8.1

> <Gold.Id.Protein>
6NUR|6NUR_protein|mol2

> <Gold.PLP.Fitness>
36.9481

> <Gold.PLP.PLP>
-22.2936

> <Gold.PLP.part.hbond>
-7.5154

> <Gold.PLP.part.metal>
0.0000

> <Gold.PLP.part.buried>
-4.0971

> <Gold.PLP.part.nonpolar>
-11.2112

> <Gold.PLP.part.repulsive>
0.1482

> <Gold.PLP.ligand.clash>
0.0000

> <Gold.PLP.ligand.torsion>
0.1926

> <Gold.PLP.Chemscore.Hbond>
5.0000

> <Gold.PLP.Chemscore.CHOScore>
0.0000

> <Gold.PLP.Chemscore.Metal>
0.0000

> <Gold.Chemscore.Hbonds>
donor molecule, donor type, donor heavy atom, donor atom, acceptor molecule, acceptor atom, score
      L1  H    10    27       P1  8028  1.00
      L1  H    12    28       P1  7957  1.00
      L1  H    14    29       P1  7949  1.00
      P1  H  6896  6908       L1    17  1.00
      P1  H 10752 10765       L1    14  1.00

> <Gold.PLP.Chemscore.Internal.Correction>
0.0398

> <Gold.Rescore>
     Score         DG    S(hbond)    S(metal)    S(lipo)     H(rot)  DE(clash)    DE(int)     intcor
     10.10     -10.64       3.65        0.00      28.59       4.06       0.17       0.36       ----

> <Gold.Chemscore.Fitness>
10.1046

> <Gold.Chemscore.DG>
-10.6362

> <Gold.Chemscore.ZeroCoef>
-5.4800

> <Gold.Chemscore.Hbond>
3.6543

> <Gold.Chemscore.Metal>
0.0000

> <Gold.Chemscore.Lipo>
28.5851

> <Gold.Chemscore.Internal_Hbond>
0.0000

> <Gold.Chemscore.DEClash>
0.1730

> <Gold.Chemscore.DEInternal>
0.3587

> <Gold.Chemscore.Rot>
4.0600

> <Gold.Chemscore.Internal.Correction>
   9.000000E+99

> <Gold.Chemscore.Hbonds>
donor molecule, donor type, donor heavy atom, donor atom, acceptor molecule, acceptor atom, score
      L1  H    10    27       P1  8028  0.97
      L1  H    12    28       P1  7957  0.91
      L1  H    14    29       P1  7949  0.65
      P1  H  6896  6908       L1    17  0.32
      P1  H 10752 10765       L1    14  0.25

> <Gold.Chemscore.Hbond.Weighted>
-12.2054

> <Gold.Chemscore.Metal.Weighted>
-0.0000

> <Gold.Chemscore.Lipo.Weighted>
-3.3445

> <Gold.Chemscore.Internal_Hbond.Weighted>
0.0000

> <Gold.Chemscore.DEClash.Weighted>
0.1730

> <Gold.Chemscore.DEInternal.Weighted>
0.3587

> <Gold.Chemscore.Rot.Weighted>
10.3936

> <Gold.Chemscore.Internal.Correction.Weighted>
   9.000000E+99

> <Gold.Protein.RotatedTorsions>
[ 6907 6896 6895 6894 ] final  152.48 input  -60.11 | X-H torsion
[ 7974 7965 7964 7962 ] final  -30.91 input  175.53 | X-H torsion
[ 8008 7997 7996 7995 ] final  -26.78 input   59.86 | X-H torsion
[ 10167 10162 10161 10158 ] final  166.94 input  -65.29 | X-H torsion
[ 10718 10713 10712 10709 ] final  -10.32 input   66.30 | X-H torsion
[ 10763 10752 10751 10750 ] final  166.76 input  -60.55 | X-H torsion
[ 11005 11000 10999 10996 ] final -176.82 input  -57.11 | X-H torsion

> <Gold.Protein.ActiveResidues>
 VAL166  LYS551  ARG553  GLY616  TRP617  ASP618  TYR619  PRO620  LYS621  CYS622 
 ASP623  PHE694  ASN695  SER759  ASP760  ASP761  ALA762  ILE779  LEU786  VAL792 
 PHE793  MET794  SER795  GLU796  ALA797  LYS798  CYS799  TRP800  GLU811  SER814 

> <Gold.Protein.RotatedAtoms>
  152.0861  133.4177  159.4522 H   0  0  0  0  0  0  0  0  0  0  0  0  # atno 6907 bound_to 6896
  150.6862  134.2925  159.4682 H   0  0  0  0  0  0  0  0  0  0  0  0  # atno 6908 bound_to 6896
  152.0772  134.9494  160.0624 H   0  0  0  0  0  0  0  0  0  0  0  0  # atno 6909 bound_to 6896
  146.1108  140.5600  142.8779 H   0  0  0  0  0  0  0  0  0  0  0  0  # atno 7974 bound_to 7965
  154.4408  140.1890  156.0829 H   0  0  0  0  0  0  0  0  0  0  0  0  # atno 8008 bound_to 7997
  156.0425  140.3318  155.7233 H   0  0  0  0  0  0  0  0  0  0  0  0  # atno 8009 bound_to 7997
  155.5679  140.0610  157.2804 H   0  0  0  0  0  0  0  0  0  0  0  0  # atno 8010 bound_to 7997
  139.4935  144.3974  151.9448 H   0  0  0  0  0  0  0  0  0  0  0  0  # atno 10167 bound_to 10162
  156.6752  130.5021  149.5988 H   0  0  0  0  0  0  0  0  0  0  0  0  # atno 10718 bound_to 10713
  154.3438  135.2753  155.2408 H   0  0  0  0  0  0  0  0  0  0  0  0  # atno 10763 bound_to 10752
  154.4667  135.5893  153.6296 H   0  0  0  0  0  0  0  0  0  0  0  0  # atno 10764 bound_to 10752
  152.9855  135.6078  154.3642 H   0  0  0  0  0  0  0  0  0  0  0  0  # atno 10765 bound_to 10752
  140.4478  134.6371  157.4787 H   0  0  0  0  0  0  0  0  0  0  0  0  # atno 11005 bound_to 11000
  144.7509  140.5189  143.6802 LP  0  0  0  0  0  0  0  0  0  0  0  0  # atno 17320 bound_to 7965
  145.5668  139.1481  143.3310 LP  0  0  0  0  0  0  0  0  0  0  0  0  # atno 17321 bound_to 7965
  140.3413  144.3200  150.5967 LP  0  0  0  0  0  0  0  0  0  0  0  0  # atno 17342 bound_to 10162
  140.5564  143.2198  151.7841 LP  0  0  0  0  0  0  0  0  0  0  0  0  # atno 17343 bound_to 10162
  156.1909  130.6559  151.1060 LP  0  0  0  0  0  0  0  0  0  0  0  0  # atno 17370 bound_to 10713
  157.7063  131.0755  150.6655 LP  0  0  0  0  0  0  0  0  0  0  0  0  # atno 17371 bound_to 10713
  140.0027  134.6812  155.9505 LP  0  0  0  0  0  0  0  0  0  0  0  0  # atno 17394 bound_to 11000
  141.1677  133.6537  156.4540 LP  0  0  0  0  0  0  0  0  0  0  0  0  # atno 17395 bound_to 11000

$$$$
