AV-unprocessed.smi:2152|AV-procd|sdf|8762|dock8
  -GOLD-   2272011543D 1   1.00000     0.00000
 Structure written by MMmdl.
 41 42  0  0  0  0  0  0  0  0  1 V2000
  151.6809  145.1937  159.7542 C   0  0  0  0  0  0  0  0  0  0  0  0
  151.9448  143.8385  160.4352 C   0  0  2  0  0  0  0  0  0  0  0  0
  152.5276  144.0467  161.8478 C   0  0  0  0  0  0  0  0  0  0  0  0
  152.7977  142.7121  162.5586 C   0  0  0  0  0  0  0  0  0  0  0  0
  153.7274  141.8215  161.7233 C   0  0  0  0  0  0  0  0  0  0  0  0
  153.1528  141.5914  160.3183 C   0  0  0  0  0  0  0  0  0  0  0  0
  152.8686  142.9233  159.5936 C   0  0  1  0  0  0  0  0  0  0  0  0
  152.2647  142.6523  158.2911 N   0  0  0  0  0  0  0  0  0  0  0  0
  151.0001  142.2549  158.0851 C   0  0  0  0  0  0  0  0  0  0  0  0
  150.1814  142.1017  158.9925 O   0  0  0  0  0  0  0  0  0  0  0  0
  150.5989  142.0177  156.6235 C   0  0  0  0  0  0  0  0  0  0  0  0
  150.1377  140.6457  156.3771 N   0  0  0  0  0  0  0  0  0  0  0  0
  149.0118  140.1729  157.0261 C   0  0  0  0  0  0  0  0  0  0  0  0
  148.5322  138.9198  156.8677 C   0  0  0  0  0  0  0  0  0  0  0  0
  149.1911  137.9723  155.9766 C   0  0  0  0  0  0  0  0  0  0  0  0
  148.7970  136.8166  155.8176 O   0  0  0  0  0  0  0  0  0  0  0  0
  150.3324  138.4863  155.3149 N   0  0  0  0  0  0  0  0  0  0  0  0
  151.0687  137.6179  154.4196 C   0  0  0  0  0  0  0  0  0  0  0  0
  150.8382  139.7926  155.4973 C   0  0  0  0  0  0  0  0  0  0  0  0
  151.8564  140.1834  154.9202 O   0  0  0  0  0  0  0  0  0  0  0  0
  152.6107  145.7373  159.5837 H   0  0  0  0  0  0  0  0  0  0  0  0
  151.0374  145.8227  160.3699 H   0  0  0  0  0  0  0  0  0  0  0  0
  151.1861  145.0726  158.7903 H   0  0  0  0  0  0  0  0  0  0  0  0
  150.9823  143.3365  160.5479 H   0  0  0  0  0  0  0  0  0  0  0  0
  153.4558  144.6161  161.7828 H   0  0  0  0  0  0  0  0  0  0  0  0
  151.8424  144.6450  162.4494 H   0  0  0  0  0  0  0  0  0  0  0  0
  153.2404  142.8956  163.5380 H   0  0  0  0  0  0  0  0  0  0  0  0
  151.8548  142.1935  162.7369 H   0  0  0  0  0  0  0  0  0  0  0  0
  154.7103  142.2877  161.6453 H   0  0  0  0  0  0  0  0  0  0  0  0
  153.8765  140.8651  162.2253 H   0  0  0  0  0  0  0  0  0  0  0  0
  153.8496  140.9877  159.7353 H   0  0  0  0  0  0  0  0  0  0  0  0
  152.2327  141.0104  160.3965 H   0  0  0  0  0  0  0  0  0  0  0  0
  153.8161  143.4473  159.4500 H   0  0  0  0  0  0  0  0  0  0  0  0
  152.8625  142.7585  157.4842 H   0  0  0  0  0  0  0  0  0  0  0  0
  149.8110  142.7277  156.3686 H   0  0  0  0  0  0  0  0  0  0  0  0
  151.4346  142.2548  155.9622 H   0  0  0  0  0  0  0  0  0  0  0  0
  148.4899  140.8355  157.7013 H   0  0  0  0  0  0  0  0  0  0  0  0
  147.6502  138.6128  157.4101 H   0  0  0  0  0  0  0  0  0  0  0  0
  151.3245  138.1866  153.5239 H   0  0  0  0  0  0  0  0  0  0  0  0
  150.4596  136.7647  154.1211 H   0  0  0  0  0  0  0  0  0  0  0  0
  151.9616  137.2937  154.9562 H   0  0  0  0  0  0  0  0  0  0  0  0
  1  2  1  0  0  0  0
  1 21  1  0  0  0  0
  1 22  1  0  0  0  0
  1 23  1  0  0  0  0
  2  7  1  0  0  0  0
  2  3  1  0  0  0  0
  2 24  1  0  0  0  0
  3  4  1  0  0  0  0
  3 25  1  0  0  0  0
  3 26  1  0  0  0  0
  4  5  1  0  0  0  0
  4 27  1  0  0  0  0
  4 28  1  0  0  0  0
  5  6  1  0  0  0  0
  5 29  1  0  0  0  0
  5 30  1  0  0  0  0
  6  7  1  0  0  0  0
  6 31  1  0  0  0  0
  6 32  1  0  0  0  0
  7  8  1  0  0  0  0
  7 33  1  0  0  0  0
  8  9  1  0  0  0  0
  8 34  1  0  0  0  0
  9 10  2  0  0  0  0
  9 11  1  0  0  0  0
 11 12  1  0  0  0  0
 11 35  1  0  0  0  0
 11 36  1  0  0  0  0
 12 19  1  0  0  0  0
 12 13  1  0  0  0  0
 13 14  2  0  0  0  0
 13 37  1  0  0  0  0
 14 15  1  0  0  0  0
 14 38  1  0  0  0  0
 15 16  2  0  0  0  0
 15 17  1  0  0  0  0
 17 18  1  0  0  0  0
 17 19  1  0  0  0  0
 18 39  1  0  0  0  0
 18 40  1  0  0  0  0
 18 41  1  0  0  0  0
 19 20  2  0  0  0  0
M  END
> <s_m_source_file>
AV-unprocessed.smi

> <i_m_source_file_index>
2152

> <i_lp_mmshare_version>
43012

> <i_f3d_flags>
0

> <s_epik_input>
W0NIM11bQ0BASF0xW0NIMl1bQ0gyXVtDSDJdW0NIMl1bQ0BIXTFbTkhdQyg9TylbQ0gyXW4yW2NIXVtjSF1jKD1PKW4oW0NIM10pYzI9Tw==

> <s_epik_cmdline>
J2VwaWtfcHl0aG9uJywgJy1waCcsICc3LjAnLCAnLXRuJywgJzgnLCAnLW1hJywgJzIwMCcsICctbWV0YWxfYmluZGluZycsICctaW1hZScsICc8aW5maWxlLm1hZT4nLCAnLW9tYWUnLCAnPG91dGZpbGUubWFlPic=

> <r_lp_tautomer_probability>
1

> <r_epik_Ionization_Penalty>
3.20555e-08

> <r_epik_Ionization_Penalty_Charging>
1.30086e-08

> <r_epik_Ionization_Penalty_Neutral>
1.90469e-08

> <r_epik_State_Penalty>
-0

> <r_epik_Charging_Adjusted_Penalty>
1.30086e-08

> <i_epik_Tot_Q>
0

> <i_epik_Tot_abs_Q>
0

> <r_epik_Metal_State_Penalty>
-0

> <b_epik_Metal_Only>
0

> <s_lp_Force_Field>
OPLS_2005

> <r_lp_Energy>
17.5308

> <b_lp_Chiralities_Consistent>
1

> <s_lp_Variant>
AV-unprocessed.smi:2152-1

> <Gold.Version>
5.8.1

> <Gold.Id.Protein>
6NUR|6NUR_protein|mol2

> <Gold.PLP.Fitness>
45.7142

> <Gold.PLP.PLP>
-43.5733

> <Gold.PLP.part.hbond>
-1.7456

> <Gold.PLP.part.metal>
0.0000

> <Gold.PLP.part.buried>
-4.4715

> <Gold.PLP.part.nonpolar>
-37.7492

> <Gold.PLP.part.repulsive>
0.2013

> <Gold.PLP.ligand.clash>
0.0000

> <Gold.PLP.ligand.torsion>
0.1578

> <Gold.PLP.Chemscore.Hbond>
0.8160

> <Gold.PLP.Chemscore.CHOScore>
0.0000

> <Gold.PLP.Chemscore.Metal>
0.0000

> <Gold.Chemscore.Hbonds>
donor molecule, donor type, donor heavy atom, donor atom, acceptor molecule, acceptor atom, score
      P1  H  7989  7998       L1    20  0.86

> <Gold.PLP.Chemscore.Internal.Correction>
0.0085

> <Gold.Rescore>
     Score         DG    S(hbond)    S(metal)    S(lipo)     H(rot)  DE(clash)    DE(int)     intcor
     13.80     -16.53       0.94        0.00     100.85       1.52       0.22       2.51       ----

> <Gold.Chemscore.Fitness>
13.8027

> <Gold.Chemscore.DG>
-16.5317

> <Gold.Chemscore.ZeroCoef>
-5.4800

> <Gold.Chemscore.Hbond>
0.9444

> <Gold.Chemscore.Metal>
0.0000

> <Gold.Chemscore.Lipo>
100.8479

> <Gold.Chemscore.Internal_Hbond>
0.0000

> <Gold.Chemscore.DEClash>
0.2235

> <Gold.Chemscore.DEInternal>
2.5055

> <Gold.Chemscore.Rot>
1.5242

> <Gold.Chemscore.Internal.Correction>
   9.000000E+99

> <Gold.Chemscore.Hbonds>
donor molecule, donor type, donor heavy atom, donor atom, acceptor molecule, acceptor atom, score
      P1  H  7989  7998       L1    20  0.80

> <Gold.Chemscore.Hbond.Weighted>
-3.1544

> <Gold.Chemscore.Metal.Weighted>
-0.0000

> <Gold.Chemscore.Lipo.Weighted>
-11.7992

> <Gold.Chemscore.Internal_Hbond.Weighted>
0.0000

> <Gold.Chemscore.DEClash.Weighted>
0.2235

> <Gold.Chemscore.DEInternal.Weighted>
2.5055

> <Gold.Chemscore.Rot.Weighted>
3.9019

> <Gold.Chemscore.Internal.Correction.Weighted>
   9.000000E+99

> <Gold.Protein.RotatedTorsions>
[ 6907 6896 6895 6894 ] final   85.54 input  -60.11 | X-H torsion
[ 7974 7965 7964 7962 ] final  -61.76 input  175.53 | X-H torsion
[ 8008 7997 7996 7995 ] final -118.47 input   59.86 | X-H torsion
[ 10167 10162 10161 10158 ] final  -20.60 input  -65.29 | X-H torsion
[ 10718 10713 10712 10709 ] final  -76.40 input   66.30 | X-H torsion
[ 10763 10752 10751 10750 ] final  -68.61 input  -60.55 | X-H torsion
[ 11005 11000 10999 10996 ] final   60.19 input  -57.11 | X-H torsion

> <Gold.Protein.ActiveResidues>
 VAL166  LYS551  ARG553  GLY616  TRP617  ASP618  TYR619  PRO620  LYS621  CYS622 
 ASP623  PHE694  ASN695  SER759  ASP760  ASP761  ALA762  ILE779  LEU786  VAL792 
 PHE793  MET794  SER795  GLU796  ALA797  LYS798  CYS799  TRP800  GLU811  SER814 

> <Gold.Protein.RotatedAtoms>
  152.5377  134.2571  159.8920 H   0  0  0  0  0  0  0  0  0  0  0  0  # atno 6907 bound_to 6896
  151.2532  133.4333  159.2620 H   0  0  0  0  0  0  0  0  0  0  0  0  # atno 6908 bound_to 6896
  151.0520  134.9693  159.8273 H   0  0  0  0  0  0  0  0  0  0  0  0  # atno 6909 bound_to 6896
  145.7995  140.8663  143.0238 H   0  0  0  0  0  0  0  0  0  0  0  0  # atno 7974 bound_to 7965
  155.1003  140.0396  157.2695 H   0  0  0  0  0  0  0  0  0  0  0  0  # atno 8008 bound_to 7997
  154.6763  140.2623  155.6929 H   0  0  0  0  0  0  0  0  0  0  0  0  # atno 8009 bound_to 7997
  156.2678  140.2787  156.1291 H   0  0  0  0  0  0  0  0  0  0  0  0  # atno 8010 bound_to 7997
  140.7277  143.4707  151.0251 H   0  0  0  0  0  0  0  0  0  0  0  0  # atno 10167 bound_to 10162
  156.0176  130.4465  150.3189 H   0  0  0  0  0  0  0  0  0  0  0  0  # atno 10718 bound_to 10713
  154.3916  135.6051  153.5846 H   0  0  0  0  0  0  0  0  0  0  0  0  # atno 10763 bound_to 10752
  152.9787  135.5885  154.4291 H   0  0  0  0  0  0  0  0  0  0  0  0  # atno 10764 bound_to 10752
  154.4076  135.2844  155.2035 H   0  0  0  0  0  0  0  0  0  0  0  0  # atno 10765 bound_to 10752
  140.0249  134.6097  155.9587 H   0  0  0  0  0  0  0  0  0  0  0  0  # atno 11005 bound_to 11000
  144.6770  140.0239  143.7483 LP  0  0  0  0  0  0  0  0  0  0  0  0  # atno 17320 bound_to 7965
  145.9892  139.3002  143.0995 LP  0  0  0  0  0  0  0  0  0  0  0  0  # atno 17321 bound_to 7965
  139.8398  143.7579  152.3180 LP  0  0  0  0  0  0  0  0  0  0  0  0  # atno 17342 bound_to 10162
  139.7723  144.7472  151.0206 LP  0  0  0  0  0  0  0  0  0  0  0  0  # atno 17343 bound_to 10162
  157.1289  131.0266  151.2977 LP  0  0  0  0  0  0  0  0  0  0  0  0  # atno 17370 bound_to 10713
  157.4567  130.7629  149.7199 LP  0  0  0  0  0  0  0  0  0  0  0  0  # atno 17371 bound_to 10713
  141.1797  133.6544  156.4968 LP  0  0  0  0  0  0  0  0  0  0  0  0  # atno 17394 bound_to 11000
  140.4323  134.7090  157.4948 LP  0  0  0  0  0  0  0  0  0  0  0  0  # atno 17395 bound_to 11000

$$$$
