AV-unprocessed.smi:582|AV-procd|sdf|2996|dock2
  -GOLD-   2262023503D 1   1.00000     0.00000
 Structure written by MMmdl.
 27 28  0  0  0  0  0  0  0  0  3 V2000
  151.9088  134.6800  156.2623 O   0  0  0  0  0  0  0  0  0  0  0  0
  151.2948  133.5918  156.3236 C   0  0  0  0  0  0  0  0  0  0  0  0
  151.5250  132.7370  157.2072 O   0  5  0  0  0  0  0  0  0  0  0  0
  150.2387  133.2994  155.2959 C   0  0  0  0  0  0  0  0  0  0  0  0
  149.6174  132.0302  155.2325 C   0  0  0  0  0  0  0  0  0  0  0  0
  148.6298  131.7847  154.2564 C   0  0  0  0  0  0  0  0  0  0  0  0
  148.2753  132.8142  153.3547 C   0  0  0  0  0  0  0  0  0  0  0  0
  147.3083  132.6636  152.3526 N   0  0  0  0  0  0  0  0  0  0  0  0
  146.6641  131.3567  152.3721 C   0  0  0  0  0  0  0  0  0  0  0  0
  145.6959  131.2302  151.1836 C   0  0  0  0  0  0  0  0  0  0  0  0
  144.7571  132.3012  151.2189 O   0  0  0  0  0  0  0  0  0  0  0  0
  145.3910  133.5734  151.1210 C   0  0  0  0  0  0  0  0  0  0  0  0
  146.3504  133.7610  152.3086 C   0  0  0  0  0  0  0  0  0  0  0  0
  148.8907  134.0128  153.4462 N   0  3  0  0  0  0  0  0  0  0  0  0
  149.8412  134.2876  154.3666 C   0  0  0  0  0  0  0  0  0  0  0  0
  149.8896  131.2445  155.9224 H   0  0  0  0  0  0  0  0  0  0  0  0
  148.1549  130.8162  154.2056 H   0  0  0  0  0  0  0  0  0  0  0  0
  147.4196  130.5712  152.3244 H   0  0  0  0  0  0  0  0  0  0  0  0
  146.1191  131.2257  153.3079 H   0  0  0  0  0  0  0  0  0  0  0  0
  146.2381  131.2380  150.2367 H   0  0  0  0  0  0  0  0  0  0  0  0
  145.1579  130.2835  151.2350 H   0  0  0  0  0  0  0  0  0  0  0  0
  145.9240  133.6546  150.1724 H   0  0  0  0  0  0  0  0  0  0  0  0
  144.6283  134.3521  151.1260 H   0  0  0  0  0  0  0  0  0  0  0  0
  145.7825  133.7963  153.2392 H   0  0  0  0  0  0  0  0  0  0  0  0
  146.8799  134.7102  152.2155 H   0  0  0  0  0  0  0  0  0  0  0  0
  150.2517  135.2867  154.3292 H   0  0  0  0  0  0  0  0  0  0  0  0
  148.6264  134.7473  152.7897 H   0  0  0  0  0  0  0  0  0  0  0  0
  1  2  2  0  0  0  0
  2  3  1  0  0  0  0
  2  4  1  0  0  0  0
  4 15  1  0  0  0  0
  4  5  2  0  0  0  0
  5  6  1  0  0  0  0
  5 16  1  0  0  0  0
  6  7  2  0  0  0  0
  6 17  1  0  0  0  0
  7  8  1  0  0  0  0
  7 14  1  0  0  0  0
  8 13  1  0  0  0  0
  8  9  1  0  0  0  0
  9 10  1  0  0  0  0
  9 18  1  0  0  0  0
  9 19  1  0  0  0  0
 10 11  1  0  0  0  0
 10 20  1  0  0  0  0
 10 21  1  0  0  0  0
 11 12  1  0  0  0  0
 12 13  1  0  0  0  0
 12 22  1  0  0  0  0
 12 23  1  0  0  0  0
 13 24  1  0  0  0  0
 13 25  1  0  0  0  0
 14 15  2  0  0  0  0
 14 27  1  0  0  0  0
 15 26  1  0  0  0  0
M  CHG  1   3  -1
M  CHG  1  14   1
M  END
> <s_m_source_file>
AV-unprocessed.smi

> <i_m_source_file_index>
582

> <i_lp_mmshare_version>
43012

> <i_f3d_flags>
0

> <s_epik_input>
Tz1DKFtPSF0pYzFbY0hdW2NIXWMobltjSF0xKU4yW0NIMl1bQ0gyXU9bQ0gyXVtDSDJdMg==

> <s_epik_cmdline>
J2VwaWtfcHl0aG9uJywgJy1waCcsICc3LjAnLCAnLXRuJywgJzgnLCAnLW1hJywgJzIwMCcsICctbWV0YWxfYmluZGluZycsICctaW1hZScsICc8aW5maWxlLm1hZT4nLCAnLW9tYWUnLCAnPG91dGZpbGUubWFlPic=

> <r_epik_Ionization_Penalty>
2.51473

> <r_epik_Ionization_Penalty_Charging>
2.51473

> <r_epik_Ionization_Penalty_Neutral>
3.18713e-12

> <r_epik_State_Penalty>
2.68069

> <r_epik_Charging_Adjusted_Penalty>
5.19543

> <i_epik_Tot_Q>
0

> <i_epik_Tot_abs_Q>
2

> <r_epik_Metal_State_Penalty>
6.76699

> <b_epik_Metal_Only>
0

> <s_lp_Force_Field>
OPLS_2005

> <r_lp_Energy>
18.1108

> <b_lp_Chiralities_Consistent>
1

> <s_lp_Variant>
AV-unprocessed.smi:582-2

> <Gold.Version>
5.8.1

> <Gold.Id.Protein>
6NUR|6NUR_protein|mol2

> <Gold.PLP.Fitness>
40.3665

> <Gold.PLP.PLP>
-23.1641

> <Gold.PLP.part.hbond>
-3.0000

> <Gold.PLP.part.metal>
0.0000

> <Gold.PLP.part.buried>
-1.1417

> <Gold.PLP.part.nonpolar>
-18.3866

> <Gold.PLP.part.repulsive>
0.2774

> <Gold.PLP.ligand.clash>
0.0000

> <Gold.PLP.ligand.torsion>
0.1580

> <Gold.PLP.Chemscore.Hbond>
5.8080

> <Gold.PLP.Chemscore.CHOScore>
0.0000

> <Gold.PLP.Chemscore.Metal>
0.0000

> <Gold.Chemscore.Hbonds>
donor molecule, donor type, donor heavy atom, donor atom, acceptor molecule, acceptor atom, score
      L1  H    14    27       P1  7948  1.80
      P1  H  6896  6907       L1     3  1.56
      P1  H 10752 10764       L1     1  1.66

> <Gold.PLP.Chemscore.Internal.Correction>
0.0944

> <Gold.Rescore>
     Score         DG    S(hbond)    S(metal)    S(lipo)     H(rot)  DE(clash)    DE(int)     intcor
     16.32     -16.54       2.46        0.00      46.31       1.00       0.08       0.15       ----

> <Gold.Chemscore.Fitness>
16.3164

> <Gold.Chemscore.DG>
-16.5379

> <Gold.Chemscore.ZeroCoef>
-5.4800

> <Gold.Chemscore.Hbond>
2.4550

> <Gold.Chemscore.Metal>
0.0000

> <Gold.Chemscore.Lipo>
46.3083

> <Gold.Chemscore.Internal_Hbond>
0.0000

> <Gold.Chemscore.DEClash>
0.0760

> <Gold.Chemscore.DEInternal>
0.1455

> <Gold.Chemscore.Rot>
1.0000

> <Gold.Chemscore.Internal.Correction>
   9.000000E+99

> <Gold.Chemscore.Hbonds>
donor molecule, donor type, donor heavy atom, donor atom, acceptor molecule, acceptor atom, score
      L1  H    14    27       P1  7948  0.17
      P1  H  6896  6907       L1     3  0.69
      P1  H 10752 10764       L1     1  0.83

> <Gold.Chemscore.Hbond.Weighted>
-8.1998

> <Gold.Chemscore.Metal.Weighted>
-0.0000

> <Gold.Chemscore.Lipo.Weighted>
-5.4181

> <Gold.Chemscore.Internal_Hbond.Weighted>
0.0000

> <Gold.Chemscore.DEClash.Weighted>
0.0760

> <Gold.Chemscore.DEInternal.Weighted>
0.1455

> <Gold.Chemscore.Rot.Weighted>
2.5600

> <Gold.Chemscore.Internal.Correction.Weighted>
   9.000000E+99

> <Gold.Protein.RotatedTorsions>
[ 6907 6896 6895 6894 ] final -158.17 input  -60.11 | X-H torsion
[ 7974 7965 7964 7962 ] final  -93.18 input  175.53 | X-H torsion
[ 8008 7997 7996 7995 ] final  -17.95 input   59.86 | X-H torsion
[ 10167 10162 10161 10158 ] final   49.02 input  -65.29 | X-H torsion
[ 10718 10713 10712 10709 ] final   56.02 input   66.30 | X-H torsion
[ 10763 10752 10751 10750 ] final  -23.73 input  -60.55 | X-H torsion
[ 11005 11000 10999 10996 ] final   12.63 input  -57.11 | X-H torsion

> <Gold.Protein.ActiveResidues>
 VAL166  LYS551  ARG553  GLY616  TRP617  ASP618  TYR619  PRO620  LYS621  CYS622 
 ASP623  PHE694  ASN695  SER759  ASP760  ASP761  ALA762  ILE779  LEU786  VAL792 
 PHE793  MET794  SER795  GLU796  ALA797  LYS798  CYS799  TRP800  GLU811  SER814 

> <Gold.Protein.RotatedAtoms>
  151.3141  133.4068  159.2648 H   0  0  0  0  0  0  0  0  0  0  0  0  # atno 6907 bound_to 6896
  151.0089  134.9382  159.8006 H   0  0  0  0  0  0  0  0  0  0  0  0  # atno 6908 bound_to 6896
  152.5295  134.3106  159.9164 H   0  0  0  0  0  0  0  0  0  0  0  0  # atno 6909 bound_to 6896
  145.3899  140.9527  143.2346 H   0  0  0  0  0  0  0  0  0  0  0  0  # atno 7974 bound_to 7965
  154.4941  140.2129  155.9485 H   0  0  0  0  0  0  0  0  0  0  0  0  # atno 8008 bound_to 7997
  156.1346  140.3191  155.8369 H   0  0  0  0  0  0  0  0  0  0  0  0  # atno 8009 bound_to 7997
  155.4234  140.0498  157.3015 H   0  0  0  0  0  0  0  0  0  0  0  0  # atno 8010 bound_to 7997
  140.2873  144.3087  150.6249 H   0  0  0  0  0  0  0  0  0  0  0  0  # atno 10167 bound_to 10162
  157.5395  130.8687  149.8802 H   0  0  0  0  0  0  0  0  0  0  0  0  # atno 10718 bound_to 10713
  153.6724  135.6971  153.5143 H   0  0  0  0  0  0  0  0  0  0  0  0  # atno 10763 bound_to 10752
  153.2547  135.4263  155.0833 H   0  0  0  0  0  0  0  0  0  0  0  0  # atno 10764 bound_to 10752
  154.8423  135.3540  154.6268 H   0  0  0  0  0  0  0  0  0  0  0  0  # atno 10765 bound_to 10752
  140.4898  134.0852  155.7769 H   0  0  0  0  0  0  0  0  0  0  0  0  # atno 11005 bound_to 11000
  144.8447  139.5415  143.6884 LP  0  0  0  0  0  0  0  0  0  0  0  0  # atno 17320 bound_to 7965
  146.2802  139.6858  142.9234 LP  0  0  0  0  0  0  0  0  0  0  0  0  # atno 17321 bound_to 7965
  140.5762  143.2176  151.7511 LP  0  0  0  0  0  0  0  0  0  0  0  0  # atno 17342 bound_to 10162
  139.4947  144.4146  152.0044 LP  0  0  0  0  0  0  0  0  0  0  0  0  # atno 17343 bound_to 10162
  156.0486  130.3722  150.1257 LP  0  0  0  0  0  0  0  0  0  0  0  0  # atno 17370 bound_to 10713
  156.9438  130.9753  151.3511 LP  0  0  0  0  0  0  0  0  0  0  0  0  # atno 17371 bound_to 10713
  141.1490  133.9003  157.2145 LP  0  0  0  0  0  0  0  0  0  0  0  0  # atno 17394 bound_to 11000
  139.9776  135.0109  156.9670 LP  0  0  0  0  0  0  0  0  0  0  0  0  # atno 17395 bound_to 11000

$$$$
