AV-unprocessed.smi:964|AV-procd|sdf|4277|dock1
  -GOLD-   22720 2183D 1   1.00000     0.00000
 Structure written by MMmdl.
 20 20  0  0  0  0  0  0  0  0  2 V2000
  150.9497  140.8265  156.7928 C   0  0  0  0  0  0  0  0  0  0  0  0
  150.1054  140.5861  155.5882 C   0  0  0  0  0  0  0  0  0  0  0  0
  148.7497  140.7648  155.5830 N   0  0  0  0  0  0  0  0  0  0  0  0
  148.4745  140.4378  154.3251 C   0  0  0  0  0  0  0  0  0  0  0  0
  147.1075  140.4282  153.7231 C   0  0  0  0  0  0  0  0  0  0  0  0
  146.7558  139.0727  153.0950 C   0  0  0  0  0  0  0  0  0  0  0  0
  147.4597  138.8716  151.8175 N   0  3  0  0  0  0  0  0  0  0  0  0
  149.5645  140.0868  153.6385 N   0  0  0  0  0  0  0  0  0  0  0  0
  150.6452  140.1757  154.4420 N   0  0  0  0  0  0  0  0  0  0  0  0
  150.3520  141.2357  157.6078 H   0  0  0  0  0  0  0  0  0  0  0  0
  151.7462  141.5343  156.5615 H   0  0  0  0  0  0  0  0  0  0  0  0
  151.4006  139.8927  157.1300 H   0  0  0  0  0  0  0  0  0  0  0  0
  146.3869  140.6798  154.5025 H   0  0  0  0  0  0  0  0  0  0  0  0
  147.0446  141.2190  152.9741 H   0  0  0  0  0  0  0  0  0  0  0  0
  147.0202  138.2608  153.7735 H   0  0  0  0  0  0  0  0  0  0  0  0
  145.6823  139.0051  152.9147 H   0  0  0  0  0  0  0  0  0  0  0  0
  147.7783  137.9149  151.7563 H   0  0  0  0  0  0  0  0  0  0  0  0
  148.2537  139.4938  151.7657 H   0  0  0  0  0  0  0  0  0  0  0  0
  146.8297  139.0640  151.0516 H   0  0  0  0  0  0  0  0  0  0  0  0
  149.6196  139.7965  152.6725 H   0  0  0  0  0  0  0  0  0  0  0  0
  1  2  1  0  0  0  0
  1 10  1  0  0  0  0
  1 11  1  0  0  0  0
  1 12  1  0  0  0  0
  2  9  2  0  0  0  0
  2  3  1  0  0  0  0
  3  4  2  0  0  0  0
  4  5  1  0  0  0  0
  4  8  1  0  0  0  0
  5  6  1  0  0  0  0
  5 13  1  0  0  0  0
  5 14  1  0  0  0  0
  6  7  1  0  0  0  0
  6 15  1  0  0  0  0
  6 16  1  0  0  0  0
  7 17  1  0  0  0  0
  7 18  1  0  0  0  0
  7 19  1  0  0  0  0
  8  9  1  0  0  0  0
  8 20  1  0  0  0  0
M  CHG  1   7   1
M  END
> <s_m_source_file>
AV-unprocessed.smi

> <i_m_source_file_index>
964

> <i_lp_mmshare_version>
43012

> <i_f3d_flags>
0

> <s_epik_input>
W0NIM11jMW5jKG5bbkhdMSlbQ0gyXVtDSDJdW05IMl0=

> <s_epik_cmdline>
J2VwaWtfcHl0aG9uJywgJy1waCcsICc3LjAnLCAnLXRuJywgJzgnLCAnLW1hJywgJzIwMCcsICctbWV0YWxfYmluZGluZycsICctaW1hZScsICc8aW5maWxlLm1hZT4nLCAnLW9tYWUnLCAnPG91dGZpbGUubWFlPic=

> <r_lp_tautomer_probability>
0.948284

> <r_epik_Ionization_Penalty>
0.00675923

> <r_epik_Ionization_Penalty_Charging>
0.00465044

> <r_epik_Ionization_Penalty_Neutral>
0.00210879

> <r_epik_State_Penalty>
0.393939

> <r_epik_Charging_Adjusted_Penalty>
0.398589

> <i_epik_Tot_Q>
1

> <i_epik_Tot_abs_Q>
1

> <r_epik_Metal_State_Penalty>
0.594419

> <b_epik_Metal_Only>
0

> <s_lp_Force_Field>
OPLS_2005

> <r_lp_Energy>
1.69127

> <b_lp_Chiralities_Consistent>
1

> <s_lp_Variant>
AV-unprocessed.smi:964-1

> <Gold.Version>
5.8.1

> <Gold.Id.Protein>
6NUR|6NUR_protein|mol2

> <Gold.PLP.Fitness>
31.0505

> <Gold.PLP.PLP>
-16.2442

> <Gold.PLP.part.hbond>
-3.7408

> <Gold.PLP.part.metal>
0.0000

> <Gold.PLP.part.buried>
-5.0247

> <Gold.PLP.part.nonpolar>
-9.9400

> <Gold.PLP.part.repulsive>
1.3317

> <Gold.PLP.ligand.clash>
0.0000

> <Gold.PLP.ligand.torsion>
0.0853

> <Gold.PLP.Chemscore.Hbond>
4.9920

> <Gold.PLP.Chemscore.CHOScore>
0.0000

> <Gold.PLP.Chemscore.Metal>
0.0000

> <Gold.Chemscore.Hbonds>
donor molecule, donor type, donor heavy atom, donor atom, acceptor molecule, acceptor atom, score
      L1  H     7    17       P1  7948  2.00
      L1  H     7    18       P1  7957  1.00
      L1  H     8    20       P1  7957  0.99
      P1  H  7989  7998       L1     9  0.99

> <Gold.PLP.Chemscore.Internal.Correction>
0.0008

> <Gold.Rescore>
     Score         DG    S(hbond)    S(metal)    S(lipo)     H(rot)  DE(clash)    DE(int)     intcor
     15.55     -15.77       3.63        0.00      17.21       1.51       0.07       0.14       ----

> <Gold.Chemscore.Fitness>
15.5543

> <Gold.Chemscore.DG>
-15.7719

> <Gold.Chemscore.ZeroCoef>
-5.4800

> <Gold.Chemscore.Hbond>
3.6344

> <Gold.Chemscore.Metal>
0.0000

> <Gold.Chemscore.Lipo>
17.2148

> <Gold.Chemscore.Internal_Hbond>
0.0000

> <Gold.Chemscore.DEClash>
0.0727

> <Gold.Chemscore.DEInternal>
0.1450

> <Gold.Chemscore.Rot>
1.5082

> <Gold.Chemscore.Internal.Correction>
   9.000000E+99

> <Gold.Chemscore.Hbonds>
donor molecule, donor type, donor heavy atom, donor atom, acceptor molecule, acceptor atom, score
      L1  H     7    17       P1  7948  0.94
      L1  H     7    18       P1  7957  0.92
      L1  H     8    20       P1  7957  0.91
      P1  H  7989  7998       L1     9  0.24

> <Gold.Chemscore.Hbond.Weighted>
-12.1389

> <Gold.Chemscore.Metal.Weighted>
-0.0000

> <Gold.Chemscore.Lipo.Weighted>
-2.0141

> <Gold.Chemscore.Internal_Hbond.Weighted>
0.0000

> <Gold.Chemscore.DEClash.Weighted>
0.0727

> <Gold.Chemscore.DEInternal.Weighted>
0.1450

> <Gold.Chemscore.Rot.Weighted>
3.8611

> <Gold.Chemscore.Internal.Correction.Weighted>
   9.000000E+99

> <Gold.Protein.RotatedTorsions>
[ 6907 6896 6895 6894 ] final   71.62 input  -60.11 | X-H torsion
[ 7974 7965 7964 7962 ] final  -53.43 input  175.53 | X-H torsion
[ 8008 7997 7996 7995 ] final   77.68 input   59.86 | X-H torsion
[ 10167 10162 10161 10158 ] final  -19.74 input  -65.29 | X-H torsion
[ 10718 10713 10712 10709 ] final  145.97 input   66.30 | X-H torsion
[ 10763 10752 10751 10750 ] final  135.58 input  -60.55 | X-H torsion
[ 11005 11000 10999 10996 ] final   98.86 input  -57.11 | X-H torsion

> <Gold.Protein.ActiveResidues>
 VAL166  LYS551  ARG553  GLY616  TRP617  ASP618  TYR619  PRO620  LYS621  CYS622 
 ASP623  PHE694  ASN695  SER759  ASP760  ASP761  ALA762  ILE779  LEU786  VAL792 
 PHE793  MET794  SER795  GLU796  ALA797  LYS798  CYS799  TRP800  GLU811  SER814 

> <Gold.Protein.RotatedAtoms>
  152.4821  134.4693  159.9630 H   0  0  0  0  0  0  0  0  0  0  0  0  # atno 6907 bound_to 6896
  151.4697  133.3566  159.2829 H   0  0  0  0  0  0  0  0  0  0  0  0  # atno 6908 bound_to 6896
  150.8901  134.8329  159.7348 H   0  0  0  0  0  0  0  0  0  0  0  0  # atno 6909 bound_to 6896
  145.8970  140.8025  142.9763 H   0  0  0  0  0  0  0  0  0  0  0  0  # atno 7974 bound_to 7965
  155.8450  140.3460  155.5656 H   0  0  0  0  0  0  0  0  0  0  0  0  # atno 8008 bound_to 7997
  155.8100  140.0897  157.1929 H   0  0  0  0  0  0  0  0  0  0  0  0  # atno 8009 bound_to 7997
  154.4006  140.1449  156.3362 H   0  0  0  0  0  0  0  0  0  0  0  0  # atno 8010 bound_to 7997
  140.7271  143.4790  151.0144 H   0  0  0  0  0  0  0  0  0  0  0  0  # atno 10167 bound_to 10162
  157.3389  131.0932  151.1099 H   0  0  0  0  0  0  0  0  0  0  0  0  # atno 10718 bound_to 10713
  153.8424  135.3090  155.3427 H   0  0  0  0  0  0  0  0  0  0  0  0  # atno 10763 bound_to 10752
  154.7927  135.4773  154.0092 H   0  0  0  0  0  0  0  0  0  0  0  0  # atno 10764 bound_to 10752
  153.1568  135.6853  153.8893 H   0  0  0  0  0  0  0  0  0  0  0  0  # atno 10765 bound_to 10752
  139.8771  134.9069  156.4519 H   0  0  0  0  0  0  0  0  0  0  0  0  # atno 11005 bound_to 11000
  144.6733  140.1617  143.7422 LP  0  0  0  0  0  0  0  0  0  0  0  0  # atno 17320 bound_to 7965
  145.8838  139.2338  143.1589 LP  0  0  0  0  0  0  0  0  0  0  0  0  # atno 17321 bound_to 7965
  139.8487  143.7467  152.3178 LP  0  0  0  0  0  0  0  0  0  0  0  0  # atno 17342 bound_to 10162
  139.7641  144.7497  151.0320 LP  0  0  0  0  0  0  0  0  0  0  0  0  # atno 17343 bound_to 10162
  157.2319  130.6529  149.5853 LP  0  0  0  0  0  0  0  0  0  0  0  0  # atno 17370 bound_to 10713
  155.9705  130.4596  150.6042 LP  0  0  0  0  0  0  0  0  0  0  0  0  # atno 17371 bound_to 10713
  140.8925  133.7837  155.9588 LP  0  0  0  0  0  0  0  0  0  0  0  0  # atno 17394 bound_to 11000
  140.8738  134.2695  157.5178 LP  0  0  0  0  0  0  0  0  0  0  0  0  # atno 17395 bound_to 11000

$$$$
