AV-unprocessed.smi:2222|AV-procd|sdf|8988|dock7
  -GOLD-   2272012203D 1   1.00000     0.00000
 Structure written by MMmdl.
 34 35  0  0  0  0  0  0  0  0  1 V2000
  151.9855  145.6870  159.6850 C   0  0  0  0  0  0  0  0  0  0  0  0
  151.5885  144.5017  159.0112 O   0  0  0  0  0  0  0  0  0  0  0  0
  152.0786  143.2939  159.4689 C   0  0  0  0  0  0  0  0  0  0  0  0
  152.9222  143.1679  160.6019 C   0  0  0  0  0  0  0  0  0  0  0  0
  153.3720  141.8941  160.9902 C   0  0  0  0  0  0  0  0  0  0  0  0
  152.9606  140.7843  160.2310 C   0  0  0  0  0  0  0  0  0  0  0  0
  153.4061  139.3826  160.5907 C   0  0  0  0  0  0  0  0  0  0  0  0
  152.1595  140.8915  159.1521 N   0  0  0  0  0  0  0  0  0  0  0  0
  151.7189  142.1147  158.7667 C   0  0  0  0  0  0  0  0  0  0  0  0
  150.8748  142.3113  157.6398 N   0  0  0  0  0  0  0  0  0  0  0  0
  150.4954  141.4197  156.7030 C   0  0  0  0  0  0  0  0  0  0  0  0
  150.8023  140.2287  156.7044 O   0  0  0  0  0  0  0  0  0  0  0  0
  149.6945  141.9279  155.7491 N   0  0  0  0  0  0  0  0  0  0  0  0
  149.1250  141.2475  154.6247 C   0  0  1  0  0  0  0  0  0  0  0  0
  148.7489  139.7969  154.8331 C   0  0  0  0  0  0  0  0  0  0  0  0
  147.6688  140.8360  154.6952 C   0  0  2  0  0  0  0  0  0  0  0  0
  146.7945  140.8578  153.4604 C   0  0  0  0  0  0  0  0  0  0  0  0
  151.5197  146.5468  159.2034 H   0  0  0  0  0  0  0  0  0  0  0  0
  153.0661  145.8293  159.6392 H   0  0  0  0  0  0  0  0  0  0  0  0
  151.6651  145.6800  160.7277 H   0  0  0  0  0  0  0  0  0  0  0  0
  153.2344  144.0228  161.1820 H   0  0  0  0  0  0  0  0  0  0  0  0
  154.0160  141.7765  161.8493 H   0  0  0  0  0  0  0  0  0  0  0  0
  153.9520  139.3709  161.5343 H   0  0  0  0  0  0  0  0  0  0  0  0
  154.0577  138.9826  159.8134 H   0  0  0  0  0  0  0  0  0  0  0  0
  152.5435  138.7228  160.6899 H   0  0  0  0  0  0  0  0  0  0  0  0
  150.5241  143.2512  157.5270 H   0  0  0  0  0  0  0  0  0  0  0  0
  149.4081  142.8887  155.8703 H   0  0  0  0  0  0  0  0  0  0  0  0
  149.5263  141.4758  153.6383 H   0  0  0  0  0  0  0  0  0  0  0  0
  148.9071  139.1150  153.9999 H   0  0  0  0  0  0  0  0  0  0  0  0
  148.9031  139.3650  155.8201 H   0  0  0  0  0  0  0  0  0  0  0  0
  147.1385  141.0969  155.6092 H   0  0  0  0  0  0  0  0  0  0  0  0
  147.3695  140.5917  152.5729 H   0  0  0  0  0  0  0  0  0  0  0  0
  146.3759  141.8539  153.3170 H   0  0  0  0  0  0  0  0  0  0  0  0
  145.9747  140.1478  153.5698 H   0  0  0  0  0  0  0  0  0  0  0  0
  1  2  1  0  0  0  0
  1 18  1  0  0  0  0
  1 19  1  0  0  0  0
  1 20  1  0  0  0  0
  2  3  1  0  0  0  0
  3  9  1  0  0  0  0
  3  4  2  0  0  0  0
  4  5  1  0  0  0  0
  4 21  1  0  0  0  0
  5  6  2  0  0  0  0
  5 22  1  0  0  0  0
  6  7  1  0  0  0  0
  6  8  1  0  0  0  0
  7 23  1  0  0  0  0
  7 24  1  0  0  0  0
  7 25  1  0  0  0  0
  8  9  2  0  0  0  0
  9 10  1  0  0  0  0
 10 11  1  0  0  0  0
 10 26  1  0  0  0  0
 11 12  2  0  0  0  0
 11 13  1  0  0  0  0
 13 14  1  0  0  0  0
 13 27  1  0  0  0  0
 14 16  1  0  0  0  0
 14 15  1  0  0  0  0
 14 28  1  0  0  0  0
 15 16  1  0  0  0  0
 15 29  1  0  0  0  0
 15 30  1  0  0  0  0
 16 17  1  0  0  0  0
 16 31  1  0  0  0  0
 17 32  1  0  0  0  0
 17 33  1  0  0  0  0
 17 34  1  0  0  0  0
M  END
> <s_m_source_file>
AV-unprocessed.smi

> <i_m_source_file_index>
2222

> <i_lp_mmshare_version>
43012

> <i_f3d_flags>
0

> <s_epik_input>
W0NIM11PYzFbY0hdW2NIXWMoW0NIM10pbmMxW05IXUMoPU8pW05IXVtDQEBIXTJbQ0gyXVtDQEhdMltDSDNd

> <s_epik_cmdline>
J2VwaWtfcHl0aG9uJywgJy1waCcsICc3LjAnLCAnLXRuJywgJzgnLCAnLW1hJywgJzIwMCcsICctbWV0YWxfYmluZGluZycsICctaW1hZScsICc8aW5maWxlLm1hZT4nLCAnLW9tYWUnLCAnPG91dGZpbGUubWFlPic=

> <r_lp_tautomer_probability>
1

> <r_epik_Ionization_Penalty>
6.59103e-05

> <r_epik_Ionization_Penalty_Charging>
0

> <r_epik_Ionization_Penalty_Neutral>
6.59103e-05

> <r_epik_State_Penalty>
-0

> <r_epik_Charging_Adjusted_Penalty>
0

> <i_epik_Tot_Q>
0

> <i_epik_Tot_abs_Q>
0

> <r_epik_Metal_State_Penalty>
-0

> <b_epik_Metal_Only>
0

> <s_lp_Force_Field>
OPLS_2005

> <r_lp_Energy>
33.3795

> <b_lp_Chiralities_Consistent>
1

> <s_lp_Variant>
AV-unprocessed.smi:2222-4

> <Gold.Version>
5.8.1

> <Gold.Id.Protein>
6NUR|6NUR_protein|mol2

> <Gold.PLP.Fitness>
40.4979

> <Gold.PLP.PLP>
-38.1110

> <Gold.PLP.part.hbond>
-1.0000

> <Gold.PLP.part.metal>
0.0000

> <Gold.PLP.part.buried>
-4.3752

> <Gold.PLP.part.nonpolar>
-32.5324

> <Gold.PLP.part.repulsive>
0.2788

> <Gold.PLP.ligand.clash>
0.0000

> <Gold.PLP.ligand.torsion>
0.3233

> <Gold.PLP.Chemscore.Hbond>
1.0000

> <Gold.PLP.Chemscore.CHOScore>
0.0000

> <Gold.PLP.Chemscore.Metal>
0.0000

> <Gold.Chemscore.Hbonds>
donor molecule, donor type, donor heavy atom, donor atom, acceptor molecule, acceptor atom, score
      L1  H    13    27       P1  8028  1.00

> <Gold.PLP.Chemscore.Internal.Correction>
0.0335

> <Gold.Rescore>
     Score         DG    S(hbond)    S(metal)    S(lipo)     H(rot)  DE(clash)    DE(int)     intcor
     13.44     -16.26       1.00        0.00      90.26       1.22       0.01       2.82       ----

> <Gold.Chemscore.Fitness>
13.4380

> <Gold.Chemscore.DG>
-16.2648

> <Gold.Chemscore.ZeroCoef>
-5.4800

> <Gold.Chemscore.Hbond>
0.9998

> <Gold.Chemscore.Metal>
0.0000

> <Gold.Chemscore.Lipo>
90.2587

> <Gold.Chemscore.Internal_Hbond>
0.0000

> <Gold.Chemscore.DEClash>
0.0088

> <Gold.Chemscore.DEInternal>
2.8179

> <Gold.Chemscore.Rot>
1.2168

> <Gold.Chemscore.Internal.Correction>
   9.000000E+99

> <Gold.Chemscore.Hbonds>
donor molecule, donor type, donor heavy atom, donor atom, acceptor molecule, acceptor atom, score
      L1  H    13    27       P1  8028  1.00

> <Gold.Chemscore.Hbond.Weighted>
-3.3395

> <Gold.Chemscore.Metal.Weighted>
-0.0000

> <Gold.Chemscore.Lipo.Weighted>
-10.5603

> <Gold.Chemscore.Internal_Hbond.Weighted>
0.0000

> <Gold.Chemscore.DEClash.Weighted>
0.0088

> <Gold.Chemscore.DEInternal.Weighted>
2.8179

> <Gold.Chemscore.Rot.Weighted>
3.1150

> <Gold.Chemscore.Internal.Correction.Weighted>
   9.000000E+99

> <Gold.Protein.RotatedTorsions>
[ 6907 6896 6895 6894 ] final    3.25 input  -60.11 | X-H torsion
[ 7974 7965 7964 7962 ] final  -70.22 input  175.53 | X-H torsion
[ 8008 7997 7996 7995 ] final   70.35 input   59.86 | X-H torsion
[ 10167 10162 10161 10158 ] final  -85.23 input  -65.29 | X-H torsion
[ 10718 10713 10712 10709 ] final  -52.23 input   66.30 | X-H torsion
[ 10763 10752 10751 10750 ] final  103.21 input  -60.55 | X-H torsion
[ 11005 11000 10999 10996 ] final -113.22 input  -57.11 | X-H torsion

> <Gold.Protein.ActiveResidues>
 VAL166  LYS551  ARG553  GLY616  TRP617  ASP618  TYR619  PRO620  LYS621  CYS622 
 ASP623  PHE694  ASN695  SER759  ASP760  ASP761  ALA762  ILE779  LEU786  VAL792 
 PHE793  MET794  SER795  GLU796  ALA797  LYS798  CYS799  TRP800  GLU811  SER814 

> <Gold.Protein.RotatedAtoms>
  151.6221  135.1031  160.0103 H   0  0  0  0  0  0  0  0  0  0  0  0  # atno 6907 bound_to 6896
  152.4152  133.7023  159.6441 H   0  0  0  0  0  0  0  0  0  0  0  0  # atno 6908 bound_to 6896
  150.8041  133.8470  159.3235 H   0  0  0  0  0  0  0  0  0  0  0  0  # atno 6909 bound_to 6896
  145.6937  140.9143  143.0768 H   0  0  0  0  0  0  0  0  0  0  0  0  # atno 7974 bound_to 7965
  155.7374  140.3491  155.5088 H   0  0  0  0  0  0  0  0  0  0  0  0  # atno 8008 bound_to 7997
  155.9126  140.1053  157.1289 H   0  0  0  0  0  0  0  0  0  0  0  0  # atno 8009 bound_to 7997
  154.4058  140.1265  156.4563 H   0  0  0  0  0  0  0  0  0  0  0  0  # atno 8010 bound_to 7997
  140.4057  143.2643  151.9083 H   0  0  0  0  0  0  0  0  0  0  0  0  # atno 10167 bound_to 10162
  156.1640  130.4149  149.9749 H   0  0  0  0  0  0  0  0  0  0  0  0  # atno 10718 bound_to 10713
  153.3496  135.3984  155.1636 H   0  0  0  0  0  0  0  0  0  0  0  0  # atno 10763 bound_to 10752
  154.8660  135.3653  154.5239 H   0  0  0  0  0  0  0  0  0  0  0  0  # atno 10764 bound_to 10752
  153.5690  135.7079  153.5573 H   0  0  0  0  0  0  0  0  0  0  0  0  # atno 10765 bound_to 10752
  141.0627  133.9509  157.2636 H   0  0  0  0  0  0  0  0  0  0  0  0  # atno 11005 bound_to 11000
  144.6989  139.8856  143.7450 LP  0  0  0  0  0  0  0  0  0  0  0  0  # atno 17320 bound_to 7965
  146.0859  139.3847  143.0436 LP  0  0  0  0  0  0  0  0  0  0  0  0  # atno 17321 bound_to 7965
  139.4783  144.5588  151.8272 LP  0  0  0  0  0  0  0  0  0  0  0  0  # atno 17342 bound_to 10162
  140.4692  144.1612  150.5915 LP  0  0  0  0  0  0  0  0  0  0  0  0  # atno 17343 bound_to 10162
  156.7569  130.9136  151.3640 LP  0  0  0  0  0  0  0  0  0  0  0  0  # atno 17370 bound_to 10713
  157.6754  130.9089  150.0138 LP  0  0  0  0  0  0  0  0  0  0  0  0  # atno 17371 bound_to 10713
  139.9448  135.0186  156.8818 LP  0  0  0  0  0  0  0  0  0  0  0  0  # atno 17394 bound_to 11000
  140.5835  134.0329  155.7473 LP  0  0  0  0  0  0  0  0  0  0  0  0  # atno 17395 bound_to 11000

$$$$
