#       Name:                AV-unprocessed.smi:3018
#       Creating user name   scv26
#       Creation time:       Fri Mar 27 16:42:13 2020


#       File generated by GOLD software.
#

@<TRIPOS>MOLECULE
AV-unprocessed.smi:3018
    52    53     1
SMALL
NO_CHARGES


@<TRIPOS>ATOM
      1 ****        -3.4086  -1.8172  -1.6886 C.3            1 S1                 0.0000
      2 ****        -1.8769  -1.8396  -1.7679 C.3            1 S1                 0.0000
      3 ****        -1.2166  -0.8527  -0.7876 C.3            1 S1                 0.0000
      4 ****        -1.4694  -1.3213   0.5358 O.3            1 S1                 0.0000
      5 ****        -1.2912  -0.3804   1.5913 C.3            1 S1                 0.0000
      6 ****        -1.0539  -1.1801   2.8839 C.3            1 S1                 0.0000
      7 ****        -0.9362  -0.2524   4.1039 C.3            1 S1                 0.0000
      8 ****        -2.1759   0.6460   4.2397 C.3            1 S1                 0.0000
      9 ****        -2.4291   1.4429   2.9501 C.3            1 S1                 0.0000
     10 ****        -2.5410   0.5130   1.7308 C.3            1 S1                 0.0000
     11 ****         0.2994  -0.7644  -1.0219 C.2            1 S1                 0.0000
     12 ****         0.9869  -1.7858  -1.0274 O.2            1 S1                 0.0000
     13 ****         0.8056   0.4657  -1.1995 N.am           1 S1                 0.0000
     14 ****         2.2133   0.7685  -1.4281 C.3            1 S1                 0.0000
     15 ****         2.6023   0.5563  -2.9058 C.3            1 S1                 0.0000
     16 ****         4.0418   0.9093  -3.2535 C.2            1 S1                 0.0000
     17 ****         4.5867   0.9442  -4.4142 N.2            1 S1                 0.0000
     18 ****         5.9451   1.3328  -4.1751 N.pl3          1 S1                -1.0000
     19 ****         6.0810   1.4967  -2.8368 C.2            1 S1                 0.0000
     20 ****         7.0793   1.8245  -2.1995 O.2            1 S1                 0.0000
     21 ****         4.9146   1.2400  -2.2545 N.am           1 S1                 0.0000
     22 ****         4.7044   1.2750  -1.2683 H              1 S1                 0.0000
     23 ****        -3.8444  -2.5173  -2.4016 H              1 S1                 0.0000
     24 ****        -3.8002  -0.8250  -1.9144 H              1 S1                 0.0000
     25 ****        -3.7573  -2.0967  -0.6940 H              1 S1                 0.0000
     26 ****        -1.5218  -2.8531  -1.5753 H              1 S1                 0.0000
     27 ****        -1.5780  -1.5990  -2.7893 H              1 S1                 0.0000
     28 ****        -1.6637   0.1310  -0.9370 H              1 S1                 0.0000
     29 ****        -0.4145   0.2443   1.4155 H              1 S1                 0.0000
     30 ****        -1.8749  -1.8816   3.0385 H              1 S1                 0.0000
     31 ****        -0.1488  -1.7807   2.7871 H              1 S1                 0.0000
     32 ****        -0.8049  -0.8445   5.0099 H              1 S1                 0.0000
     33 ****        -0.0436   0.3672   4.0073 H              1 S1                 0.0000
     34 ****        -3.0484   0.0319   4.4663 H              1 S1                 0.0000
     35 ****        -2.0511   1.3283   5.0810 H              1 S1                 0.0000
     36 ****        -3.3397   2.0338   3.0518 H              1 S1                 0.0000
     37 ****        -1.6156   2.1524   2.7937 H              1 S1                 0.0000
     38 ****        -2.6881   1.1131   0.8334 H              1 S1                 0.0000
     39 ****        -3.4285  -0.1132   1.8308 H              1 S1                 0.0000
     40 ****         0.1687   1.2487  -1.1753 H              1 S1                 0.0000
     41 ****         2.3780   1.8078  -1.1415 H              1 S1                 0.0000
     42 ****         2.8342   0.1587  -0.7691 H              1 S1                 0.0000
     43 ****         2.4329  -0.4835  -3.1873 H              1 S1                 0.0000
     44 ****         1.9468   1.1551  -3.5390 H              1 S1                 0.0000
     45 ****        -0.8539  -2.0904   0.7080 LP             1 S1                 0.0000
     46 ****        -2.4170  -1.6388   0.5693 LP             1 S1                 0.0000
     47 ****         0.5590  -2.6773  -0.8790 LP             1 S1                 0.0000
     48 ****         1.9732  -1.7238  -1.1802 LP             1 S1                 0.0000
     49 ****         4.1570   0.7438  -5.2946 LP             1 S1                 0.0000
     50 ****         6.6578   1.4591  -4.8651 LP             1 S1                 0.0000
     51 ****         7.9387   2.0090  -2.6764 LP             1 S1                 0.0000
     52 ****         7.0323   1.9068  -1.2040 LP             1 S1                 0.0000
@<TRIPOS>BOND
    1    1    2 1     
    2    1   23 1     
    3    1   24 1     
    4    1   25 1     
    5    2    3 1     
    6    2   26 1     
    7    2   27 1     
    8    3    4 1     
    9    3   11 1     
   10    3   28 1     
   11    4    5 1     
   12    5   10 1     
   13    5    6 1     
   14    5   29 1     
   15    6    7 1     
   16    6   30 1     
   17    6   31 1     
   18    7    8 1     
   19    7   32 1     
   20    7   33 1     
   21    8    9 1     
   22    8   34 1     
   23    8   35 1     
   24    9   10 1     
   25    9   36 1     
   26    9   37 1     
   27   10   38 1     
   28   10   39 1     
   29   11   12 2     
   30   11   13 am    
   31   13   14 1     
   32   13   40 1     
   33   14   15 1     
   34   14   41 1     
   35   14   42 1     
   36   15   16 1     
   37   15   43 1     
   38   15   44 1     
   39   16   21 1     
   40   16   17 2     
   41   17   18 1     
   42   18   19 1     
   43   19   20 2     
   44   19   21 am    
   45   21   22 1     
   46    4   45 1     
   47    4   46 1     
   48   12   47 1     
   49   12   48 1     
   50   17   49 1     
   51   18   50 1     
   52   20   51 1     
   53   20   52 1     
@<TRIPOS>SUBSTRUCTURE
      1 S1             1
@<TRIPOS>SET
LONE_PAIRS      STATIC     ATOMS    <user>   **** ""
8 45 46 47 48 49 50 51 52
DONOR_HYDROGENS      STATIC     ATOMS    <user>   **** ""
2 40 22
ATOM$BLUE        STATIC     ATOMS    COLORGROUP SYSTEM
8 45 46 47 48 49 50 51 52
ATOM$RED        STATIC     ATOMS    COLORGROUP SYSTEM
2 40 22
