#       Name:                AV-unprocessed.smi:39
#       Creating user name   scv26
#       Creation time:       Thu Mar 26 16:19:35 2020


#       File generated by GOLD software.
#

@<TRIPOS>MOLECULE
AV-unprocessed.smi:39
    42    43     1
SMALL
NO_CHARGES


@<TRIPOS>ATOM
      1 ****        -3.7101   1.9026   0.1147 C.3            1 S1                 0.0000
      2 ****        -3.0758   0.5216   0.1279 C.2            1 S1                 0.0000
      3 ****        -1.7312   0.3385   0.1688 C.2            1 S1                 0.0000
      4 ****        -1.1236  -0.9097   0.1822 N.am           1 S1                 0.0000
      5 ****         0.3802  -1.0571   0.2238 C.3            1 S1                 0.0000
      6 ****         0.9733  -0.9782  -1.1918 C.3            1 S1                 0.0000
      7 ****         2.2678  -0.2165  -0.9631 C.3            1 S1                 0.0000
      8 ****         3.3311  -1.1479  -0.5648 N.2            1 S1                 0.0000
      9 ****         4.4791  -0.8753  -0.9405 N.1            1 S1                 1.0000
     10 ****         5.5199  -0.5137  -1.2255 N.1            1 S1                -1.0000
     11 ****         1.8071   0.7394   0.1527 C.3            1 S1                 0.0000
     12 ****         2.8420   1.5365   0.9734 C.3            1 S1                 0.0000
     13 ****         3.7409   0.7152   1.6880 O.3            1 S1                 0.0000
     14 ****         0.9262  -0.0137   0.9781 O.3            1 S1                 0.0000
     15 ****        -1.9250  -2.0684   0.1223 C.2            1 S1                 0.0000
     16 ****        -1.4575  -3.2061   0.0958 O.2            1 S1                 0.0000
     17 ****        -3.3055  -1.8814   0.0855 N.am           1 S1                 0.0000
     18 ****        -3.9594  -0.6471   0.0895 C.2            1 S1                 0.0000
     19 ****        -5.1884  -0.6106   0.0580 O.2            1 S1                 0.0000
     20 ****         0.6099  -1.9895   0.7425 H              1 S1                 0.0000
     21 ****         2.5439   0.3373  -1.8630 H              1 S1                 0.0000
     22 ****         1.1801   1.4888  -0.3333 H              1 S1                 0.0000
     23 ****        -3.8827  -2.7090   0.0492 H              1 S1                 0.0000
     24 ****        -2.9597   2.6931   0.1419 H              1 S1                 0.0000
     25 ****        -4.3616   2.0306   0.9799 H              1 S1                 0.0000
     26 ****        -4.3071   2.0394  -0.7876 H              1 S1                 0.0000
     27 ****        -1.1058   1.2179   0.1877 H              1 S1                 0.0000
     28 ****         1.1007  -1.9715  -1.6242 H              1 S1                 0.0000
     29 ****         0.3088  -0.4005  -1.8366 H              1 S1                 0.0000
     30 ****         3.4218   2.1789   0.3104 H              1 S1                 0.0000
     31 ****         2.3316   2.1897   1.6814 H              1 S1                 0.0000
     32 ****         4.3304   1.2682   2.1776 H              1 S1                 0.0000
     33 ****         3.1376  -1.9620  -0.0173 LP             1 S1                 0.0000
     34 ****         6.4344  -0.1960  -1.4759 LP             1 S1                 0.0000
     35 ****         4.2621   0.1500   1.0485 LP             1 S1                 0.0000
     36 ****         3.2324   0.1257   2.3157 LP             1 S1                 0.0000
     37 ****         1.4325  -0.3897   1.7541 LP             1 S1                 0.0000
     38 ****         0.1928   0.5775   1.3135 LP             1 S1                 0.0000
     39 ****        -0.4668  -3.3402   0.1168 LP             1 S1                 0.0000
     40 ****        -2.0683  -3.9968   0.0533 LP             1 S1                 0.0000
     41 ****        -5.6627   0.2698   0.0572 LP             1 S1                 0.0000
     42 ****        -5.7135  -1.4614   0.0331 LP             1 S1                 0.0000
@<TRIPOS>BOND
    1    1    2 1     
    2    1   24 1     
    3    1   25 1     
    4    1   26 1     
    5    2   18 1     
    6    2    3 2     
    7    3    4 1     
    8    3   27 1     
    9    4    5 1     
   10    4   15 1     
   11    5   20 1     
   12    5   14 1     
   13    5    6 1     
   14    6    7 1     
   15    6   28 1     
   16    6   29 1     
   17    7   21 1     
   18    7    8 1     
   19    7   11 1     
   20    8    9 2     
   21    9   10 2     
   22   11   22 1     
   23   11   12 1     
   24   11   14 1     
   25   12   13 1     
   26   12   30 1     
   27   12   31 1     
   28   13   32 1     
   29   15   16 2     
   30   15   17 1     
   31   17   23 1     
   32   17   18 1     
   33   18   19 2     
   34    8   33 1     
   35   10   34 1     
   36   13   35 1     
   37   13   36 1     
   38   14   37 1     
   39   14   38 1     
   40   16   39 1     
   41   16   40 1     
   42   19   41 1     
   43   19   42 1     
@<TRIPOS>SUBSTRUCTURE
      1 S1             1
@<TRIPOS>SET
LONE_PAIRS      STATIC     ATOMS    <user>   **** ""
10 33 34 35 36 37 38 39 40 41 42
DONOR_HYDROGENS      STATIC     ATOMS    <user>   **** ""
2 32 23
ATOM$BLUE        STATIC     ATOMS    COLORGROUP SYSTEM
10 33 34 35 36 37 38 39 40 41 42
ATOM$RED        STATIC     ATOMS    COLORGROUP SYSTEM
2 32 23
