AV-unprocessed.smi:3031|AV-procd|sdf|11545|dock6
  -GOLD-   2272016503D 1   1.00000     0.00000
 Structure written by MMmdl.
 47 48  0  0  0  0  0  0  0  0  2 V2000
  150.8682  142.4055  159.0174 C   0  0  0  0  0  0  0  0  0  0  0  0
  150.6332  141.8746  157.6328 C   0  0  0  0  0  0  0  0  0  0  0  0
  151.3899  140.8901  156.9361 C   0  0  0  0  0  0  0  0  0  0  0  0
  150.9165  140.6377  155.7267 N   0  0  0  0  0  0  0  0  0  0  0  0
  149.8449  141.4496  155.6081 N   0  0  0  0  0  0  0  0  0  0  0  0
  149.0592  141.4338  154.3866 C   0  0  0  0  0  0  0  0  0  0  0  0
  148.2081  140.1552  154.2535 C   0  0  2  0  0  0  0  0  0  0  0  0
  149.0087  138.9264  154.7207 C   0  0  0  0  0  0  0  0  0  0  0  0
  147.7445  140.0031  152.8695 N   0  0  0  0  0  0  0  0  0  0  0  0
  146.5567  139.1690  152.6906 C   0  0  0  0  0  0  0  0  0  0  0  0
  146.8951  137.8827  151.9194 C   0  0  2  0  0  0  0  0  0  0  0  0
  147.0435  138.2281  150.5568 O   0  0  0  0  0  0  0  0  0  0  0  0
  145.7886  136.8117  152.0262 C   0  0  0  0  0  0  0  0  0  0  0  0
  146.3391  135.4333  152.0707 N   0  3  0  0  0  0  0  0  0  0  0  0
  146.2250  134.7918  153.4044 C   0  0  0  0  0  0  0  0  0  0  0  0
  146.8551  133.3890  153.3809 C   0  0  0  0  0  0  0  0  0  0  0  0
  146.2309  132.6020  152.3742 O   0  0  0  0  0  0  0  0  0  0  0  0
  146.4070  133.1600  151.0779 C   0  0  0  0  0  0  0  0  0  0  0  0
  145.7623  134.5556  151.0246 C   0  0  0  0  0  0  0  0  0  0  0  0
  149.6519  142.2087  156.7427 C   0  0  0  0  0  0  0  0  0  0  0  0
  151.9019  142.7225  159.1565 H   0  0  0  0  0  0  0  0  0  0  0  0
  150.6574  141.6520  159.7765 H   0  0  0  0  0  0  0  0  0  0  0  0
  150.2364  143.2671  159.2351 H   0  0  0  0  0  0  0  0  0  0  0  0
  152.2639  140.3526  157.2731 H   0  0  0  0  0  0  0  0  0  0  0  0
  148.4279  142.3231  154.3637 H   0  0  0  0  0  0  0  0  0  0  0  0
  149.7463  141.5202  153.5434 H   0  0  0  0  0  0  0  0  0  0  0  0
  147.3431  140.2589  154.9101 H   0  0  0  0  0  0  0  0  0  0  0  0
  149.4007  139.0788  155.7268 H   0  0  0  0  0  0  0  0  0  0  0  0
  149.8564  138.7298  154.0633 H   0  0  0  0  0  0  0  0  0  0  0  0
  148.3940  138.0273  154.7569 H   0  0  0  0  0  0  0  0  0  0  0  0
  148.5022  139.6459  152.2968 H   0  0  0  0  0  0  0  0  0  0  0  0
  146.1145  138.9101  153.6525 H   0  0  0  0  0  0  0  0  0  0  0  0
  145.8023  139.7323  152.1395 H   0  0  0  0  0  0  0  0  0  0  0  0
  147.8514  137.4996  152.2754 H   0  0  0  0  0  0  0  0  0  0  0  0
  146.2371  138.0309  150.1046 H   0  0  0  0  0  0  0  0  0  0  0  0
  145.1730  136.9730  152.9124 H   0  0  0  0  0  0  0  0  0  0  0  0
  145.1174  136.9169  151.1719 H   0  0  0  0  0  0  0  0  0  0  0  0
  146.7193  135.3954  154.1646 H   0  0  0  0  0  0  0  0  0  0  0  0
  145.1738  134.7200  153.6886 H   0  0  0  0  0  0  0  0  0  0  0  0
  147.9300  133.4468  153.2015 H   0  0  0  0  0  0  0  0  0  0  0  0
  146.7192  132.8999  154.3458 H   0  0  0  0  0  0  0  0  0  0  0  0
  147.4688  133.2107  150.8310 H   0  0  0  0  0  0  0  0  0  0  0  0
  145.9407  132.5027  150.3438 H   0  0  0  0  0  0  0  0  0  0  0  0
  144.6833  134.4757  151.1674 H   0  0  0  0  0  0  0  0  0  0  0  0
  145.9252  134.9952  150.0398 H   0  0  0  0  0  0  0  0  0  0  0  0
  148.8370  142.9130  156.8237 H   0  0  0  0  0  0  0  0  0  0  0  0
  147.3244  135.5136  151.8617 H   0  0  0  0  0  0  0  0  0  0  0  0
  1  2  1  0  0  0  0
  1 21  1  0  0  0  0
  1 22  1  0  0  0  0
  1 23  1  0  0  0  0
  2 20  2  0  0  0  0
  2  3  1  0  0  0  0
  3  4  2  0  0  0  0
  3 24  1  0  0  0  0
  4  5  1  0  0  0  0
  5  6  1  0  0  0  0
  5 20  1  0  0  0  0
  6  7  1  0  0  0  0
  6 25  1  0  0  0  0
  6 26  1  0  0  0  0
  7  8  1  0  0  0  0
  7  9  1  0  0  0  0
  7 27  1  0  0  0  0
  8 28  1  0  0  0  0
  8 29  1  0  0  0  0
  8 30  1  0  0  0  0
  9 10  1  0  0  0  0
  9 31  1  0  0  0  0
 10 11  1  0  0  0  0
 10 32  1  0  0  0  0
 10 33  1  0  0  0  0
 11 12  1  0  0  0  0
 11 13  1  0  0  0  0
 11 34  1  0  0  0  0
 12 35  1  0  0  0  0
 13 14  1  0  0  0  0
 13 36  1  0  0  0  0
 13 37  1  0  0  0  0
 14 19  1  0  0  0  0
 14 15  1  0  0  0  0
 14 47  1  0  0  0  0
 15 16  1  0  0  0  0
 15 38  1  0  0  0  0
 15 39  1  0  0  0  0
 16 17  1  0  0  0  0
 16 40  1  0  0  0  0
 16 41  1  0  0  0  0
 17 18  1  0  0  0  0
 18 19  1  0  0  0  0
 18 42  1  0  0  0  0
 18 43  1  0  0  0  0
 19 44  1  0  0  0  0
 19 45  1  0  0  0  0
 20 46  1  0  0  0  0
M  CHG  1  14   1
M  END
> <s_m_source_file>
AV-unprocessed.smi

> <i_m_source_file_index>
3031

> <i_lp_mmshare_version>
43012

> <i_f3d_flags>
0

> <s_epik_input>
W0NIM11jMVtjSF1ubihbY0hdMSlbQ0gyXVtDQEhdKFtDSDNdKVtOSF1bQ0gyXVtDQEhdKFtPSF0pW0NIMl1OMltDSDJdW0NIMl1PW0NIMl1bQ0gyXTI=

> <s_epik_cmdline>
J2VwaWtfcHl0aG9uJywgJy1waCcsICc3LjAnLCAnLXRuJywgJzgnLCAnLW1hJywgJzIwMCcsICctbWV0YWxfYmluZGluZycsICctaW1hZScsICc8aW5maWxlLm1hZT4nLCAnLW9tYWUnLCAnPG91dGZpbGUubWFlPic=

> <r_epik_Ionization_Penalty>
0.467051

> <r_epik_Ionization_Penalty_Charging>
0.202493

> <r_epik_Ionization_Penalty_Neutral>
0.264558

> <r_epik_State_Penalty>
1.34287

> <r_epik_Charging_Adjusted_Penalty>
1.54537

> <i_epik_Tot_Q>
1

> <i_epik_Tot_abs_Q>
1

> <r_epik_Metal_State_Penalty>
1.34281

> <b_epik_Metal_Only>
0

> <s_lp_Force_Field>
OPLS_2005

> <r_lp_Energy>
23.7878

> <b_lp_Chiralities_Consistent>
1

> <s_lp_Variant>
AV-unprocessed.smi:3031-5

> <Gold.Version>
5.8.1

> <Gold.Id.Protein>
6NUR|6NUR_protein|mol2

> <Gold.PLP.Fitness>
52.6954

> <Gold.PLP.PLP>
-37.2373

> <Gold.PLP.part.hbond>
-5.0000

> <Gold.PLP.part.metal>
0.0000

> <Gold.PLP.part.buried>
-0.0648

> <Gold.PLP.part.nonpolar>
-31.5185

> <Gold.PLP.part.repulsive>
0.1924

> <Gold.PLP.ligand.clash>
0.0000

> <Gold.PLP.ligand.torsion>
2.1779

> <Gold.PLP.Chemscore.Hbond>
5.7248

> <Gold.PLP.Chemscore.CHOScore>
0.8205

> <Gold.PLP.Chemscore.Metal>
0.0000

> <Gold.Chemscore.Hbonds>
donor molecule, donor type, donor heavy atom, donor atom, acceptor molecule, acceptor atom, score
      L1  H     9    31       P1  7957  0.90
      L1  H    12    35       P1 10171  0.02
      L1  H    14    47       P1  7948  2.00
      P1  H  7954  7966       L1    12  0.54
      P1  H  7989  7998       L1     4  0.14
      L1  C    20    46       P1  8028  0.80

> <Gold.PLP.Chemscore.Internal.Correction>
0.1779

> <Gold.Rescore>
     Score         DG    S(hbond)    S(metal)    S(lipo)     H(rot)  DE(clash)    DE(int)     intcor
     15.98     -20.84       3.67        0.00      84.42       2.65       0.80       4.06       ----

> <Gold.Chemscore.Fitness>
15.9794

> <Gold.Chemscore.DG>
-20.8409

> <Gold.Chemscore.ZeroCoef>
-5.4800

> <Gold.Chemscore.Hbond>
3.6744

> <Gold.Chemscore.Metal>
0.0000

> <Gold.Chemscore.Lipo>
84.4244

> <Gold.Chemscore.Internal_Hbond>
0.0000

> <Gold.Chemscore.DEClash>
0.8008

> <Gold.Chemscore.DEInternal>
4.0607

> <Gold.Chemscore.Rot>
2.6521

> <Gold.Chemscore.Internal.Correction>
   9.000000E+99

> <Gold.Chemscore.Hbonds>
donor molecule, donor type, donor heavy atom, donor atom, acceptor molecule, acceptor atom, score
      L1  H     9    31       P1  7957  0.87
      L1  H    12    35       P1 10171  0.07
      L1  H    14    47       P1  7948  0.99
      P1  H  7954  7966       L1    12  0.44
      P1  H  7989  7998       L1     4  0.02

> <Gold.Chemscore.Hbond.Weighted>
-12.2726

> <Gold.Chemscore.Metal.Weighted>
-0.0000

> <Gold.Chemscore.Lipo.Weighted>
-9.8777

> <Gold.Chemscore.Internal_Hbond.Weighted>
0.0000

> <Gold.Chemscore.DEClash.Weighted>
0.8008

> <Gold.Chemscore.DEInternal.Weighted>
4.0607

> <Gold.Chemscore.Rot.Weighted>
6.7894

> <Gold.Chemscore.Internal.Correction.Weighted>
   9.000000E+99

> <Gold.Protein.RotatedTorsions>
[ 6907 6896 6895 6894 ] final -112.32 input  -60.11 | X-H torsion
[ 7974 7965 7964 7962 ] final   25.68 input  175.53 | X-H torsion
[ 8008 7997 7996 7995 ] final    8.80 input   59.86 | X-H torsion
[ 10167 10162 10161 10158 ] final  -25.79 input  -65.29 | X-H torsion
[ 10718 10713 10712 10709 ] final   36.00 input   66.30 | X-H torsion
[ 10763 10752 10751 10750 ] final  -91.38 input  -60.55 | X-H torsion
[ 11005 11000 10999 10996 ] final -139.82 input  -57.11 | X-H torsion

> <Gold.Protein.ActiveResidues>
 VAL166  LYS551  ARG553  GLY616  TRP617  ASP618  TYR619  PRO620  LYS621  CYS622 
 ASP623  PHE694  ASN695  SER759  ASP760  ASP761  ALA762  ILE779  LEU786  VAL792 
 PHE793  MET794  SER795  GLU796  ALA797  LYS798  CYS799  TRP800  GLU811  SER814 

> <Gold.Protein.RotatedAtoms>
  150.7751  133.9106  159.3368 H   0  0  0  0  0  0  0  0  0  0  0  0  # atno 6907 bound_to 6896
  151.6983  135.0932  160.0255 H   0  0  0  0  0  0  0  0  0  0  0  0  # atno 6908 bound_to 6896
  152.3783  133.6473  159.6177 H   0  0  0  0  0  0  0  0  0  0  0  0  # atno 6909 bound_to 6896
  146.1876  139.7432  142.8855 H   0  0  0  0  0  0  0  0  0  0  0  0  # atno 7974 bound_to 7965
  154.7716  140.2803  155.6134 H   0  0  0  0  0  0  0  0  0  0  0  0  # atno 8008 bound_to 7997
  156.2934  140.2640  156.2447 H   0  0  0  0  0  0  0  0  0  0  0  0  # atno 8009 bound_to 7997
  154.9893  140.0374  157.2302 H   0  0  0  0  0  0  0  0  0  0  0  0  # atno 8010 bound_to 7997
  140.7285  143.4234  151.0915 H   0  0  0  0  0  0  0  0  0  0  0  0  # atno 10167 bound_to 10162
  157.3296  130.7491  149.6838 H   0  0  0  0  0  0  0  0  0  0  0  0  # atno 10718 bound_to 10713
  154.6754  135.5270  153.8193 H   0  0  0  0  0  0  0  0  0  0  0  0  # atno 10763 bound_to 10752
  153.0529  135.6539  154.0659 H   0  0  0  0  0  0  0  0  0  0  0  0  # atno 10764 bound_to 10752
  154.0553  135.2966  155.3313 H   0  0  0  0  0  0  0  0  0  0  0  0  # atno 10765 bound_to 10752
  140.8483  134.2317  157.4774 H   0  0  0  0  0  0  0  0  0  0  0  0  # atno 11005 bound_to 11000
  145.3891  141.0370  143.3134 LP  0  0  0  0  0  0  0  0  0  0  0  0  # atno 17320 bound_to 7965
  144.8426  139.5447  143.6893 LP  0  0  0  0  0  0  0  0  0  0  0  0  # atno 17321 bound_to 7965
  139.7883  143.8256  152.3148 LP  0  0  0  0  0  0  0  0  0  0  0  0  # atno 17342 bound_to 10162
  139.8231  144.7287  150.9547 LP  0  0  0  0  0  0  0  0  0  0  0  0  # atno 17343 bound_to 10162
  155.9694  130.4199  150.4397 LP  0  0  0  0  0  0  0  0  0  0  0  0  # atno 17370 bound_to 10713
  157.2427  131.0529  151.2427 LP  0  0  0  0  0  0  0  0  0  0  0  0  # atno 17371 bound_to 10713
  139.8704  134.9670  156.4583 LP  0  0  0  0  0  0  0  0  0  0  0  0  # atno 17394 bound_to 11000
  140.8819  133.7912  155.9476 LP  0  0  0  0  0  0  0  0  0  0  0  0  # atno 17395 bound_to 11000

$$$$
