#       Name:                AV-unprocessed.smi:2528
#       Creating user name   scv26
#       Creation time:       Fri Mar 27 13:59:52 2020


#       File generated by GOLD software.
#

@<TRIPOS>MOLECULE
AV-unprocessed.smi:2528
    49    51     1
SMALL
NO_CHARGES


@<TRIPOS>ATOM
      1 ****        -1.4660   2.7246   0.5375 O.2            1 S1                 0.0000
      2 ****        -1.9065   1.8148  -0.1658 C.2            1 S1                 0.0000
      3 ****        -1.1314   0.8800  -0.7339 N.am           1 S1                 0.0000
      4 ****         0.3182   0.7968  -0.5927 C.3            1 S1                 0.0000
      5 ****         0.7240   0.1209   0.7351 C.3            1 S1                 0.0000
      6 ****         2.2495   0.0613   0.9423 C.3            1 S1                 0.0000
      7 ****         2.8998  -0.9187   0.0805 N.3            1 S1                 0.0000
      8 ****         4.3402  -0.9617   0.3285 C.3            1 S1                 0.0000
      9 ****         5.0647  -1.9624  -0.5851 C.3            1 S1                 0.0000
     10 ****         4.4583  -3.3633  -0.4241 C.3            1 S1                 0.0000
     11 ****         2.9381  -3.3048  -0.6366 C.3            1 S1                 0.0000
     12 ****         2.2917  -2.2383   0.2727 C.3            1 S1                 0.0000
     13 ****         0.7691  -2.1840   0.0379 C.3            1 S1                 0.0000
     14 ****         0.1709  -1.1904   0.8662 O.3            1 S1                 0.0000
     15 ****        -3.2030   1.6188  -0.4637 N.am           1 S1                 0.0000
     16 ****        -4.3232   2.3952  -0.0630 C.ar           1 S1                 0.0000
     17 ****        -5.5740   1.9248  -0.5236 C.ar           1 S1                 0.0000
     18 ****        -6.7469   2.6255  -0.1813 C.ar           1 S1                 0.0000
     19 ****        -6.6390   3.7809   0.6130 C.ar           1 S1                 0.0000
     20 ****        -5.3563   4.1814   1.0297 C.ar           1 S1                 0.0000
     21 ****        -4.2311   3.5113   0.7030 N.ar           1 S1                 0.0000
     22 ****        -1.5747   0.1665  -1.2933 H              1 S1                 0.0000
     23 ****         0.7151   0.2510  -1.4480 H              1 S1                 0.0000
     24 ****         0.7518   1.7967  -0.6510 H              1 S1                 0.0000
     25 ****         0.3078   0.7151   1.5494 H              1 S1                 0.0000
     26 ****         2.6804   1.0492   0.7751 H              1 S1                 0.0000
     27 ****         2.4499  -0.1866   1.9859 H              1 S1                 0.0000
     28 ****         4.7671   0.0305   0.1779 H              1 S1                 0.0000
     29 ****         4.5286  -1.2230   1.3710 H              1 S1                 0.0000
     30 ****         4.9782  -1.6399  -1.6235 H              1 S1                 0.0000
     31 ****         6.1294  -1.9836  -0.3511 H              1 S1                 0.0000
     32 ****         4.9142  -4.0587  -1.1293 H              1 S1                 0.0000
     33 ****         4.6740  -3.7428   0.5754 H              1 S1                 0.0000
     34 ****         2.7272  -3.0752  -1.6821 H              1 S1                 0.0000
     35 ****         2.5013  -4.2843  -0.4399 H              1 S1                 0.0000
     36 ****         2.4526  -2.5438   1.3081 H              1 S1                 0.0000
     37 ****         0.5419  -1.9857  -1.0098 H              1 S1                 0.0000
     38 ****         0.3161  -3.1466   0.2761 H              1 S1                 0.0000
     39 ****        -3.4128   0.8219  -1.0462 H              1 S1                 0.0000
     40 ****        -5.6387   1.0351  -1.1333 H              1 S1                 0.0000
     41 ****        -7.7121   2.2818  -0.5229 H              1 S1                 0.0000
     42 ****        -7.5153   4.3456   0.8955 H              1 S1                 0.0000
     43 ****        -5.2294   5.0628   1.6407 H              1 S1                 0.0000
     44 ****        -0.4833   2.7926   0.7095 LP             1 S1                 0.0000
     45 ****        -2.0910   3.3955   0.9365 LP             1 S1                 0.0000
     46 ****         2.7672  -0.6436  -0.8718 LP             1 S1                 0.0000
     47 ****        -0.8014  -1.1408   0.6377 LP             1 S1                 0.0000
     48 ****         0.2753  -1.4769   1.8185 LP             1 S1                 0.0000
     49 ****        -3.3398   3.8338   1.0218 LP             1 S1                 0.0000
@<TRIPOS>BOND
    1    1    2 2     
    2    2    3 am    
    3    2   15 am    
    4    3    4 1     
    5    3   22 1     
    6    4    5 1     
    7    4   23 1     
    8    4   24 1     
    9    5   14 1     
   10    5    6 1     
   11    5   25 1     
   12    6    7 1     
   13    6   26 1     
   14    6   27 1     
   15    7   12 1     
   16    7    8 1     
   17    8    9 1     
   18    8   28 1     
   19    8   29 1     
   20    9   10 1     
   21    9   30 1     
   22    9   31 1     
   23   10   11 1     
   24   10   32 1     
   25   10   33 1     
   26   11   12 1     
   27   11   34 1     
   28   11   35 1     
   29   12   13 1     
   30   12   36 1     
   31   13   14 1     
   32   13   37 1     
   33   13   38 1     
   34   15   16 1     
   35   15   39 1     
   36   16   21 ar    
   37   16   17 ar    
   38   17   18 ar    
   39   17   40 1     
   40   18   19 ar    
   41   18   41 1     
   42   19   20 ar    
   43   19   42 1     
   44   20   21 ar    
   45   20   43 1     
   46    1   44 1     
   47    1   45 1     
   48    7   46 1     
   49   14   47 1     
   50   14   48 1     
   51   21   49 1     
@<TRIPOS>SUBSTRUCTURE
      1 S1             1
@<TRIPOS>SET
LONE_PAIRS      STATIC     ATOMS    <user>   **** ""
6 44 45 46 47 48 49
DONOR_HYDROGENS      STATIC     ATOMS    <user>   **** ""
2 22 39
ATOM$BLUE        STATIC     ATOMS    COLORGROUP SYSTEM
6 44 45 46 47 48 49
ATOM$RED        STATIC     ATOMS    COLORGROUP SYSTEM
2 22 39
