AV-unprocessed.smi:2559|AV-procd|sdf|10036|dock1
  -GOLD-   2272014 83D 1   1.00000     0.00000
 Structure written by MMmdl.
 43 45  0  0  0  0  0  0  0  0  2 V2000
  154.3664  137.3089  158.1169 C   0  0  0  0  0  0  0  0  0  0  0  0
  152.9993  137.5442  157.6427 N   0  0  0  0  0  0  0  0  0  0  0  0
  152.2370  136.5183  157.1507 C   0  0  0  0  0  0  0  0  0  0  0  0
  152.7271  135.3888  157.1173 O   0  0  0  0  0  0  0  0  0  0  0  0
  150.9552  136.7679  156.7119 N   0  5  0  0  0  0  0  0  0  0  0  0
  150.3228  137.9837  156.7183 C   0  0  0  0  0  0  0  0  0  0  0  0
  149.1749  138.2100  156.3431 O   0  0  0  0  0  0  0  0  0  0  0  0
  151.1860  139.0625  157.2547 C   0  0  0  0  0  0  0  0  0  0  0  0
  152.4541  138.8555  157.7031 C   0  0  0  0  0  0  0  0  0  0  0  0
  153.0139  140.0269  158.1870 N   0  0  0  0  0  0  0  0  0  0  0  0
  152.0498  140.9265  157.9866 C   0  0  0  0  0  0  0  0  0  0  0  0
  152.1792  142.2692  158.3497 N   0  0  0  0  0  0  0  0  0  0  0  0
  151.5943  143.4128  157.6484 C   0  0  0  0  0  0  0  0  0  0  0  0
  150.8591  144.3575  158.6159 C   0  0  0  0  0  0  0  0  0  0  0  0
  151.8163  144.8574  159.7061 C   0  0  0  0  0  0  0  0  0  0  0  0
  152.5237  143.6680  160.3713 C   0  0  0  0  0  0  0  0  0  0  0  0
  153.1669  142.7513  159.3143 C   0  0  0  0  0  0  0  0  0  0  0  0
  150.9072  140.4229  157.4430 N   0  0  0  0  0  0  0  0  0  0  0  0
  149.6553  141.1335  157.1745 C   0  0  0  0  0  0  0  0  0  0  0  0
  149.5910  141.6886  155.7379 C   0  0  2  0  0  0  0  0  0  0  0  0
  148.3345  142.3045  155.5316 O   0  0  0  0  0  0  0  0  0  0  0  0
  149.7766  140.5791  154.6890 C   0  0  0  0  0  0  0  0  0  0  0  0
  149.4683  141.0654  153.3996 O   0  0  0  0  0  0  0  0  0  0  0  0
  154.9635  136.8166  157.3480 H   0  0  0  0  0  0  0  0  0  0  0  0
  154.3556  136.6708  159.0009 H   0  0  0  0  0  0  0  0  0  0  0  0
  154.8839  138.2303  158.3825 H   0  0  0  0  0  0  0  0  0  0  0  0
  152.3939  143.9566  157.1436 H   0  0  0  0  0  0  0  0  0  0  0  0
  150.9291  143.0748  156.8550 H   0  0  0  0  0  0  0  0  0  0  0  0
  150.4414  145.2037  158.0700 H   0  0  0  0  0  0  0  0  0  0  0  0
  150.0175  143.8394  159.0754 H   0  0  0  0  0  0  0  0  0  0  0  0
  152.5593  145.5212  159.2623 H   0  0  0  0  0  0  0  0  0  0  0  0
  151.2752  145.4438  160.4489 H   0  0  0  0  0  0  0  0  0  0  0  0
  153.2827  144.0270  161.0668 H   0  0  0  0  0  0  0  0  0  0  0  0
  151.8065  143.0974  160.9625 H   0  0  0  0  0  0  0  0  0  0  0  0
  153.6368  141.9012  159.8102 H   0  0  0  0  0  0  0  0  0  0  0  0
  153.9608  143.2794  158.7849 H   0  0  0  0  0  0  0  0  0  0  0  0
  148.8195  140.4630  157.3500 H   0  0  0  0  0  0  0  0  0  0  0  0
  149.5075  141.9294  157.8998 H   0  0  0  0  0  0  0  0  0  0  0  0
  150.3701  142.4415  155.6157 H   0  0  0  0  0  0  0  0  0  0  0  0
  148.4691  143.2337  155.4244 H   0  0  0  0  0  0  0  0  0  0  0  0
  150.8156  140.2491  154.6687 H   0  0  0  0  0  0  0  0  0  0  0  0
  149.1675  139.7043  154.9203 H   0  0  0  0  0  0  0  0  0  0  0  0
  149.5365  140.3504  152.7860 H   0  0  0  0  0  0  0  0  0  0  0  0
  1  2  1  0  0  0  0
  1 24  1  0  0  0  0
  1 25  1  0  0  0  0
  1 26  1  0  0  0  0
  2  9  1  0  0  0  0
  2  3  1  0  0  0  0
  3  4  2  0  0  0  0
  3  5  1  0  0  0  0
  5  6  1  0  0  0  0
  6  7  2  0  0  0  0
  6  8  1  0  0  0  0
  8 18  1  0  0  0  0
  8  9  2  0  0  0  0
  9 10  1  0  0  0  0
 10 11  2  0  0  0  0
 11 12  1  0  0  0  0
 11 18  1  0  0  0  0
 12 17  1  0  0  0  0
 12 13  1  0  0  0  0
 13 14  1  0  0  0  0
 13 27  1  0  0  0  0
 13 28  1  0  0  0  0
 14 15  1  0  0  0  0
 14 29  1  0  0  0  0
 14 30  1  0  0  0  0
 15 16  1  0  0  0  0
 15 31  1  0  0  0  0
 15 32  1  0  0  0  0
 16 17  1  0  0  0  0
 16 33  1  0  0  0  0
 16 34  1  0  0  0  0
 17 35  1  0  0  0  0
 17 36  1  0  0  0  0
 18 19  1  0  0  0  0
 19 20  1  0  0  0  0
 19 37  1  0  0  0  0
 19 38  1  0  0  0  0
 20 21  1  0  0  0  0
 20 22  1  0  0  0  0
 20 39  1  0  0  0  0
 21 40  1  0  0  0  0
 22 23  1  0  0  0  0
 22 41  1  0  0  0  0
 22 42  1  0  0  0  0
 23 43  1  0  0  0  0
M  CHG  1   5  -1
M  END
> <s_m_source_file>
AV-unprocessed.smi

> <i_m_source_file_index>
2559

> <i_lp_mmshare_version>
43012

> <i_f3d_flags>
0

> <s_epik_input>
Tz1jMVtuSF1jKD1PKW4oW0NIM10pYyhjMTIpbmMobjJbQ0gyXVtDQEhdKFtPSF0pW0NIMl1bT0hdKU4zW0NIMl1bQ0gyXVtDSDJdW0NIMl1bQ0gyXTM=

> <s_epik_cmdline>
J2VwaWtfcHl0aG9uJywgJy1waCcsICc3LjAnLCAnLXRuJywgJzgnLCAnLW1hJywgJzIwMCcsICctbWV0YWxfYmluZGluZycsICctaW1hZScsICc8aW5maWxlLm1hZT4nLCAnLW9tYWUnLCAnPG91dGZpbGUubWFlPic=

> <r_lp_tautomer_probability>
1

> <r_epik_Ionization_Penalty>
5.90509

> <r_epik_Ionization_Penalty_Charging>
0.0759636

> <r_epik_Ionization_Penalty_Neutral>
5.82913

> <r_epik_State_Penalty>
5.18635

> <r_epik_Charging_Adjusted_Penalty>
5.26231

> <i_epik_Tot_Q>
-1

> <i_epik_Tot_abs_Q>
1

> <r_epik_Metal_State_Penalty>
1.25614

> <b_epik_Metal_Only>
1

> <s_lp_Force_Field>
OPLS_2005

> <r_lp_Energy>
44.2417

> <b_lp_Chiralities_Consistent>
1

> <s_lp_Variant>
AV-unprocessed.smi:2559-3

> <Gold.Version>
5.8.1

> <Gold.Id.Protein>
6NUR|6NUR_protein|mol2

> <Gold.PLP.Fitness>
53.1520

> <Gold.PLP.PLP>
-39.4959

> <Gold.PLP.part.hbond>
-5.8161

> <Gold.PLP.part.metal>
0.0000

> <Gold.PLP.part.buried>
-3.6811

> <Gold.PLP.part.nonpolar>
-28.0330

> <Gold.PLP.part.repulsive>
0.0018

> <Gold.PLP.ligand.clash>
0.0000

> <Gold.PLP.ligand.torsion>
0.7653

> <Gold.PLP.Chemscore.Hbond>
4.8080

> <Gold.PLP.Chemscore.CHOScore>
0.0000

> <Gold.PLP.Chemscore.Metal>
0.0000

> <Gold.Chemscore.Hbonds>
donor molecule, donor type, donor heavy atom, donor atom, acceptor molecule, acceptor atom, score
      L1  H    21    40       P1  8028  1.00
      L1  H    23    43       P1  7957  0.82
      P1  H  7997  8009       L1    10  0.93
      P1  H  8011  8017       L1    23  1.00
      P1  H 10752 10764       L1     4  1.00

> <Gold.PLP.Chemscore.Internal.Correction>
0.7626

> <Gold.Rescore>
     Score         DG    S(hbond)    S(metal)    S(lipo)     H(rot)  DE(clash)    DE(int)     intcor
     16.38     -19.58       3.45        0.00      86.26       2.93       0.18       3.03       ----

> <Gold.Chemscore.Fitness>
16.3766

> <Gold.Chemscore.DG>
-19.5824

> <Gold.Chemscore.ZeroCoef>
-5.4800

> <Gold.Chemscore.Hbond>
3.4485

> <Gold.Chemscore.Metal>
0.0000

> <Gold.Chemscore.Lipo>
86.2647

> <Gold.Chemscore.Internal_Hbond>
0.0000

> <Gold.Chemscore.DEClash>
0.1752

> <Gold.Chemscore.DEInternal>
3.0306

> <Gold.Chemscore.Rot>
2.9330

> <Gold.Chemscore.Internal.Correction>
   9.000000E+99

> <Gold.Chemscore.Hbonds>
donor molecule, donor type, donor heavy atom, donor atom, acceptor molecule, acceptor atom, score
      L1  H    21    40       P1  8028  0.94
      L1  H    23    43       P1  7957  0.81
      P1  H  7997  8009       L1    10  0.19
      P1  H  8011  8017       L1    23  0.25
      P1  H 10752 10764       L1     4  0.39

> <Gold.Chemscore.Hbond.Weighted>
-11.5179

> <Gold.Chemscore.Metal.Weighted>
-0.0000

> <Gold.Chemscore.Lipo.Weighted>
-10.0930

> <Gold.Chemscore.Internal_Hbond.Weighted>
0.0000

> <Gold.Chemscore.DEClash.Weighted>
0.1752

> <Gold.Chemscore.DEInternal.Weighted>
3.0306

> <Gold.Chemscore.Rot.Weighted>
7.5084

> <Gold.Chemscore.Internal.Correction.Weighted>
   9.000000E+99

> <Gold.Protein.RotatedTorsions>
[ 6907 6896 6895 6894 ] final  167.26 input  -60.11 | X-H torsion
[ 7974 7965 7964 7962 ] final -157.22 input  175.53 | X-H torsion
[ 8008 7997 7996 7995 ] final  147.14 input   59.86 | X-H torsion
[ 10167 10162 10161 10158 ] final   -0.40 input  -65.29 | X-H torsion
[ 10718 10713 10712 10709 ] final   74.94 input   66.30 | X-H torsion
[ 10763 10752 10751 10750 ] final    2.69 input  -60.55 | X-H torsion
[ 11005 11000 10999 10996 ] final   -7.62 input  -57.11 | X-H torsion

> <Gold.Protein.ActiveResidues>
 VAL166  LYS551  ARG553  GLY616  TRP617  ASP618  TYR619  PRO620  LYS621  CYS622 
 ASP623  PHE694  ASN695  SER759  ASP760  ASP761  ALA762  ILE779  LEU786  VAL792 
 PHE793  MET794  SER795  GLU796  ALA797  LYS798  CYS799  TRP800  GLU811  SER814 

> <Gold.Protein.RotatedAtoms>
  151.8661  133.3466  159.3719 H   0  0  0  0  0  0  0  0  0  0  0  0  # atno 6907 bound_to 6896
  150.7165  134.5159  159.5639 H   0  0  0  0  0  0  0  0  0  0  0  0  # atno 6908 bound_to 6896
  152.2682  134.7962  160.0470 H   0  0  0  0  0  0  0  0  0  0  0  0  # atno 6909 bound_to 6896
  144.7558  140.4000  143.6013 H   0  0  0  0  0  0  0  0  0  0  0  0  # atno 7974 bound_to 7965
  156.2834  140.2163  156.5489 H   0  0  0  0  0  0  0  0  0  0  0  0  # atno 8008 bound_to 7997
  154.7307  140.0495  157.0746 H   0  0  0  0  0  0  0  0  0  0  0  0  # atno 8009 bound_to 7997
  155.0357  140.3140  155.4745 H   0  0  0  0  0  0  0  0  0  0  0  0  # atno 8010 bound_to 7997
  140.6766  143.6899  150.8036 H   0  0  0  0  0  0  0  0  0  0  0  0  # atno 10167 bound_to 10162
  157.6613  130.9702  150.1282 H   0  0  0  0  0  0  0  0  0  0  0  0  # atno 10718 bound_to 10713
  153.2925  135.6949  153.7280 H   0  0  0  0  0  0  0  0  0  0  0  0  # atno 10763 bound_to 10752
  153.6225  135.3424  155.3016 H   0  0  0  0  0  0  0  0  0  0  0  0  # atno 10764 bound_to 10752
  154.8528  135.4389  154.2012 H   0  0  0  0  0  0  0  0  0  0  0  0  # atno 10765 bound_to 10752
  140.7147  133.8879  155.8776 H   0  0  0  0  0  0  0  0  0  0  0  0  # atno 11005 bound_to 11000
  145.6785  139.1613  143.2714 LP  0  0  0  0  0  0  0  0  0  0  0  0  # atno 17320 bound_to 7965
  146.1566  140.6849  142.9297 LP  0  0  0  0  0  0  0  0  0  0  0  0  # atno 17321 bound_to 7965
  140.0593  143.5171  152.2636 LP  0  0  0  0  0  0  0  0  0  0  0  0  # atno 17342 bound_to 10162
  139.6062  144.7596  151.3057 LP  0  0  0  0  0  0  0  0  0  0  0  0  # atno 17343 bound_to 10162
  156.2136  130.3668  149.8640 LP  0  0  0  0  0  0  0  0  0  0  0  0  # atno 17370 bound_to 10713
  156.6512  130.8744  151.3531 LP  0  0  0  0  0  0  0  0  0  0  0  0  # atno 17371 bound_to 10713
  141.0055  134.1092  157.4275 LP  0  0  0  0  0  0  0  0  0  0  0  0  # atno 17394 bound_to 11000
  139.8863  135.0080  156.6488 LP  0  0  0  0  0  0  0  0  0  0  0  0  # atno 17395 bound_to 11000

$$$$
