AV-unprocessed.smi:72|AV-procd|sdf|704|dock3
  -GOLD-   2262017 23D 1   1.00000     0.00000
 Structure written by MMmdl.
 30 31  0  0  0  0  0  0  0  0  2 V2000
  139.6511  139.1994  153.0762 N   0  0  0  0  0  0  0  0  0  0  0  0
  140.5535  138.1592  153.1531 C   0  0  0  0  0  0  0  0  0  0  0  0
  141.8706  138.4256  152.8272 N   0  3  0  0  0  0  0  0  0  0  0  0
  142.8708  137.5349  152.8668 C   0  0  0  0  0  0  0  0  0  0  0  0
  142.6196  136.3046  153.2733 N   0  0  0  0  0  0  0  0  0  0  0  0
  143.7004  135.2476  153.3397 C   0  0  1  0  0  0  0  0  0  0  0  0
  143.5556  134.3938  152.2505 O   0  0  0  0  0  0  0  0  0  0  0  0
  144.3046  134.9073  151.1568 C   0  0  2  0  0  0  0  0  0  0  0  0
  144.5221  133.8079  150.1071 C   0  0  0  0  0  0  0  0  0  0  0  0
  143.8086  134.1252  148.9312 O   0  0  0  0  0  0  0  0  0  0  0  0
  145.5907  135.3723  151.8442 C   0  0  1  0  0  0  0  0  0  0  0  0
  146.1754  136.4300  151.1119 O   0  0  0  0  0  0  0  0  0  0  0  0
  145.1105  135.8666  153.2093 C   0  0  2  0  0  0  0  0  0  0  0  0
  145.9730  135.4099  154.2308 O   0  0  0  0  0  0  0  0  0  0  0  0
  141.2829  135.9213  153.5607 C   0  0  0  0  0  0  0  0  0  0  0  0
  141.0191  134.7562  153.8550 O   0  0  0  0  0  0  0  0  0  0  0  0
  140.3060  136.9251  153.4939 N   0  0  0  0  0  0  0  0  0  0  0  0
  143.5154  134.7173  154.2758 H   0  0  0  0  0  0  0  0  0  0  0  0
  143.7904  135.7666  150.7208 H   0  0  0  0  0  0  0  0  0  0  0  0
  146.2910  134.5410  151.9458 H   0  0  0  0  0  0  0  0  0  0  0  0
  145.0549  136.9557  153.2443 H   0  0  0  0  0  0  0  0  0  0  0  0
  138.6684  139.0949  153.2870 H   0  0  0  0  0  0  0  0  0  0  0  0
  139.8957  140.1408  152.8041 H   0  0  0  0  0  0  0  0  0  0  0  0
  143.8558  137.8503  152.5492 H   0  0  0  0  0  0  0  0  0  0  0  0
  145.5783  133.7441  149.8435 H   0  0  0  0  0  0  0  0  0  0  0  0
  144.2214  132.8301  150.4847 H   0  0  0  0  0  0  0  0  0  0  0  0
  142.9094  134.3017  149.1638 H   0  0  0  0  0  0  0  0  0  0  0  0
  147.1105  136.4096  151.2507 H   0  0  0  0  0  0  0  0  0  0  0  0
  146.6173  134.8335  153.8491 H   0  0  0  0  0  0  0  0  0  0  0  0
  142.0923  139.3656  152.5313 H   0  0  0  0  0  0  0  0  0  0  0  0
  1  2  1  0  0  0  0
  1 22  1  0  0  0  0
  1 23  1  0  0  0  0
  2 17  2  0  0  0  0
  2  3  1  0  0  0  0
  3  4  2  0  0  0  0
  3 30  1  0  0  0  0
  4  5  1  0  0  0  0
  4 24  1  0  0  0  0
  5  6  1  0  0  0  0
  5 15  1  0  0  0  0
  6 18  1  0  0  0  0
  6 13  1  0  0  0  0
  6  7  1  0  0  0  0
  7  8  1  0  0  0  0
  8 19  1  0  0  0  0
  8  9  1  0  0  0  0
  8 11  1  0  0  0  0
  9 10  1  0  0  0  0
  9 25  1  0  0  0  0
  9 26  1  0  0  0  0
 10 27  1  0  0  0  0
 11 20  1  0  0  0  0
 11 12  1  0  0  0  0
 11 13  1  0  0  0  0
 12 28  1  0  0  0  0
 13 21  1  0  0  0  0
 13 14  1  0  0  0  0
 14 29  1  0  0  0  0
 15 16  2  0  0  0  0
 15 17  1  0  0  0  0
M  CHG  1   3   1
M  END
> <s_m_source_file>
AV-unprocessed.smi

> <i_m_source_file_index>
72

> <i_lp_mmshare_version>
43012

> <i_f3d_flags>
0

> <s_epik_input>
W05IMl1jMW5bY0hdbihjKD1PKW4xKVtDQEBIXTJPW0NASF0oW0NIMl1bT0hdKVtDQEBIXShbT0hdKVtDQEhdMltPSF0=

> <s_epik_cmdline>
J2VwaWtfcHl0aG9uJywgJy1waCcsICc3LjAnLCAnLXRuJywgJzgnLCAnLW1hJywgJzIwMCcsICctbWV0YWxfYmluZGluZycsICctaW1hZScsICc8aW5maWxlLm1hZT4nLCAnLW9tYWUnLCAnPG91dGZpbGUubWFlPic=

> <r_lp_tautomer_probability>
4.77166e-05

> <r_epik_Ionization_Penalty>
0.104979

> <r_epik_Ionization_Penalty_Charging>
0.0999619

> <r_epik_Ionization_Penalty_Neutral>
0.00501745

> <r_epik_State_Penalty>
2.51541

> <r_epik_Charging_Adjusted_Penalty>
2.61537

> <i_epik_Tot_Q>
1

> <i_epik_Tot_abs_Q>
1

> <r_epik_Metal_State_Penalty>
3.53763

> <b_epik_Metal_Only>
0

> <s_epik_Chemistry_Notes>
This compound contains an acetal/aminal-like group ( X-CH(R)-Y where X, Y are N, S, or O) that may be acid/base labile, releasing an aldehyde.

> <s_lp_Force_Field>
OPLS_2005

> <r_lp_Energy>
25.3677

> <b_lp_Chiralities_Consistent>
1

> <s_lp_Variant>
AV-unprocessed.smi:72-42

> <Gold.Version>
5.8.1

> <Gold.Id.Protein>
6NUR|6NUR_protein|mol2

> <Gold.PLP.Fitness>
42.3471

> <Gold.PLP.PLP>
-27.7269

> <Gold.PLP.part.hbond>
-7.1118

> <Gold.PLP.part.metal>
0.0000

> <Gold.PLP.part.buried>
-5.8036

> <Gold.PLP.part.nonpolar>
-14.7313

> <Gold.PLP.part.repulsive>
0.5429

> <Gold.PLP.ligand.clash>
0.0000

> <Gold.PLP.ligand.torsion>
0.9818

> <Gold.PLP.Chemscore.Hbond>
4.9200

> <Gold.PLP.Chemscore.CHOScore>
0.5922

> <Gold.PLP.Chemscore.Metal>
0.0000

> <Gold.Chemscore.Hbonds>
donor molecule, donor type, donor heavy atom, donor atom, acceptor molecule, acceptor atom, score
      L1  H     1    23       P1 10160  0.38
      L1  H     3    30       P1 10175  1.54
      L1  H    10    27       P1 10186  1.00
      L1  H    12    28       P1  7948  1.00
      P1  H 11000 11005       L1    16  1.00
      L1  C     4    24       P1 10171  0.16
      L1  C     4    24       P1 10175  0.39

> <Gold.PLP.Chemscore.Internal.Correction>
0.0472

> <Gold.Rescore>
     Score         DG    S(hbond)    S(metal)    S(lipo)     H(rot)  DE(clash)    DE(int)     intcor
      9.97     -11.81       4.34        0.00      19.40       4.08       0.00       1.84       ----

> <Gold.Chemscore.Fitness>
9.9736

> <Gold.Chemscore.DG>
-11.8094

> <Gold.Chemscore.ZeroCoef>
-5.4800

> <Gold.Chemscore.Hbond>
4.3414

> <Gold.Chemscore.Metal>
0.0000

> <Gold.Chemscore.Lipo>
19.3986

> <Gold.Chemscore.Internal_Hbond>
0.0000

> <Gold.Chemscore.DEClash>
0.0004

> <Gold.Chemscore.DEInternal>
1.8354

> <Gold.Chemscore.Rot>
4.0783

> <Gold.Chemscore.Internal.Correction>
   9.000000E+99

> <Gold.Chemscore.Hbonds>
donor molecule, donor type, donor heavy atom, donor atom, acceptor molecule, acceptor atom, score
      L1  H     1    23       P1 10160  0.36
      L1  H     3    30       P1 10175  0.46
      L1  H    10    27       P1 10186  0.99
      L1  H    12    28       P1  7948  1.00
      P1  H 11000 11005       L1    16  0.93

> <Gold.Chemscore.Hbond.Weighted>
-14.5002

> <Gold.Chemscore.Metal.Weighted>
-0.0000

> <Gold.Chemscore.Lipo.Weighted>
-2.2696

> <Gold.Chemscore.Internal_Hbond.Weighted>
0.0000

> <Gold.Chemscore.DEClash.Weighted>
0.0004

> <Gold.Chemscore.DEInternal.Weighted>
1.8354

> <Gold.Chemscore.Rot.Weighted>
10.4404

> <Gold.Chemscore.Internal.Correction.Weighted>
   9.000000E+99

> <Gold.Protein.RotatedTorsions>
[ 6907 6896 6895 6894 ] final  114.98 input  -60.11 | X-H torsion
[ 7974 7965 7964 7962 ] final -111.61 input  175.53 | X-H torsion
[ 8008 7997 7996 7995 ] final -134.86 input   59.86 | X-H torsion
[ 10167 10162 10161 10158 ] final  106.88 input  -65.29 | X-H torsion
[ 10718 10713 10712 10709 ] final  -54.87 input   66.30 | X-H torsion
[ 10763 10752 10751 10750 ] final  -39.96 input  -60.55 | X-H torsion
[ 11005 11000 10999 10996 ] final   19.32 input  -57.11 | X-H torsion

> <Gold.Protein.ActiveResidues>
 VAL166  LYS551  ARG553  GLY616  TRP617  ASP618  TYR619  PRO620  LYS621  CYS622 
 ASP623  PHE694  ASN695  SER759  ASP760  ASP761  ALA762  ILE779  LEU786  VAL792 
 PHE793  MET794  SER795  GLU796  ALA797  LYS798  CYS799  TRP800  GLU811  SER814 

> <Gold.Protein.RotatedAtoms>
  152.4770  133.8162  159.7028 H   0  0  0  0  0  0  0  0  0  0  0  0  # atno 6907 bound_to 6896
  150.8793  133.7385  159.2943 H   0  0  0  0  0  0  0  0  0  0  0  0  # atno 6908 bound_to 6896
  151.4894  135.1060  159.9851 H   0  0  0  0  0  0  0  0  0  0  0  0  # atno 6909 bound_to 6896
  145.1540  140.8844  143.3630 H   0  0  0  0  0  0  0  0  0  0  0  0  # atno 7974 bound_to 7965
  155.3691  140.0487  157.3045 H   0  0  0  0  0  0  0  0  0  0  0  0  # atno 8008 bound_to 7997
  154.5139  140.2201  155.9067 H   0  0  0  0  0  0  0  0  0  0  0  0  # atno 8009 bound_to 7997
  156.1614  140.3115  155.8819 H   0  0  0  0  0  0  0  0  0  0  0  0  # atno 8010 bound_to 7997
  139.6973  144.7099  151.1245 H   0  0  0  0  0  0  0  0  0  0  0  0  # atno 10167 bound_to 10162
  156.1415  130.4154  150.0096 H   0  0  0  0  0  0  0  0  0  0  0  0  # atno 10718 bound_to 10713
  153.9381  135.6764  153.4744 H   0  0  0  0  0  0  0  0  0  0  0  0  # atno 10763 bound_to 10752
  153.0945  135.4858  154.8750 H   0  0  0  0  0  0  0  0  0  0  0  0  # atno 10764 bound_to 10752
  154.7392  135.3156  154.8716 H   0  0  0  0  0  0  0  0  0  0  0  0  # atno 10765 bound_to 10752
  140.4150  134.1579  155.7669 H   0  0  0  0  0  0  0  0  0  0  0  0  # atno 11005 bound_to 11000
  145.0401  139.3267  143.5981 LP  0  0  0  0  0  0  0  0  0  0  0  0  # atno 17320 bound_to 7965
  146.3491  139.9771  142.8700 LP  0  0  0  0  0  0  0  0  0  0  0  0  # atno 17321 bound_to 7965
  140.7700  143.5474  150.9244 LP  0  0  0  0  0  0  0  0  0  0  0  0  # atno 17342 bound_to 10162
  139.9154  143.6670  152.3107 LP  0  0  0  0  0  0  0  0  0  0  0  0  # atno 17343 bound_to 10162
  156.7980  130.9280  151.3646 LP  0  0  0  0  0  0  0  0  0  0  0  0  # atno 17370 bound_to 10713
  157.6579  130.8940  149.9768 LP  0  0  0  0  0  0  0  0  0  0  0  0  # atno 17371 bound_to 10713
  141.1806  133.8421  157.1269 LP  0  0  0  0  0  0  0  0  0  0  0  0  # atno 17394 bound_to 11000
  140.0240  134.9932  157.0650 LP  0  0  0  0  0  0  0  0  0  0  0  0  # atno 17395 bound_to 11000

$$$$
