#       Name:                AV-unprocessed.smi:1853
#       Creating user name   scv26
#       Creation time:       Fri Mar 27 09:23:53 2020


#       File generated by GOLD software.
#

@<TRIPOS>MOLECULE
AV-unprocessed.smi:1853
    47    49     1
SMALL
NO_CHARGES


@<TRIPOS>ATOM
      1 ****        -5.8977   1.2650  -1.7369 C.3            1 S1                 0.0000
      2 ****        -4.4597   0.8149  -1.5820 C.ar           1 S1                 0.0000
      3 ****        -3.4009   1.7054  -1.8479 C.ar           1 S1                 0.0000
      4 ****        -2.0671   1.2789  -1.7025 C.ar           1 S1                 0.0000
      5 ****        -1.7686  -0.0365  -1.2920 C.ar           1 S1                 0.0000
      6 ****        -0.4363  -0.3674  -1.1720 O.3            1 S1                 0.0000
      7 ****        -0.1032  -1.7060  -0.8288 C.3            1 S1                 0.0000
      8 ****         1.4242  -1.8478  -0.7702 C.3            1 S1                 0.0000
      9 ****         2.0293  -0.9556   0.2292 N.pl3          1 S1                 0.0000
     10 ****         2.5791   0.2859   0.0920 C.2            1 S1                 0.0000
     11 ****         2.6962   1.0763  -1.1779 C.3            1 S1                 0.0000
     12 ****         2.7496   2.5221  -0.9810 N.am           1 S1                 0.0000
     13 ****         1.7310   3.2762  -0.5427 C.2            1 S1                 0.0000
     14 ****         0.6354   2.8327  -0.2035 O.2            1 S1                 0.0000
     15 ****         3.0055   0.6726   1.3294 N.pl3          1 S1                 1.0000
     16 ****         2.7091  -0.3179   2.2654 C.ar           1 S1                 0.0000
     17 ****         2.9365  -0.3740   3.6371 C.ar           1 S1                 0.0000
     18 ****         2.5025  -1.5391   4.3030 C.ar           1 S1                 0.0000
     19 ****         1.8702  -2.5902   3.6072 C.ar           1 S1                 0.0000
     20 ****         1.6463  -2.5218   2.2161 C.ar           1 S1                 0.0000
     21 ****         2.0794  -1.3667   1.5656 C.ar           1 S1                 0.0000
     22 ****        -2.8390  -0.9286  -1.0300 C.ar           1 S1                 0.0000
     23 ****        -4.1738  -0.5029  -1.1747 C.ar           1 S1                 0.0000
     24 ****        -5.9691   2.3525  -1.7765 H              1 S1                 0.0000
     25 ****        -6.4999   0.9173  -0.8970 H              1 S1                 0.0000
     26 ****        -6.3219   0.8593  -2.6555 H              1 S1                 0.0000
     27 ****        -3.6060   2.7177  -2.1644 H              1 S1                 0.0000
     28 ****        -1.2640   1.9697  -1.9117 H              1 S1                 0.0000
     29 ****        -0.5340  -1.9683   0.1386 H              1 S1                 0.0000
     30 ****        -0.5027  -2.3951  -1.5743 H              1 S1                 0.0000
     31 ****         1.7127  -2.8751  -0.5464 H              1 S1                 0.0000
     32 ****         1.8619  -1.6113  -1.7404 H              1 S1                 0.0000
     33 ****         3.6023   0.7647  -1.6977 H              1 S1                 0.0000
     34 ****         1.8609   0.8375  -1.8371 H              1 S1                 0.0000
     35 ****         3.6104   2.9864  -1.2327 H              1 S1                 0.0000
     36 ****         2.0093   4.3413  -0.5243 H              1 S1                 0.0000
     37 ****         3.4185   0.4309   4.1723 H              1 S1                 0.0000
     38 ****         2.6559  -1.6276   5.3688 H              1 S1                 0.0000
     39 ****         1.5493  -3.4665   4.1515 H              1 S1                 0.0000
     40 ****         1.1587  -3.3310   1.6929 H              1 S1                 0.0000
     41 ****        -2.6636  -1.9460  -0.7153 H              1 S1                 0.0000
     42 ****        -4.9796  -1.1931  -0.9712 H              1 S1                 0.0000
     43 ****         3.4542   1.5598   1.5171 H              1 S1                 0.0000
     44 ****        -0.0464   0.2249  -0.4669 LP             1 S1                 0.0000
     45 ****        -0.0018  -0.1701  -2.0508 LP             1 S1                 0.0000
     46 ****         0.4594   1.8492  -0.2452 LP             1 S1                 0.0000
     47 ****        -0.0796   3.4556   0.1140 LP             1 S1                 0.0000
@<TRIPOS>BOND
    1    1    2 1     
    2    1   24 1     
    3    1   25 1     
    4    1   26 1     
    5    2   23 ar    
    6    2    3 ar    
    7    3    4 ar    
    8    3   27 1     
    9    4    5 ar    
   10    4   28 1     
   11    5    6 1     
   12    5   22 ar    
   13    6    7 1     
   14    7    8 1     
   15    7   29 1     
   16    7   30 1     
   17    8    9 1     
   18    8   31 1     
   19    8   32 1     
   20    9   21 1     
   21    9   10 1     
   22   10   11 1     
   23   10   15 2     
   24   11   12 1     
   25   11   33 1     
   26   11   34 1     
   27   12   13 am    
   28   12   35 1     
   29   13   14 2     
   30   13   36 1     
   31   15   16 1     
   32   15   43 1     
   33   16   21 ar    
   34   16   17 ar    
   35   17   18 ar    
   36   17   37 1     
   37   18   19 ar    
   38   18   38 1     
   39   19   20 ar    
   40   19   39 1     
   41   20   21 ar    
   42   20   40 1     
   43   22   23 ar    
   44   22   41 1     
   45   23   42 1     
   46    6   44 1     
   47    6   45 1     
   48   14   46 1     
   49   14   47 1     
@<TRIPOS>SUBSTRUCTURE
      1 S1             1
@<TRIPOS>SET
LONE_PAIRS      STATIC     ATOMS    <user>   **** ""
4 44 45 46 47
DONOR_HYDROGENS      STATIC     ATOMS    <user>   **** ""
2 35 43
ATOM$BLUE        STATIC     ATOMS    COLORGROUP SYSTEM
4 44 45 46 47
ATOM$RED        STATIC     ATOMS    COLORGROUP SYSTEM
2 35 43
