AV-unprocessed.smi:653|AV-procd|sdf|3206|dock3
  -GOLD-   22720 0143D 1   1.00000     0.00000
 Structure written by MMmdl.
 44 45  0  0  0  0  0  0  0  0  1 V2000
  143.7749  132.1461  150.2441 C   0  0  0  0  0  0  0  0  0  0  0  0
  143.9321  133.4772  150.9496 C   0  0  0  0  0  0  0  0  0  0  0  0
  144.8709  134.4252  150.4921 C   0  0  0  0  0  0  0  0  0  0  0  0
  144.9812  135.6473  151.1826 C   0  0  0  0  0  0  0  0  0  0  0  0
  144.1537  135.8737  152.3019 C   0  0  0  0  0  0  0  0  0  0  0  0
  144.2337  137.1747  153.0812 C   0  0  0  0  0  0  0  0  0  0  0  0
  145.6902  137.5587  153.3549 C   0  0  0  0  0  0  0  0  0  0  0  0
  146.4410  136.7733  153.9342 O   0  0  0  0  0  0  0  0  0  0  0  0
  146.0759  138.7733  152.9352 N   0  0  0  0  0  0  0  0  0  0  0  0
  147.4153  139.3297  153.0943 C   0  0  0  0  0  0  0  0  0  0  0  0
  147.7770  139.5885  154.5789 C   0  0  2  0  0  0  0  0  0  0  0  0
  147.5475  141.0364  154.9916 C   0  0  0  0  0  0  0  0  0  0  0  0
  148.8682  141.7246  154.6359 C   0  0  0  0  0  0  0  0  0  0  0  0
  149.8115  140.6793  154.4170 O   0  0  0  0  0  0  0  0  0  0  0  0
  149.2750  139.4557  154.9021 C   0  0  2  0  0  0  0  0  0  0  0  0
  150.0240  138.2340  154.3220 C   0  0  0  0  0  0  0  0  0  0  0  0
  149.5962  136.9245  155.0074 C   0  0  0  0  0  0  0  0  0  0  0  0
  151.5461  138.4133  154.4410 C   0  0  0  0  0  0  0  0  0  0  0  0
  143.2487  134.8583  152.6786 C   0  0  0  0  0  0  0  0  0  0  0  0
  143.1357  133.6837  152.0221 N   0  0  0  0  0  0  0  0  0  0  0  0
  144.0071  132.2406  149.1829 H   0  0  0  0  0  0  0  0  0  0  0  0
  142.7541  131.7727  150.3333 H   0  0  0  0  0  0  0  0  0  0  0  0
  144.4500  131.4086  150.6784 H   0  0  0  0  0  0  0  0  0  0  0  0
  145.4922  134.2228  149.6322 H   0  0  0  0  0  0  0  0  0  0  0  0
  145.6878  136.3964  150.8569 H   0  0  0  0  0  0  0  0  0  0  0  0
  143.7272  137.9620  152.5209 H   0  0  0  0  0  0  0  0  0  0  0  0
  143.7078  137.0749  154.0315 H   0  0  0  0  0  0  0  0  0  0  0  0
  145.3938  139.3536  152.4689 H   0  0  0  0  0  0  0  0  0  0  0  0
  148.1290  138.6489  152.6299 H   0  0  0  0  0  0  0  0  0  0  0  0
  147.4653  140.2580  152.5247 H   0  0  0  0  0  0  0  0  0  0  0  0
  147.1964  138.9165  155.2122 H   0  0  0  0  0  0  0  0  0  0  0  0
  146.6852  141.5055  154.5175 H   0  0  0  0  0  0  0  0  0  0  0  0
  147.3908  141.0860  156.0700 H   0  0  0  0  0  0  0  0  0  0  0  0
  148.7767  142.3177  153.7257 H   0  0  0  0  0  0  0  0  0  0  0  0
  149.2012  142.3832  155.4385 H   0  0  0  0  0  0  0  0  0  0  0  0
  149.3966  139.4559  155.9874 H   0  0  0  0  0  0  0  0  0  0  0  0
  149.7958  138.1519  153.2593 H   0  0  0  0  0  0  0  0  0  0  0  0
  149.8146  136.9487  156.0754 H   0  0  0  0  0  0  0  0  0  0  0  0
  150.1214  136.0693  154.5811 H   0  0  0  0  0  0  0  0  0  0  0  0
  148.5288  136.7363  154.8925 H   0  0  0  0  0  0  0  0  0  0  0  0
  151.8540  138.5138  155.4823 H   0  0  0  0  0  0  0  0  0  0  0  0
  151.8843  139.3017  153.9071 H   0  0  0  0  0  0  0  0  0  0  0  0
  152.0767  137.5593  154.0191 H   0  0  0  0  0  0  0  0  0  0  0  0
  142.5965  134.9925  153.5293 H   0  0  0  0  0  0  0  0  0  0  0  0
  1  2  1  0  0  0  0
  1 21  1  0  0  0  0
  1 22  1  0  0  0  0
  1 23  1  0  0  0  0
  2 20  1  0  0  0  0
  2  3  2  0  0  0  0
  3  4  1  0  0  0  0
  3 24  1  0  0  0  0
  4  5  2  0  0  0  0
  4 25  1  0  0  0  0
  5  6  1  0  0  0  0
  5 19  1  0  0  0  0
  6  7  1  0  0  0  0
  6 26  1  0  0  0  0
  6 27  1  0  0  0  0
  7  8  2  0  0  0  0
  7  9  1  0  0  0  0
  9 10  1  0  0  0  0
  9 28  1  0  0  0  0
 10 11  1  0  0  0  0
 10 29  1  0  0  0  0
 10 30  1  0  0  0  0
 11 15  1  0  0  0  0
 11 12  1  0  0  0  0
 11 31  1  0  0  0  0
 12 13  1  0  0  0  0
 12 32  1  0  0  0  0
 12 33  1  0  0  0  0
 13 14  1  0  0  0  0
 13 34  1  0  0  0  0
 13 35  1  0  0  0  0
 14 15  1  0  0  0  0
 15 16  1  0  0  0  0
 15 36  1  0  0  0  0
 16 17  1  0  0  0  0
 16 18  1  0  0  0  0
 16 37  1  0  0  0  0
 17 38  1  0  0  0  0
 17 39  1  0  0  0  0
 17 40  1  0  0  0  0
 18 41  1  0  0  0  0
 18 42  1  0  0  0  0
 18 43  1  0  0  0  0
 19 20  2  0  0  0  0
 19 44  1  0  0  0  0
M  END
> <s_m_source_file>
AV-unprocessed.smi

> <i_m_source_file_index>
653

> <i_lp_mmshare_version>
43012

> <i_f3d_flags>
0

> <s_epik_input>
W0NIM11jMVtjSF1bY0hdYyhbY0hdbjEpW0NIMl1DKD1PKVtOSF1bQ0gyXVtDQEBIXTJbQ0gyXVtDSDJdT1tDQEhdMltDSF0oW0NIM10pW0NIM10=

> <s_epik_cmdline>
J2VwaWtfcHl0aG9uJywgJy1waCcsICc3LjAnLCAnLXRuJywgJzgnLCAnLW1hJywgJzIwMCcsICctbWV0YWxfYmluZGluZycsICctaW1hZScsICc8aW5maWxlLm1hZT4nLCAnLW9tYWUnLCAnPG91dGZpbGUubWFlPic=

> <r_epik_Ionization_Penalty>
0.0166429

> <r_epik_Ionization_Penalty_Charging>
0

> <r_epik_Ionization_Penalty_Neutral>
0.0166429

> <r_epik_State_Penalty>
0.0131478

> <r_epik_Charging_Adjusted_Penalty>
0.0131478

> <i_epik_Tot_Q>
0

> <i_epik_Tot_abs_Q>
0

> <r_epik_Metal_State_Penalty>
0.012786

> <b_epik_Metal_Only>
0

> <s_lp_Force_Field>
OPLS_2005

> <r_lp_Energy>
20.8525

> <b_lp_Chiralities_Consistent>
1

> <s_lp_Variant>
AV-unprocessed.smi:653-3

> <Gold.Version>
5.8.1

> <Gold.Id.Protein>
6NUR|6NUR_protein|mol2

> <Gold.PLP.Fitness>
37.9284

> <Gold.PLP.PLP>
-34.4057

> <Gold.PLP.part.hbond>
-2.0000

> <Gold.PLP.part.metal>
0.0000

> <Gold.PLP.part.buried>
-2.8877

> <Gold.PLP.part.nonpolar>
-30.1026

> <Gold.PLP.part.repulsive>
0.4535

> <Gold.PLP.ligand.clash>
0.0000

> <Gold.PLP.ligand.torsion>
0.7920

> <Gold.PLP.Chemscore.Hbond>
1.6788

> <Gold.PLP.Chemscore.CHOScore>
0.0000

> <Gold.PLP.Chemscore.Metal>
0.0000

> <Gold.Chemscore.Hbonds>
donor molecule, donor type, donor heavy atom, donor atom, acceptor molecule, acceptor atom, score
      L1  H     9    28       P1 10175  0.98
      P1  H  7989  7998       L1    14  0.71

> <Gold.PLP.Chemscore.Internal.Correction>
0.0705

> <Gold.Rescore>
     Score         DG    S(hbond)    S(metal)    S(lipo)     H(rot)  DE(clash)    DE(int)     intcor
     17.05     -17.83       1.68        0.00      89.94       1.48       0.17       0.61       ----

> <Gold.Chemscore.Fitness>
17.0530

> <Gold.Chemscore.DG>
-17.8287

> <Gold.Chemscore.ZeroCoef>
-5.4800

> <Gold.Chemscore.Hbond>
1.6847

> <Gold.Chemscore.Metal>
0.0000

> <Gold.Chemscore.Lipo>
89.9443

> <Gold.Chemscore.Internal_Hbond>
0.0000

> <Gold.Chemscore.DEClash>
0.1674

> <Gold.Chemscore.DEInternal>
0.6083

> <Gold.Chemscore.Rot>
1.4850

> <Gold.Chemscore.Internal.Correction>
   9.000000E+99

> <Gold.Chemscore.Hbonds>
donor molecule, donor type, donor heavy atom, donor atom, acceptor molecule, acceptor atom, score
      L1  H     9    28       P1 10175  0.89
      P1  H  7989  7998       L1    14  0.66

> <Gold.Chemscore.Hbond.Weighted>
-5.6267

> <Gold.Chemscore.Metal.Weighted>
-0.0000

> <Gold.Chemscore.Lipo.Weighted>
-10.5235

> <Gold.Chemscore.Internal_Hbond.Weighted>
0.0000

> <Gold.Chemscore.DEClash.Weighted>
0.1674

> <Gold.Chemscore.DEInternal.Weighted>
0.6083

> <Gold.Chemscore.Rot.Weighted>
3.8015

> <Gold.Chemscore.Internal.Correction.Weighted>
   9.000000E+99

> <Gold.Protein.RotatedTorsions>
[ 6907 6896 6895 6894 ] final  144.08 input  -60.11 | X-H torsion
[ 7974 7965 7964 7962 ] final  -29.90 input  175.53 | X-H torsion
[ 8008 7997 7996 7995 ] final -133.03 input   59.86 | X-H torsion
[ 10167 10162 10161 10158 ] final  -81.05 input  -65.29 | X-H torsion
[ 10718 10713 10712 10709 ] final  106.29 input   66.30 | X-H torsion
[ 10763 10752 10751 10750 ] final  128.60 input  -60.55 | X-H torsion
[ 11005 11000 10999 10996 ] final   22.95 input  -57.11 | X-H torsion

> <Gold.Protein.ActiveResidues>
 VAL166  LYS551  ARG553  GLY616  TRP617  ASP618  TYR619  PRO620  LYS621  CYS622 
 ASP623  PHE694  ASN695  SER759  ASP760  ASP761  ALA762  ILE779  LEU786  VAL792 
 PHE793  MET794  SER795  GLU796  ALA797  LYS798  CYS799  TRP800  GLU811  SER814 

> <Gold.Protein.RotatedAtoms>
  152.1982  133.4821  159.5043 H   0  0  0  0  0  0  0  0  0  0  0  0  # atno 6907 bound_to 6896
  150.6964  134.1625  159.4190 H   0  0  0  0  0  0  0  0  0  0  0  0  # atno 6908 bound_to 6896
  151.9542  135.0154  160.0594 H   0  0  0  0  0  0  0  0  0  0  0  0  # atno 6909 bound_to 6896
  146.1183  140.5471  142.8747 H   0  0  0  0  0  0  0  0  0  0  0  0  # atno 7974 bound_to 7965
  155.3387  140.0471  157.3044 H   0  0  0  0  0  0  0  0  0  0  0  0  # atno 8008 bound_to 7997
  154.5289  140.2250  155.8805 H   0  0  0  0  0  0  0  0  0  0  0  0  # atno 8009 bound_to 7997
  156.1768  140.3083  155.9080 H   0  0  0  0  0  0  0  0  0  0  0  0  # atno 8010 bound_to 7997
  140.4447  143.2503  151.8575 H   0  0  0  0  0  0  0  0  0  0  0  0  # atno 10167 bound_to 10162
  157.6674  131.0847  150.5984 H   0  0  0  0  0  0  0  0  0  0  0  0  # atno 10718 bound_to 10713
  153.7282  135.3243  155.3280 H   0  0  0  0  0  0  0  0  0  0  0  0  # atno 10763 bound_to 10752
  154.8334  135.4515  154.1149 H   0  0  0  0  0  0  0  0  0  0  0  0  # atno 10764 bound_to 10752
  153.2288  135.6957  153.7994 H   0  0  0  0  0  0  0  0  0  0  0  0  # atno 10765 bound_to 10752
  140.3750  134.1982  155.7665 H   0  0  0  0  0  0  0  0  0  0  0  0  # atno 11005 bound_to 11000
  144.7573  140.5338  143.6760 LP  0  0  0  0  0  0  0  0  0  0  0  0  # atno 17320 bound_to 7965
  145.5520  139.1477  143.3388 LP  0  0  0  0  0  0  0  0  0  0  0  0  # atno 17321 bound_to 7965
  139.4792  144.5189  151.8830 LP  0  0  0  0  0  0  0  0  0  0  0  0  # atno 17342 bound_to 10162
  140.4277  144.2158  150.5887 LP  0  0  0  0  0  0  0  0  0  0  0  0  # atno 17343 bound_to 10162
  156.6285  130.4425  149.5795 LP  0  0  0  0  0  0  0  0  0  0  0  0  # atno 17370 bound_to 10713
  156.2300  130.6789  151.1454 LP  0  0  0  0  0  0  0  0  0  0  0  0  # atno 17371 bound_to 10713
  141.1942  133.8133  157.0766 LP  0  0  0  0  0  0  0  0  0  0  0  0  # atno 17394 bound_to 11000
  140.0522  134.9799  157.1157 LP  0  0  0  0  0  0  0  0  0  0  0  0  # atno 17395 bound_to 11000

$$$$
