AV-unprocessed.smi:3312|AV-procd|sdf|12727|dock3
  -GOLD-   2272019 73D 1   1.00000     0.00000
 Structure written by MMmdl.
 39 40  0  0  0  0  0  0  0  0  2 V2000
  144.1922  132.3016  149.0060 C   0  0  0  0  0  0  0  0  0  0  0  0
  144.7107  132.9109  150.2767 C   0  0  0  0  0  0  0  0  0  0  0  0
  144.0391  133.8123  151.1505 C   0  0  0  0  0  0  0  0  0  0  0  0
  144.7779  134.1668  152.1887 N   0  0  0  0  0  0  0  0  0  0  0  0
  145.9395  133.5000  152.0214 N   0  0  0  0  0  0  0  0  0  0  0  0
  147.0077  133.6550  152.9933 C   0  0  0  0  0  0  0  0  0  0  0  0
  146.6429  134.6505  154.1063 C   0  0  0  0  0  0  0  0  0  0  0  0
  147.0894  136.0197  153.7702 N   0  3  0  0  0  0  0  0  0  0  0  0
  148.0141  136.6265  154.7521 C   0  0  0  0  0  0  0  0  0  0  0  0
  147.9369  138.1633  154.7798 C   0  0  0  0  0  0  0  0  0  0  0  0
  146.8915  138.6977  155.1549 O   0  0  0  0  0  0  0  0  0  0  0  0
  149.0185  138.8834  154.3992 N   0  0  0  0  0  0  0  0  0  0  0  0
  149.1229  140.3458  154.3870 C   0  0  0  0  0  0  0  0  0  0  0  0
  150.1932  140.7604  155.4123 C   0  0  0  0  0  0  0  0  0  0  0  0
  151.4341  140.1403  155.0834 O   0  0  0  0  0  0  0  0  0  0  0  0
  151.3601  138.7166  155.0516 C   0  0  0  0  0  0  0  0  0  0  0  0
  150.2986  138.2736  154.0283 C   0  0  0  0  0  0  0  0  0  0  0  0
  145.9294  132.7410  150.8703 C   0  0  0  0  0  0  0  0  0  0  0  0
  143.3417  132.8564  148.6092 H   0  0  0  0  0  0  0  0  0  0  0  0
  143.8626  131.2736  149.1581 H   0  0  0  0  0  0  0  0  0  0  0  0
  144.9541  132.2835  148.2265 H   0  0  0  0  0  0  0  0  0  0  0  0
  143.0425  134.2185  151.0602 H   0  0  0  0  0  0  0  0  0  0  0  0
  147.2449  132.6781  153.4170 H   0  0  0  0  0  0  0  0  0  0  0  0
  147.9004  133.9941  152.4660 H   0  0  0  0  0  0  0  0  0  0  0  0
  145.5631  134.6605  154.2575 H   0  0  0  0  0  0  0  0  0  0  0  0
  147.0874  134.3309  155.0497 H   0  0  0  0  0  0  0  0  0  0  0  0
  147.5605  135.9964  152.8765 H   0  0  0  0  0  0  0  0  0  0  0  0
  147.7401  136.2553  155.7403 H   0  0  0  0  0  0  0  0  0  0  0  0
  149.0310  136.2908  154.5447 H   0  0  0  0  0  0  0  0  0  0  0  0
  149.4174  140.6748  153.3892 H   0  0  0  0  0  0  0  0  0  0  0  0
  148.1868  140.8587  154.6006 H   0  0  0  0  0  0  0  0  0  0  0  0
  150.3260  141.8423  155.4037 H   0  0  0  0  0  0  0  0  0  0  0  0
  149.8922  140.4818  156.4237 H   0  0  0  0  0  0  0  0  0  0  0  0
  152.3372  138.3181  154.7786 H   0  0  0  0  0  0  0  0  0  0  0  0
  151.1247  138.3339  156.0461 H   0  0  0  0  0  0  0  0  0  0  0  0
  150.2583  137.1842  153.9904 H   0  0  0  0  0  0  0  0  0  0  0  0
  150.5803  138.6007  153.0264 H   0  0  0  0  0  0  0  0  0  0  0  0
  146.7799  132.1454  150.5717 H   0  0  0  0  0  0  0  0  0  0  0  0
  146.2700  136.6040  153.6902 H   0  0  0  0  0  0  0  0  0  0  0  0
  1  2  1  0  0  0  0
  1 19  1  0  0  0  0
  1 20  1  0  0  0  0
  1 21  1  0  0  0  0
  2 18  2  0  0  0  0
  2  3  1  0  0  0  0
  3  4  2  0  0  0  0
  3 22  1  0  0  0  0
  4  5  1  0  0  0  0
  5  6  1  0  0  0  0
  5 18  1  0  0  0  0
  6  7  1  0  0  0  0
  6 23  1  0  0  0  0
  6 24  1  0  0  0  0
  7  8  1  0  0  0  0
  7 25  1  0  0  0  0
  7 26  1  0  0  0  0
  8  9  1  0  0  0  0
  8 27  1  0  0  0  0
  8 39  1  0  0  0  0
  9 10  1  0  0  0  0
  9 28  1  0  0  0  0
  9 29  1  0  0  0  0
 10 11  2  0  0  0  0
 10 12  1  0  0  0  0
 12 17  1  0  0  0  0
 12 13  1  0  0  0  0
 13 14  1  0  0  0  0
 13 30  1  0  0  0  0
 13 31  1  0  0  0  0
 14 15  1  0  0  0  0
 14 32  1  0  0  0  0
 14 33  1  0  0  0  0
 15 16  1  0  0  0  0
 16 17  1  0  0  0  0
 16 34  1  0  0  0  0
 16 35  1  0  0  0  0
 17 36  1  0  0  0  0
 17 37  1  0  0  0  0
 18 38  1  0  0  0  0
M  CHG  1   8   1
M  END
> <s_m_source_file>
AV-unprocessed.smi

> <i_m_source_file_index>
3312

> <i_lp_mmshare_version>
43012

> <i_f3d_flags>
0

> <s_epik_input>
W0NIM11jMVtjSF1ubihbY0hdMSlbQ0gyXVtDSDJdW05IXVtDSDJdQyg9TylOMltDSDJdW0NIMl1PW0NIMl1bQ0gyXTI=

> <s_epik_cmdline>
J2VwaWtfcHl0aG9uJywgJy1waCcsICc3LjAnLCAnLXRuJywgJzgnLCAnLW1hJywgJzIwMCcsICctbWV0YWxfYmluZGluZycsICctaW1hZScsICc8aW5maWxlLm1hZT4nLCAnLW9tYWUnLCAnPG91dGZpbGUubWFlPic=

> <r_lp_tautomer_probability>
1

> <r_epik_Ionization_Penalty>
0.325402

> <r_epik_Ionization_Penalty_Charging>
0.325398

> <r_epik_Ionization_Penalty_Neutral>
4.45308e-06

> <r_epik_State_Penalty>
0.321221

> <r_epik_Charging_Adjusted_Penalty>
0.646619

> <i_epik_Tot_Q>
1

> <i_epik_Tot_abs_Q>
1

> <r_epik_Metal_State_Penalty>
0.321643

> <b_epik_Metal_Only>
0

> <s_lp_Force_Field>
OPLS_2005

> <r_lp_Energy>
21.6744

> <b_lp_Chiralities_Consistent>
1

> <s_lp_Variant>
AV-unprocessed.smi:3312-1

> <Gold.Version>
5.8.1

> <Gold.Id.Protein>
6NUR|6NUR_protein|mol2

> <Gold.PLP.Fitness>
42.9857

> <Gold.PLP.PLP>
-29.5342

> <Gold.PLP.part.hbond>
-2.0000

> <Gold.PLP.part.metal>
0.0000

> <Gold.PLP.part.buried>
-1.9239

> <Gold.PLP.part.nonpolar>
-26.2866

> <Gold.PLP.part.repulsive>
0.1721

> <Gold.PLP.ligand.clash>
0.0000

> <Gold.PLP.ligand.torsion>
0.7796

> <Gold.PLP.Chemscore.Hbond>
3.0000

> <Gold.PLP.Chemscore.CHOScore>
1.9926

> <Gold.PLP.Chemscore.Metal>
0.0000

> <Gold.Chemscore.Hbonds>
donor molecule, donor type, donor heavy atom, donor atom, acceptor molecule, acceptor atom, score
      L1  H     8    27       P1  7948  2.00
      P1  H  7989  7998       L1    15  0.90
      L1  C     3    22       P1 10186  0.99
      L1  C    18    38       P1 10747  0.93

> <Gold.PLP.Chemscore.Internal.Correction>
0.0329

> <Gold.Rescore>
     Score         DG    S(hbond)    S(metal)    S(lipo)     H(rot)  DE(clash)    DE(int)     intcor
     13.45     -14.43       1.46        0.00      76.09       1.89       0.19       0.80       ----

> <Gold.Chemscore.Fitness>
13.4455

> <Gold.Chemscore.DG>
-14.4319

> <Gold.Chemscore.ZeroCoef>
-5.4800

> <Gold.Chemscore.Hbond>
1.4614

> <Gold.Chemscore.Metal>
0.0000

> <Gold.Chemscore.Lipo>
76.0887

> <Gold.Chemscore.Internal_Hbond>
0.0000

> <Gold.Chemscore.DEClash>
0.1890

> <Gold.Chemscore.DEInternal>
0.7974

> <Gold.Chemscore.Rot>
1.8874

> <Gold.Chemscore.Internal.Correction>
   9.000000E+99

> <Gold.Chemscore.Hbonds>
donor molecule, donor type, donor heavy atom, donor atom, acceptor molecule, acceptor atom, score
      L1  H     8    27       P1  7948  0.97
      P1  H  7989  7998       L1    15  0.15

> <Gold.Chemscore.Hbond.Weighted>
-4.8812

> <Gold.Chemscore.Metal.Weighted>
-0.0000

> <Gold.Chemscore.Lipo.Weighted>
-8.9024

> <Gold.Chemscore.Internal_Hbond.Weighted>
0.0000

> <Gold.Chemscore.DEClash.Weighted>
0.1890

> <Gold.Chemscore.DEInternal.Weighted>
0.7974

> <Gold.Chemscore.Rot.Weighted>
4.8317

> <Gold.Chemscore.Internal.Correction.Weighted>
   9.000000E+99

> <Gold.Protein.RotatedTorsions>
[ 6907 6896 6895 6894 ] final -113.40 input  -60.11 | X-H torsion
[ 7974 7965 7964 7962 ] final   28.58 input  175.53 | X-H torsion
[ 8008 7997 7996 7995 ] final  -47.56 input   59.86 | X-H torsion
[ 10167 10162 10161 10158 ] final   30.25 input  -65.29 | X-H torsion
[ 10718 10713 10712 10709 ] final -149.17 input   66.30 | X-H torsion
[ 10763 10752 10751 10750 ] final  -23.41 input  -60.55 | X-H torsion
[ 11005 11000 10999 10996 ] final  -89.17 input  -57.11 | X-H torsion

> <Gold.Protein.ActiveResidues>
 VAL166  LYS551  ARG553  GLY616  TRP617  ASP618  TYR619  PRO620  LYS621  CYS622 
 ASP623  PHE694  ASN695  SER759  ASP760  ASP761  ALA762  ILE779  LEU786  VAL792 
 PHE793  MET794  SER795  GLU796  ALA797  LYS798  CYS799  TRP800  GLU811  SER814 

> <Gold.Protein.RotatedAtoms>
  150.7827  133.8950  159.3324 H   0  0  0  0  0  0  0  0  0  0  0  0  # atno 6907 bound_to 6896
  151.6808  135.0960  160.0225 H   0  0  0  0  0  0  0  0  0  0  0  0  # atno 6908 bound_to 6896
  152.3882  133.6603  159.6252 H   0  0  0  0  0  0  0  0  0  0  0  0  # atno 6909 bound_to 6896
  146.1720  139.7036  142.8960 H   0  0  0  0  0  0  0  0  0  0  0  0  # atno 7974 bound_to 7965
  154.4018  140.1343  156.4195 H   0  0  0  0  0  0  0  0  0  0  0  0  # atno 8008 bound_to 7997
  155.7656  140.3485  155.5200 H   0  0  0  0  0  0  0  0  0  0  0  0  # atno 8009 bound_to 7997
  155.8817  140.0988  157.1471 H   0  0  0  0  0  0  0  0  0  0  0  0  # atno 8010 bound_to 7997
  140.4694  144.0786  150.6233 H   0  0  0  0  0  0  0  0  0  0  0  0  # atno 10167 bound_to 10162
  156.4297  130.8069  151.2296 H   0  0  0  0  0  0  0  0  0  0  0  0  # atno 10718 bound_to 10713
  153.6674  135.6973  153.5158 H   0  0  0  0  0  0  0  0  0  0  0  0  # atno 10763 bound_to 10752
  153.2584  135.4252  155.0869 H   0  0  0  0  0  0  0  0  0  0  0  0  # atno 10764 bound_to 10752
  154.8436  135.3549  154.6218 H   0  0  0  0  0  0  0  0  0  0  0  0  # atno 10765 bound_to 10752
  141.1589  133.7614  156.9556 H   0  0  0  0  0  0  0  0  0  0  0  0  # atno 11005 bound_to 11000
  145.4313  141.0415  143.2909 LP  0  0  0  0  0  0  0  0  0  0  0  0  # atno 17320 bound_to 7965
  144.8178  139.5845  143.7000 LP  0  0  0  0  0  0  0  0  0  0  0  0  # atno 17321 bound_to 7965
  140.3996  143.2711  151.9964 LP  0  0  0  0  0  0  0  0  0  0  0  0  # atno 17342 bound_to 10162
  139.4816  144.6009  151.7607 LP  0  0  0  0  0  0  0  0  0  0  0  0  # atno 17343 bound_to 10162
  157.7508  131.0202  150.3699 LP  0  0  0  0  0  0  0  0  0  0  0  0  # atno 17370 bound_to 10713
  156.4034  130.3920  149.6943 LP  0  0  0  0  0  0  0  0  0  0  0  0  # atno 17371 bound_to 10713
  140.1227  134.9406  157.2226 LP  0  0  0  0  0  0  0  0  0  0  0  0  # atno 17394 bound_to 11000
  140.3051  134.3087  155.7280 LP  0  0  0  0  0  0  0  0  0  0  0  0  # atno 17395 bound_to 11000

$$$$
