AV-unprocessed.smi:109|AV-procd|sdf|1050|dock2
  -GOLD-   2262018103D 1   1.00000     0.00000
 Structure written by MMmdl.
 58 61  0  0  0  0  0  0  0  0  1 V2000
  150.7996  137.0761  159.5273 O   0  0  0  0  0  0  0  0  0  0  0  0
  149.4792  137.2264  159.0526 C   0  0  0  0  0  0  0  0  0  0  0  0
  148.9285  135.8645  158.5953 C   0  0  0  0  0  0  0  0  0  0  0  0
  147.3841  135.7555  158.6417 C   0  0  1  0  0  0  0  0  0  0  0  0
  146.9486  134.6232  157.8203 N   0  0  0  0  0  0  0  0  0  0  0  0
  147.4064  134.4241  156.5636 C   0  0  0  0  0  0  0  0  0  0  0  0
  148.6610  133.9611  156.3311 N   0  0  0  0  0  0  0  0  0  0  0  0
  149.0802  133.7683  155.0789 C   0  0  0  0  0  0  0  0  0  0  0  0
  148.4172  133.9707  153.9397 N   0  0  0  0  0  0  0  0  0  0  0  0
  147.1535  134.4391  154.1582 C   0  0  0  0  0  0  0  0  0  0  0  0
  146.5829  134.6905  155.4390 C   0  0  0  0  0  0  0  0  0  0  0  0
  145.2879  135.1644  155.2945 N   0  0  0  0  0  0  0  0  0  0  0  0
  145.1083  135.1958  154.0027 C   0  0  0  0  0  0  0  0  0  0  0  0
  146.1690  134.7619  153.2367 N   0  0  0  0  0  0  0  0  0  0  0  0
  146.2071  134.7269  151.7314 C   0  0  1  0  0  0  0  0  0  0  0  0
  146.4606  133.4206  151.3253 O   0  0  0  0  0  0  0  0  0  0  0  0
  145.2359  132.7516  151.0624 C   0  0  2  0  0  0  0  0  0  0  0  0
  145.4792  131.5839  150.0942 C   0  0  0  0  0  0  0  0  0  0  0  0
  146.5874  131.8612  149.2647 O   0  0  0  0  0  0  0  0  0  0  0  0
  144.3510  133.8594  150.4669 C   0  0  1  0  0  0  0  0  0  0  0  0
  143.0030  133.6561  150.8400 O   0  0  0  0  0  0  0  0  0  0  0  0
  144.8909  135.1629  151.0662 C   0  0  2  0  0  0  0  0  0  0  0  0
  145.1285  136.1091  150.0433 O   0  0  0  0  0  0  0  0  0  0  0  0
  146.8137  135.6003  160.0811 C   0  0  0  0  0  0  0  0  0  0  0  0
  147.1932  136.8155  160.9671 C   0  0  0  0  0  0  0  0  0  0  0  0
  146.6529  136.6934  162.4003 C   0  0  0  0  0  0  0  0  0  0  0  0
  147.1399  135.4014  163.0662 C   0  0  0  0  0  0  0  0  0  0  0  0
  146.7516  134.1820  162.2217 C   0  0  0  0  0  0  0  0  0  0  0  0
  147.2809  134.2997  160.7827 C   0  0  0  0  0  0  0  0  0  0  0  0
  147.0512  135.3707  151.4799 H   0  0  0  0  0  0  0  0  0  0  0  0
  144.8178  132.3858  152.0005 H   0  0  0  0  0  0  0  0  0  0  0  0
  144.4344  133.8669  149.3787 H   0  0  0  0  0  0  0  0  0  0  0  0
  144.2220  135.6197  151.7951 H   0  0  0  0  0  0  0  0  0  0  0  0
  151.3951  137.1961  158.8035 H   0  0  0  0  0  0  0  0  0  0  0  0
  148.8626  137.6421  159.8501 H   0  0  0  0  0  0  0  0  0  0  0  0
  149.4865  137.9461  158.2340 H   0  0  0  0  0  0  0  0  0  0  0  0
  149.2826  135.6436  157.5873 H   0  0  0  0  0  0  0  0  0  0  0  0
  149.3724  135.1146  159.2475 H   0  0  0  0  0  0  0  0  0  0  0  0
  146.9774  136.6885  158.2522 H   0  0  0  0  0  0  0  0  0  0  0  0
  146.2481  134.0293  158.2402 H   0  0  0  0  0  0  0  0  0  0  0  0
  150.0893  133.3977  154.9750 H   0  0  0  0  0  0  0  0  0  0  0  0
  144.1816  135.5398  153.5666 H   0  0  0  0  0  0  0  0  0  0  0  0
  145.7106  130.6770  150.6542 H   0  0  0  0  0  0  0  0  0  0  0  0
  144.5949  131.3756  149.4912 H   0  0  0  0  0  0  0  0  0  0  0  0
  147.3631  131.5048  149.6701 H   0  0  0  0  0  0  0  0  0  0  0  0
  142.4541  133.8732  150.1011 H   0  0  0  0  0  0  0  0  0  0  0  0
  144.6487  136.8974  150.2465 H   0  0  0  0  0  0  0  0  0  0  0  0
  145.7252  135.5649  160.0104 H   0  0  0  0  0  0  0  0  0  0  0  0
  148.2787  136.9201  160.9978 H   0  0  0  0  0  0  0  0  0  0  0  0
  146.8114  137.7422  160.5382 H   0  0  0  0  0  0  0  0  0  0  0  0
  146.9662  137.5553  162.9899 H   0  0  0  0  0  0  0  0  0  0  0  0
  145.5624  136.7097  162.3835 H   0  0  0  0  0  0  0  0  0  0  0  0
  148.2232  135.4356  163.1889 H   0  0  0  0  0  0  0  0  0  0  0  0
  146.7155  135.3135  164.0667 H   0  0  0  0  0  0  0  0  0  0  0  0
  147.1363  133.2729  162.6846 H   0  0  0  0  0  0  0  0  0  0  0  0
  145.6656  134.0822  162.2028 H   0  0  0  0  0  0  0  0  0  0  0  0
  146.9392  133.4207  160.2389 H   0  0  0  0  0  0  0  0  0  0  0  0
  148.3708  134.2571  160.7901 H   0  0  0  0  0  0  0  0  0  0  0  0
  1  2  1  0  0  0  0
  1 34  1  0  0  0  0
  2  3  1  0  0  0  0
  2 35  1  0  0  0  0
  2 36  1  0  0  0  0
  3  4  1  0  0  0  0
  3 37  1  0  0  0  0
  3 38  1  0  0  0  0
  4  5  1  0  0  0  0
  4 24  1  0  0  0  0
  4 39  1  0  0  0  0
  5  6  1  0  0  0  0
  5 40  1  0  0  0  0
  6 11  1  0  0  0  0
  6  7  2  0  0  0  0
  7  8  1  0  0  0  0
  8  9  2  0  0  0  0
  8 41  1  0  0  0  0
  9 10  1  0  0  0  0
 10 14  1  0  0  0  0
 10 11  2  0  0  0  0
 11 12  1  0  0  0  0
 12 13  2  0  0  0  0
 13 14  1  0  0  0  0
 13 42  1  0  0  0  0
 14 15  1  0  0  0  0
 15 30  1  0  0  0  0
 15 22  1  0  0  0  0
 15 16  1  0  0  0  0
 16 17  1  0  0  0  0
 17 31  1  0  0  0  0
 17 18  1  0  0  0  0
 17 20  1  0  0  0  0
 18 19  1  0  0  0  0
 18 43  1  0  0  0  0
 18 44  1  0  0  0  0
 19 45  1  0  0  0  0
 20 32  1  0  0  0  0
 20 21  1  0  0  0  0
 20 22  1  0  0  0  0
 21 46  1  0  0  0  0
 22 33  1  0  0  0  0
 22 23  1  0  0  0  0
 23 47  1  0  0  0  0
 24 29  1  0  0  0  0
 24 25  1  0  0  0  0
 24 48  1  0  0  0  0
 25 26  1  0  0  0  0
 25 49  1  0  0  0  0
 25 50  1  0  0  0  0
 26 27  1  0  0  0  0
 26 51  1  0  0  0  0
 26 52  1  0  0  0  0
 27 28  1  0  0  0  0
 27 53  1  0  0  0  0
 27 54  1  0  0  0  0
 28 29  1  0  0  0  0
 28 55  1  0  0  0  0
 28 56  1  0  0  0  0
 29 57  1  0  0  0  0
 29 58  1  0  0  0  0
M  END
> <s_m_source_file>
AV-unprocessed.smi

> <i_m_source_file_index>
109

> <i_lp_mmshare_version>
43012

> <i_f3d_flags>
0

> <s_epik_input>
W0NIMl0xW0NIMl1bQ0gyXVtDSDJdW0NIMl1bQ0hdMVtDQEhdKFtDSDJdW0NIMl1bT0hdKVtOSF1jKG5bY0hdbjIpYyhjMjMpbltjSF1uM1tDQEBIXTRPW0NASF0oW0NIMl1bT0hdKVtDQEBIXShbT0hdKVtDQEhdNFtPSF0=

> <s_epik_cmdline>
J2VwaWtfcHl0aG9uJywgJy1waCcsICc3LjAnLCAnLXRuJywgJzgnLCAnLW1hJywgJzIwMCcsICctbWV0YWxfYmluZGluZycsICctaW1hZScsICc8aW5maWxlLm1hZT4nLCAnLW9tYWUnLCAnPG91dGZpbGUubWFlPic=

> <r_lp_tautomer_probability>
1

> <r_epik_Ionization_Penalty>
0.000793976

> <r_epik_Ionization_Penalty_Charging>
0

> <r_epik_Ionization_Penalty_Neutral>
0.000793976

> <r_epik_State_Penalty>
-0

> <r_epik_Charging_Adjusted_Penalty>
0

> <i_epik_Tot_Q>
0

> <i_epik_Tot_abs_Q>
0

> <r_epik_Metal_State_Penalty>
-0

> <b_epik_Metal_Only>
0

> <s_epik_Chemistry_Notes>
This compound contains an acetal/aminal-like group ( X-CH(R)-Y where X, Y are N, S, or O) that may be acid/base labile, releasing an aldehyde.

> <s_lp_Force_Field>
OPLS_2005

> <r_lp_Energy>
47.2869

> <b_lp_Chiralities_Consistent>
1

> <s_lp_Variant>
AV-unprocessed.smi:109-20

> <Gold.Version>
5.8.1

> <Gold.Id.Protein>
6NUR|6NUR_protein|mol2

> <Gold.PLP.Fitness>
52.1649

> <Gold.PLP.PLP>
-42.6741

> <Gold.PLP.part.hbond>
-5.0000

> <Gold.PLP.part.metal>
0.0000

> <Gold.PLP.part.buried>
-6.8985

> <Gold.PLP.part.nonpolar>
-32.0252

> <Gold.PLP.part.repulsive>
0.6790

> <Gold.PLP.ligand.clash>
0.0000

> <Gold.PLP.ligand.torsion>
1.4194

> <Gold.PLP.Chemscore.Hbond>
3.9840

> <Gold.PLP.Chemscore.CHOScore>
0.0000

> <Gold.PLP.Chemscore.Metal>
0.0000

> <Gold.Chemscore.Hbonds>
donor molecule, donor type, donor heavy atom, donor atom, acceptor molecule, acceptor atom, score
      L1  H    19    45       P1 10747  1.00
      L1  H    21    46       P1 10186  0.96
      L1  H    23    47       P1 10171  1.00
      P1  H  6896  6909       L1     1  0.90

> <Gold.PLP.Chemscore.Internal.Correction>
0.3777

> <Gold.Rescore>
     Score         DG    S(hbond)    S(metal)    S(lipo)     H(rot)  DE(clash)    DE(int)     intcor
      8.57     -11.23       2.93        0.00      85.08       5.47       0.39       2.28       ----

> <Gold.Chemscore.Fitness>
8.5655

> <Gold.Chemscore.DG>
-11.2317

> <Gold.Chemscore.ZeroCoef>
-5.4800

> <Gold.Chemscore.Hbond>
2.9313

> <Gold.Chemscore.Metal>
0.0000

> <Gold.Chemscore.Lipo>
85.0821

> <Gold.Chemscore.Internal_Hbond>
0.0000

> <Gold.Chemscore.DEClash>
0.3887

> <Gold.Chemscore.DEInternal>
2.2775

> <Gold.Chemscore.Rot>
5.4662

> <Gold.Chemscore.Internal.Correction>
   9.000000E+99

> <Gold.Chemscore.Hbonds>
donor molecule, donor type, donor heavy atom, donor atom, acceptor molecule, acceptor atom, score
      L1  H    19    45       P1 10747  1.00
      L1  H    21    46       P1 10186  0.92
      L1  H    23    47       P1 10171  0.97
      P1  H  6896  6909       L1     1  0.12

> <Gold.Chemscore.Hbond.Weighted>
-9.7906

> <Gold.Chemscore.Metal.Weighted>
-0.0000

> <Gold.Chemscore.Lipo.Weighted>
-9.9546

> <Gold.Chemscore.Internal_Hbond.Weighted>
0.0000

> <Gold.Chemscore.DEClash.Weighted>
0.3887

> <Gold.Chemscore.DEInternal.Weighted>
2.2775

> <Gold.Chemscore.Rot.Weighted>
13.9935

> <Gold.Chemscore.Internal.Correction.Weighted>
   9.000000E+99

> <Gold.Protein.RotatedTorsions>
[ 6907 6896 6895 6894 ] final   90.16 input  -60.11 | X-H torsion
[ 7974 7965 7964 7962 ] final  146.96 input  175.53 | X-H torsion
[ 8008 7997 7996 7995 ] final   31.48 input   59.86 | X-H torsion
[ 10167 10162 10161 10158 ] final -133.76 input  -65.29 | X-H torsion
[ 10718 10713 10712 10709 ] final    7.73 input   66.30 | X-H torsion
[ 10763 10752 10751 10750 ] final  146.33 input  -60.55 | X-H torsion
[ 11005 11000 10999 10996 ] final  -84.65 input  -57.11 | X-H torsion

> <Gold.Protein.ActiveResidues>
 VAL166  LYS551  ARG553  GLY616  TRP617  ASP618  TYR619  PRO620  LYS621  CYS622 
 ASP623  PHE694  ASN695  SER759  ASP760  ASP761  ALA762  ILE779  LEU786  VAL792 
 PHE793  MET794  SER795  GLU796  ALA797  LYS798  CYS799  TRP800  GLU811  SER814 

> <Gold.Protein.RotatedAtoms>
  152.5442  134.1855  159.8652 H   0  0  0  0  0  0  0  0  0  0  0  0  # atno 6907 bound_to 6896
  151.1854  133.4692  159.2602 H   0  0  0  0  0  0  0  0  0  0  0  0  # atno 6908 bound_to 6896
  151.1136  135.0052  159.8561 H   0  0  0  0  0  0  0  0  0  0  0  0  # atno 6909 bound_to 6896
  144.8629  139.5970  143.5922 H   0  0  0  0  0  0  0  0  0  0  0  0  # atno 7974 bound_to 7965
  155.1072  140.3235  155.4531 H   0  0  0  0  0  0  0  0  0  0  0  0  # atno 8008 bound_to 7997
  156.2701  140.2050  156.6144 H   0  0  0  0  0  0  0  0  0  0  0  0  # atno 8009 bound_to 7997
  154.6784  140.0529  157.0227 H   0  0  0  0  0  0  0  0  0  0  0  0  # atno 8010 bound_to 7997
  139.8950  143.6677  152.2605 H   0  0  0  0  0  0  0  0  0  0  0  0  # atno 10167 bound_to 10162
  156.9412  130.5862  149.5652 H   0  0  0  0  0  0  0  0  0  0  0  0  # atno 10718 bound_to 10713
  154.0200  135.2907  155.3382 H   0  0  0  0  0  0  0  0  0  0  0  0  # atno 10763 bound_to 10752
  154.7051  135.5172  153.8587 H   0  0  0  0  0  0  0  0  0  0  0  0  # atno 10764 bound_to 10752
  153.0685  135.6639  154.0423 H   0  0  0  0  0  0  0  0  0  0  0  0  # atno 10765 bound_to 10752
  141.1648  133.7357  156.8898 H   0  0  0  0  0  0  0  0  0  0  0  0  # atno 11005 bound_to 11000
  146.2874  139.7043  142.9185 LP  0  0  0  0  0  0  0  0  0  0  0  0  # atno 17320 bound_to 7965
  145.4277  141.0412  143.2928 LP  0  0  0  0  0  0  0  0  0  0  0  0  # atno 17321 bound_to 7965
  139.7076  144.7625  151.1167 LP  0  0  0  0  0  0  0  0  0  0  0  0  # atno 17342 bound_to 10162
  140.7719  143.5374  150.9353 LP  0  0  0  0  0  0  0  0  0  0  0  0  # atno 17343 bound_to 10162
  156.0403  130.5486  150.8755 LP  0  0  0  0  0  0  0  0  0  0  0  0  # atno 17370 bound_to 10713
  157.5783  131.0946  150.9310 LP  0  0  0  0  0  0  0  0  0  0  0  0  # atno 17371 bound_to 10713
  140.1656  134.9135  157.2770 LP  0  0  0  0  0  0  0  0  0  0  0  0  # atno 17394 bound_to 11000
  140.2561  134.3626  155.7424 LP  0  0  0  0  0  0  0  0  0  0  0  0  # atno 17395 bound_to 11000

$$$$
