AV-unprocessed.smi:3104|AV-procd|sdf|11816|dock1
  -GOLD-   2272017183D 1   1.00000     0.00000
 Structure written by MMmdl.
 37 38  0  0  0  0  0  0  0  0  2 V2000
  150.5540  136.1241  156.0893 C   0  0  0  0  0  0  0  0  0  0  0  0
  150.4750  137.5201  155.5420 C   0  0  0  0  0  0  0  0  0  0  0  0
  150.5873  137.9359  154.1853 C   0  0  0  0  0  0  0  0  0  0  0  0
  150.4815  139.2466  154.0397 N   0  0  0  0  0  0  0  0  0  0  0  0
  150.2806  139.7143  155.2905 N   0  0  0  0  0  0  0  0  0  0  0  0
  150.1489  141.1504  155.5118 C   0  0  1  0  0  0  0  0  0  0  0  0
  148.9620  141.6958  154.6950 C   0  0  0  0  0  0  0  0  0  0  0  0
  150.0573  141.4637  157.0284 C   0  0  2  0  0  0  0  0  0  0  0  0
  148.6771  141.1232  157.6226 C   0  0  0  0  0  0  0  0  0  0  0  0
  150.3668  142.8942  157.2637 N   0  3  0  0  0  0  0  0  0  0  0  0
  151.7718  143.2838  157.0298 C   0  0  0  0  0  0  0  0  0  0  0  0
  152.2666  144.2006  158.1286 C   0  0  0  0  0  0  0  0  0  0  0  0
  152.7178  143.6246  159.4509 C   0  0  0  0  0  0  0  0  0  0  0  0
  151.4478  144.4350  159.3776 C   0  0  0  0  0  0  0  0  0  0  0  0
  150.2834  138.6914  156.2182 C   0  0  0  0  0  0  0  0  0  0  0  0
  150.4760  135.3745  155.3016 H   0  0  0  0  0  0  0  0  0  0  0  0
  149.7529  135.9243  156.8012 H   0  0  0  0  0  0  0  0  0  0  0  0
  151.4967  135.9488  156.6078 H   0  0  0  0  0  0  0  0  0  0  0  0
  150.7477  137.3274  153.3071 H   0  0  0  0  0  0  0  0  0  0  0  0
  151.0503  141.6270  155.1207 H   0  0  0  0  0  0  0  0  0  0  0  0
  148.9439  142.7853  154.6898 H   0  0  0  0  0  0  0  0  0  0  0  0
  148.0073  141.3477  155.0905 H   0  0  0  0  0  0  0  0  0  0  0  0
  149.0262  141.3771  153.6540 H   0  0  0  0  0  0  0  0  0  0  0  0
  150.8114  140.8633  157.5402 H   0  0  0  0  0  0  0  0  0  0  0  0
  148.4596  140.0582  157.5489 H   0  0  0  0  0  0  0  0  0  0  0  0
  147.8805  141.6633  157.1098 H   0  0  0  0  0  0  0  0  0  0  0  0
  148.6199  141.3769  158.6810 H   0  0  0  0  0  0  0  0  0  0  0  0
  149.7985  143.4340  156.6256 H   0  0  0  0  0  0  0  0  0  0  0  0
  152.4118  142.4032  156.9706 H   0  0  0  0  0  0  0  0  0  0  0  0
  151.8484  143.8102  156.0776 H   0  0  0  0  0  0  0  0  0  0  0  0
  152.8532  145.0439  157.7679 H   0  0  0  0  0  0  0  0  0  0  0  0
  152.6187  142.5510  159.5985 H   0  0  0  0  0  0  0  0  0  0  0  0
  153.5794  144.0833  159.9315 H   0  0  0  0  0  0  0  0  0  0  0  0
  151.4633  145.4344  159.8078 H   0  0  0  0  0  0  0  0  0  0  0  0
  150.5052  143.9002  159.4766 H   0  0  0  0  0  0  0  0  0  0  0  0
  150.1521  138.8785  157.2739 H   0  0  0  0  0  0  0  0  0  0  0  0
  150.1007  143.1375  158.2072 H   0  0  0  0  0  0  0  0  0  0  0  0
  1  2  1  0  0  0  0
  1 16  1  0  0  0  0
  1 17  1  0  0  0  0
  1 18  1  0  0  0  0
  2 15  2  0  0  0  0
  2  3  1  0  0  0  0
  3  4  2  0  0  0  0
  3 19  1  0  0  0  0
  4  5  1  0  0  0  0
  5  6  1  0  0  0  0
  5 15  1  0  0  0  0
  6  7  1  0  0  0  0
  6  8  1  0  0  0  0
  6 20  1  0  0  0  0
  7 21  1  0  0  0  0
  7 22  1  0  0  0  0
  7 23  1  0  0  0  0
  8  9  1  0  0  0  0
  8 10  1  0  0  0  0
  8 24  1  0  0  0  0
  9 25  1  0  0  0  0
  9 26  1  0  0  0  0
  9 27  1  0  0  0  0
 10 11  1  0  0  0  0
 10 28  1  0  0  0  0
 10 37  1  0  0  0  0
 11 12  1  0  0  0  0
 11 29  1  0  0  0  0
 11 30  1  0  0  0  0
 12 14  1  0  0  0  0
 12 13  1  0  0  0  0
 12 31  1  0  0  0  0
 13 14  1  0  0  0  0
 13 32  1  0  0  0  0
 13 33  1  0  0  0  0
 14 34  1  0  0  0  0
 14 35  1  0  0  0  0
 15 36  1  0  0  0  0
M  CHG  1  10   1
M  END
> <s_m_source_file>
AV-unprocessed.smi

> <i_m_source_file_index>
3104

> <i_lp_mmshare_version>
43012

> <i_f3d_flags>
0

> <s_epik_input>
W0NIM11jMVtjSF1ubihbY0hdMSlbQ0BIXShbQ0gzXSlbQ0BIXShbQ0gzXSlbTkhdW0NIMl1bQ0hdMltDSDJdW0NIMl0y

> <s_epik_cmdline>
J2VwaWtfcHl0aG9uJywgJy1waCcsICc3LjAnLCAnLXRuJywgJzgnLCAnLW1hJywgJzIwMCcsICctbWV0YWxfYmluZGluZycsICctaW1hZScsICc8aW5maWxlLm1hZT4nLCAnLW9tYWUnLCAnPG91dGZpbGUubWFlPic=

> <r_lp_tautomer_probability>
1

> <r_epik_Ionization_Penalty>
0.00120445

> <r_epik_Ionization_Penalty_Charging>
0.00118273

> <r_epik_Ionization_Penalty_Neutral>
2.17265e-05

> <r_epik_State_Penalty>
-0

> <r_epik_Charging_Adjusted_Penalty>
0.00118273

> <i_epik_Tot_Q>
1

> <i_epik_Tot_abs_Q>
1

> <r_epik_Metal_State_Penalty>
-0

> <b_epik_Metal_Only>
0

> <s_lp_Force_Field>
OPLS_2005

> <r_lp_Energy>
20.526

> <b_lp_Chiralities_Consistent>
1

> <s_lp_Variant>
AV-unprocessed.smi:3104-2

> <Gold.Version>
5.8.1

> <Gold.Id.Protein>
6NUR|6NUR_protein|mol2

> <Gold.PLP.Fitness>
43.3833

> <Gold.PLP.PLP>
-32.7815

> <Gold.PLP.part.hbond>
-2.0000

> <Gold.PLP.part.metal>
0.0000

> <Gold.PLP.part.buried>
-1.9745

> <Gold.PLP.part.nonpolar>
-28.6081

> <Gold.PLP.part.repulsive>
0.1845

> <Gold.PLP.ligand.clash>
0.0000

> <Gold.PLP.ligand.torsion>
1.0705

> <Gold.PLP.Chemscore.Hbond>
3.0000

> <Gold.PLP.Chemscore.CHOScore>
1.0000

> <Gold.PLP.Chemscore.Metal>
0.0000

> <Gold.Chemscore.Hbonds>
donor molecule, donor type, donor heavy atom, donor atom, acceptor molecule, acceptor atom, score
      L1  H    10    28       P1  8028  2.00
      P1  H  7989  7998       L1     4  0.66
      L1  C     3    19       P1  7948  0.29
      L1  C     3    19       P1  7949  0.76

> <Gold.PLP.Chemscore.Internal.Correction>
0.7428

> <Gold.Rescore>
     Score         DG    S(hbond)    S(metal)    S(lipo)     H(rot)  DE(clash)    DE(int)     intcor
     17.24     -18.47       1.77        0.00      93.03       1.49       0.02       1.21       ----

> <Gold.Chemscore.Fitness>
17.2371

> <Gold.Chemscore.DG>
-18.4689

> <Gold.Chemscore.ZeroCoef>
-5.4800

> <Gold.Chemscore.Hbond>
1.7740

> <Gold.Chemscore.Metal>
0.0000

> <Gold.Chemscore.Lipo>
93.0276

> <Gold.Chemscore.Internal_Hbond>
0.0000

> <Gold.Chemscore.DEClash>
0.0176

> <Gold.Chemscore.DEInternal>
1.2142

> <Gold.Chemscore.Rot>
1.4923

> <Gold.Chemscore.Internal.Correction>
   9.000000E+99

> <Gold.Chemscore.Hbonds>
donor molecule, donor type, donor heavy atom, donor atom, acceptor molecule, acceptor atom, score
      L1  H    10    28       P1  8028  1.00
      P1  H  7989  7998       L1     4  0.07

> <Gold.Chemscore.Hbond.Weighted>
-5.9251

> <Gold.Chemscore.Metal.Weighted>
-0.0000

> <Gold.Chemscore.Lipo.Weighted>
-10.8842

> <Gold.Chemscore.Internal_Hbond.Weighted>
0.0000

> <Gold.Chemscore.DEClash.Weighted>
0.0176

> <Gold.Chemscore.DEInternal.Weighted>
1.2142

> <Gold.Chemscore.Rot.Weighted>
3.8204

> <Gold.Chemscore.Internal.Correction.Weighted>
   9.000000E+99

> <Gold.Protein.RotatedTorsions>
[ 6907 6896 6895 6894 ] final  162.42 input  -60.11 | X-H torsion
[ 7974 7965 7964 7962 ] final  120.62 input  175.53 | X-H torsion
[ 8008 7997 7996 7995 ] final   85.36 input   59.86 | X-H torsion
[ 10167 10162 10161 10158 ] final  -37.54 input  -65.29 | X-H torsion
[ 10718 10713 10712 10709 ] final   -5.22 input   66.30 | X-H torsion
[ 10763 10752 10751 10750 ] final  -97.95 input  -60.55 | X-H torsion
[ 11005 11000 10999 10996 ] final   29.93 input  -57.11 | X-H torsion

> <Gold.Protein.ActiveResidues>
 VAL166  LYS551  ARG553  GLY616  TRP617  ASP618  TYR619  PRO620  LYS621  CYS622 
 ASP623  PHE694  ASN695  SER759  ASP760  ASP761  ALA762  ILE779  LEU786  VAL792 
 PHE793  MET794  SER795  GLU796  ALA797  LYS798  CYS799  TRP800  GLU811  SER814 

> <Gold.Protein.RotatedAtoms>
  151.9406  133.3637  159.3963 H   0  0  0  0  0  0  0  0  0  0  0  0  # atno 6907 bound_to 6896
  150.6999  134.4443  159.5316 H   0  0  0  0  0  0  0  0  0  0  0  0  # atno 6908 bound_to 6896
  152.2099  134.8511  160.0549 H   0  0  0  0  0  0  0  0  0  0  0  0  # atno 6909 bound_to 6896
  145.1290  139.3340  143.4675 H   0  0  0  0  0  0  0  0  0  0  0  0  # atno 7974 bound_to 7965
  155.9491  140.3402  155.6392 H   0  0  0  0  0  0  0  0  0  0  0  0  # atno 8008 bound_to 7997
  155.6943  140.0752  157.2454 H   0  0  0  0  0  0  0  0  0  0  0  0  # atno 8009 bound_to 7997
  154.4118  140.1651  156.2108 H   0  0  0  0  0  0  0  0  0  0  0  0  # atno 8010 bound_to 7997
  140.7115  143.3335  151.2515 H   0  0  0  0  0  0  0  0  0  0  0  0  # atno 10167 bound_to 10162
  156.7498  130.5236  149.5806 H   0  0  0  0  0  0  0  0  0  0  0  0  # atno 10718 bound_to 10713
  154.7372  135.5027  153.9062 H   0  0  0  0  0  0  0  0  0  0  0  0  # atno 10763 bound_to 10752
  153.1007  135.6684  153.9686 H   0  0  0  0  0  0  0  0  0  0  0  0  # atno 10764 bound_to 10752
  153.9473  135.3061  155.3419 H   0  0  0  0  0  0  0  0  0  0  0  0  # atno 10765 bound_to 10752
  140.2998  134.2770  155.7756 H   0  0  0  0  0  0  0  0  0  0  0  0  # atno 11005 bound_to 11000
  146.3515  140.1281  142.8598 LP  0  0  0  0  0  0  0  0  0  0  0  0  # atno 17320 bound_to 7965
  145.0656  140.9119  143.4912 LP  0  0  0  0  0  0  0  0  0  0  0  0  # atno 17321 bound_to 7965
  139.6824  143.9832  152.2815 LP  0  0  0  0  0  0  0  0  0  0  0  0  # atno 17342 bound_to 10162
  139.9466  144.6647  150.8213 LP  0  0  0  0  0  0  0  0  0  0  0  0  # atno 17343 bound_to 10162
  156.1408  130.6243  151.0465 LP  0  0  0  0  0  0  0  0  0  0  0  0  # atno 17370 bound_to 10713
  157.6782  131.0845  150.7440 LP  0  0  0  0  0  0  0  0  0  0  0  0  # atno 17371 bound_to 10713
  141.2130  133.7638  156.9749 LP  0  0  0  0  0  0  0  0  0  0  0  0  # atno 17394 bound_to 11000
  140.1120  134.9471  157.2079 LP  0  0  0  0  0  0  0  0  0  0  0  0  # atno 17395 bound_to 11000

$$$$
