AV-unprocessed.smi:1673|AV-procd|sdf|6709|dock10
  -GOLD-   22720 7453D 1   1.00000     0.00000
 Structure written by MMmdl.
 39 40  0  0  0  0  0  0  0  0  1 V2000
  153.0143  137.0345  158.1449 C   0  0  0  0  0  0  0  0  0  0  0  0
  152.2619  137.2766  156.8658 C   0  0  0  0  0  0  0  0  0  0  0  0
  152.2030  136.3103  155.9612 N   0  0  0  0  0  0  0  0  0  0  0  0
  151.5115  136.8326  154.8571 O   0  0  0  0  0  0  0  0  0  0  0  0
  151.1631  138.1181  155.1247 C   0  0  0  0  0  0  0  0  0  0  0  0
  150.4320  138.8583  154.0561 C   0  0  0  0  0  0  0  0  0  0  0  0
  151.5838  138.4342  156.3828 C   0  0  0  0  0  0  0  0  0  0  0  0
  151.4188  139.7021  156.9940 N   0  0  0  0  0  0  0  0  0  0  0  0
  152.2473  140.2832  157.8746 C   0  0  0  0  0  0  0  0  0  0  0  0
  153.2714  139.7668  158.3210 O   0  0  0  0  0  0  0  0  0  0  0  0
  151.8088  141.5007  158.2263 N   0  0  0  0  0  0  0  0  0  0  0  0
  152.4602  142.4059  159.1725 C   0  0  2  0  0  0  0  0  0  0  0  0
  152.6960  141.6507  160.4953 C   0  0  0  0  0  0  0  0  0  0  0  0
  153.3271  142.5562  161.5629 C   0  0  0  0  0  0  0  0  0  0  0  0
  152.4722  143.8090  161.7948 C   0  0  0  0  0  0  0  0  0  0  0  0
  152.2495  144.5743  160.4819 C   0  0  0  0  0  0  0  0  0  0  0  0
  151.6097  143.6833  159.3973 C   0  0  1  0  0  0  0  0  0  0  0  0
  151.3851  144.4887  158.1047 C   0  0  0  0  0  0  0  0  0  0  0  0
  153.4903  137.9475  158.5021 H   0  0  0  0  0  0  0  0  0  0  0  0
  153.8007  136.2910  158.0103 H   0  0  0  0  0  0  0  0  0  0  0  0
  152.3483  136.6725  158.9283 H   0  0  0  0  0  0  0  0  0  0  0  0
  150.2923  139.9046  154.3282 H   0  0  0  0  0  0  0  0  0  0  0  0
  149.4488  138.4194  153.8868 H   0  0  0  0  0  0  0  0  0  0  0  0
  150.9844  138.8253  153.1170 H   0  0  0  0  0  0  0  0  0  0  0  0
  150.5474  140.1755  156.8063 H   0  0  0  0  0  0  0  0  0  0  0  0
  150.9539  141.8324  157.8045 H   0  0  0  0  0  0  0  0  0  0  0  0
  153.4365  142.7080  158.7882 H   0  0  0  0  0  0  0  0  0  0  0  0
  151.7498  141.2582  160.8712 H   0  0  0  0  0  0  0  0  0  0  0  0
  153.3406  140.7879  160.3226 H   0  0  0  0  0  0  0  0  0  0  0  0
  153.4423  142.0063  162.4973 H   0  0  0  0  0  0  0  0  0  0  0  0
  154.3301  142.8487  161.2494 H   0  0  0  0  0  0  0  0  0  0  0  0
  151.5099  143.5230  162.2214 H   0  0  0  0  0  0  0  0  0  0  0  0
  152.9548  144.4575  162.5266 H   0  0  0  0  0  0  0  0  0  0  0  0
  151.6179  145.4426  160.6717 H   0  0  0  0  0  0  0  0  0  0  0  0
  153.2040  144.9617  160.1227 H   0  0  0  0  0  0  0  0  0  0  0  0
  150.6287  143.3753  159.7630 H   0  0  0  0  0  0  0  0  0  0  0  0
  152.3327  144.7917  157.6584 H   0  0  0  0  0  0  0  0  0  0  0  0
  150.8071  145.3918  158.3019 H   0  0  0  0  0  0  0  0  0  0  0  0
  150.8352  143.9131  157.3602 H   0  0  0  0  0  0  0  0  0  0  0  0
  1  2  1  0  0  0  0
  1 19  1  0  0  0  0
  1 20  1  0  0  0  0
  1 21  1  0  0  0  0
  2  7  1  0  0  0  0
  2  3  2  0  0  0  0
  3  4  1  0  0  0  0
  4  5  1  0  0  0  0
  5  6  1  0  0  0  0
  5  7  2  0  0  0  0
  6 22  1  0  0  0  0
  6 23  1  0  0  0  0
  6 24  1  0  0  0  0
  7  8  1  0  0  0  0
  8  9  1  0  0  0  0
  8 25  1  0  0  0  0
  9 10  2  0  0  0  0
  9 11  1  0  0  0  0
 11 12  1  0  0  0  0
 11 26  1  0  0  0  0
 12 17  1  0  0  0  0
 12 13  1  0  0  0  0
 12 27  1  0  0  0  0
 13 14  1  0  0  0  0
 13 28  1  0  0  0  0
 13 29  1  0  0  0  0
 14 15  1  0  0  0  0
 14 30  1  0  0  0  0
 14 31  1  0  0  0  0
 15 16  1  0  0  0  0
 15 32  1  0  0  0  0
 15 33  1  0  0  0  0
 16 17  1  0  0  0  0
 16 34  1  0  0  0  0
 16 35  1  0  0  0  0
 17 18  1  0  0  0  0
 17 36  1  0  0  0  0
 18 37  1  0  0  0  0
 18 38  1  0  0  0  0
 18 39  1  0  0  0  0
M  END
> <s_m_source_file>
AV-unprocessed.smi

> <i_m_source_file_index>
1673

> <i_lp_mmshare_version>
43012

> <i_f3d_flags>
0

> <s_epik_input>
W0NIM11jMW5vYyhbQ0gzXSljMVtOSF1DKD1PKVtOSF1bQ0BASF0yW0NIMl1bQ0gyXVtDSDJdW0NIMl1bQ0BIXTJbQ0gzXQ==

> <s_epik_cmdline>
J2VwaWtfcHl0aG9uJywgJy1waCcsICc3LjAnLCAnLXRuJywgJzgnLCAnLW1hJywgJzIwMCcsICctbWV0YWxfYmluZGluZycsICctaW1hZScsICc8aW5maWxlLm1hZT4nLCAnLW9tYWUnLCAnPG91dGZpbGUubWFlPic=

> <r_lp_tautomer_probability>
1

> <r_epik_Ionization_Penalty>
4.01865e-05

> <r_epik_Ionization_Penalty_Charging>
0

> <r_epik_Ionization_Penalty_Neutral>
4.01865e-05

> <r_epik_State_Penalty>
-0

> <r_epik_Charging_Adjusted_Penalty>
0

> <i_epik_Tot_Q>
0

> <i_epik_Tot_abs_Q>
0

> <r_epik_Metal_State_Penalty>
-0

> <b_epik_Metal_Only>
0

> <s_lp_Force_Field>
OPLS_2005

> <r_lp_Energy>
12.0287

> <b_lp_Chiralities_Consistent>
1

> <s_lp_Variant>
AV-unprocessed.smi:1673-1

> <Gold.Version>
5.8.1

> <Gold.Id.Protein>
6NUR|6NUR_protein|mol2

> <Gold.PLP.Fitness>
42.3655

> <Gold.PLP.PLP>
-36.5455

> <Gold.PLP.part.hbond>
-3.0000

> <Gold.PLP.part.metal>
0.0000

> <Gold.PLP.part.buried>
-5.5943

> <Gold.PLP.part.nonpolar>
-27.6436

> <Gold.PLP.part.repulsive>
0.3129

> <Gold.PLP.ligand.clash>
0.0000

> <Gold.PLP.ligand.torsion>
0.2202

> <Gold.PLP.Chemscore.Hbond>
2.0000

> <Gold.PLP.Chemscore.CHOScore>
0.0000

> <Gold.PLP.Chemscore.Metal>
0.0000

> <Gold.Chemscore.Hbonds>
donor molecule, donor type, donor heavy atom, donor atom, acceptor molecule, acceptor atom, score
      P1  H  7997  8008       L1    10  1.00
      P1  H 10752 10765       L1     3  0.90

> <Gold.PLP.Chemscore.Internal.Correction>
0.2604

> <Gold.Rescore>
     Score         DG    S(hbond)    S(metal)    S(lipo)     H(rot)  DE(clash)    DE(int)     intcor
     18.89     -21.52       1.87        0.00     105.62       1.00       0.03       2.60       ----

> <Gold.Chemscore.Fitness>
18.8929

> <Gold.Chemscore.DG>
-21.5245

> <Gold.Chemscore.ZeroCoef>
-5.4800

> <Gold.Chemscore.Hbond>
1.8704

> <Gold.Chemscore.Metal>
0.0000

> <Gold.Chemscore.Lipo>
105.6175

> <Gold.Chemscore.Internal_Hbond>
0.0000

> <Gold.Chemscore.DEClash>
0.0286

> <Gold.Chemscore.DEInternal>
2.6029

> <Gold.Chemscore.Rot>
1.0000

> <Gold.Chemscore.Internal.Correction>
   9.000000E+99

> <Gold.Chemscore.Hbonds>
donor molecule, donor type, donor heavy atom, donor atom, acceptor molecule, acceptor atom, score
      P1  H  7997  8008       L1    10  0.44
      P1  H 10752 10765       L1     3  0.17

> <Gold.Chemscore.Hbond.Weighted>
-6.2472

> <Gold.Chemscore.Metal.Weighted>
-0.0000

> <Gold.Chemscore.Lipo.Weighted>
-12.3572

> <Gold.Chemscore.Internal_Hbond.Weighted>
0.0000

> <Gold.Chemscore.DEClash.Weighted>
0.0286

> <Gold.Chemscore.DEInternal.Weighted>
2.6029

> <Gold.Chemscore.Rot.Weighted>
2.5600

> <Gold.Chemscore.Internal.Correction.Weighted>
   9.000000E+99

> <Gold.Protein.RotatedTorsions>
[ 6907 6896 6895 6894 ] final  -16.93 input  -60.11 | X-H torsion
[ 7974 7965 7964 7962 ] final -131.56 input  175.53 | X-H torsion
[ 8008 7997 7996 7995 ] final  -80.07 input   59.86 | X-H torsion
[ 10167 10162 10161 10158 ] final  117.78 input  -65.29 | X-H torsion
[ 10718 10713 10712 10709 ] final  114.78 input   66.30 | X-H torsion
[ 10763 10752 10751 10750 ] final -139.64 input  -60.55 | X-H torsion
[ 11005 11000 10999 10996 ] final   62.46 input  -57.11 | X-H torsion

> <Gold.Protein.ActiveResidues>
 VAL166  LYS551  ARG553  GLY616  TRP617  ASP618  TYR619  PRO620  LYS621  CYS622 
 ASP623  PHE694  ASN695  SER759  ASP760  ASP761  ALA762  ILE779  LEU786  VAL792 
 PHE793  MET794  SER795  GLU796  ALA797  LYS798  CYS799  TRP800  GLU811  SER814 

> <Gold.Protein.RotatedAtoms>
  151.3011  135.0769  159.9238 H   0  0  0  0  0  0  0  0  0  0  0  0  # atno 6907 bound_to 6896
  152.5297  133.9833  159.7827 H   0  0  0  0  0  0  0  0  0  0  0  0  # atno 6908 bound_to 6896
  151.0119  133.5905  159.2712 H   0  0  0  0  0  0  0  0  0  0  0  0  # atno 6909 bound_to 6896
  144.9368  140.7192  143.4871 H   0  0  0  0  0  0  0  0  0  0  0  0  # atno 7974 bound_to 7965
  154.5847  140.0668  156.9154 H   0  0  0  0  0  0  0  0  0  0  0  0  # atno 8008 bound_to 7997
  155.2400  140.3344  155.4275 H   0  0  0  0  0  0  0  0  0  0  0  0  # atno 8009 bound_to 7997
  156.2214  140.1800  156.7452 H   0  0  0  0  0  0  0  0  0  0  0  0  # atno 8010 bound_to 7997
  139.6156  144.7091  151.2747 H   0  0  0  0  0  0  0  0  0  0  0  0  # atno 10167 bound_to 10162
  157.6261  131.1003  150.7234 H   0  0  0  0  0  0  0  0  0  0  0  0  # atno 10718 bound_to 10713
  154.8603  135.3576  154.5579 H   0  0  0  0  0  0  0  0  0  0  0  0  # atno 10763 bound_to 10752
  153.6195  135.7006  153.5321 H   0  0  0  0  0  0  0  0  0  0  0  0  # atno 10764 bound_to 10752
  153.3141  135.4170  155.1321 H   0  0  0  0  0  0  0  0  0  0  0  0  # atno 10765 bound_to 10752
  140.0090  134.6325  155.9809 H   0  0  0  0  0  0  0  0  0  0  0  0  # atno 11005 bound_to 11000
  145.3054  139.1836  143.4667 LP  0  0  0  0  0  0  0  0  0  0  0  0  # atno 17320 bound_to 7965
  146.3270  140.3051  142.8623 LP  0  0  0  0  0  0  0  0  0  0  0  0  # atno 17321 bound_to 7965
  140.7348  143.6754  150.8046 LP  0  0  0  0  0  0  0  0  0  0  0  0  # atno 17342 bound_to 10162
  140.0356  143.5398  152.2740 LP  0  0  0  0  0  0  0  0  0  0  0  0  # atno 17343 bound_to 10162
  156.7582  130.4790  149.5442 LP  0  0  0  0  0  0  0  0  0  0  0  0  # atno 17370 bound_to 10713
  156.1434  130.6260  151.0499 LP  0  0  0  0  0  0  0  0  0  0  0  0  # atno 17371 bound_to 10713
  141.1698  133.6537  156.4609 LP  0  0  0  0  0  0  0  0  0  0  0  0  # atno 17394 bound_to 11000
  140.4588  134.6860  157.5075 LP  0  0  0  0  0  0  0  0  0  0  0  0  # atno 17395 bound_to 11000

$$$$
