AV-unprocessed.smi:662|AV-procd|sdf|3244|dock10
  -GOLD-   22720 0193D 1   1.00000     0.00000
 Structure written by MMmdl.
 34 35  0  0  0  0  0  0  0  0  2 V2000
  151.2081  141.6600  158.0166 O   0  0  0  0  0  0  0  0  0  0  0  0
  150.7086  142.3199  157.1044 C   0  0  0  0  0  0  0  0  0  0  0  0
  150.5304  143.6484  157.1699 N   0  0  0  0  0  0  0  0  0  0  0  0
  150.8943  144.4825  158.3097 C   0  0  0  0  0  0  0  0  0  0  0  0
  152.3782  144.3208  158.6764 C   0  0  0  0  0  0  0  0  0  0  0  0
  152.5775  143.4383  159.8623 C   0  0  0  0  0  0  0  0  0  0  0  0
  153.1130  142.2175  159.7866 N   0  0  0  0  0  0  0  0  0  0  0  0
  153.1661  141.5709  161.0263 C   0  0  0  0  0  0  0  0  0  0  0  0
  153.7525  140.1919  161.1232 C   0  0  0  0  0  0  0  0  0  0  0  0
  153.8006  139.7665  162.3858 F   0  0  0  0  0  0  0  0  0  0  0  0
  153.0291  139.3124  160.4309 F   0  0  0  0  0  0  0  0  0  0  0  0
  154.9953  140.1636  160.6431 F   0  0  0  0  0  0  0  0  0  0  0  0
  152.6421  142.3259  162.0477 C   0  0  0  0  0  0  0  0  0  0  0  0
  152.0654  143.8719  161.4883 S   0  0  0  0  0  0  0  0  0  0  0  0
  150.2689  141.6373  155.8042 C   0  0  1  0  0  0  0  0  0  0  0  0
  149.1006  140.6737  156.0519 C   0  0  0  0  0  0  0  0  0  0  0  0
  148.3916  140.6314  154.7065 C   0  0  0  0  0  0  0  0  0  0  0  0
  148.5759  142.0460  154.1544 C   0  0  0  0  0  0  0  0  0  0  0  0
  149.7708  142.6153  154.8121 N   0  3  0  0  0  0  0  0  0  0  0  0
  150.1179  144.1171  156.3758 H   0  0  0  0  0  0  0  0  0  0  0  0
  150.6865  145.5216  158.0524 H   0  0  0  0  0  0  0  0  0  0  0  0
  150.2603  144.2433  159.1654 H   0  0  0  0  0  0  0  0  0  0  0  0
  152.9347  143.9020  157.8366 H   0  0  0  0  0  0  0  0  0  0  0  0
  152.8218  145.2941  158.8890 H   0  0  0  0  0  0  0  0  0  0  0  0
  152.5588  142.0649  163.0922 H   0  0  0  0  0  0  0  0  0  0  0  0
  151.1072  141.1021  155.3552 H   0  0  0  0  0  0  0  0  0  0  0  0
  149.4305  139.6871  156.3796 H   0  0  0  0  0  0  0  0  0  0  0  0
  148.4182  141.0664  156.8084 H   0  0  0  0  0  0  0  0  0  0  0  0
  148.8915  139.9143  154.0537 H   0  0  0  0  0  0  0  0  0  0  0  0
  147.3442  140.3385  154.7849 H   0  0  0  0  0  0  0  0  0  0  0  0
  148.6841  142.0493  153.0694 H   0  0  0  0  0  0  0  0  0  0  0  0
  147.7171  142.6686  154.4073 H   0  0  0  0  0  0  0  0  0  0  0  0
  149.5031  143.4595  155.2989 H   0  0  0  0  0  0  0  0  0  0  0  0
  150.4936  142.8220  154.1379 H   0  0  0  0  0  0  0  0  0  0  0  0
  1  2  2  0  0  0  0
  2  3  1  0  0  0  0
  2 15  1  0  0  0  0
  3  4  1  0  0  0  0
  3 20  1  0  0  0  0
  4  5  1  0  0  0  0
  4 21  1  0  0  0  0
  4 22  1  0  0  0  0
  5  6  1  0  0  0  0
  5 23  1  0  0  0  0
  5 24  1  0  0  0  0
  6 14  1  0  0  0  0
  6  7  2  0  0  0  0
  7  8  1  0  0  0  0
  8  9  1  0  0  0  0
  8 13  2  0  0  0  0
  9 10  1  0  0  0  0
  9 11  1  0  0  0  0
  9 12  1  0  0  0  0
 13 14  1  0  0  0  0
 13 25  1  0  0  0  0
 15 19  1  0  0  0  0
 15 16  1  0  0  0  0
 15 26  1  0  0  0  0
 16 17  1  0  0  0  0
 16 27  1  0  0  0  0
 16 28  1  0  0  0  0
 17 18  1  0  0  0  0
 17 29  1  0  0  0  0
 17 30  1  0  0  0  0
 18 19  1  0  0  0  0
 18 31  1  0  0  0  0
 18 32  1  0  0  0  0
 19 33  1  0  0  0  0
 19 34  1  0  0  0  0
M  CHG  1  19   1
M  END
> <s_m_source_file>
AV-unprocessed.smi

> <i_m_source_file_index>
662

> <i_lp_mmshare_version>
43012

> <i_f3d_flags>
0

> <s_epik_input>
W05IXTFbQ0gyXVtDSDJdW0NIMl1bQ0BIXTFDKD1PKVtOSF1bQ0gyXVtDSDJdYzJuYyhDKEYpKEYpRilbY0hdczI=

> <s_epik_cmdline>
J2VwaWtfcHl0aG9uJywgJy1waCcsICc3LjAnLCAnLXRuJywgJzgnLCAnLW1hJywgJzIwMCcsICctbWV0YWxfYmluZGluZycsICctaW1hZScsICc8aW5maWxlLm1hZT4nLCAnLW9tYWUnLCAnPG91dGZpbGUubWFlPic=

> <r_epik_Ionization_Penalty>
0.0382401

> <r_epik_Ionization_Penalty_Charging>
0.0382382

> <r_epik_Ionization_Penalty_Neutral>
1.85239e-06

> <r_epik_State_Penalty>
0.0320549

> <r_epik_Charging_Adjusted_Penalty>
0.0702931

> <i_epik_Tot_Q>
1

> <i_epik_Tot_abs_Q>
1

> <r_epik_Metal_State_Penalty>
0.0320549

> <b_epik_Metal_Only>
0

> <s_lp_Force_Field>
OPLS_2005

> <r_lp_Energy>
5.09297

> <b_lp_Chiralities_Consistent>
1

> <s_lp_Variant>
AV-unprocessed.smi:662-2

> <Gold.Version>
5.8.1

> <Gold.Id.Protein>
6NUR|6NUR_protein|mol2

> <Gold.PLP.Fitness>
53.0508

> <Gold.PLP.PLP>
-45.0182

> <Gold.PLP.part.hbond>
-1.8735

> <Gold.PLP.part.metal>
0.0000

> <Gold.PLP.part.buried>
-5.8431

> <Gold.PLP.part.nonpolar>
-38.1775

> <Gold.PLP.part.repulsive>
0.4883

> <Gold.PLP.ligand.clash>
0.0000

> <Gold.PLP.ligand.torsion>
0.4730

> <Gold.PLP.Chemscore.Hbond>
2.9840

> <Gold.PLP.Chemscore.CHOScore>
0.0000

> <Gold.PLP.Chemscore.Metal>
0.0000

> <Gold.Chemscore.Hbonds>
donor molecule, donor type, donor heavy atom, donor atom, acceptor molecule, acceptor atom, score
      L1  H     3    20       P1  8028  0.99
      L1  H    19    33       P1  8028  1.56

> <Gold.PLP.Chemscore.Internal.Correction>
0.0266

> <Gold.Rescore>
     Score         DG    S(hbond)    S(metal)    S(lipo)     H(rot)  DE(clash)    DE(int)     intcor
     16.64     -18.83       1.99        0.00     100.26       1.97       0.10       2.08       ----

> <Gold.Chemscore.Fitness>
16.6417

> <Gold.Chemscore.DG>
-18.8279

> <Gold.Chemscore.ZeroCoef>
-5.4800

> <Gold.Chemscore.Hbond>
1.9941

> <Gold.Chemscore.Metal>
0.0000

> <Gold.Chemscore.Lipo>
100.2565

> <Gold.Chemscore.Internal_Hbond>
0.0000

> <Gold.Chemscore.DEClash>
0.1012

> <Gold.Chemscore.DEInternal>
2.0850

> <Gold.Chemscore.Rot>
1.9697

> <Gold.Chemscore.Internal.Correction>
   9.000000E+99

> <Gold.Chemscore.Hbonds>
donor molecule, donor type, donor heavy atom, donor atom, acceptor molecule, acceptor atom, score
      L1  H     3    20       P1  8028  0.88
      L1  H    19    33       P1  8028  0.77

> <Gold.Chemscore.Hbond.Weighted>
-6.6603

> <Gold.Chemscore.Metal.Weighted>
-0.0000

> <Gold.Chemscore.Lipo.Weighted>
-11.7300

> <Gold.Chemscore.Internal_Hbond.Weighted>
0.0000

> <Gold.Chemscore.DEClash.Weighted>
0.1012

> <Gold.Chemscore.DEInternal.Weighted>
2.0850

> <Gold.Chemscore.Rot.Weighted>
5.0424

> <Gold.Chemscore.Internal.Correction.Weighted>
   9.000000E+99

> <Gold.Protein.RotatedTorsions>
[ 6907 6896 6895 6894 ] final  156.87 input  -60.11 | X-H torsion
[ 7974 7965 7964 7962 ] final  111.89 input  175.53 | X-H torsion
[ 8008 7997 7996 7995 ] final  131.27 input   59.86 | X-H torsion
[ 10167 10162 10161 10158 ] final   25.10 input  -65.29 | X-H torsion
[ 10718 10713 10712 10709 ] final  -30.25 input   66.30 | X-H torsion
[ 10763 10752 10751 10750 ] final  149.39 input  -60.55 | X-H torsion
[ 11005 11000 10999 10996 ] final  110.90 input  -57.11 | X-H torsion

> <Gold.Protein.ActiveResidues>
 VAL166  LYS551  ARG553  GLY616  TRP617  ASP618  TYR619  PRO620  LYS621  CYS622 
 ASP623  PHE694  ASN695  SER759  ASP760  ASP761  ALA762  ILE779  LEU786  VAL792 
 PHE793  MET794  SER795  GLU796  ALA797  LYS798  CYS799  TRP800  GLU811  SER814 

> <Gold.Protein.RotatedAtoms>
  152.0233  133.3907  159.4267 H   0  0  0  0  0  0  0  0  0  0  0  0  # atno 6907 bound_to 6896
  150.6888  134.3601  159.4956 H   0  0  0  0  0  0  0  0  0  0  0  0  # atno 6908 bound_to 6896
  152.1378  134.9085  160.0606 H   0  0  0  0  0  0  0  0  0  0  0  0  # atno 6909 bound_to 6896
  145.2365  139.2797  143.4140 H   0  0  0  0  0  0  0  0  0  0  0  0  # atno 7974 bound_to 7965
  156.2967  140.2575  156.2898 H   0  0  0  0  0  0  0  0  0  0  0  0  # atno 8008 bound_to 7997
  154.9520  140.0394  157.2167 H   0  0  0  0  0  0  0  0  0  0  0  0  # atno 8009 bound_to 7997
  154.8027  140.2831  155.5914 H   0  0  0  0  0  0  0  0  0  0  0  0  # atno 8010 bound_to 7997
  140.5134  144.0123  150.6383 H   0  0  0  0  0  0  0  0  0  0  0  0  # atno 10167 bound_to 10162
  156.4021  130.4392  149.7314 H   0  0  0  0  0  0  0  0  0  0  0  0  # atno 10718 bound_to 10713
  154.0704  135.2867  155.3309 H   0  0  0  0  0  0  0  0  0  0  0  0  # atno 10763 bound_to 10752
  154.6750  135.5285  153.8191 H   0  0  0  0  0  0  0  0  0  0  0  0  # atno 10764 bound_to 10752
  153.0487  135.6567  154.0886 H   0  0  0  0  0  0  0  0  0  0  0  0  # atno 10765 bound_to 10752
  139.8892  134.9495  156.6349 H   0  0  0  0  0  0  0  0  0  0  0  0  # atno 11005 bound_to 11000
  146.3339  140.2716  142.8606 LP  0  0  0  0  0  0  0  0  0  0  0  0  # atno 17320 bound_to 7965
  144.9628  140.8292  143.5503 LP  0  0  0  0  0  0  0  0  0  0  0  0  # atno 17321 bound_to 7965
  140.3452  143.2996  152.0546 LP  0  0  0  0  0  0  0  0  0  0  0  0  # atno 17342 bound_to 10162
  139.4902  144.6414  151.6869 LP  0  0  0  0  0  0  0  0  0  0  0  0  # atno 17343 bound_to 10162
  156.4326  130.7822  151.2843 LP  0  0  0  0  0  0  0  0  0  0  0  0  # atno 17370 bound_to 10713
  157.7504  131.0149  150.3483 LP  0  0  0  0  0  0  0  0  0  0  0  0  # atno 17371 bound_to 10713
  140.7638  133.8795  155.8438 LP  0  0  0  0  0  0  0  0  0  0  0  0  # atno 17394 bound_to 11000
  140.9900  134.1291  157.4417 LP  0  0  0  0  0  0  0  0  0  0  0  0  # atno 17395 bound_to 11000

$$$$
