AV-unprocessed.smi:1419|AV-procd|sdf|5778|dock2
  -GOLD-   22720 5423D 1   1.00000     0.00000
 Structure written by MMmdl.
 42 43  0  0  0  0  0  0  0  0  2 V2000
  152.2834  138.4776  158.1362 C   0  0  0  0  0  0  0  0  0  0  0  0
  151.6609  139.7240  157.4930 C   0  0  2  0  0  0  0  0  0  0  0  0
  151.9879  139.7944  155.9854 C   0  0  0  0  0  0  0  0  0  0  0  0
  150.8849  139.3301  155.1368 N   0  0  0  0  0  0  0  0  0  0  0  0
  149.6279  139.8700  155.0396 C   0  0  0  0  0  0  0  0  0  0  0  0
  148.9480  139.1147  154.1195 C   0  0  0  0  0  0  0  0  0  0  0  0
  149.8138  138.1392  153.7031 N   0  3  0  0  0  0  0  0  0  0  0  0
  150.9882  138.2670  154.3287 C   0  0  0  0  0  0  0  0  0  0  0  0
  152.1504  140.9095  158.1958 N   0  0  0  0  0  0  0  0  0  0  0  0
  151.6853  142.1636  158.0561 C   0  0  0  0  0  0  0  0  0  0  0  0
  150.7714  142.4422  157.2790 O   0  0  0  0  0  0  0  0  0  0  0  0
  152.3199  143.0898  158.8162 N   0  0  0  0  0  0  0  0  0  0  0  0
  152.2226  144.5512  158.6984 C   0  0  0  0  0  0  0  0  0  0  0  0
  151.4919  145.1082  159.9379 C   0  0  1  0  0  0  0  0  0  0  0  0
  149.9894  144.7780  159.9756 C   0  0  0  0  0  0  0  0  0  0  0  0
  152.1535  144.6677  161.1285 O   0  0  0  0  0  0  0  0  0  0  0  0
  152.3564  143.2565  161.2444 C   0  0  2  0  0  0  0  0  0  0  0  0
  153.1369  142.9961  162.5371 C   0  0  0  0  0  0  0  0  0  0  0  0
  153.1052  142.7383  160.0007 C   0  0  0  0  0  0  0  0  0  0  0  0
  151.9172  137.5668  157.6617 H   0  0  0  0  0  0  0  0  0  0  0  0
  152.0355  138.4163  159.1964 H   0  0  0  0  0  0  0  0  0  0  0  0
  153.3704  138.4843  158.0473 H   0  0  0  0  0  0  0  0  0  0  0  0
  150.5796  139.6435  157.6193 H   0  0  0  0  0  0  0  0  0  0  0  0
  152.2547  140.8113  155.6924 H   0  0  0  0  0  0  0  0  0  0  0  0
  152.8486  139.1647  155.7561 H   0  0  0  0  0  0  0  0  0  0  0  0
  149.3223  140.7354  155.6098 H   0  0  0  0  0  0  0  0  0  0  0  0
  147.9394  139.1956  153.7409 H   0  0  0  0  0  0  0  0  0  0  0  0
  151.8513  137.6388  154.1997 H   0  0  0  0  0  0  0  0  0  0  0  0
  152.9040  140.7648  158.8520 H   0  0  0  0  0  0  0  0  0  0  0  0
  153.2311  144.9650  158.6528 H   0  0  0  0  0  0  0  0  0  0  0  0
  151.7324  144.8949  157.7876 H   0  0  0  0  0  0  0  0  0  0  0  0
  151.5818  146.1946  159.9204 H   0  0  0  0  0  0  0  0  0  0  0  0
  149.4821  145.1844  159.1005 H   0  0  0  0  0  0  0  0  0  0  0  0
  149.5200  145.2098  160.8597 H   0  0  0  0  0  0  0  0  0  0  0  0
  149.8027  143.7055  159.9915 H   0  0  0  0  0  0  0  0  0  0  0  0
  151.3910  142.7556  161.3243 H   0  0  0  0  0  0  0  0  0  0  0  0
  153.3082  141.9296  162.6849 H   0  0  0  0  0  0  0  0  0  0  0  0
  152.5903  143.3680  163.4041 H   0  0  0  0  0  0  0  0  0  0  0  0
  154.1080  143.4917  162.5184 H   0  0  0  0  0  0  0  0  0  0  0  0
  153.2780  141.6647  160.0892 H   0  0  0  0  0  0  0  0  0  0  0  0
  154.0933  143.1959  159.9317 H   0  0  0  0  0  0  0  0  0  0  0  0
  149.5977  137.4219  153.0222 H   0  0  0  0  0  0  0  0  0  0  0  0
  1  2  1  0  0  0  0
  1 20  1  0  0  0  0
  1 21  1  0  0  0  0
  1 22  1  0  0  0  0
  2  3  1  0  0  0  0
  2  9  1  0  0  0  0
  2 23  1  0  0  0  0
  3  4  1  0  0  0  0
  3 24  1  0  0  0  0
  3 25  1  0  0  0  0
  4  8  1  0  0  0  0
  4  5  1  0  0  0  0
  5  6  2  0  0  0  0
  5 26  1  0  0  0  0
  6  7  1  0  0  0  0
  6 27  1  0  0  0  0
  7  8  2  0  0  0  0
  7 42  1  0  0  0  0
  8 28  1  0  0  0  0
  9 10  1  0  0  0  0
  9 29  1  0  0  0  0
 10 11  2  0  0  0  0
 10 12  1  0  0  0  0
 12 19  1  0  0  0  0
 12 13  1  0  0  0  0
 13 14  1  0  0  0  0
 13 30  1  0  0  0  0
 13 31  1  0  0  0  0
 14 15  1  0  0  0  0
 14 16  1  0  0  0  0
 14 32  1  0  0  0  0
 15 33  1  0  0  0  0
 15 34  1  0  0  0  0
 15 35  1  0  0  0  0
 16 17  1  0  0  0  0
 17 18  1  0  0  0  0
 17 19  1  0  0  0  0
 17 36  1  0  0  0  0
 18 37  1  0  0  0  0
 18 38  1  0  0  0  0
 18 39  1  0  0  0  0
 19 40  1  0  0  0  0
 19 41  1  0  0  0  0
M  CHG  1   7   1
M  END
> <s_m_source_file>
AV-unprocessed.smi

> <i_m_source_file_index>
1419

> <i_lp_mmshare_version>
43012

> <i_f3d_flags>
0

> <s_epik_input>
W2NIXTFuW2NIXVtjSF1uMVtDSDJdW0NAQEhdKFtDSDNdKVtOSF1DKD1PKU4yW0NIMl1bQ0BASF0oW0NIM10pT1tDQEBIXShbQ0gzXSlbQ0gyXTI=

> <s_epik_cmdline>
J2VwaWtfcHl0aG9uJywgJy1waCcsICc3LjAnLCAnLXRuJywgJzgnLCAnLW1hJywgJzIwMCcsICctbWV0YWxfYmluZGluZycsICctaW1hZScsICc8aW5maWxlLm1hZT4nLCAnLW9tYWUnLCAnPG91dGZpbGUubWFlPic=

> <r_lp_tautomer_probability>
1

> <r_epik_Ionization_Penalty>
0.253607

> <r_epik_Ionization_Penalty_Charging>
0

> <r_epik_Ionization_Penalty_Neutral>
0.253607

> <r_epik_State_Penalty>
0.245018

> <r_epik_Charging_Adjusted_Penalty>
0.245018

> <i_epik_Tot_Q>
1

> <i_epik_Tot_abs_Q>
1

> <r_epik_Metal_State_Penalty>
0.535379

> <b_epik_Metal_Only>
0

> <s_lp_Force_Field>
OPLS_2005

> <r_lp_Energy>
31.638

> <b_lp_Chiralities_Consistent>
1

> <s_lp_Variant>
AV-unprocessed.smi:1419-5

> <Gold.Version>
5.8.1

> <Gold.Id.Protein>
6NUR|6NUR_protein|mol2

> <Gold.PLP.Fitness>
52.2132

> <Gold.PLP.PLP>
-48.0396

> <Gold.PLP.part.hbond>
-2.0000

> <Gold.PLP.part.metal>
0.0000

> <Gold.PLP.part.buried>
-4.7174

> <Gold.PLP.part.nonpolar>
-40.9299

> <Gold.PLP.part.repulsive>
0.4706

> <Gold.PLP.ligand.clash>
0.3209

> <Gold.PLP.ligand.torsion>
0.7746

> <Gold.PLP.Chemscore.Hbond>
2.0000

> <Gold.PLP.Chemscore.CHOScore>
0.0000

> <Gold.PLP.Chemscore.Metal>
0.0000

> <Gold.Chemscore.Hbonds>
donor molecule, donor type, donor heavy atom, donor atom, acceptor molecule, acceptor atom, score
      L1  H     7    42       P1  7948  2.00

> <Gold.PLP.Chemscore.Internal.Correction>
0.0437

> <Gold.Rescore>
     Score         DG    S(hbond)    S(metal)    S(lipo)     H(rot)  DE(clash)    DE(int)     intcor
     14.99     -15.96       1.00        0.00      96.73       1.63       0.16       0.81       ----

> <Gold.Chemscore.Fitness>
14.9862

> <Gold.Chemscore.DG>
-15.9562

> <Gold.Chemscore.ZeroCoef>
-5.4800

> <Gold.Chemscore.Hbond>
0.9953

> <Gold.Chemscore.Metal>
0.0000

> <Gold.Chemscore.Lipo>
96.7313

> <Gold.Chemscore.Internal_Hbond>
0.0000

> <Gold.Chemscore.DEClash>
0.1615

> <Gold.Chemscore.DEInternal>
0.8084

> <Gold.Chemscore.Rot>
1.6273

> <Gold.Chemscore.Internal.Correction>
   9.000000E+99

> <Gold.Chemscore.Hbonds>
donor molecule, donor type, donor heavy atom, donor atom, acceptor molecule, acceptor atom, score
      L1  H     7    42       P1  7948  0.70

> <Gold.Chemscore.Hbond.Weighted>
-3.3245

> <Gold.Chemscore.Metal.Weighted>
-0.0000

> <Gold.Chemscore.Lipo.Weighted>
-11.3176

> <Gold.Chemscore.Internal_Hbond.Weighted>
0.0000

> <Gold.Chemscore.DEClash.Weighted>
0.1615

> <Gold.Chemscore.DEInternal.Weighted>
0.8084

> <Gold.Chemscore.Rot.Weighted>
4.1658

> <Gold.Chemscore.Internal.Correction.Weighted>
   9.000000E+99

> <Gold.Protein.RotatedTorsions>
[ 6907 6896 6895 6894 ] final   78.72 input  -60.11 | X-H torsion
[ 7974 7965 7964 7962 ] final   11.59 input  175.53 | X-H torsion
[ 8008 7997 7996 7995 ] final  100.46 input   59.86 | X-H torsion
[ 10167 10162 10161 10158 ] final   42.10 input  -65.29 | X-H torsion
[ 10718 10713 10712 10709 ] final -161.62 input   66.30 | X-H torsion
[ 10763 10752 10751 10750 ] final  111.86 input  -60.55 | X-H torsion
[ 11005 11000 10999 10996 ] final    7.53 input  -57.11 | X-H torsion

> <Gold.Protein.ActiveResidues>
 VAL166  LYS551  ARG553  GLY616  TRP617  ASP618  TYR619  PRO620  LYS621  CYS622 
 ASP623  PHE694  ASN695  SER759  ASP760  ASP761  ALA762  ILE779  LEU786  VAL792 
 PHE793  MET794  SER795  GLU796  ALA797  LYS798  CYS799  TRP800  GLU811  SER814 

> <Gold.Protein.RotatedAtoms>
  152.5170  134.3621  159.9288 H   0  0  0  0  0  0  0  0  0  0  0  0  # atno 6907 bound_to 6896
  151.3574  133.3896  159.2694 H   0  0  0  0  0  0  0  0  0  0  0  0  # atno 6908 bound_to 6896
  150.9679  134.9076  159.7828 H   0  0  0  0  0  0  0  0  0  0  0  0  # atno 6909 bound_to 6896
  146.2368  139.9462  142.8476 H   0  0  0  0  0  0  0  0  0  0  0  0  # atno 7974 bound_to 7965
  156.1206  140.3213  155.8202 H   0  0  0  0  0  0  0  0  0  0  0  0  # atno 8008 bound_to 7997
  155.4512  140.0532  157.3018 H   0  0  0  0  0  0  0  0  0  0  0  0  # atno 8009 bound_to 7997
  154.4824  140.2058  155.9746 H   0  0  0  0  0  0  0  0  0  0  0  0  # atno 8010 bound_to 7997
  140.3577  144.2268  150.6140 H   0  0  0  0  0  0  0  0  0  0  0  0  # atno 10167 bound_to 10162
  156.5988  130.8801  151.2908 H   0  0  0  0  0  0  0  0  0  0  0  0  # atno 10718 bound_to 10713
  153.4694  135.3704  155.2382 H   0  0  0  0  0  0  0  0  0  0  0  0  # atno 10763 bound_to 10752
  154.8757  135.3928  154.3830 H   0  0  0  0  0  0  0  0  0  0  0  0  # atno 10764 bound_to 10752
  153.4416  135.7084  153.6230 H   0  0  0  0  0  0  0  0  0  0  0  0  # atno 10765 bound_to 10752
  140.5472  134.0318  155.7924 H   0  0  0  0  0  0  0  0  0  0  0  0  # atno 11005 bound_to 11000
  145.1905  140.9809  143.4214 LP  0  0  0  0  0  0  0  0  0  0  0  0  # atno 17320 bound_to 7965
  144.9862  139.3734  143.6237 LP  0  0  0  0  0  0  0  0  0  0  0  0  # atno 17321 bound_to 7965
  140.5157  143.2278  151.8467 LP  0  0  0  0  0  0  0  0  0  0  0  0  # atno 17342 bound_to 10162
  139.4818  144.4897  151.9201 LP  0  0  0  0  0  0  0  0  0  0  0  0  # atno 17343 bound_to 10162
  157.7285  130.9657  150.1744 LP  0  0  0  0  0  0  0  0  0  0  0  0  # atno 17370 bound_to 10713
  156.2487  130.3698  149.8257 LP  0  0  0  0  0  0  0  0  0  0  0  0  # atno 17371 bound_to 10713
  141.1193  133.9488  157.2762 LP  0  0  0  0  0  0  0  0  0  0  0  0  # atno 17394 bound_to 11000
  139.9473  135.0182  156.8891 LP  0  0  0  0  0  0  0  0  0  0  0  0  # atno 17395 bound_to 11000

$$$$
