AV-unprocessed.smi:1010|AV-procd|sdf|4417|dock6
  -GOLD-   22720 2363D 1   1.00000     0.00000
 Structure written by MMmdl.
 54 56  0  0  0  0  0  0  0  0  1 V2000
  147.8355  141.3917  153.6988 C   0  0  0  0  0  0  0  0  0  0  0  0
  147.8229  140.1039  154.3943 N   0  0  0  0  0  0  0  0  0  0  0  0
  147.2461  139.1214  153.4747 C   0  0  0  0  0  0  0  0  0  0  0  0
  149.0917  139.6817  155.0534 C   0  0  0  0  0  0  0  0  0  0  0  0
  148.7200  138.7924  156.2821 C   0  0  0  0  0  0  0  0  0  0  0  0
  148.4606  137.4068  155.9049 N   0  0  0  0  0  0  0  0  0  0  0  0
  149.2842  136.3825  156.1552 C   0  0  0  0  0  0  0  0  0  0  0  0
  150.3528  136.5003  156.7548 O   0  0  0  0  0  0  0  0  0  0  0  0
  148.7956  135.2382  155.6498 N   0  0  0  0  0  0  0  0  0  0  0  0
  149.3874  133.9437  155.6548 C   0  0  0  0  0  0  0  0  0  0  0  0
  150.4289  133.6049  156.5533 C   0  0  0  0  0  0  0  0  0  0  0  0
  150.9933  132.3189  156.5025 C   0  0  0  0  0  0  0  0  0  0  0  0
  150.4929  131.4112  155.5548 C   0  0  0  0  0  0  0  0  0  0  0  0
  149.4887  131.7103  154.7070 N   0  0  0  0  0  0  0  0  0  0  0  0
  148.9233  132.9421  154.7533 C   0  0  0  0  0  0  0  0  0  0  0  0
  147.8627  133.1899  153.8513 N   0  0  0  0  0  0  0  0  0  0  0  0
  148.0604  133.0366  152.4138 C   0  0  0  0  0  0  0  0  0  0  0  0
  146.6544  133.0170  151.8214 C   0  0  0  0  0  0  0  0  0  0  0  0
  145.8573  132.2868  152.8981 C   0  0  0  0  0  0  0  0  0  0  0  0
  146.5246  132.7265  154.2058 C   0  0  0  0  0  0  0  0  0  0  0  0
  150.0068  138.8908  154.0774 C   0  0  0  0  0  0  0  0  0  0  0  0
  151.4136  138.6424  154.6564 C   0  0  0  0  0  0  0  0  0  0  0  0
  152.0230  139.8703  155.0338 O   0  0  0  0  0  0  0  0  0  0  0  0
  151.3050  140.5576  156.0506 C   0  0  0  0  0  0  0  0  0  0  0  0
  149.9028  140.9248  155.5318 C   0  0  0  0  0  0  0  0  0  0  0  0
  148.0017  142.2219  154.3834 H   0  0  0  0  0  0  0  0  0  0  0  0
  146.8674  141.5843  153.2347 H   0  0  0  0  0  0  0  0  0  0  0  0
  148.5886  141.4267  152.9121 H   0  0  0  0  0  0  0  0  0  0  0  0
  147.0864  138.1524  153.9427 H   0  0  0  0  0  0  0  0  0  0  0  0
  147.8709  138.9810  152.5925 H   0  0  0  0  0  0  0  0  0  0  0  0
  146.2667  139.4560  153.1314 H   0  0  0  0  0  0  0  0  0  0  0  0
  149.4982  138.8189  157.0446 H   0  0  0  0  0  0  0  0  0  0  0  0
  147.8327  139.1689  156.7886 H   0  0  0  0  0  0  0  0  0  0  0  0
  147.6060  137.2262  155.3987 H   0  0  0  0  0  0  0  0  0  0  0  0
  147.9518  135.3227  155.1023 H   0  0  0  0  0  0  0  0  0  0  0  0
  150.7991  134.3068  157.2848 H   0  0  0  0  0  0  0  0  0  0  0  0
  151.7918  132.0370  157.1727 H   0  0  0  0  0  0  0  0  0  0  0  0
  150.9036  130.4153  155.4801 H   0  0  0  0  0  0  0  0  0  0  0  0
  148.6607  133.8504  152.0066 H   0  0  0  0  0  0  0  0  0  0  0  0
  148.5610  132.0936  152.1902 H   0  0  0  0  0  0  0  0  0  0  0  0
  146.2820  134.0362  151.7085 H   0  0  0  0  0  0  0  0  0  0  0  0
  146.6093  132.5275  150.8483 H   0  0  0  0  0  0  0  0  0  0  0  0
  144.7919  132.5162  152.8689 H   0  0  0  0  0  0  0  0  0  0  0  0
  145.9729  131.2095  152.7708 H   0  0  0  0  0  0  0  0  0  0  0  0
  146.5495  131.9145  154.9337 H   0  0  0  0  0  0  0  0  0  0  0  0
  145.9695  133.5569  154.6422 H   0  0  0  0  0  0  0  0  0  0  0  0
  149.5616  137.9305  153.8166 H   0  0  0  0  0  0  0  0  0  0  0  0
  150.1267  139.4355  153.1414 H   0  0  0  0  0  0  0  0  0  0  0  0
  151.3815  137.9622  155.5080 H   0  0  0  0  0  0  0  0  0  0  0  0
  152.0410  138.1637  153.9044 H   0  0  0  0  0  0  0  0  0  0  0  0
  151.2658  139.9621  156.9627 H   0  0  0  0  0  0  0  0  0  0  0  0
  151.8523  141.4660  156.3025 H   0  0  0  0  0  0  0  0  0  0  0  0
  150.0820  141.6161  154.7103 H   0  0  0  0  0  0  0  0  0  0  0  0
  149.3557  141.4867  156.2893 H   0  0  0  0  0  0  0  0  0  0  0  0
  1  2  1  0  0  0  0
  1 26  1  0  0  0  0
  1 27  1  0  0  0  0
  1 28  1  0  0  0  0
  2  3  1  0  0  0  0
  2  4  1  0  0  0  0
  3 29  1  0  0  0  0
  3 30  1  0  0  0  0
  3 31  1  0  0  0  0
  4 25  1  0  0  0  0
  4  5  1  0  0  0  0
  4 21  1  0  0  0  0
  5  6  1  0  0  0  0
  5 32  1  0  0  0  0
  5 33  1  0  0  0  0
  6  7  1  0  0  0  0
  6 34  1  0  0  0  0
  7  8  2  0  0  0  0
  7  9  1  0  0  0  0
  9 10  1  0  0  0  0
  9 35  1  0  0  0  0
 10 15  1  0  0  0  0
 10 11  2  0  0  0  0
 11 12  1  0  0  0  0
 11 36  1  0  0  0  0
 12 13  2  0  0  0  0
 12 37  1  0  0  0  0
 13 14  1  0  0  0  0
 13 38  1  0  0  0  0
 14 15  2  0  0  0  0
 15 16  1  0  0  0  0
 16 20  1  0  0  0  0
 16 17  1  0  0  0  0
 17 18  1  0  0  0  0
 17 39  1  0  0  0  0
 17 40  1  0  0  0  0
 18 19  1  0  0  0  0
 18 41  1  0  0  0  0
 18 42  1  0  0  0  0
 19 20  1  0  0  0  0
 19 43  1  0  0  0  0
 19 44  1  0  0  0  0
 20 45  1  0  0  0  0
 20 46  1  0  0  0  0
 21 22  1  0  0  0  0
 21 47  1  0  0  0  0
 21 48  1  0  0  0  0
 22 23  1  0  0  0  0
 22 49  1  0  0  0  0
 22 50  1  0  0  0  0
 23 24  1  0  0  0  0
 24 25  1  0  0  0  0
 24 51  1  0  0  0  0
 24 52  1  0  0  0  0
 25 53  1  0  0  0  0
 25 54  1  0  0  0  0
M  END
> <s_m_source_file>
AV-unprocessed.smi

> <i_m_source_file_index>
1010

> <i_lp_mmshare_version>
43012

> <i_f3d_flags>
0

> <s_epik_input>
W0NIMl0xW0NIMl1PW0NIMl1bQ0gyXUMxKE4oW0NIM10pW0NIM10pW0NIMl1bTkhdQyg9TylbTkhdYzJbY0hdW2NIXVtjSF1uYzJOM1tDSDJdW0NIMl1bQ0gyXVtDSDJdMw==

> <s_epik_cmdline>
J2VwaWtfcHl0aG9uJywgJy1waCcsICc3LjAnLCAnLXRuJywgJzgnLCAnLW1hJywgJzIwMCcsICctbWV0YWxfYmluZGluZycsICctaW1hZScsICc8aW5maWxlLm1hZT4nLCAnLW9tYWUnLCAnPG91dGZpbGUubWFlPic=

> <r_lp_tautomer_probability>
1

> <r_epik_Ionization_Penalty>
2.38232

> <r_epik_Ionization_Penalty_Charging>
0

> <r_epik_Ionization_Penalty_Neutral>
2.38232

> <r_epik_State_Penalty>
2.49988

> <r_epik_Charging_Adjusted_Penalty>
2.49988

> <i_epik_Tot_Q>
0

> <i_epik_Tot_abs_Q>
0

> <r_epik_Metal_State_Penalty>
2.47138

> <b_epik_Metal_Only>
0

> <s_lp_Force_Field>
OPLS_2005

> <r_lp_Energy>
56.3274

> <b_lp_Chiralities_Consistent>
1

> <s_lp_Variant>
AV-unprocessed.smi:1010-3

> <Gold.Version>
5.8.1

> <Gold.Id.Protein>
6NUR|6NUR_protein|mol2

> <Gold.PLP.Fitness>
35.4047

> <Gold.PLP.PLP>
-35.9874

> <Gold.PLP.part.hbond>
-1.0000

> <Gold.PLP.part.metal>
0.0000

> <Gold.PLP.part.buried>
-5.6203

> <Gold.PLP.part.nonpolar>
-30.9270

> <Gold.PLP.part.repulsive>
0.2567

> <Gold.PLP.ligand.clash>
0.0000

> <Gold.PLP.ligand.torsion>
1.6696

> <Gold.PLP.Chemscore.Hbond>
0.7840

> <Gold.PLP.Chemscore.CHOScore>
0.0000

> <Gold.PLP.Chemscore.Metal>
0.0000

> <Gold.Chemscore.Hbonds>
donor molecule, donor type, donor heavy atom, donor atom, acceptor molecule, acceptor atom, score
      P1  H  7989  7998       L1    23  0.82

> <Gold.PLP.Chemscore.Internal.Correction>
0.4045

> <Gold.Rescore>
     Score         DG    S(hbond)    S(metal)    S(lipo)     H(rot)  DE(clash)    DE(int)     intcor
     10.53     -13.81       0.63        0.00      86.71       1.54       0.28       2.99       ----

> <Gold.Chemscore.Fitness>
10.5330

> <Gold.Chemscore.DG>
-13.8107

> <Gold.Chemscore.ZeroCoef>
-5.4800

> <Gold.Chemscore.Hbond>
0.6342

> <Gold.Chemscore.Metal>
0.0000

> <Gold.Chemscore.Lipo>
86.7115

> <Gold.Chemscore.Internal_Hbond>
0.0000

> <Gold.Chemscore.DEClash>
0.2828

> <Gold.Chemscore.DEInternal>
2.9949

> <Gold.Chemscore.Rot>
1.5362

> <Gold.Chemscore.Internal.Correction>
   9.000000E+99

> <Gold.Chemscore.Hbonds>
donor molecule, donor type, donor heavy atom, donor atom, acceptor molecule, acceptor atom, score
      P1  H  7989  7998       L1    23  0.08

> <Gold.Chemscore.Hbond.Weighted>
-2.1181

> <Gold.Chemscore.Metal.Weighted>
-0.0000

> <Gold.Chemscore.Lipo.Weighted>
-10.1452

> <Gold.Chemscore.Internal_Hbond.Weighted>
0.0000

> <Gold.Chemscore.DEClash.Weighted>
0.2828

> <Gold.Chemscore.DEInternal.Weighted>
2.9949

> <Gold.Chemscore.Rot.Weighted>
3.9326

> <Gold.Chemscore.Internal.Correction.Weighted>
   9.000000E+99

> <Gold.Protein.RotatedTorsions>
[ 6907 6896 6895 6894 ] final  151.78 input  -60.11 | X-H torsion
[ 7974 7965 7964 7962 ] final  146.00 input  175.53 | X-H torsion
[ 8008 7997 7996 7995 ] final  169.26 input   59.86 | X-H torsion
[ 10167 10162 10161 10158 ] final  -44.34 input  -65.29 | X-H torsion
[ 10718 10713 10712 10709 ] final  -91.72 input   66.30 | X-H torsion
[ 10763 10752 10751 10750 ] final  159.36 input  -60.55 | X-H torsion
[ 11005 11000 10999 10996 ] final   88.63 input  -57.11 | X-H torsion

> <Gold.Protein.ActiveResidues>
 VAL166  LYS551  ARG553  GLY616  TRP617  ASP618  TYR619  PRO620  LYS621  CYS622 
 ASP623  PHE694  ASN695  SER759  ASP760  ASP761  ALA762  ILE779  LEU786  VAL792 
 PHE793  MET794  SER795  GLU796  ALA797  LYS798  CYS799  TRP800  GLU811  SER814 

> <Gold.Protein.RotatedAtoms>
  152.0959  133.4224  159.4564 H   0  0  0  0  0  0  0  0  0  0  0  0  # atno 6907 bound_to 6896
  150.6863  134.2817  159.4639 H   0  0  0  0  0  0  0  0  0  0  0  0  # atno 6908 bound_to 6896
  152.0673  134.9556  160.0625 H   0  0  0  0  0  0  0  0  0  0  0  0  # atno 6909 bound_to 6896
  144.8707  139.5851  143.5888 H   0  0  0  0  0  0  0  0  0  0  0  0  # atno 7974 bound_to 7965
  156.1473  140.1569  156.8826 H   0  0  0  0  0  0  0  0  0  0  0  0  # atno 8008 bound_to 7997
  154.5040  140.0818  156.7893 H   0  0  0  0  0  0  0  0  0  0  0  0  # atno 8009 bound_to 7997
  155.3964  140.3412  155.4256 H   0  0  0  0  0  0  0  0  0  0  0  0  # atno 8010 bound_to 7997
  140.6900  143.2935  151.3482 H   0  0  0  0  0  0  0  0  0  0  0  0  # atno 10167 bound_to 10162
  155.9996  130.4959  150.5516 H   0  0  0  0  0  0  0  0  0  0  0  0  # atno 10718 bound_to 10713
  154.2306  135.2778  155.2891 H   0  0  0  0  0  0  0  0  0  0  0  0  # atno 10763 bound_to 10752
  154.5627  135.5642  153.7025 H   0  0  0  0  0  0  0  0  0  0  0  0  # atno 10764 bound_to 10752
  153.0021  135.6302  154.2448 H   0  0  0  0  0  0  0  0  0  0  0  0  # atno 10765 bound_to 10752
  139.8892  134.8500  156.3027 H   0  0  0  0  0  0  0  0  0  0  0  0  # atno 11005 bound_to 11000
  146.2928  139.7189  142.9148 LP  0  0  0  0  0  0  0  0  0  0  0  0  # atno 17320 bound_to 7965
  145.4136  141.0399  143.3003 LP  0  0  0  0  0  0  0  0  0  0  0  0  # atno 17321 bound_to 7965
  139.6294  144.0750  152.2463 LP  0  0  0  0  0  0  0  0  0  0  0  0  # atno 17342 bound_to 10162
  140.0220  144.6146  150.7559 LP  0  0  0  0  0  0  0  0  0  0  0  0  # atno 17343 bound_to 10162
  157.3439  131.0721  151.1767 LP  0  0  0  0  0  0  0  0  0  0  0  0  # atno 17370 bound_to 10713
  157.2606  130.6657  149.5973 LP  0  0  0  0  0  0  0  0  0  0  0  0  # atno 17371 bound_to 10713
  140.9902  133.7213  156.0803 LP  0  0  0  0  0  0  0  0  0  0  0  0  # atno 17394 bound_to 11000
  140.7634  134.3913  157.5521 LP  0  0  0  0  0  0  0  0  0  0  0  0  # atno 17395 bound_to 11000

$$$$
