AV-unprocessed.smi:1497|AV-procd|sdf|6058|dock2
  -GOLD-   22720 6173D 1   1.00000     0.00000
 Structure written by MMmdl.
 33 34  0  0  0  0  0  0  0  0  1 V2000
  148.5298  138.6772  152.8431 N   0  0  0  0  0  0  0  0  0  0  0  0
  147.7277  139.1871  153.7821 C   0  0  0  0  0  0  0  0  0  0  0  0
  146.7616  138.5704  154.2254 O   0  0  0  0  0  0  0  0  0  0  0  0
  148.0511  140.5933  154.2919 C   0  0  0  0  0  0  0  0  0  0  0  0
  149.2892  140.6101  155.0508 N   0  0  0  0  0  0  0  0  0  0  0  0
  149.6891  141.5179  156.0119 C   0  0  0  0  0  0  0  0  0  0  0  0
  150.9216  141.1083  156.4224 C   0  0  0  0  0  0  0  0  0  0  0  0
  151.7021  141.7629  157.4080 N   0  0  0  0  0  0  0  0  0  0  0  0
  151.3620  142.8322  158.1525 C   0  0  0  0  0  0  0  0  0  0  0  0
  150.2853  143.4184  158.0352 O   0  0  0  0  0  0  0  0  0  0  0  0
  152.3199  143.2293  159.0298 N   0  0  0  0  0  0  0  0  0  0  0  0
  153.4513  142.4144  159.5052 C   0  0  0  0  0  0  0  0  0  0  0  0
  153.0823  141.7812  160.8570 C   0  0  0  0  0  0  0  0  0  0  0  0
  152.7913  143.0618  162.1176 S   0  0  0  0  0  0  0  0  0  0  0  0
  151.6409  144.1366  161.2036 C   0  0  0  0  0  0  0  0  0  0  0  0
  152.1879  144.4693  159.8049 C   0  0  0  0  0  0  0  0  0  0  0  0
  151.2137  139.9376  155.6668 C   0  0  0  0  0  0  0  0  0  0  0  0
  150.2197  139.6450  154.8417 N   0  0  0  0  0  0  0  0  0  0  0  0
  148.3508  137.7505  152.4839 H   0  0  0  0  0  0  0  0  0  0  0  0
  149.3115  139.2146  152.4979 H   0  0  0  0  0  0  0  0  0  0  0  0
  148.1416  141.2831  153.4516 H   0  0  0  0  0  0  0  0  0  0  0  0
  147.2380  140.9605  154.9205 H   0  0  0  0  0  0  0  0  0  0  0  0
  149.0759  142.3558  156.3098 H   0  0  0  0  0  0  0  0  0  0  0  0
  152.6169  141.3711  157.5767 H   0  0  0  0  0  0  0  0  0  0  0  0
  153.7499  141.6388  158.7997 H   0  0  0  0  0  0  0  0  0  0  0  0
  154.3370  143.0412  159.6191 H   0  0  0  0  0  0  0  0  0  0  0  0
  152.1871  141.1660  160.7588 H   0  0  0  0  0  0  0  0  0  0  0  0
  153.8836  141.1276  161.2021 H   0  0  0  0  0  0  0  0  0  0  0  0
  150.6738  143.6387  161.1255 H   0  0  0  0  0  0  0  0  0  0  0  0
  151.4843  145.0497  161.7780 H   0  0  0  0  0  0  0  0  0  0  0  0
  153.1548  144.9675  159.8872 H   0  0  0  0  0  0  0  0  0  0  0  0
  151.5349  145.1912  159.3123 H   0  0  0  0  0  0  0  0  0  0  0  0
  152.0848  139.2997  155.6807 H   0  0  0  0  0  0  0  0  0  0  0  0
  1  2  1  0  0  0  0
  1 19  1  0  0  0  0
  1 20  1  0  0  0  0
  2  3  2  0  0  0  0
  2  4  1  0  0  0  0
  4  5  1  0  0  0  0
  4 21  1  0  0  0  0
  4 22  1  0  0  0  0
  5 18  1  0  0  0  0
  5  6  1  0  0  0  0
  6  7  2  0  0  0  0
  6 23  1  0  0  0  0
  7  8  1  0  0  0  0
  7 17  1  0  0  0  0
  8  9  1  0  0  0  0
  8 24  1  0  0  0  0
  9 10  2  0  0  0  0
  9 11  1  0  0  0  0
 11 16  1  0  0  0  0
 11 12  1  0  0  0  0
 12 13  1  0  0  0  0
 12 25  1  0  0  0  0
 12 26  1  0  0  0  0
 13 14  1  0  0  0  0
 13 27  1  0  0  0  0
 13 28  1  0  0  0  0
 14 15  1  0  0  0  0
 15 16  1  0  0  0  0
 15 29  1  0  0  0  0
 15 30  1  0  0  0  0
 16 31  1  0  0  0  0
 16 32  1  0  0  0  0
 17 18  2  0  0  0  0
 17 33  1  0  0  0  0
M  END
> <s_m_source_file>
AV-unprocessed.smi

> <i_m_source_file_index>
1497

> <i_lp_mmshare_version>
43012

> <i_f3d_flags>
0

> <s_epik_input>
W05IMl1DKD1PKVtDSDJdbjFbY0hdYyhbY0hdbjEpW05IXUMoPU8pTjJbQ0gyXVtDSDJdU1tDSDJdW0NIMl0y

> <s_epik_cmdline>
J2VwaWtfcHl0aG9uJywgJy1waCcsICc3LjAnLCAnLXRuJywgJzgnLCAnLW1hJywgJzIwMCcsICctbWV0YWxfYmluZGluZycsICctaW1hZScsICc8aW5maWxlLm1hZT4nLCAnLW9tYWUnLCAnPG91dGZpbGUubWFlPic=

> <r_lp_tautomer_probability>
1

> <r_epik_Ionization_Penalty>
3.75542e-05

> <r_epik_Ionization_Penalty_Charging>
0

> <r_epik_Ionization_Penalty_Neutral>
3.75542e-05

> <r_epik_State_Penalty>
-0

> <r_epik_Charging_Adjusted_Penalty>
0

> <i_epik_Tot_Q>
0

> <i_epik_Tot_abs_Q>
0

> <r_epik_Metal_State_Penalty>
-0

> <b_epik_Metal_Only>
0

> <s_lp_Force_Field>
OPLS_2005

> <r_lp_Energy>
28.4964

> <b_lp_Chiralities_Consistent>
1

> <s_lp_Variant>
AV-unprocessed.smi:1497-1

> <Gold.Version>
5.8.1

> <Gold.Id.Protein>
6NUR|6NUR_protein|mol2

> <Gold.PLP.Fitness>
47.1571

> <Gold.PLP.PLP>
-40.0418

> <Gold.PLP.part.hbond>
-1.6699

> <Gold.PLP.part.metal>
0.0000

> <Gold.PLP.part.buried>
-4.2348

> <Gold.PLP.part.nonpolar>
-35.7480

> <Gold.PLP.part.repulsive>
1.1129

> <Gold.PLP.ligand.clash>
0.0000

> <Gold.PLP.ligand.torsion>
0.4865

> <Gold.PLP.Chemscore.Hbond>
1.6800

> <Gold.PLP.Chemscore.CHOScore>
1.0000

> <Gold.PLP.Chemscore.Metal>
0.0000

> <Gold.Chemscore.Hbonds>
donor molecule, donor type, donor heavy atom, donor atom, acceptor molecule, acceptor atom, score
      L1  H     1    19       P1  7948  0.98
      L1  H     1    20       P1  7957  0.69
      L1  C     6    23       P1  8028  1.00

> <Gold.PLP.Chemscore.Internal.Correction>
0.0483

> <Gold.Rescore>
     Score         DG    S(hbond)    S(metal)    S(lipo)     H(rot)  DE(clash)    DE(int)     intcor
     14.22     -17.56       1.88        0.00      83.33       1.54       0.17       3.17       ----

> <Gold.Chemscore.Fitness>
14.2162

> <Gold.Chemscore.DG>
-17.5588

> <Gold.Chemscore.ZeroCoef>
-5.4800

> <Gold.Chemscore.Hbond>
1.8769

> <Gold.Chemscore.Metal>
0.0000

> <Gold.Chemscore.Lipo>
83.3255

> <Gold.Chemscore.Internal_Hbond>
0.0000

> <Gold.Chemscore.DEClash>
0.1725

> <Gold.Chemscore.DEInternal>
3.1701

> <Gold.Chemscore.Rot>
1.5388

> <Gold.Chemscore.Internal.Correction>
   9.000000E+99

> <Gold.Chemscore.Hbonds>
donor molecule, donor type, donor heavy atom, donor atom, acceptor molecule, acceptor atom, score
      L1  H     1    19       P1  7948  0.93
      L1  H     1    20       P1  7957  0.66

> <Gold.Chemscore.Hbond.Weighted>
-6.2689

> <Gold.Chemscore.Metal.Weighted>
-0.0000

> <Gold.Chemscore.Lipo.Weighted>
-9.7491

> <Gold.Chemscore.Internal_Hbond.Weighted>
0.0000

> <Gold.Chemscore.DEClash.Weighted>
0.1725

> <Gold.Chemscore.DEInternal.Weighted>
3.1701

> <Gold.Chemscore.Rot.Weighted>
3.9392

> <Gold.Chemscore.Internal.Correction.Weighted>
   9.000000E+99

> <Gold.Protein.RotatedTorsions>
[ 6907 6896 6895 6894 ] final -167.40 input  -60.11 | X-H torsion
[ 7974 7965 7964 7962 ] final -116.13 input  175.53 | X-H torsion
[ 8008 7997 7996 7995 ] final  -45.22 input   59.86 | X-H torsion
[ 10167 10162 10161 10158 ] final   83.87 input  -65.29 | X-H torsion
[ 10718 10713 10712 10709 ] final   36.15 input   66.30 | X-H torsion
[ 10763 10752 10751 10750 ] final -148.65 input  -60.55 | X-H torsion
[ 11005 11000 10999 10996 ] final    6.13 input  -57.11 | X-H torsion

> <Gold.Protein.ActiveResidues>
 VAL166  LYS551  ARG553  GLY616  TRP617  ASP618  TYR619  PRO620  LYS621  CYS622 
 ASP623  PHE694  ASN695  SER759  ASP760  ASP761  ALA762  ILE779  LEU786  VAL792 
 PHE793  MET794  SER795  GLU796  ALA797  LYS798  CYS799  TRP800  GLU811  SER814 

> <Gold.Protein.RotatedAtoms>
  151.4590  133.3598  159.2806 H   0  0  0  0  0  0  0  0  0  0  0  0  # atno 6907 bound_to 6896
  150.9039  134.8454  159.7389 H   0  0  0  0  0  0  0  0  0  0  0  0  # atno 6908 bound_to 6896
  152.4895  134.4513  159.9627 H   0  0  0  0  0  0  0  0  0  0  0  0  # atno 6909 bound_to 6896
  145.1003  140.8547  143.3930 H   0  0  0  0  0  0  0  0  0  0  0  0  # atno 7974 bound_to 7965
  154.4000  140.1402  156.3811 H   0  0  0  0  0  0  0  0  0  0  0  0  # atno 8008 bound_to 7997
  155.8002  140.3476  155.5378 H   0  0  0  0  0  0  0  0  0  0  0  0  # atno 8009 bound_to 7997
  155.8491  140.0938  157.1677 H   0  0  0  0  0  0  0  0  0  0  0  0  # atno 8010 bound_to 7997
  139.9139  144.6255  150.8509 H   0  0  0  0  0  0  0  0  0  0  0  0  # atno 10167 bound_to 10162
  157.3314  130.7499  149.6850 H   0  0  0  0  0  0  0  0  0  0  0  0  # atno 10718 bound_to 10713
  154.8221  135.3329  154.7007 H   0  0  0  0  0  0  0  0  0  0  0  0  # atno 10763 bound_to 10752
  153.7638  135.6930  153.4924 H   0  0  0  0  0  0  0  0  0  0  0  0  # atno 10764 bound_to 10752
  153.2091  135.4488  155.0308 H   0  0  0  0  0  0  0  0  0  0  0  0  # atno 10765 bound_to 10752
  140.5629  134.0175  155.7978 H   0  0  0  0  0  0  0  0  0  0  0  0  # atno 11005 bound_to 11000
  145.0963  139.2854  143.5709 LP  0  0  0  0  0  0  0  0  0  0  0  0  # atno 17320 bound_to 7965
  146.3530  140.0517  142.8635 LP  0  0  0  0  0  0  0  0  0  0  0  0  # atno 17321 bound_to 7965
  140.7679  143.3346  151.2337 LP  0  0  0  0  0  0  0  0  0  0  0  0  # atno 17342 bound_to 10162
  139.6919  143.9678  152.2863 LP  0  0  0  0  0  0  0  0  0  0  0  0  # atno 17343 bound_to 10162
  155.9696  130.4194  150.4374 LP  0  0  0  0  0  0  0  0  0  0  0  0  # atno 17370 bound_to 10713
  157.2406  131.0524  151.2438 LP  0  0  0  0  0  0  0  0  0  0  0  0  # atno 17371 bound_to 10713
  141.1103  133.9626  157.2921 LP  0  0  0  0  0  0  0  0  0  0  0  0  # atno 17394 bound_to 11000
  139.9399  135.0192  156.8675 LP  0  0  0  0  0  0  0  0  0  0  0  0  # atno 17395 bound_to 11000

$$$$
