AV-unprocessed.smi:1803|AV-procd|sdf|7291|dock3
  -GOLD-   22720 8543D 1   1.00000     0.00000
 Structure written by MMmdl.
 35 37  0  0  0  0  0  0  0  0  3 V2000
  150.4036  134.1856  156.2680 O   0  0  0  0  0  0  0  0  0  0  0  0
  150.4517  135.0314  155.3762 C   0  0  0  0  0  0  0  0  0  0  0  0
  151.3924  136.0098  155.3252 N   0  5  0  0  0  0  0  0  0  0  0  0
  151.0987  137.2806  154.9926 C   0  0  0  0  0  0  0  0  0  0  0  0
  149.8759  137.6575  154.5860 N   0  0  0  0  0  0  0  0  0  0  0  0
  149.7903  139.0131  154.2999 N   0  0  0  0  0  0  0  0  0  0  0  0
  150.9598  139.6245  154.4867 C   0  0  0  0  0  0  0  0  0  0  0  0
  152.2689  138.6020  155.0396 S   0  0  0  0  0  0  0  0  0  0  0  0
  149.5231  135.0052  154.4003 N   0  0  0  0  0  0  0  0  0  0  0  0
  148.3914  134.0866  154.2991 C   0  0  2  0  0  0  0  0  0  0  0  0
  148.5668  133.0599  153.1625 C   0  0  0  0  0  0  0  0  0  0  0  0
  147.2102  133.0222  152.4518 C   0  0  0  0  0  0  0  0  0  0  0  0
  146.7069  134.3900  152.6239 N   0  3  1  0  0  0  0  0  0  0  0  0
  145.2966  134.6664  152.2821 C   0  0  0  0  0  0  0  0  0  0  0  0
  145.0558  136.1876  152.3823 C   0  0  0  0  0  0  0  0  0  0  0  0
  145.4984  136.7581  153.7481 C   0  0  0  0  0  0  0  0  0  0  0  0
  146.9391  136.3335  154.1018 C   0  0  0  0  0  0  0  0  0  0  0  0
  147.0542  134.8010  153.9947 C   0  0  2  0  0  0  0  0  0  0  0  0
  151.0517  140.6840  154.2993 H   0  0  0  0  0  0  0  0  0  0  0  0
  149.6049  135.7025  153.6750 H   0  0  0  0  0  0  0  0  0  0  0  0
  148.2864  133.5372  155.2365 H   0  0  0  0  0  0  0  0  0  0  0  0
  149.3308  133.3976  152.4603 H   0  0  0  0  0  0  0  0  0  0  0  0
  148.8706  132.0785  153.5277 H   0  0  0  0  0  0  0  0  0  0  0  0
  147.2933  132.7466  151.4001 H   0  0  0  0  0  0  0  0  0  0  0  0
  146.5383  132.3172  152.9440 H   0  0  0  0  0  0  0  0  0  0  0  0
  145.0881  134.3185  151.2698 H   0  0  0  0  0  0  0  0  0  0  0  0
  144.6330  134.1224  152.9558 H   0  0  0  0  0  0  0  0  0  0  0  0
  145.6137  136.6903  151.5911 H   0  0  0  0  0  0  0  0  0  0  0  0
  144.0038  136.4130  152.2059 H   0  0  0  0  0  0  0  0  0  0  0  0
  145.4190  137.8457  153.7441 H   0  0  0  0  0  0  0  0  0  0  0  0
  144.8178  136.4032  154.5232 H   0  0  0  0  0  0  0  0  0  0  0  0
  147.6459  136.8177  153.4261 H   0  0  0  0  0  0  0  0  0  0  0  0
  147.1853  136.6664  155.1104 H   0  0  0  0  0  0  0  0  0  0  0  0
  146.3127  134.3620  154.6658 H   0  0  0  0  0  0  0  0  0  0  0  0
  147.2705  134.9637  152.0128 H   0  0  0  0  0  0  0  0  0  0  0  0
  1  2  2  0  0  0  0
  2  3  1  0  0  0  0
  2  9  1  0  0  0  0
  3  4  1  0  0  0  0
  4  8  1  0  0  0  0
  4  5  2  0  0  0  0
  5  6  1  0  0  0  0
  6  7  2  0  0  0  0
  7  8  1  0  0  0  0
  7 19  1  0  0  0  0
  9 10  1  0  0  0  0
  9 20  1  0  0  0  0
 10 18  1  0  0  0  0
 10 11  1  0  0  0  0
 10 21  1  0  0  0  0
 11 12  1  0  0  0  0
 11 22  1  0  0  0  0
 11 23  1  0  0  0  0
 12 13  1  0  0  0  0
 12 24  1  0  0  0  0
 12 25  1  0  0  0  0
 13 18  1  0  0  0  0
 13 14  1  0  0  0  0
 13 35  1  0  0  0  0
 14 15  1  0  0  0  0
 14 26  1  0  0  0  0
 14 27  1  0  0  0  0
 15 16  1  0  0  0  0
 15 28  1  0  0  0  0
 15 29  1  0  0  0  0
 16 17  1  0  0  0  0
 16 30  1  0  0  0  0
 16 31  1  0  0  0  0
 17 18  1  0  0  0  0
 17 32  1  0  0  0  0
 17 33  1  0  0  0  0
 18 34  1  0  0  0  0
M  CHG  1   3  -1
M  CHG  1  13   1
M  END
> <s_m_source_file>
AV-unprocessed.smi

> <i_m_source_file_index>
1803

> <i_lp_mmshare_version>
43012

> <i_f3d_flags>
0

> <s_epik_input>
czFbY0hdbm5jMVtOSF1DKD1PKVtOSF1bQ0BIXShbQ0gyXVtDSDJdMilbQ0BASF0oTjIzKVtDSDJdW0NIMl1bQ0gyXVtDSDJdMw==

> <s_epik_cmdline>
J2VwaWtfcHl0aG9uJywgJy1waCcsICc3LjAnLCAnLXRuJywgJzgnLCAnLW1hJywgJzIwMCcsICctbWV0YWxfYmluZGluZycsICctaW1hZScsICc8aW5maWxlLm1hZT4nLCAnLW9tYWUnLCAnPG91dGZpbGUubWFlPic=

> <r_lp_tautomer_probability>
1

> <r_epik_Ionization_Penalty>
3.78828

> <r_epik_Ionization_Penalty_Charging>
3.7591

> <r_epik_Ionization_Penalty_Neutral>
0.0291838

> <r_epik_State_Penalty>
3.757

> <r_epik_Charging_Adjusted_Penalty>
7.51609

> <i_epik_Tot_Q>
0

> <i_epik_Tot_abs_Q>
2

> <r_epik_Metal_State_Penalty>
0.558016

> <b_epik_Metal_Only>
1

> <s_lp_Force_Field>
OPLS_2005

> <r_lp_Energy>
35.249

> <b_lp_Chiralities_Consistent>
1

> <s_lp_Variant>
AV-unprocessed.smi:1803-13

> <Gold.Version>
5.8.1

> <Gold.Id.Protein>
6NUR|6NUR_protein|mol2

> <Gold.PLP.Fitness>
36.9768

> <Gold.PLP.PLP>
-23.5247

> <Gold.PLP.part.hbond>
-3.0000

> <Gold.PLP.part.metal>
0.0000

> <Gold.PLP.part.buried>
-0.6825

> <Gold.PLP.part.nonpolar>
-19.7840

> <Gold.PLP.part.repulsive>
0.4624

> <Gold.PLP.ligand.clash>
0.0000

> <Gold.PLP.ligand.torsion>
0.4588

> <Gold.PLP.Chemscore.Hbond>
4.7840

> <Gold.PLP.Chemscore.CHOScore>
0.0000

> <Gold.PLP.Chemscore.Metal>
0.0000

> <Gold.Chemscore.Hbonds>
donor molecule, donor type, donor heavy atom, donor atom, acceptor molecule, acceptor atom, score
      L1  H     9    20       P1  7948  0.84
      L1  H    13    35       P1  7948  1.69
      P1  H 10752 10763       L1     3  2.00

> <Gold.PLP.Chemscore.Internal.Correction>
0.0176

> <Gold.Rescore>
     Score         DG    S(hbond)    S(metal)    S(lipo)     H(rot)  DE(clash)    DE(int)     intcor
     14.30     -14.90       2.02        0.00      44.70       1.00       0.05       0.55       ----

> <Gold.Chemscore.Fitness>
14.3012

> <Gold.Chemscore.DG>
-14.9013

> <Gold.Chemscore.ZeroCoef>
-5.4800

> <Gold.Chemscore.Hbond>
2.0215

> <Gold.Chemscore.Metal>
0.0000

> <Gold.Chemscore.Lipo>
44.6974

> <Gold.Chemscore.Internal_Hbond>
0.0000

> <Gold.Chemscore.DEClash>
0.0461

> <Gold.Chemscore.DEInternal>
0.5540

> <Gold.Chemscore.Rot>
1.0000

> <Gold.Chemscore.Internal.Correction>
   9.000000E+99

> <Gold.Chemscore.Hbonds>
donor molecule, donor type, donor heavy atom, donor atom, acceptor molecule, acceptor atom, score
      L1  H     9    20       P1  7948  0.18
      L1  H    13    35       P1  7948  0.75
      P1  H 10752 10763       L1     3  0.65

> <Gold.Chemscore.Hbond.Weighted>
-6.7517

> <Gold.Chemscore.Metal.Weighted>
-0.0000

> <Gold.Chemscore.Lipo.Weighted>
-5.2296

> <Gold.Chemscore.Internal_Hbond.Weighted>
0.0000

> <Gold.Chemscore.DEClash.Weighted>
0.0461

> <Gold.Chemscore.DEInternal.Weighted>
0.5540

> <Gold.Chemscore.Rot.Weighted>
2.5600

> <Gold.Chemscore.Internal.Correction.Weighted>
   9.000000E+99

> <Gold.Protein.RotatedTorsions>
[ 6907 6896 6895 6894 ] final -158.66 input  -60.11 | X-H torsion
[ 7974 7965 7964 7962 ] final   57.23 input  175.53 | X-H torsion
[ 8008 7997 7996 7995 ] final  -21.24 input   59.86 | X-H torsion
[ 10167 10162 10161 10158 ] final -178.13 input  -65.29 | X-H torsion
[ 10718 10713 10712 10709 ] final    0.34 input   66.30 | X-H torsion
[ 10763 10752 10751 10750 ] final   58.28 input  -60.55 | X-H torsion
[ 11005 11000 10999 10996 ] final  -75.07 input  -57.11 | X-H torsion

> <Gold.Protein.ActiveResidues>
 VAL166  LYS551  ARG553  GLY616  TRP617  ASP618  TYR619  PRO620  LYS621  CYS622 
 ASP623  PHE694  ASN695  SER759  ASP760  ASP761  ALA762  ILE779  LEU786  VAL792 
 PHE793  MET794  SER795  GLU796  ALA797  LYS798  CYS799  TRP800  GLU811  SER814 

> <Gold.Protein.RotatedAtoms>
  151.3216  133.4038  159.2654 H   0  0  0  0  0  0  0  0  0  0  0  0  # atno 6907 bound_to 6896
  151.0030  134.9337  159.7975 H   0  0  0  0  0  0  0  0  0  0  0  0  # atno 6908 bound_to 6896
  152.5280  134.3181  159.9190 H   0  0  0  0  0  0  0  0  0  0  0  0  # atno 6909 bound_to 6896
  145.9312  139.3809  143.0419 H   0  0  0  0  0  0  0  0  0  0  0  0  # atno 7974 bound_to 7965
  154.4718  140.2040  155.9975 H   0  0  0  0  0  0  0  0  0  0  0  0  # atno 8008 bound_to 7997
  156.1024  140.3242  155.7930 H   0  0  0  0  0  0  0  0  0  0  0  0  # atno 8009 bound_to 7997
  155.4775  140.0536  157.2962 H   0  0  0  0  0  0  0  0  0  0  0  0  # atno 8010 bound_to 7997
  139.5447  144.2268  152.0964 H   0  0  0  0  0  0  0  0  0  0  0  0  # atno 10167 bound_to 10162
  156.8319  130.5491  149.5686 H   0  0  0  0  0  0  0  0  0  0  0  0  # atno 10718 bound_to 10713
  152.9867  135.5612  154.5526 H   0  0  0  0  0  0  0  0  0  0  0  0  # atno 10763 bound_to 10752
  154.4960  135.2795  155.1461 H   0  0  0  0  0  0  0  0  0  0  0  0  # atno 10764 bound_to 10752
  154.2911  135.6326  153.5438 H   0  0  0  0  0  0  0  0  0  0  0  0  # atno 10765 bound_to 10752
  141.1642  133.6933  156.7460 H   0  0  0  0  0  0  0  0  0  0  0  0  # atno 11005 bound_to 11000
  145.8423  140.9574  143.0793 LP  0  0  0  0  0  0  0  0  0  0  0  0  # atno 17320 bound_to 7965
  144.6765  140.0300  143.7482 LP  0  0  0  0  0  0  0  0  0  0  0  0  # atno 17321 bound_to 7965
  140.1753  144.4897  150.6557 LP  0  0  0  0  0  0  0  0  0  0  0  0  # atno 17342 bound_to 10162
  140.6690  143.2278  151.5671 LP  0  0  0  0  0  0  0  0  0  0  0  0  # atno 17343 bound_to 10162
  156.0929  130.5910  150.9764 LP  0  0  0  0  0  0  0  0  0  0  0  0  # atno 17370 bound_to 10713
  157.6402  131.0911  150.8267 LP  0  0  0  0  0  0  0  0  0  0  0  0  # atno 17371 bound_to 10713
  140.2639  134.8445  157.3784 LP  0  0  0  0  0  0  0  0  0  0  0  0  # atno 17394 bound_to 11000
  140.1585  134.4759  155.7911 LP  0  0  0  0  0  0  0  0  0  0  0  0  # atno 17395 bound_to 11000

$$$$
