#       Name:                AV-unprocessed.smi:2638
#       Creating user name   scv26
#       Creation time:       Fri Mar 27 14:27:25 2020


#       File generated by GOLD software.
#

@<TRIPOS>MOLECULE
AV-unprocessed.smi:2638
    48    49     1
SMALL
NO_CHARGES


@<TRIPOS>ATOM
      1 ****        -0.5942  -1.8772  -0.7920 O.2            1 S1                 0.0000
      2 ****        -0.2433  -1.3668   0.2724 C.2            1 S1                 0.0000
      3 ****        -0.5775  -1.8138   1.4955 N.am           1 S1                 0.0000
      4 ****        -1.3666  -2.9456   1.8319 C.ar           1 S1                 0.0000
      5 ****        -1.5219  -3.1759   3.2175 C.ar           1 S1                 0.0000
      6 ****        -2.2843  -4.2758   3.6559 C.ar           1 S1                 0.0000
      7 ****        -2.8737  -5.1178   2.6961 C.ar           1 S1                 0.0000
      8 ****        -2.6712  -4.8170   1.3366 C.ar           1 S1                 0.0000
      9 ****        -1.9402  -3.7639   0.9144 N.ar           1 S1                 0.0000
     10 ****         0.5369  -0.2781   0.3552 N.am           1 S1                 0.0000
     11 ****         1.1188   0.4560  -0.7714 C.3            1 S1                 0.0000
     12 ****         2.6655   0.3708  -0.6966 C.3            1 S1                 0.0000
     13 ****         3.2497  -1.0561  -0.6827 C.3            1 S1                 0.0000
     14 ****         3.2147  -1.6234   0.6109 O.3            1 S1                 0.0000
     15 ****         0.5770   1.9158  -0.7892 C.3            1 S1                 0.0000
     16 ****        -0.9730   1.9671  -0.7684 C.3            1 S1                 0.0000
     17 ****        -1.5133   3.4055  -0.7835 C.3            1 S1                 0.0000
     18 ****        -0.9845   4.1845  -1.9936 C.3            1 S1                 0.0000
     19 ****         0.5487   4.1675  -2.0185 C.3            1 S1                 0.0000
     20 ****         1.0948   2.7303  -2.0010 C.3            1 S1                 0.0000
     21 ****        -0.2130  -1.2906   2.2779 H              1 S1                 0.0000
     22 ****        -1.0616  -2.5190   3.9414 H              1 S1                 0.0000
     23 ****        -2.4138  -4.4690   4.7105 H              1 S1                 0.0000
     24 ****        -3.4648  -5.9713   2.9933 H              1 S1                 0.0000
     25 ****        -3.1063  -5.4377   0.5674 H              1 S1                 0.0000
     26 ****         0.7691   0.0623   1.2767 H              1 S1                 0.0000
     27 ****         0.8152  -0.0149  -1.7081 H              1 S1                 0.0000
     28 ****         3.0832   0.8589  -1.5754 H              1 S1                 0.0000
     29 ****         3.0383   0.9335   0.1606 H              1 S1                 0.0000
     30 ****         2.7206  -1.7013  -1.3846 H              1 S1                 0.0000
     31 ****         4.2923  -1.0297  -1.0001 H              1 S1                 0.0000
     32 ****         3.5806  -2.4938   0.5669 H              1 S1                 0.0000
     33 ****         0.9323   2.4107   0.1162 H              1 S1                 0.0000
     34 ****        -1.3678   1.4215  -1.6266 H              1 S1                 0.0000
     35 ****        -1.3674   1.4696   0.1171 H              1 S1                 0.0000
     36 ****        -2.6035   3.3921  -0.7985 H              1 S1                 0.0000
     37 ****        -1.2237   3.9149   0.1364 H              1 S1                 0.0000
     38 ****        -1.3728   3.7444  -2.9130 H              1 S1                 0.0000
     39 ****        -1.3464   5.2125  -1.9634 H              1 S1                 0.0000
     40 ****         0.9099   4.6908  -2.9042 H              1 S1                 0.0000
     41 ****         0.9348   4.7152  -1.1579 H              1 S1                 0.0000
     42 ****         2.1818   2.7904  -1.9938 H              1 S1                 0.0000
     43 ****         0.8186   2.2254  -2.9277 H              1 S1                 0.0000
     44 ****        -1.1750  -2.6912  -0.7887 LP             1 S1                 0.0000
     45 ****        -0.2982  -1.4777  -1.6597 LP             1 S1                 0.0000
     46 ****        -1.8227  -3.5889  -0.0632 LP             1 S1                 0.0000
     47 ****         2.2692  -1.6709   0.9329 LP             1 S1                 0.0000
     48 ****         3.7532  -1.0626   1.2398 LP             1 S1                 0.0000
@<TRIPOS>BOND
    1    1    2 2     
    2    2    3 am    
    3    2   10 am    
    4    3    4 1     
    5    3   21 1     
    6    4    9 ar    
    7    4    5 ar    
    8    5    6 ar    
    9    5   22 1     
   10    6    7 ar    
   11    6   23 1     
   12    7    8 ar    
   13    7   24 1     
   14    8    9 ar    
   15    8   25 1     
   16   10   11 1     
   17   10   26 1     
   18   11   12 1     
   19   11   15 1     
   20   11   27 1     
   21   12   13 1     
   22   12   28 1     
   23   12   29 1     
   24   13   14 1     
   25   13   30 1     
   26   13   31 1     
   27   14   32 1     
   28   15   20 1     
   29   15   16 1     
   30   15   33 1     
   31   16   17 1     
   32   16   34 1     
   33   16   35 1     
   34   17   18 1     
   35   17   36 1     
   36   17   37 1     
   37   18   19 1     
   38   18   38 1     
   39   18   39 1     
   40   19   20 1     
   41   19   40 1     
   42   19   41 1     
   43   20   42 1     
   44   20   43 1     
   45    1   44 1     
   46    1   45 1     
   47    9   46 1     
   48   14   47 1     
   49   14   48 1     
@<TRIPOS>SUBSTRUCTURE
      1 S1             1
@<TRIPOS>SET
LONE_PAIRS      STATIC     ATOMS    <user>   **** ""
5 44 45 46 47 48
DONOR_HYDROGENS      STATIC     ATOMS    <user>   **** ""
3 21 26 32
ATOM$BLUE        STATIC     ATOMS    COLORGROUP SYSTEM
5 44 45 46 47 48
ATOM$RED        STATIC     ATOMS    COLORGROUP SYSTEM
3 21 26 32
