#       Name:                AV-unprocessed.smi:2442
#       Creating user name   scv26
#       Creation time:       Fri Mar 27 13:26:23 2020


#       File generated by GOLD software.
#

@<TRIPOS>MOLECULE
AV-unprocessed.smi:2442
    51    52     1
SMALL
NO_CHARGES


@<TRIPOS>ATOM
      1 ****        -1.9804   2.2650   2.2244 C.3            1 S1                 0.0000
      2 ****        -2.0039   2.0538   0.8216 O.3            1 S1                 0.0000
      3 ****        -3.1482   1.3483   0.3544 C.3            1 S1                 0.0000
      4 ****        -4.3280   2.3288   0.1826 C.3            1 S1                 0.0000
      5 ****        -5.5468   1.6453  -0.4544 C.3            1 S1                 0.0000
      6 ****        -5.1778   1.0021  -1.7982 C.3            1 S1                 0.0000
      7 ****        -4.0153   0.0123  -1.6341 C.3            1 S1                 0.0000
      8 ****        -2.7836   0.6785  -0.9909 C.3            1 S1                 0.0000
      9 ****        -1.7539  -0.3378  -0.7846 N.am           1 S1                 0.0000
     10 ****        -0.4394  -0.1656  -0.9814 C.2            1 S1                 0.0000
     11 ****         0.0716   0.8787  -1.3866 O.2            1 S1                 0.0000
     12 ****         0.2572  -1.2687  -0.6743 N.am           1 S1                 0.0000
     13 ****         1.7064  -1.3920  -0.7751 C.3            1 S1                 0.0000
     14 ****         2.4191  -0.7038   0.4020 C.3            1 S1                 0.0000
     15 ****         3.9321  -0.8227   0.3040 C.ar           1 S1                 0.0000
     16 ****         4.6468   0.1451  -0.4372 C.ar           1 S1                 0.0000
     17 ****         6.0483   0.0466  -0.5401 C.ar           1 S1                 0.0000
     18 ****         6.6955  -0.9688   0.0694 N.pl3          1 S1                 1.0000
     19 ****         6.0556  -1.9175   0.7865 C.ar           1 S1                 0.0000
     20 ****         4.6507  -1.8775   0.9259 C.ar           1 S1                 0.0000
     21 ****         3.9529  -2.9569   1.7339 C.3            1 S1                 0.0000
     22 ****        -1.0665   2.7930   2.4953 H              1 S1                 0.0000
     23 ****        -1.9897   1.3174   2.7642 H              1 S1                 0.0000
     24 ****        -2.8238   2.8680   2.5600 H              1 S1                 0.0000
     25 ****        -3.4250   0.5665   1.0653 H              1 S1                 0.0000
     26 ****        -4.6178   2.7530   1.1436 H              1 S1                 0.0000
     27 ****        -4.0165   3.1670  -0.4420 H              1 S1                 0.0000
     28 ****        -5.9362   0.8842   0.2228 H              1 S1                 0.0000
     29 ****        -6.3473   2.3717  -0.5980 H              1 S1                 0.0000
     30 ****        -6.0454   0.4908  -2.2161 H              1 S1                 0.0000
     31 ****        -4.9012   1.7777  -2.5134 H              1 S1                 0.0000
     32 ****        -4.3443  -0.8273  -1.0200 H              1 S1                 0.0000
     33 ****        -3.7490  -0.4031  -2.6068 H              1 S1                 0.0000
     34 ****        -2.4212   1.4448  -1.6792 H              1 S1                 0.0000
     35 ****        -2.0683  -1.2361  -0.4485 H              1 S1                 0.0000
     36 ****        -0.2504  -2.0784  -0.3487 H              1 S1                 0.0000
     37 ****         1.9548  -2.4533  -0.7959 H              1 S1                 0.0000
     38 ****         2.0465  -0.9757  -1.7251 H              1 S1                 0.0000
     39 ****         2.1612   0.3560   0.4254 H              1 S1                 0.0000
     40 ****         2.0660  -1.1111   1.3494 H              1 S1                 0.0000
     41 ****         4.1253   0.9563  -0.9249 H              1 S1                 0.0000
     42 ****         6.6658   0.7443  -1.0867 H              1 S1                 0.0000
     43 ****         6.6862  -2.6779   1.2243 H              1 S1                 0.0000
     44 ****         4.6451  -3.7543   2.0066 H              1 S1                 0.0000
     45 ****         3.1398  -3.4048   1.1626 H              1 S1                 0.0000
     46 ****         3.5431  -2.5385   2.6534 H              1 S1                 0.0000
     47 ****         7.7110  -1.0222  -0.0156 H              1 S1                 0.0000
     48 ****        -1.1894   1.5310   0.5700 LP             1 S1                 0.0000
     49 ****        -1.9801   2.9458   0.3702 LP             1 S1                 0.0000
     50 ****        -0.5041   1.6702  -1.5920 LP             1 S1                 0.0000
     51 ****         1.0623   0.9354  -1.5103 LP             1 S1                 0.0000
@<TRIPOS>BOND
    1    1    2 1     
    2    1   22 1     
    3    1   23 1     
    4    1   24 1     
    5    2    3 1     
    6    3    8 1     
    7    3    4 1     
    8    3   25 1     
    9    4    5 1     
   10    4   26 1     
   11    4   27 1     
   12    5    6 1     
   13    5   28 1     
   14    5   29 1     
   15    6    7 1     
   16    6   30 1     
   17    6   31 1     
   18    7    8 1     
   19    7   32 1     
   20    7   33 1     
   21    8    9 1     
   22    8   34 1     
   23    9   10 am    
   24    9   35 1     
   25   10   11 2     
   26   10   12 am    
   27   12   13 1     
   28   12   36 1     
   29   13   14 1     
   30   13   37 1     
   31   13   38 1     
   32   14   15 1     
   33   14   39 1     
   34   14   40 1     
   35   15   20 ar    
   36   15   16 ar    
   37   16   17 ar    
   38   16   41 1     
   39   17   18 ar    
   40   17   42 1     
   41   18   19 ar    
   42   18   47 1     
   43   19   20 ar    
   44   19   43 1     
   45   20   21 1     
   46   21   44 1     
   47   21   45 1     
   48   21   46 1     
   49    2   48 1     
   50    2   49 1     
   51   11   50 1     
   52   11   51 1     
@<TRIPOS>SUBSTRUCTURE
      1 S1             1
@<TRIPOS>SET
LONE_PAIRS      STATIC     ATOMS    <user>   **** ""
4 48 49 50 51
DONOR_HYDROGENS      STATIC     ATOMS    <user>   **** ""
3 35 36 47
ATOM$BLUE        STATIC     ATOMS    COLORGROUP SYSTEM
4 48 49 50 51
ATOM$RED        STATIC     ATOMS    COLORGROUP SYSTEM
3 35 36 47
