AV-unprocessed.smi:3285|AV-procd|sdf|12586|dock2
  -GOLD-   2272018503D 1   1.00000     0.00000
 Structure written by MMmdl.
 45 46  0  0  0  0  0  0  0  0  2 V2000
  149.9468  138.3781  154.3838 C   0  0  0  0  0  0  0  0  0  0  0  0
  148.7735  139.2667  154.0864 C   0  0  0  0  0  0  0  0  0  0  0  0
  147.7060  138.7503  153.5021 N   0  0  0  0  0  0  0  0  0  0  0  0
  146.8000  139.8043  153.3568 O   0  0  0  0  0  0  0  0  0  0  0  0
  147.3634  140.9286  153.8653 C   0  0  0  0  0  0  0  0  0  0  0  0
  146.5352  142.1676  153.8040 C   0  0  0  0  0  0  0  0  0  0  0  0
  148.6154  140.6588  154.3483 C   0  0  0  0  0  0  0  0  0  0  0  0
  149.5978  141.5969  155.0035 C   0  0  0  0  0  0  0  0  0  0  0  0
  149.7261  141.3409  156.5130 C   0  0  0  0  0  0  0  0  0  0  0  0
  149.7018  142.6060  157.2783 N   0  3  0  0  0  0  0  0  0  0  0  0
  151.0060  143.0511  157.8152 C   0  0  2  0  0  0  0  0  0  0  0  0
  151.6794  141.8876  158.5641 C   0  0  0  0  0  0  0  0  0  0  0  0
  153.0242  142.3122  159.1776 C   0  0  0  0  0  0  0  0  0  0  0  0
  152.8806  143.5292  160.1139 C   0  0  2  0  0  0  0  0  0  0  0  0
  152.1927  143.1474  161.4404 C   0  0  0  0  0  0  0  0  0  0  0  0
  152.2003  144.7000  159.3590 C   0  0  2  0  0  0  0  0  0  0  0  0
  152.0641  145.9740  160.2092 C   0  0  0  0  0  0  0  0  0  0  0  0
  150.8517  144.2764  158.7413 C   0  0  0  0  0  0  0  0  0  0  0  0
  150.6172  138.8315  155.1133 H   0  0  0  0  0  0  0  0  0  0  0  0
  150.5238  138.1808  153.4805 H   0  0  0  0  0  0  0  0  0  0  0  0
  149.6235  137.4185  154.7882 H   0  0  0  0  0  0  0  0  0  0  0  0
  147.0718  143.0233  154.2133 H   0  0  0  0  0  0  0  0  0  0  0  0
  145.6146  142.0440  154.3743 H   0  0  0  0  0  0  0  0  0  0  0  0
  146.2666  142.4004  152.7735 H   0  0  0  0  0  0  0  0  0  0  0  0
  150.5825  141.4942  154.5462 H   0  0  0  0  0  0  0  0  0  0  0  0
  149.3133  142.6365  154.8374 H   0  0  0  0  0  0  0  0  0  0  0  0
  148.9131  140.6953  156.8480 H   0  0  0  0  0  0  0  0  0  0  0  0
  150.6581  140.8118  156.7116 H   0  0  0  0  0  0  0  0  0  0  0  0
  149.3156  143.3394  156.7011 H   0  0  0  0  0  0  0  0  0  0  0  0
  151.6465  143.3203  156.9735 H   0  0  0  0  0  0  0  0  0  0  0  0
  151.0182  141.5154  159.3474 H   0  0  0  0  0  0  0  0  0  0  0  0
  151.8413  141.0517  157.8824 H   0  0  0  0  0  0  0  0  0  0  0  0
  153.4715  141.4736  159.7124 H   0  0  0  0  0  0  0  0  0  0  0  0
  153.7184  142.5586  158.3730 H   0  0  0  0  0  0  0  0  0  0  0  0
  153.8904  143.8503  160.3740 H   0  0  0  0  0  0  0  0  0  0  0  0
  151.1513  142.8607  161.2982 H   0  0  0  0  0  0  0  0  0  0  0  0
  152.2147  143.9708  162.1537 H   0  0  0  0  0  0  0  0  0  0  0  0
  152.7020  142.3073  161.9135 H   0  0  0  0  0  0  0  0  0  0  0  0
  152.8592  144.9602  158.5290 H   0  0  0  0  0  0  0  0  0  0  0  0
  151.3499  145.8441  161.0224 H   0  0  0  0  0  0  0  0  0  0  0  0
  151.7177  146.8116  159.6031 H   0  0  0  0  0  0  0  0  0  0  0  0
  153.0214  146.2601  160.6457 H   0  0  0  0  0  0  0  0  0  0  0  0
  150.4423  145.1169  158.1810 H   0  0  0  0  0  0  0  0  0  0  0  0
  150.1315  144.0587  159.5308 H   0  0  0  0  0  0  0  0  0  0  0  0
  149.0854  142.4613  158.0654 H   0  0  0  0  0  0  0  0  0  0  0  0
  1  2  1  0  0  0  0
  1 19  1  0  0  0  0
  1 20  1  0  0  0  0
  1 21  1  0  0  0  0
  2  7  1  0  0  0  0
  2  3  2  0  0  0  0
  3  4  1  0  0  0  0
  4  5  1  0  0  0  0
  5  6  1  0  0  0  0
  5  7  2  0  0  0  0
  6 22  1  0  0  0  0
  6 23  1  0  0  0  0
  6 24  1  0  0  0  0
  7  8  1  0  0  0  0
  8  9  1  0  0  0  0
  8 25  1  0  0  0  0
  8 26  1  0  0  0  0
  9 10  1  0  0  0  0
  9 27  1  0  0  0  0
  9 28  1  0  0  0  0
 10 11  1  0  0  0  0
 10 29  1  0  0  0  0
 10 45  1  0  0  0  0
 11 18  1  0  0  0  0
 11 12  1  0  0  0  0
 11 30  1  0  0  0  0
 12 13  1  0  0  0  0
 12 31  1  0  0  0  0
 12 32  1  0  0  0  0
 13 14  1  0  0  0  0
 13 33  1  0  0  0  0
 13 34  1  0  0  0  0
 14 15  1  0  0  0  0
 14 16  1  0  0  0  0
 14 35  1  0  0  0  0
 15 36  1  0  0  0  0
 15 37  1  0  0  0  0
 15 38  1  0  0  0  0
 16 17  1  0  0  0  0
 16 18  1  0  0  0  0
 16 39  1  0  0  0  0
 17 40  1  0  0  0  0
 17 41  1  0  0  0  0
 17 42  1  0  0  0  0
 18 43  1  0  0  0  0
 18 44  1  0  0  0  0
M  CHG  1  10   1
M  END
> <s_m_source_file>
AV-unprocessed.smi

> <i_m_source_file_index>
3285

> <i_lp_mmshare_version>
43012

> <i_f3d_flags>
0

> <s_epik_input>
W0NIM11jMW5vYyhbQ0gzXSljMVtDSDJdW0NIMl1bTkhdW0NAQEhdMltDSDJdW0NIMl1bQ0BASF0oW0NIM10pW0NAQEhdKFtDSDNdKVtDSDJdMg==

> <s_epik_cmdline>
J2VwaWtfcHl0aG9uJywgJy1waCcsICc3LjAnLCAnLXRuJywgJzgnLCAnLW1hJywgJzIwMCcsICctbWV0YWxfYmluZGluZycsICctaW1hZScsICc8aW5maWxlLm1hZT4nLCAnLW9tYWUnLCAnPG91dGZpbGUubWFlPic=

> <r_lp_tautomer_probability>
1

> <r_epik_Ionization_Penalty>
0.000204615

> <r_epik_Ionization_Penalty_Charging>
0.000204615

> <r_epik_Ionization_Penalty_Neutral>
9.28663e-11

> <r_epik_State_Penalty>
-0

> <r_epik_Charging_Adjusted_Penalty>
0.000204615

> <i_epik_Tot_Q>
1

> <i_epik_Tot_abs_Q>
1

> <r_epik_Metal_State_Penalty>
-0

> <b_epik_Metal_Only>
0

> <s_lp_Force_Field>
OPLS_2005

> <r_lp_Energy>
13.9003

> <b_lp_Chiralities_Consistent>
1

> <s_lp_Variant>
AV-unprocessed.smi:3285-7

> <Gold.Version>
5.8.1

> <Gold.Id.Protein>
6NUR|6NUR_protein|mol2

> <Gold.PLP.Fitness>
48.1022

> <Gold.PLP.PLP>
-43.7240

> <Gold.PLP.part.hbond>
-1.0000

> <Gold.PLP.part.metal>
0.0000

> <Gold.PLP.part.buried>
-4.6102

> <Gold.PLP.part.nonpolar>
-39.0969

> <Gold.PLP.part.repulsive>
0.4409

> <Gold.PLP.ligand.clash>
0.0000

> <Gold.PLP.ligand.torsion>
0.8139

> <Gold.PLP.Chemscore.Hbond>
2.0000

> <Gold.PLP.Chemscore.CHOScore>
0.0000

> <Gold.PLP.Chemscore.Metal>
0.0000

> <Gold.Chemscore.Hbonds>
donor molecule, donor type, donor heavy atom, donor atom, acceptor molecule, acceptor atom, score
      L1  H    10    29       P1  8028  2.00

> <Gold.PLP.Chemscore.Internal.Correction>
0.0061

> <Gold.Rescore>
     Score         DG    S(hbond)    S(metal)    S(lipo)     H(rot)  DE(clash)    DE(int)     intcor
     20.20     -21.30       1.00        0.00     136.27       1.35       0.30       0.79       ----

> <Gold.Chemscore.Fitness>
20.2020

> <Gold.Chemscore.DG>
-21.3008

> <Gold.Chemscore.ZeroCoef>
-5.4800

> <Gold.Chemscore.Hbond>
0.9954

> <Gold.Chemscore.Metal>
0.0000

> <Gold.Chemscore.Lipo>
136.2655

> <Gold.Chemscore.Internal_Hbond>
0.0000

> <Gold.Chemscore.DEClash>
0.3045

> <Gold.Chemscore.DEInternal>
0.7943

> <Gold.Chemscore.Rot>
1.3465

> <Gold.Chemscore.Internal.Correction>
   9.000000E+99

> <Gold.Chemscore.Hbonds>
donor molecule, donor type, donor heavy atom, donor atom, acceptor molecule, acceptor atom, score
      L1  H    10    29       P1  8028  0.99

> <Gold.Chemscore.Hbond.Weighted>
-3.3247

> <Gold.Chemscore.Metal.Weighted>
-0.0000

> <Gold.Chemscore.Lipo.Weighted>
-15.9431

> <Gold.Chemscore.Internal_Hbond.Weighted>
0.0000

> <Gold.Chemscore.DEClash.Weighted>
0.3045

> <Gold.Chemscore.DEInternal.Weighted>
0.7943

> <Gold.Chemscore.Rot.Weighted>
3.4470

> <Gold.Chemscore.Internal.Correction.Weighted>
   9.000000E+99

> <Gold.Protein.RotatedTorsions>
[ 6907 6896 6895 6894 ] final  -52.35 input  -60.11 | X-H torsion
[ 7974 7965 7964 7962 ] final   70.82 input  175.53 | X-H torsion
[ 8008 7997 7996 7995 ] final -100.70 input   59.86 | X-H torsion
[ 10167 10162 10161 10158 ] final   54.34 input  -65.29 | X-H torsion
[ 10718 10713 10712 10709 ] final   70.19 input   66.30 | X-H torsion
[ 10763 10752 10751 10750 ] final -146.89 input  -60.55 | X-H torsion
[ 11005 11000 10999 10996 ] final   19.79 input  -57.11 | X-H torsion

> <Gold.Protein.ActiveResidues>
 VAL166  LYS551  ARG553  GLY616  TRP617  ASP618  TYR619  PRO620  LYS621  CYS622 
 ASP623  PHE694  ASN695  SER759  ASP760  ASP761  ALA762  ILE779  LEU786  VAL792 
 PHE793  MET794  SER795  GLU796  ALA797  LYS798  CYS799  TRP800  GLU811  SER814 

> <Gold.Protein.RotatedAtoms>
  150.8526  134.7855  159.7020 H   0  0  0  0  0  0  0  0  0  0  0  0  # atno 6907 bound_to 6896
  152.4586  134.5232  159.9798 H   0  0  0  0  0  0  0  0  0  0  0  0  # atno 6908 bound_to 6896
  151.5350  133.3404  159.2960 H   0  0  0  0  0  0  0  0  0  0  0  0  # atno 6909 bound_to 6896
  145.7734  139.2854  143.1308 H   0  0  0  0  0  0  0  0  0  0  0  0  # atno 7974 bound_to 7965
  154.8322  140.0439  157.1485 H   0  0  0  0  0  0  0  0  0  0  0  0  # atno 8008 bound_to 7997
  154.9140  140.3017  155.5231 H   0  0  0  0  0  0  0  0  0  0  0  0  # atno 8009 bound_to 7997
  156.2987  140.2353  156.4182 H   0  0  0  0  0  0  0  0  0  0  0  0  # atno 8010 bound_to 7997
  140.2312  144.3685  150.6414 H   0  0  0  0  0  0  0  0  0  0  0  0  # atno 10167 bound_to 10162
  157.6386  130.9464  150.0616 H   0  0  0  0  0  0  0  0  0  0  0  0  # atno 10718 bound_to 10713
  154.8313  135.3374  154.6733 H   0  0  0  0  0  0  0  0  0  0  0  0  # atno 10763 bound_to 10752
  153.7352  135.6949  153.4984 H   0  0  0  0  0  0  0  0  0  0  0  0  # atno 10764 bound_to 10752
  153.2283  135.4425  155.0519 H   0  0  0  0  0  0  0  0  0  0  0  0  # atno 10765 bound_to 10752
  140.4098  134.1630  155.7667 H   0  0  0  0  0  0  0  0  0  0  0  0  # atno 11005 bound_to 11000
  146.0147  140.8403  142.9953 LP  0  0  0  0  0  0  0  0  0  0  0  0  # atno 17320 bound_to 7965
  144.6808  140.2541  143.7328 LP  0  0  0  0  0  0  0  0  0  0  0  0  # atno 17321 bound_to 7965
  140.6184  143.2174  151.6745 LP  0  0  0  0  0  0  0  0  0  0  0  0  # atno 17342 bound_to 10162
  139.5109  144.3526  152.0638 LP  0  0  0  0  0  0  0  0  0  0  0  0  # atno 17343 bound_to 10162
  156.1647  130.3645  149.9249 LP  0  0  0  0  0  0  0  0  0  0  0  0  # atno 17370 bound_to 10713
  156.7239  130.9017  151.3620 LP  0  0  0  0  0  0  0  0  0  0  0  0  # atno 17371 bound_to 10713
  141.1825  133.8383  157.1205 LP  0  0  0  0  0  0  0  0  0  0  0  0  # atno 17394 bound_to 11000
  140.0276  134.9916  157.0716 LP  0  0  0  0  0  0  0  0  0  0  0  0  # atno 17395 bound_to 11000

$$$$
