AV-unprocessed.smi:1419|AV-procd|sdf|5779|dock8
  -GOLD-   22720 5423D 1   1.00000     0.00000
 Structure written by MMmdl.
 42 43  0  0  0  0  0  0  0  0  2 V2000
  149.4318  140.7356  157.1944 C   0  0  0  0  0  0  0  0  0  0  0  0
  150.9187  140.3760  157.3452 C   0  0  1  0  0  0  0  0  0  0  0  0
  151.6454  140.2260  155.9900 C   0  0  0  0  0  0  0  0  0  0  0  0
  151.2627  139.0106  155.2666 N   0  0  0  0  0  0  0  0  0  0  0  0
  151.5021  137.7108  155.6326 C   0  0  0  0  0  0  0  0  0  0  0  0
  150.9589  136.9225  154.6507 C   0  0  0  0  0  0  0  0  0  0  0  0
  150.4089  137.7738  153.7299 N   0  3  0  0  0  0  0  0  0  0  0  0
  150.5923  139.0432  154.1078 C   0  0  0  0  0  0  0  0  0  0  0  0
  151.5748  141.3930  158.1612 N   0  0  0  0  0  0  0  0  0  0  0  0
  151.6751  142.6977  157.8538 C   0  0  0  0  0  0  0  0  0  0  0  0
  151.2025  143.1630  156.8156 O   0  0  0  0  0  0  0  0  0  0  0  0
  152.3255  143.4494  158.7762 N   0  0  0  0  0  0  0  0  0  0  0  0
  153.1006  142.9660  159.9264 C   0  0  0  0  0  0  0  0  0  0  0  0
  152.3248  143.3150  161.2112 C   0  0  1  0  0  0  0  0  0  0  0  0
  153.0923  142.9117  162.4749 C   0  0  0  0  0  0  0  0  0  0  0  0
  152.0995  144.7262  161.2639 O   0  0  0  0  0  0  0  0  0  0  0  0
  151.4429  145.2949  160.1260 C   0  0  2  0  0  0  0  0  0  0  0  0
  149.9463  144.9341  160.1033 C   0  0  0  0  0  0  0  0  0  0  0  0
  152.2005  144.9074  158.8382 C   0  0  0  0  0  0  0  0  0  0  0  0
  148.8812  139.9538  156.6709 H   0  0  0  0  0  0  0  0  0  0  0  0
  149.3034  141.6643  156.6373 H   0  0  0  0  0  0  0  0  0  0  0  0
  148.9592  140.8644  158.1689 H   0  0  0  0  0  0  0  0  0  0  0  0
  150.9716  139.4249  157.8787 H   0  0  0  0  0  0  0  0  0  0  0  0
  151.4321  141.0794  155.3448 H   0  0  0  0  0  0  0  0  0  0  0  0
  152.7275  140.1983  156.1274 H   0  0  0  0  0  0  0  0  0  0  0  0
  152.0295  137.4505  156.5388 H   0  0  0  0  0  0  0  0  0  0  0  0
  150.9236  135.8482  154.5416 H   0  0  0  0  0  0  0  0  0  0  0  0
  150.2656  139.9219  153.5801 H   0  0  0  0  0  0  0  0  0  0  0  0
  151.9873  141.0838  159.0294 H   0  0  0  0  0  0  0  0  0  0  0  0
  153.3134  141.8974  159.8983 H   0  0  0  0  0  0  0  0  0  0  0  0
  154.0754  143.4561  159.9315 H   0  0  0  0  0  0  0  0  0  0  0  0
  151.3678  142.7919  161.2133 H   0  0  0  0  0  0  0  0  0  0  0  0
  153.2840  141.8386  162.4929 H   0  0  0  0  0  0  0  0  0  0  0  0
  152.5253  143.1628  163.3716 H   0  0  0  0  0  0  0  0  0  0  0  0
  154.0527  143.4246  162.5337 H   0  0  0  0  0  0  0  0  0  0  0  0
  151.5100  146.3771  160.2414 H   0  0  0  0  0  0  0  0  0  0  0  0
  149.4392  145.4445  159.2843 H   0  0  0  0  0  0  0  0  0  0  0  0
  149.4607  145.2369  161.0313 H   0  0  0  0  0  0  0  0  0  0  0  0
  149.7763  143.8657  159.9736 H   0  0  0  0  0  0  0  0  0  0  0  0
  153.1979  145.3494  158.8473 H   0  0  0  0  0  0  0  0  0  0  0  0
  151.6994  145.3306  157.9666 H   0  0  0  0  0  0  0  0  0  0  0  0
  149.9311  137.4868  152.8846 H   0  0  0  0  0  0  0  0  0  0  0  0
  1  2  1  0  0  0  0
  1 20  1  0  0  0  0
  1 21  1  0  0  0  0
  1 22  1  0  0  0  0
  2  3  1  0  0  0  0
  2  9  1  0  0  0  0
  2 23  1  0  0  0  0
  3  4  1  0  0  0  0
  3 24  1  0  0  0  0
  3 25  1  0  0  0  0
  4  8  1  0  0  0  0
  4  5  1  0  0  0  0
  5  6  2  0  0  0  0
  5 26  1  0  0  0  0
  6  7  1  0  0  0  0
  6 27  1  0  0  0  0
  7  8  2  0  0  0  0
  7 42  1  0  0  0  0
  8 28  1  0  0  0  0
  9 10  1  0  0  0  0
  9 29  1  0  0  0  0
 10 11  2  0  0  0  0
 10 12  1  0  0  0  0
 12 19  1  0  0  0  0
 12 13  1  0  0  0  0
 13 14  1  0  0  0  0
 13 30  1  0  0  0  0
 13 31  1  0  0  0  0
 14 15  1  0  0  0  0
 14 16  1  0  0  0  0
 14 32  1  0  0  0  0
 15 33  1  0  0  0  0
 15 34  1  0  0  0  0
 15 35  1  0  0  0  0
 16 17  1  0  0  0  0
 17 18  1  0  0  0  0
 17 19  1  0  0  0  0
 17 36  1  0  0  0  0
 18 37  1  0  0  0  0
 18 38  1  0  0  0  0
 18 39  1  0  0  0  0
 19 40  1  0  0  0  0
 19 41  1  0  0  0  0
M  CHG  1   7   1
M  END
> <s_m_source_file>
AV-unprocessed.smi

> <i_m_source_file_index>
1419

> <i_lp_mmshare_version>
43012

> <i_f3d_flags>
0

> <s_epik_input>
W2NIXTFuW2NIXVtjSF1uMVtDSDJdW0NAQEhdKFtDSDNdKVtOSF1DKD1PKU4yW0NIMl1bQ0BASF0oW0NIM10pT1tDQEBIXShbQ0gzXSlbQ0gyXTI=

> <s_epik_cmdline>
J2VwaWtfcHl0aG9uJywgJy1waCcsICc3LjAnLCAnLXRuJywgJzgnLCAnLW1hJywgJzIwMCcsICctbWV0YWxfYmluZGluZycsICctaW1hZScsICc8aW5maWxlLm1hZT4nLCAnLW9tYWUnLCAnPG91dGZpbGUubWFlPic=

> <r_lp_tautomer_probability>
1

> <r_epik_Ionization_Penalty>
0.253607

> <r_epik_Ionization_Penalty_Charging>
0

> <r_epik_Ionization_Penalty_Neutral>
0.253607

> <r_epik_State_Penalty>
0.245018

> <r_epik_Charging_Adjusted_Penalty>
0.245018

> <i_epik_Tot_Q>
1

> <i_epik_Tot_abs_Q>
1

> <r_epik_Metal_State_Penalty>
0.535379

> <b_epik_Metal_Only>
0

> <s_lp_Force_Field>
OPLS_2005

> <r_lp_Energy>
32.7532

> <b_lp_Chiralities_Consistent>
1

> <s_lp_Variant>
AV-unprocessed.smi:1419-6

> <Gold.Version>
5.8.1

> <Gold.Id.Protein>
6NUR|6NUR_protein|mol2

> <Gold.PLP.Fitness>
53.8730

> <Gold.PLP.PLP>
-45.4857

> <Gold.PLP.part.hbond>
-2.0000

> <Gold.PLP.part.metal>
0.0000

> <Gold.PLP.part.buried>
-5.3564

> <Gold.PLP.part.nonpolar>
-38.8135

> <Gold.PLP.part.repulsive>
1.4540

> <Gold.PLP.ligand.clash>
0.0000

> <Gold.PLP.ligand.torsion>
0.2330

> <Gold.PLP.Chemscore.Hbond>
2.0000

> <Gold.PLP.Chemscore.CHOScore>
0.9395

> <Gold.PLP.Chemscore.Metal>
0.0000

> <Gold.Chemscore.Hbonds>
donor molecule, donor type, donor heavy atom, donor atom, acceptor molecule, acceptor atom, score
      L1  H     7    42       P1  7948  1.90
      L1  C     8    28       P1  7957  0.92

> <Gold.PLP.Chemscore.Internal.Correction>
0.0347

> <Gold.Rescore>
     Score         DG    S(hbond)    S(metal)    S(lipo)     H(rot)  DE(clash)    DE(int)     intcor
     13.68     -15.01       0.94        0.00      90.35       1.63       0.01       1.33       ----

> <Gold.Chemscore.Fitness>
13.6754

> <Gold.Chemscore.DG>
-15.0140

> <Gold.Chemscore.ZeroCoef>
-5.4800

> <Gold.Chemscore.Hbond>
0.9369

> <Gold.Chemscore.Metal>
0.0000

> <Gold.Chemscore.Lipo>
90.3454

> <Gold.Chemscore.Internal_Hbond>
0.0000

> <Gold.Chemscore.DEClash>
0.0133

> <Gold.Chemscore.DEInternal>
1.3252

> <Gold.Chemscore.Rot>
1.6273

> <Gold.Chemscore.Internal.Correction>
   9.000000E+99

> <Gold.Chemscore.Hbonds>
donor molecule, donor type, donor heavy atom, donor atom, acceptor molecule, acceptor atom, score
      L1  H     7    42       P1  7948  0.21

> <Gold.Chemscore.Hbond.Weighted>
-3.1294

> <Gold.Chemscore.Metal.Weighted>
-0.0000

> <Gold.Chemscore.Lipo.Weighted>
-10.5704

> <Gold.Chemscore.Internal_Hbond.Weighted>
0.0000

> <Gold.Chemscore.DEClash.Weighted>
0.0133

> <Gold.Chemscore.DEInternal.Weighted>
1.3252

> <Gold.Chemscore.Rot.Weighted>
4.1658

> <Gold.Chemscore.Internal.Correction.Weighted>
   9.000000E+99

> <Gold.Protein.RotatedTorsions>
[ 6907 6896 6895 6894 ] final   35.42 input  -60.11 | X-H torsion
[ 7974 7965 7964 7962 ] final    6.23 input  175.53 | X-H torsion
[ 8008 7997 7996 7995 ] final -125.78 input   59.86 | X-H torsion
[ 10167 10162 10161 10158 ] final -112.01 input  -65.29 | X-H torsion
[ 10718 10713 10712 10709 ] final   91.30 input   66.30 | X-H torsion
[ 10763 10752 10751 10750 ] final   61.93 input  -60.55 | X-H torsion
[ 11005 11000 10999 10996 ] final  101.71 input  -57.11 | X-H torsion

> <Gold.Protein.ActiveResidues>
 VAL166  LYS551  ARG553  GLY616  TRP617  ASP618  TYR619  PRO620  LYS621  CYS622 
 ASP623  PHE694  ASN695  SER759  ASP760  ASP761  ALA762  ILE779  LEU786  VAL792 
 PHE793  MET794  SER795  GLU796  ALA797  LYS798  CYS799  TRP800  GLU811  SER814 

> <Gold.Protein.RotatedAtoms>
  152.1160  134.9240  160.0564 H   0  0  0  0  0  0  0  0  0  0  0  0  # atno 6907 bound_to 6896
  152.0400  133.3968  159.4341 H   0  0  0  0  0  0  0  0  0  0  0  0  # atno 6908 bound_to 6896
  150.6846  134.3346  159.4885 H   0  0  0  0  0  0  0  0  0  0  0  0  # atno 6909 bound_to 6896
  146.2436  140.0264  142.8393 H   0  0  0  0  0  0  0  0  0  0  0  0  # atno 7974 bound_to 7965
  155.2189  140.0421  157.2945 H   0  0  0  0  0  0  0  0  0  0  0  0  # atno 8008 bound_to 7997
  154.5963  140.2440  155.7824 H   0  0  0  0  0  0  0  0  0  0  0  0  # atno 8009 bound_to 7997
  156.2292  140.2944  156.0153 H   0  0  0  0  0  0  0  0  0  0  0  0  # atno 8010 bound_to 7997
  140.1274  143.4390  152.1650 H   0  0  0  0  0  0  0  0  0  0  0  0  # atno 10167 bound_to 10162
  157.6960  131.0402  150.3709 H   0  0  0  0  0  0  0  0  0  0  0  0  # atno 10718 bound_to 10713
  152.9966  135.5483  154.6112 H   0  0  0  0  0  0  0  0  0  0  0  0  # atno 10763 bound_to 10752
  154.5433  135.2821  155.1078 H   0  0  0  0  0  0  0  0  0  0  0  0  # atno 10764 bound_to 10752
  154.2347  135.6427  153.5239 H   0  0  0  0  0  0  0  0  0  0  0  0  # atno 10765 bound_to 10752
  139.8774  134.9194  156.4947 H   0  0  0  0  0  0  0  0  0  0  0  0  # atno 11005 bound_to 11000
  145.1194  140.9453  143.4609 LP  0  0  0  0  0  0  0  0  0  0  0  0  # atno 17320 bound_to 7965
  145.0496  139.3192  143.5935 LP  0  0  0  0  0  0  0  0  0  0  0  0  # atno 17321 bound_to 7965
  139.5537  144.7357  151.4358 LP  0  0  0  0  0  0  0  0  0  0  0  0  # atno 17342 bound_to 10162
  140.6837  143.8023  150.7156 LP  0  0  0  0  0  0  0  0  0  0  0  0  # atno 17343 bound_to 10162
  156.4134  130.3938  149.6875 LP  0  0  0  0  0  0  0  0  0  0  0  0  # atno 17370 bound_to 10713
  156.4151  130.7741  151.2756 LP  0  0  0  0  0  0  0  0  0  0  0  0  # atno 17371 bound_to 10713
  140.8633  133.8043  155.9287 LP  0  0  0  0  0  0  0  0  0  0  0  0  # atno 17394 bound_to 11000
  140.9027  134.2358  157.5032 LP  0  0  0  0  0  0  0  0  0  0  0  0  # atno 17395 bound_to 11000

$$$$
