AV-unprocessed.smi:733|AV-procd|sdf|3529|dock9
  -GOLD-   22720 0523D 1   1.00000     0.00000
 Structure written by MMmdl.
 43 44  0  0  0  0  0  0  0  0  1 V2000
  148.0617  124.9823  154.2132 C   0  0  0  0  0  0  0  0  0  0  0  0
  148.0671  125.7171  152.9079 C   0  0  0  0  0  0  0  0  0  0  0  0
  147.4887  126.9872  152.8277 N   0  0  0  0  0  0  0  0  0  0  0  0
  147.5762  127.5068  151.5991 C   0  0  0  0  0  0  0  0  0  0  0  0
  147.0757  128.7830  151.2306 N   0  0  0  0  0  0  0  0  0  0  0  0
  146.6364  129.7674  152.0339 C   0  0  0  0  0  0  0  0  0  0  0  0
  146.5839  129.7119  153.2629 O   0  0  0  0  0  0  0  0  0  0  0  0
  146.2593  130.8388  151.3213 N   0  0  0  0  0  0  0  0  0  0  0  0
  145.7512  132.0968  151.8674 C   0  0  0  0  0  0  0  0  0  0  0  0
  144.9222  132.9144  150.8372 C   0  0  0  0  0  0  0  0  0  0  0  0
  144.7602  132.1591  149.4839 C   0  0  0  0  0  0  0  0  0  0  0  0
  143.7143  132.7072  148.4895 C   0  0  0  0  0  0  0  0  0  0  0  0
  142.4402  132.1343  148.6908 O   0  0  0  0  0  0  0  0  0  0  0  0
  143.5478  133.2775  151.4511 C   0  0  0  0  0  0  0  0  0  0  0  0
  143.6924  134.6822  152.0277 C   0  0  0  0  0  0  0  0  0  0  0  0
  144.5898  135.3775  151.0150 C   0  0  0  0  0  0  0  0  0  0  0  0
  145.5888  134.2986  150.5893 C   0  0  0  0  0  0  0  0  0  0  0  0
  148.3836  126.4576  150.4469 S   0  0  0  0  0  0  0  0  0  0  0  0
  148.5959  125.2772  151.7161 C   0  0  0  0  0  0  0  0  0  0  0  0
  149.2805  123.9783  151.4483 C   0  0  0  0  0  0  0  0  0  0  0  0
  147.4599  124.0757  154.1498 H   0  0  0  0  0  0  0  0  0  0  0  0
  147.6533  125.5928  155.0193 H   0  0  0  0  0  0  0  0  0  0  0  0
  149.0711  124.6900  154.5031 H   0  0  0  0  0  0  0  0  0  0  0  0
  147.0578  128.9712  150.2393 H   0  0  0  0  0  0  0  0  0  0  0  0
  146.3393  130.7867  150.3165 H   0  0  0  0  0  0  0  0  0  0  0  0
  145.1384  131.8509  152.7347 H   0  0  0  0  0  0  0  0  0  0  0  0
  146.5644  132.7086  152.2620 H   0  0  0  0  0  0  0  0  0  0  0  0
  145.7271  132.0985  148.9819 H   0  0  0  0  0  0  0  0  0  0  0  0
  144.4918  131.1236  149.6967 H   0  0  0  0  0  0  0  0  0  0  0  0
  143.6158  133.7839  148.6304 H   0  0  0  0  0  0  0  0  0  0  0  0
  144.0227  132.5619  147.4550 H   0  0  0  0  0  0  0  0  0  0  0  0
  141.8735  132.7859  149.0748 H   0  0  0  0  0  0  0  0  0  0  0  0
  142.7820  133.3112  150.6750 H   0  0  0  0  0  0  0  0  0  0  0  0
  143.2084  132.5594  152.1985 H   0  0  0  0  0  0  0  0  0  0  0  0
  142.7339  135.1859  152.1564 H   0  0  0  0  0  0  0  0  0  0  0  0
  144.1860  134.6404  152.9995 H   0  0  0  0  0  0  0  0  0  0  0  0
  143.9977  135.6914  150.1542 H   0  0  0  0  0  0  0  0  0  0  0  0
  145.0777  136.2628  151.4241 H   0  0  0  0  0  0  0  0  0  0  0  0
  146.4915  134.4126  151.1889 H   0  0  0  0  0  0  0  0  0  0  0  0
  145.8937  134.4433  149.5522 H   0  0  0  0  0  0  0  0  0  0  0  0
  150.2093  123.9071  152.0149 H   0  0  0  0  0  0  0  0  0  0  0  0
  149.5225  123.8690  150.3909 H   0  0  0  0  0  0  0  0  0  0  0  0
  148.6450  123.1402  151.7347 H   0  0  0  0  0  0  0  0  0  0  0  0
  1  2  1  0  0  0  0
  1 21  1  0  0  0  0
  1 22  1  0  0  0  0
  1 23  1  0  0  0  0
  2 19  2  0  0  0  0
  2  3  1  0  0  0  0
  3  4  2  0  0  0  0
  4  5  1  0  0  0  0
  4 18  1  0  0  0  0
  5  6  1  0  0  0  0
  5 24  1  0  0  0  0
  6  7  2  0  0  0  0
  6  8  1  0  0  0  0
  8  9  1  0  0  0  0
  8 25  1  0  0  0  0
  9 10  1  0  0  0  0
  9 26  1  0  0  0  0
  9 27  1  0  0  0  0
 10 17  1  0  0  0  0
 10 11  1  0  0  0  0
 10 14  1  0  0  0  0
 11 12  1  0  0  0  0
 11 28  1  0  0  0  0
 11 29  1  0  0  0  0
 12 13  1  0  0  0  0
 12 30  1  0  0  0  0
 12 31  1  0  0  0  0
 13 32  1  0  0  0  0
 14 15  1  0  0  0  0
 14 33  1  0  0  0  0
 14 34  1  0  0  0  0
 15 16  1  0  0  0  0
 15 35  1  0  0  0  0
 15 36  1  0  0  0  0
 16 17  1  0  0  0  0
 16 37  1  0  0  0  0
 16 38  1  0  0  0  0
 17 39  1  0  0  0  0
 17 40  1  0  0  0  0
 18 19  1  0  0  0  0
 19 20  1  0  0  0  0
 20 41  1  0  0  0  0
 20 42  1  0  0  0  0
 20 43  1  0  0  0  0
M  END
> <s_m_source_file>
AV-unprocessed.smi

> <i_m_source_file_index>
733

> <i_lp_mmshare_version>
43012

> <i_f3d_flags>
0

> <s_epik_input>
W0NIM11jMW5jKHNjMVtDSDNdKVtOSF1DKD1PKVtOSF1bQ0gyXUMyKFtDSDJdW0NIMl1bT0hdKVtDSDJdW0NIMl1bQ0gyXVtDSDJdMg==

> <s_epik_cmdline>
J2VwaWtfcHl0aG9uJywgJy1waCcsICc3LjAnLCAnLXRuJywgJzgnLCAnLW1hJywgJzIwMCcsICctbWV0YWxfYmluZGluZycsICctaW1hZScsICc8aW5maWxlLm1hZT4nLCAnLW9tYWUnLCAnPG91dGZpbGUubWFlPic=

> <r_lp_tautomer_probability>
0.999

> <r_epik_Ionization_Penalty>
0.000695797

> <r_epik_Ionization_Penalty_Charging>
0

> <r_epik_Ionization_Penalty_Neutral>
0.000695797

> <r_epik_State_Penalty>
0.000177984

> <r_epik_Charging_Adjusted_Penalty>
0.000177984

> <i_epik_Tot_Q>
0

> <i_epik_Tot_abs_Q>
0

> <r_epik_Metal_State_Penalty>
-0

> <b_epik_Metal_Only>
0

> <s_lp_Force_Field>
OPLS_2005

> <r_lp_Energy>
29.226

> <b_lp_Chiralities_Consistent>
1

> <s_lp_Variant>
AV-unprocessed.smi:733-1

> <Gold.Version>
5.8.1

> <Gold.Id.Protein>
6NUR|6NUR_protein|mol2

> <Gold.PLP.Fitness>
44.8137

> <Gold.PLP.PLP>
-43.4661

> <Gold.PLP.part.hbond>
-5.0918

> <Gold.PLP.part.metal>
0.0000

> <Gold.PLP.part.buried>
-5.8100

> <Gold.PLP.part.nonpolar>
-32.4268

> <Gold.PLP.part.repulsive>
0.3345

> <Gold.PLP.ligand.clash>
1.2980

> <Gold.PLP.ligand.torsion>
1.6111

> <Gold.PLP.Chemscore.Hbond>
1.9350

> <Gold.PLP.Chemscore.CHOScore>
0.0000

> <Gold.PLP.Chemscore.Metal>
0.0000

> <Gold.Chemscore.Hbonds>
donor molecule, donor type, donor heavy atom, donor atom, acceptor molecule, acceptor atom, score
      L1  H    13    32       P1 10186  1.00
      P1  H 10785 10796       L1    13  0.53

> <Gold.PLP.Chemscore.Internal.Correction>
0.0628

> <Gold.Rescore>
     Score         DG    S(hbond)    S(metal)    S(lipo)     H(rot)  DE(clash)    DE(int)     intcor
     10.49     -13.54       1.04        0.00      89.44       2.30       0.27       2.78       ----

> <Gold.Chemscore.Fitness>
10.4900

> <Gold.Chemscore.DG>
-13.5412

> <Gold.Chemscore.ZeroCoef>
-5.4800

> <Gold.Chemscore.Hbond>
1.0427

> <Gold.Chemscore.Metal>
0.0000

> <Gold.Chemscore.Lipo>
89.4366

> <Gold.Chemscore.Internal_Hbond>
0.0000

> <Gold.Chemscore.DEClash>
0.2707

> <Gold.Chemscore.DEInternal>
2.7806

> <Gold.Chemscore.Rot>
2.2990

> <Gold.Chemscore.Internal.Correction>
   9.000000E+99

> <Gold.Chemscore.Hbonds>
donor molecule, donor type, donor heavy atom, donor atom, acceptor molecule, acceptor atom, score
      L1  H    13    32       P1 10186  1.00
      P1  H 10785 10796       L1    13  0.05

> <Gold.Chemscore.Hbond.Weighted>
-3.4826

> <Gold.Chemscore.Metal.Weighted>
-0.0000

> <Gold.Chemscore.Lipo.Weighted>
-10.4641

> <Gold.Chemscore.Internal_Hbond.Weighted>
0.0000

> <Gold.Chemscore.DEClash.Weighted>
0.2707

> <Gold.Chemscore.DEInternal.Weighted>
2.7806

> <Gold.Chemscore.Rot.Weighted>
5.8854

> <Gold.Chemscore.Internal.Correction.Weighted>
   9.000000E+99

> <Gold.Protein.RotatedTorsions>
[ 6907 6896 6895 6894 ] final -164.57 input  -60.11 | X-H torsion
[ 7974 7965 7964 7962 ] final  -86.31 input  175.53 | X-H torsion
[ 8008 7997 7996 7995 ] final    5.48 input   59.86 | X-H torsion
[ 10167 10162 10161 10158 ] final  -33.67 input  -65.29 | X-H torsion
[ 10718 10713 10712 10709 ] final -139.93 input   66.30 | X-H torsion
[ 10763 10752 10751 10750 ] final   40.63 input  -60.55 | X-H torsion
[ 11005 11000 10999 10996 ] final  155.84 input  -57.11 | X-H torsion

> <Gold.Protein.ActiveResidues>
 VAL166  LYS551  ARG553  GLY616  TRP617  ASP618  TYR619  PRO620  LYS621  CYS622 
 ASP623  PHE694  ASN695  SER759  ASP760  ASP761  ALA762  ILE779  LEU786  VAL792 
 PHE793  MET794  SER795  GLU796  ALA797  LYS798  CYS799  TRP800  GLU811  SER814 

> <Gold.Protein.RotatedAtoms>
  151.4139  133.3719  159.2747 H   0  0  0  0  0  0  0  0  0  0  0  0  # atno 6907 bound_to 6896
  150.9342  134.8757  159.7582 H   0  0  0  0  0  0  0  0  0  0  0  0  # atno 6908 bound_to 6896
  152.5042  134.4086  159.9493 H   0  0  0  0  0  0  0  0  0  0  0  0  # atno 6909 bound_to 6896
  145.4816  140.9556  143.1861 H   0  0  0  0  0  0  0  0  0  0  0  0  # atno 7974 bound_to 7965
  154.7289  140.2726  155.6474 H   0  0  0  0  0  0  0  0  0  0  0  0  # atno 8008 bound_to 7997
  156.2844  140.2719  156.1908 H   0  0  0  0  0  0  0  0  0  0  0  0  # atno 8009 bound_to 7997
  155.0408  140.0371  157.2498 H   0  0  0  0  0  0  0  0  0  0  0  0  # atno 8010 bound_to 7997
  140.7200  143.3603  151.1976 H   0  0  0  0  0  0  0  0  0  0  0  0  # atno 10167 bound_to 10162
  156.3165  130.7510  151.1598 H   0  0  0  0  0  0  0  0  0  0  0  0  # atno 10718 bound_to 10713
  152.9931  135.6186  154.2657 H   0  0  0  0  0  0  0  0  0  0  0  0  # atno 10763 bound_to 10752
  154.2392  135.2789  155.2862 H   0  0  0  0  0  0  0  0  0  0  0  0  # atno 10764 bound_to 10752
  154.5384  135.5768  153.6876 H   0  0  0  0  0  0  0  0  0  0  0  0  # atno 10765 bound_to 10752
  140.1619  134.8604  157.2584 H   0  0  0  0  0  0  0  0  0  0  0  0  # atno 11005 bound_to 11000
  144.7886  139.6376  143.7123 LP  0  0  0  0  0  0  0  0  0  0  0  0  # atno 17320 bound_to 7965
  146.2338  139.5864  142.9538 LP  0  0  0  0  0  0  0  0  0  0  0  0  # atno 17321 bound_to 7965
  139.7153  143.9310  152.2964 LP  0  0  0  0  0  0  0  0  0  0  0  0  # atno 17342 bound_to 10162
  139.9048  144.6890  150.8625 LP  0  0  0  0  0  0  0  0  0  0  0  0  # atno 17343 bound_to 10162
  157.7402  131.0519  150.5178 LP  0  0  0  0  0  0  0  0  0  0  0  0  # atno 17370 bound_to 10713
  156.5325  130.4188  149.6194 LP  0  0  0  0  0  0  0  0  0  0  0  0  # atno 17371 bound_to 10713
  140.2480  134.3717  155.7453 LP  0  0  0  0  0  0  0  0  0  0  0  0  # atno 17394 bound_to 11000
  141.2210  133.7301  156.8891 LP  0  0  0  0  0  0  0  0  0  0  0  0  # atno 17395 bound_to 11000

$$$$
