AV-unprocessed.smi:109|AV-procd|sdf|1037|dock2
  -GOLD-   2262018 53D 1   1.00000     0.00000
 Structure written by MMmdl.
 58 61  0  0  0  0  0  0  0  0  1 V2000
  148.2906  129.8836  152.8443 O   0  0  0  0  0  0  0  0  0  0  0  0
  147.8485  130.9987  153.5878 C   0  0  0  0  0  0  0  0  0  0  0  0
  148.7961  132.1886  153.3590 C   0  0  0  0  0  0  0  0  0  0  0  0
  148.0785  133.5543  153.2247 C   0  0  2  0  0  0  0  0  0  0  0  0
  148.0764  134.2335  154.5225 N   0  0  0  0  0  0  0  0  0  0  0  0
  149.1942  134.7787  155.0527 C   0  0  0  0  0  0  0  0  0  0  0  0
  150.1290  134.0180  155.6802 N   0  0  0  0  0  0  0  0  0  0  0  0
  151.2226  134.5884  156.1950 C   0  0  0  0  0  0  0  0  0  0  0  0
  151.5720  135.8768  156.1927 N   0  0  0  0  0  0  0  0  0  0  0  0
  150.6342  136.6436  155.5649 C   0  0  0  0  0  0  0  0  0  0  0  0
  149.4292  136.1755  154.9731 C   0  0  0  0  0  0  0  0  0  0  0  0
  148.7306  137.2430  154.4241 N   0  0  0  0  0  0  0  0  0  0  0  0
  149.4856  138.2791  154.6772 C   0  0  0  0  0  0  0  0  0  0  0  0
  150.6454  138.0069  155.3719 N   0  0  0  0  0  0  0  0  0  0  0  0
  151.7308  138.9373  155.8155 C   0  0  1  0  0  0  0  0  0  0  0  0
  151.4789  140.2119  155.2900 O   0  0  0  0  0  0  0  0  0  0  0  0
  151.3206  141.1860  156.3232 C   0  0  1  0  0  0  0  0  0  0  0  0
  149.8152  141.4119  156.5853 C   0  0  0  0  0  0  0  0  0  0  0  0
  149.2241  142.0416  155.4690 O   0  0  0  0  0  0  0  0  0  0  0  0
  152.1047  140.5602  157.4845 C   0  0  1  0  0  0  0  0  0  0  0  0
  151.8222  141.0910  158.7663 O   0  0  0  0  0  0  0  0  0  0  0  0
  151.8201  139.0731  157.3498 C   0  0  1  0  0  0  0  0  0  0  0  0
  150.6397  138.6813  158.0343 O   0  0  0  0  0  0  0  0  0  0  0  0
  146.6184  133.4406  152.6984 C   0  0  0  0  0  0  0  0  0  0  0  0
  146.5236  132.7514  151.3135 C   0  0  0  0  0  0  0  0  0  0  0  0
  145.0819  132.6884  150.7822 C   0  0  0  0  0  0  0  0  0  0  0  0
  144.4448  134.0815  150.7190 C   0  0  0  0  0  0  0  0  0  0  0  0
  144.4999  134.7605  152.0920 C   0  0  0  0  0  0  0  0  0  0  0  0
  145.9422  134.8341  152.6162 C   0  0  0  0  0  0  0  0  0  0  0  0
  152.6396  138.5338  155.3667 H   0  0  0  0  0  0  0  0  0  0  0  0
  151.7870  142.1276  156.0301 H   0  0  0  0  0  0  0  0  0  0  0  0
  153.1676  140.7192  157.2946 H   0  0  0  0  0  0  0  0  0  0  0  0
  152.6476  138.4690  157.7233 H   0  0  0  0  0  0  0  0  0  0  0  0
  148.3693  130.1389  151.9377 H   0  0  0  0  0  0  0  0  0  0  0  0
  146.8303  131.2374  153.2804 H   0  0  0  0  0  0  0  0  0  0  0  0
  147.8182  130.7297  154.6439 H   0  0  0  0  0  0  0  0  0  0  0  0
  149.4796  132.2104  154.2058 H   0  0  0  0  0  0  0  0  0  0  0  0
  149.4083  132.0074  152.4743 H   0  0  0  0  0  0  0  0  0  0  0  0
  148.6241  134.1423  152.4870 H   0  0  0  0  0  0  0  0  0  0  0  0
  147.1673  134.3474  154.9475 H   0  0  0  0  0  0  0  0  0  0  0  0
  151.9166  133.9161  156.6777 H   0  0  0  0  0  0  0  0  0  0  0  0
  149.2107  139.2737  154.3578 H   0  0  0  0  0  0  0  0  0  0  0  0
  149.2898  140.4850  156.8113 H   0  0  0  0  0  0  0  0  0  0  0  0
  149.6673  142.0770  157.4357 H   0  0  0  0  0  0  0  0  0  0  0  0
  149.4632  142.9559  155.4785 H   0  0  0  0  0  0  0  0  0  0  0  0
  152.3711  141.8478  158.9055 H   0  0  0  0  0  0  0  0  0  0  0  0
  150.4806  139.3019  158.7291 H   0  0  0  0  0  0  0  0  0  0  0  0
  146.0511  132.8354  153.4078 H   0  0  0  0  0  0  0  0  0  0  0  0
  147.1536  133.2795  150.5963 H   0  0  0  0  0  0  0  0  0  0  0  0
  146.8963  131.7297  151.3612 H   0  0  0  0  0  0  0  0  0  0  0  0
  145.0715  132.2316  149.7923 H   0  0  0  0  0  0  0  0  0  0  0  0
  144.4838  132.0425  151.4261 H   0  0  0  0  0  0  0  0  0  0  0  0
  144.9688  134.6937  149.9839 H   0  0  0  0  0  0  0  0  0  0  0  0
  143.4110  134.0050  150.3808 H   0  0  0  0  0  0  0  0  0  0  0  0
  144.0774  135.7636  152.0271 H   0  0  0  0  0  0  0  0  0  0  0  0
  143.8807  134.2088  152.8003 H   0  0  0  0  0  0  0  0  0  0  0  0
  145.9219  135.3133  153.5952 H   0  0  0  0  0  0  0  0  0  0  0  0
  146.5297  135.4879  151.9701 H   0  0  0  0  0  0  0  0  0  0  0  0
  1  2  1  0  0  0  0
  1 34  1  0  0  0  0
  2  3  1  0  0  0  0
  2 35  1  0  0  0  0
  2 36  1  0  0  0  0
  3  4  1  0  0  0  0
  3 37  1  0  0  0  0
  3 38  1  0  0  0  0
  4  5  1  0  0  0  0
  4 24  1  0  0  0  0
  4 39  1  0  0  0  0
  5  6  1  0  0  0  0
  5 40  1  0  0  0  0
  6 11  1  0  0  0  0
  6  7  2  0  0  0  0
  7  8  1  0  0  0  0
  8  9  2  0  0  0  0
  8 41  1  0  0  0  0
  9 10  1  0  0  0  0
 10 14  1  0  0  0  0
 10 11  2  0  0  0  0
 11 12  1  0  0  0  0
 12 13  2  0  0  0  0
 13 14  1  0  0  0  0
 13 42  1  0  0  0  0
 14 15  1  0  0  0  0
 15 30  1  0  0  0  0
 15 22  1  0  0  0  0
 15 16  1  0  0  0  0
 16 17  1  0  0  0  0
 17 31  1  0  0  0  0
 17 18  1  0  0  0  0
 17 20  1  0  0  0  0
 18 19  1  0  0  0  0
 18 43  1  0  0  0  0
 18 44  1  0  0  0  0
 19 45  1  0  0  0  0
 20 32  1  0  0  0  0
 20 21  1  0  0  0  0
 20 22  1  0  0  0  0
 21 46  1  0  0  0  0
 22 33  1  0  0  0  0
 22 23  1  0  0  0  0
 23 47  1  0  0  0  0
 24 29  1  0  0  0  0
 24 25  1  0  0  0  0
 24 48  1  0  0  0  0
 25 26  1  0  0  0  0
 25 49  1  0  0  0  0
 25 50  1  0  0  0  0
 26 27  1  0  0  0  0
 26 51  1  0  0  0  0
 26 52  1  0  0  0  0
 27 28  1  0  0  0  0
 27 53  1  0  0  0  0
 27 54  1  0  0  0  0
 28 29  1  0  0  0  0
 28 55  1  0  0  0  0
 28 56  1  0  0  0  0
 29 57  1  0  0  0  0
 29 58  1  0  0  0  0
M  END
> <s_m_source_file>
AV-unprocessed.smi

> <i_m_source_file_index>
109

> <i_lp_mmshare_version>
43012

> <i_f3d_flags>
0

> <s_epik_input>
W0NIMl0xW0NIMl1bQ0gyXVtDSDJdW0NIMl1bQ0hdMVtDQEhdKFtDSDJdW0NIMl1bT0hdKVtOSF1jKG5bY0hdbjIpYyhjMjMpbltjSF1uM1tDQEBIXTRPW0NASF0oW0NIMl1bT0hdKVtDQEBIXShbT0hdKVtDQEhdNFtPSF0=

> <s_epik_cmdline>
J2VwaWtfcHl0aG9uJywgJy1waCcsICc3LjAnLCAnLXRuJywgJzgnLCAnLW1hJywgJzIwMCcsICctbWV0YWxfYmluZGluZycsICctaW1hZScsICc8aW5maWxlLm1hZT4nLCAnLW9tYWUnLCAnPG91dGZpbGUubWFlPic=

> <r_lp_tautomer_probability>
1

> <r_epik_Ionization_Penalty>
0.000793976

> <r_epik_Ionization_Penalty_Charging>
0

> <r_epik_Ionization_Penalty_Neutral>
0.000793976

> <r_epik_State_Penalty>
-0

> <r_epik_Charging_Adjusted_Penalty>
0

> <i_epik_Tot_Q>
0

> <i_epik_Tot_abs_Q>
0

> <r_epik_Metal_State_Penalty>
-0

> <b_epik_Metal_Only>
0

> <s_epik_Chemistry_Notes>
This compound contains an acetal/aminal-like group ( X-CH(R)-Y where X, Y are N, S, or O) that may be acid/base labile, releasing an aldehyde.

> <s_lp_Force_Field>
OPLS_2005

> <r_lp_Energy>
61.3844

> <b_lp_Chiralities_Consistent>
1

> <s_lp_Variant>
AV-unprocessed.smi:109-7

> <Gold.Version>
5.8.1

> <Gold.Id.Protein>
6NUR|6NUR_protein|mol2

> <Gold.PLP.Fitness>
46.1382

> <Gold.PLP.PLP>
-38.9286

> <Gold.PLP.part.hbond>
-4.0000

> <Gold.PLP.part.metal>
0.0000

> <Gold.PLP.part.buried>
-6.3905

> <Gold.PLP.part.nonpolar>
-30.0427

> <Gold.PLP.part.repulsive>
2.3947

> <Gold.PLP.ligand.clash>
0.0000

> <Gold.PLP.ligand.torsion>
1.7862

> <Gold.PLP.Chemscore.Hbond>
3.5420

> <Gold.PLP.Chemscore.CHOScore>
0.0000

> <Gold.PLP.Chemscore.Metal>
0.0000

> <Gold.Chemscore.Hbonds>
donor molecule, donor type, donor heavy atom, donor atom, acceptor molecule, acceptor atom, score
      L1  H     1    34       P1 10747  1.00
      L1  H    19    45       P1  8028  0.94
      P1  H  7989  7998       L1    16  0.98
      P1  H 10752 10765       L1     9  0.50

> <Gold.PLP.Chemscore.Internal.Correction>
0.1560

> <Gold.Rescore>
     Score         DG    S(hbond)    S(metal)    S(lipo)     H(rot)  DE(clash)    DE(int)     intcor
      6.82     -10.09       2.90        0.00      76.11       5.47       1.43       1.83       ----

> <Gold.Chemscore.Fitness>
6.8240

> <Gold.Chemscore.DG>
-10.0863

> <Gold.Chemscore.ZeroCoef>
-5.4800

> <Gold.Chemscore.Hbond>
2.9026

> <Gold.Chemscore.Metal>
0.0000

> <Gold.Chemscore.Lipo>
76.1115

> <Gold.Chemscore.Internal_Hbond>
0.0000

> <Gold.Chemscore.DEClash>
1.4350

> <Gold.Chemscore.DEInternal>
1.8273

> <Gold.Chemscore.Rot>
5.4662

> <Gold.Chemscore.Internal.Correction>
   9.000000E+99

> <Gold.Chemscore.Hbonds>
donor molecule, donor type, donor heavy atom, donor atom, acceptor molecule, acceptor atom, score
      L1  H     1    34       P1 10747  0.78
      L1  H    19    45       P1  8028  0.91
      P1  H  7989  7998       L1    16  0.86
      P1  H 10752 10765       L1     9  0.02

> <Gold.Chemscore.Hbond.Weighted>
-9.6947

> <Gold.Chemscore.Metal.Weighted>
-0.0000

> <Gold.Chemscore.Lipo.Weighted>
-8.9050

> <Gold.Chemscore.Internal_Hbond.Weighted>
0.0000

> <Gold.Chemscore.DEClash.Weighted>
1.4350

> <Gold.Chemscore.DEInternal.Weighted>
1.8273

> <Gold.Chemscore.Rot.Weighted>
13.9935

> <Gold.Chemscore.Internal.Correction.Weighted>
   9.000000E+99

> <Gold.Protein.RotatedTorsions>
[ 6907 6896 6895 6894 ] final   29.97 input  -60.11 | X-H torsion
[ 7974 7965 7964 7962 ] final -100.69 input  175.53 | X-H torsion
[ 8008 7997 7996 7995 ] final  119.91 input   59.86 | X-H torsion
[ 10167 10162 10161 10158 ] final  -20.00 input  -65.29 | X-H torsion
[ 10718 10713 10712 10709 ] final   19.74 input   66.30 | X-H torsion
[ 10763 10752 10751 10750 ] final -144.11 input  -60.55 | X-H torsion
[ 11005 11000 10999 10996 ] final -125.67 input  -57.11 | X-H torsion

> <Gold.Protein.ActiveResidues>
 VAL166  LYS551  ARG553  GLY616  TRP617  ASP618  TYR619  PRO620  LYS621  CYS622 
 ASP623  PHE694  ASN695  SER759  ASP760  ASP761  ALA762  ILE779  LEU786  VAL792 
 PHE793  MET794  SER795  GLU796  ALA797  LYS798  CYS799  TRP800  GLU811  SER814 

> <Gold.Protein.RotatedAtoms>
  152.0392  134.9722  160.0573 H   0  0  0  0  0  0  0  0  0  0  0  0  # atno 6907 bound_to 6896
  152.1167  133.4326  159.4665 H   0  0  0  0  0  0  0  0  0  0  0  0  # atno 6908 bound_to 6896
  150.6846  134.2502  159.4551 H   0  0  0  0  0  0  0  0  0  0  0  0  # atno 6909 bound_to 6896
  145.2912  140.9353  143.2876 H   0  0  0  0  0  0  0  0  0  0  0  0  # atno 7974 bound_to 7965
  156.2618  140.2842  156.1066 H   0  0  0  0  0  0  0  0  0  0  0  0  # atno 8008 bound_to 7997
  155.1302  140.0393  157.2790 H   0  0  0  0  0  0  0  0  0  0  0  0  # atno 8009 bound_to 7997
  154.6605  140.2565  155.7120 H   0  0  0  0  0  0  0  0  0  0  0  0  # atno 8010 bound_to 7997
  140.7273  143.4764  151.0176 H   0  0  0  0  0  0  0  0  0  0  0  0  # atno 10167 bound_to 10162
  157.1147  130.6523  149.5907 H   0  0  0  0  0  0  0  0  0  0  0  0  # atno 10718 bound_to 10713
  154.8442  135.3449  154.6295 H   0  0  0  0  0  0  0  0  0  0  0  0  # atno 10763 bound_to 10752
  153.6904  135.6975  153.5096 H   0  0  0  0  0  0  0  0  0  0  0  0  # atno 10764 bound_to 10752
  153.2599  135.4326  155.0839 H   0  0  0  0  0  0  0  0  0  0  0  0  # atno 10765 bound_to 10752
  140.9743  134.0762  157.3835 H   0  0  0  0  0  0  0  0  0  0  0  0  # atno 11005 bound_to 11000
  144.9171  139.4457  143.6559 LP  0  0  0  0  0  0  0  0  0  0  0  0  # atno 17320 bound_to 7965
  146.3184  139.8011  142.8965 LP  0  0  0  0  0  0  0  0  0  0  0  0  # atno 17321 bound_to 7965
  139.8460  143.7501  152.3179 LP  0  0  0  0  0  0  0  0  0  0  0  0  # atno 17342 bound_to 10162
  139.7666  144.7490  151.0285 LP  0  0  0  0  0  0  0  0  0  0  0  0  # atno 17343 bound_to 10162
  155.9842  130.4866  150.6972 LP  0  0  0  0  0  0  0  0  0  0  0  0  # atno 17370 bound_to 10713
  157.4529  131.0874  151.0827 LP  0  0  0  0  0  0  0  0  0  0  0  0  # atno 17371 bound_to 10713
  139.8924  135.0124  156.6845 LP  0  0  0  0  0  0  0  0  0  0  0  0  # atno 17394 bound_to 11000
  140.7282  133.9082  155.8193 LP  0  0  0  0  0  0  0  0  0  0  0  0  # atno 17395 bound_to 11000

$$$$
