AV-unprocessed.smi:1430|AV-procd|sdf|5824|dock5
  -GOLD-   22720 5483D 1   1.00000     0.00000
 Structure written by MMmdl.
 46 47  0  0  0  0  0  0  0  0  1 V2000
  151.9513  141.0987  158.2355 C   0  0  0  0  0  0  0  0  0  0  0  0
  151.4522  141.1771  156.9048 O   0  0  0  0  0  0  0  0  0  0  0  0
  150.9612  140.0275  156.3207 C   0  0  0  0  0  0  0  0  0  0  0  0
  150.6689  138.9238  157.1462 C   0  0  0  0  0  0  0  0  0  0  0  0
  150.1670  137.7465  156.5589 C   0  0  0  0  0  0  0  0  0  0  0  0
  149.9793  137.7076  155.1562 C   0  0  0  0  0  0  0  0  0  0  0  0
  149.4661  136.5916  154.4402 N   0  0  0  0  0  0  0  0  0  0  0  0
  148.9843  135.4303  154.9159 C   0  0  0  0  0  0  0  0  0  0  0  0
  148.9199  135.1158  156.1039 O   0  0  0  0  0  0  0  0  0  0  0  0
  148.5856  134.6290  153.9178 N   0  0  0  0  0  0  0  0  0  0  0  0
  148.0211  133.2957  154.0876 C   0  0  0  0  0  0  0  0  0  0  0  0
  147.6992  132.6475  152.7281 C   0  0  0  0  0  0  0  0  0  0  0  0
  146.3527  132.9100  152.2227 N   0  0  0  0  0  0  0  0  0  0  0  0
  146.2176  132.6062  150.7995 C   0  0  0  0  0  0  0  0  0  0  0  0
  144.8096  132.9177  150.2526 C   0  0  1  0  0  0  0  0  0  0  0  0
  143.7460  131.8971  150.6917 C   0  0  0  0  0  0  0  0  0  0  0  0
  144.4303  134.2544  150.5849 O   0  0  0  0  0  0  0  0  0  0  0  0
  144.5423  134.5921  151.9662 C   0  0  2  0  0  0  0  0  0  0  0  0
  144.1713  136.0700  152.1269 C   0  0  0  0  0  0  0  0  0  0  0  0
  145.9742  134.2992  152.4478 C   0  0  0  0  0  0  0  0  0  0  0  0
  150.2925  138.8702  154.4218 C   0  0  0  0  0  0  0  0  0  0  0  0
  150.7737  140.0016  154.9782 N   0  0  0  0  0  0  0  0  0  0  0  0
  152.2953  142.0838  158.5499 H   0  0  0  0  0  0  0  0  0  0  0  0
  152.7985  140.4149  158.3044 H   0  0  0  0  0  0  0  0  0  0  0  0
  151.1759  140.7807  158.9341 H   0  0  0  0  0  0  0  0  0  0  0  0
  150.8225  138.9808  158.2138 H   0  0  0  0  0  0  0  0  0  0  0  0
  149.9278  136.9113  157.1975 H   0  0  0  0  0  0  0  0  0  0  0  0
  149.5119  136.6697  153.4347 H   0  0  0  0  0  0  0  0  0  0  0  0
  148.6793  134.9653  152.9708 H   0  0  0  0  0  0  0  0  0  0  0  0
  148.7533  132.7040  154.6356 H   0  0  0  0  0  0  0  0  0  0  0  0
  147.1265  133.3416  154.7109 H   0  0  0  0  0  0  0  0  0  0  0  0
  148.4214  133.0222  152.0014 H   0  0  0  0  0  0  0  0  0  0  0  0
  147.8666  131.5710  152.7872 H   0  0  0  0  0  0  0  0  0  0  0  0
  146.9493  133.1870  150.2356 H   0  0  0  0  0  0  0  0  0  0  0  0
  146.4437  131.5580  150.6083 H   0  0  0  0  0  0  0  0  0  0  0  0
  144.8579  132.8758  149.1642 H   0  0  0  0  0  0  0  0  0  0  0  0
  143.9967  130.8981  150.3344 H   0  0  0  0  0  0  0  0  0  0  0  0
  142.7681  132.1566  150.2857 H   0  0  0  0  0  0  0  0  0  0  0  0
  143.6537  131.8407  151.7760 H   0  0  0  0  0  0  0  0  0  0  0  0
  143.8347  133.9969  152.5442 H   0  0  0  0  0  0  0  0  0  0  0  0
  144.2316  136.3784  153.1709 H   0  0  0  0  0  0  0  0  0  0  0  0
  143.1532  136.2556  151.7842 H   0  0  0  0  0  0  0  0  0  0  0  0
  144.8391  136.7097  151.5494 H   0  0  0  0  0  0  0  0  0  0  0  0
  146.0487  134.5335  153.5104 H   0  0  0  0  0  0  0  0  0  0  0  0
  146.6743  134.9601  151.9339 H   0  0  0  0  0  0  0  0  0  0  0  0
  150.1561  138.8946  153.3505 H   0  0  0  0  0  0  0  0  0  0  0  0
  1  2  1  0  0  0  0
  1 23  1  0  0  0  0
  1 24  1  0  0  0  0
  1 25  1  0  0  0  0
  2  3  1  0  0  0  0
  3 22  1  0  0  0  0
  3  4  2  0  0  0  0
  4  5  1  0  0  0  0
  4 26  1  0  0  0  0
  5  6  2  0  0  0  0
  5 27  1  0  0  0  0
  6  7  1  0  0  0  0
  6 21  1  0  0  0  0
  7  8  1  0  0  0  0
  7 28  1  0  0  0  0
  8  9  2  0  0  0  0
  8 10  1  0  0  0  0
 10 11  1  0  0  0  0
 10 29  1  0  0  0  0
 11 12  1  0  0  0  0
 11 30  1  0  0  0  0
 11 31  1  0  0  0  0
 12 13  1  0  0  0  0
 12 32  1  0  0  0  0
 12 33  1  0  0  0  0
 13 20  1  0  0  0  0
 13 14  1  0  0  0  0
 14 15  1  0  0  0  0
 14 34  1  0  0  0  0
 14 35  1  0  0  0  0
 15 16  1  0  0  0  0
 15 17  1  0  0  0  0
 15 36  1  0  0  0  0
 16 37  1  0  0  0  0
 16 38  1  0  0  0  0
 16 39  1  0  0  0  0
 17 18  1  0  0  0  0
 18 19  1  0  0  0  0
 18 20  1  0  0  0  0
 18 40  1  0  0  0  0
 19 41  1  0  0  0  0
 19 42  1  0  0  0  0
 19 43  1  0  0  0  0
 20 44  1  0  0  0  0
 20 45  1  0  0  0  0
 21 22  2  0  0  0  0
 21 46  1  0  0  0  0
M  END
> <s_m_source_file>
AV-unprocessed.smi

> <i_m_source_file_index>
1430

> <i_lp_mmshare_version>
43012

> <i_f3d_flags>
0

> <s_epik_input>
W0NIM11PYzFbY0hdW2NIXWMoW2NIXW4xKVtOSF1DKD1PKVtOSF1bQ0gyXVtDSDJdTjJbQ0gyXVtDQEBIXShbQ0gzXSlPW0NAQEhdKFtDSDNdKVtDSDJdMg==

> <s_epik_cmdline>
J2VwaWtfcHl0aG9uJywgJy1waCcsICc3LjAnLCAnLXRuJywgJzgnLCAnLW1hJywgJzIwMCcsICctbWV0YWxfYmluZGluZycsICctaW1hZScsICc8aW5maWxlLm1hZT4nLCAnLW9tYWUnLCAnPG91dGZpbGUubWFlPic=

> <r_lp_tautomer_probability>
1

> <r_epik_Ionization_Penalty>
0.266083

> <r_epik_Ionization_Penalty_Charging>
0

> <r_epik_Ionization_Penalty_Neutral>
0.266083

> <r_epik_State_Penalty>
0.257924

> <r_epik_Charging_Adjusted_Penalty>
0.257924

> <i_epik_Tot_Q>
0

> <i_epik_Tot_abs_Q>
0

> <r_epik_Metal_State_Penalty>
0.257922

> <b_epik_Metal_Only>
0

> <s_lp_Force_Field>
OPLS_2005

> <r_lp_Energy>
26.0225

> <b_lp_Chiralities_Consistent>
1

> <s_lp_Variant>
AV-unprocessed.smi:1430-3

> <Gold.Version>
5.8.1

> <Gold.Id.Protein>
6NUR|6NUR_protein|mol2

> <Gold.PLP.Fitness>
41.9949

> <Gold.PLP.PLP>
-31.0515

> <Gold.PLP.part.hbond>
-3.0000

> <Gold.PLP.part.metal>
0.0000

> <Gold.PLP.part.buried>
-4.7368

> <Gold.PLP.part.nonpolar>
-24.0794

> <Gold.PLP.part.repulsive>
0.4388

> <Gold.PLP.ligand.clash>
0.0108

> <Gold.PLP.ligand.torsion>
0.5346

> <Gold.PLP.Chemscore.Hbond>
3.0000

> <Gold.PLP.Chemscore.CHOScore>
1.0000

> <Gold.PLP.Chemscore.Metal>
0.0000

> <Gold.Chemscore.Hbonds>
donor molecule, donor type, donor heavy atom, donor atom, acceptor molecule, acceptor atom, score
      L1  H     7    28       P1  7948  1.00
      L1  H    10    29       P1  7948  1.00
      P1  H  7989  7998       L1    22  1.00
      L1  C    21    46       P1  7957  1.00

> <Gold.PLP.Chemscore.Internal.Correction>
0.0234

> <Gold.Rescore>
     Score         DG    S(hbond)    S(metal)    S(lipo)     H(rot)  DE(clash)    DE(int)     intcor
     15.20     -16.96       2.14        0.00      74.38       1.71       0.02       1.74       ----

> <Gold.Chemscore.Fitness>
15.2003

> <Gold.Chemscore.DG>
-16.9609

> <Gold.Chemscore.ZeroCoef>
-5.4800

> <Gold.Chemscore.Hbond>
2.1432

> <Gold.Chemscore.Metal>
0.0000

> <Gold.Chemscore.Lipo>
74.3767

> <Gold.Chemscore.Internal_Hbond>
0.0000

> <Gold.Chemscore.DEClash>
0.0174

> <Gold.Chemscore.DEInternal>
1.7433

> <Gold.Chemscore.Rot>
1.7107

> <Gold.Chemscore.Internal.Correction>
   9.000000E+99

> <Gold.Chemscore.Hbonds>
donor molecule, donor type, donor heavy atom, donor atom, acceptor molecule, acceptor atom, score
      L1  H     7    28       P1  7948  0.72
      L1  H    10    29       P1  7948  0.38
      P1  H  7989  7998       L1    22  0.40

> <Gold.Chemscore.Hbond.Weighted>
-7.1583

> <Gold.Chemscore.Metal.Weighted>
-0.0000

> <Gold.Chemscore.Lipo.Weighted>
-8.7021

> <Gold.Chemscore.Internal_Hbond.Weighted>
0.0000

> <Gold.Chemscore.DEClash.Weighted>
0.0174

> <Gold.Chemscore.DEInternal.Weighted>
1.7433

> <Gold.Chemscore.Rot.Weighted>
4.3794

> <Gold.Chemscore.Internal.Correction.Weighted>
   9.000000E+99

> <Gold.Protein.RotatedTorsions>
[ 6907 6896 6895 6894 ] final   41.75 input  -60.11 | X-H torsion
[ 7974 7965 7964 7962 ] final    9.10 input  175.53 | X-H torsion
[ 8008 7997 7996 7995 ] final   -3.86 input   59.86 | X-H torsion
[ 10167 10162 10161 10158 ] final  122.69 input  -65.29 | X-H torsion
[ 10718 10713 10712 10709 ] final -137.89 input   66.30 | X-H torsion
[ 10763 10752 10751 10750 ] final -165.60 input  -60.55 | X-H torsion
[ 11005 11000 10999 10996 ] final  120.32 input  -57.11 | X-H torsion

> <Gold.Protein.ActiveResidues>
 VAL166  LYS551  ARG553  GLY616  TRP617  ASP618  TYR619  PRO620  LYS621  CYS622 
 ASP623  PHE694  ASN695  SER759  ASP760  ASP761  ALA762  ILE779  LEU786  VAL792 
 PHE793  MET794  SER795  GLU796  ALA797  LYS798  CYS799  TRP800  GLU811  SER814 

> <Gold.Protein.RotatedAtoms>
  152.1992  134.8603  160.0509 H   0  0  0  0  0  0  0  0  0  0  0  0  # atno 6907 bound_to 6896
  151.9462  133.3647  159.3991 H   0  0  0  0  0  0  0  0  0  0  0  0  # atno 6908 bound_to 6896
  150.6951  134.4312  159.5293 H   0  0  0  0  0  0  0  0  0  0  0  0  # atno 6909 bound_to 6896
  146.2408  139.9834  142.8433 H   0  0  0  0  0  0  0  0  0  0  0  0  # atno 7974 bound_to 7965
  154.6204  140.2498  155.7556 H   0  0  0  0  0  0  0  0  0  0  0  0  # atno 8008 bound_to 7997
  156.2423  140.2928  156.0428 H   0  0  0  0  0  0  0  0  0  0  0  0  # atno 8009 bound_to 7997
  155.1906  140.0391  157.2890 H   0  0  0  0  0  0  0  0  0  0  0  0  # atno 8010 bound_to 7997
  139.5843  144.7000  151.3448 H   0  0  0  0  0  0  0  0  0  0  0  0  # atno 10167 bound_to 10162
  156.2932  130.7387  151.1418 H   0  0  0  0  0  0  0  0  0  0  0  0  # atno 10718 bound_to 10713
  154.6916  135.2972  154.9471 H   0  0  0  0  0  0  0  0  0  0  0  0  # atno 10763 bound_to 10752
  154.0432  135.6654  153.4796 H   0  0  0  0  0  0  0  0  0  0  0  0  # atno 10764 bound_to 10752
  153.0616  135.5112  154.8012 H   0  0  0  0  0  0  0  0  0  0  0  0  # atno 10765 bound_to 10752
  139.9181  134.9634  156.7789 H   0  0  0  0  0  0  0  0  0  0  0  0  # atno 11005 bound_to 11000
  145.1571  140.9653  143.4399 LP  0  0  0  0  0  0  0  0  0  0  0  0  # atno 17320 bound_to 7965
  145.0151  139.3474  143.6100 LP  0  0  0  0  0  0  0  0  0  0  0  0  # atno 17321 bound_to 7965
  140.7117  143.7372  150.7580 LP  0  0  0  0  0  0  0  0  0  0  0  0  # atno 17342 bound_to 10162
  140.0913  143.4875  152.2477 LP  0  0  0  0  0  0  0  0  0  0  0  0  # atno 17343 bound_to 10162
  157.7348  131.0578  150.5504 LP  0  0  0  0  0  0  0  0  0  0  0  0  # atno 17370 bound_to 10713
  156.5623  130.4258  149.6057 LP  0  0  0  0  0  0  0  0  0  0  0  0  # atno 17371 bound_to 10713
  140.6560  133.9688  155.7780 LP  0  0  0  0  0  0  0  0  0  0  0  0  # atno 17394 bound_to 11000
  141.0676  134.0254  157.3572 LP  0  0  0  0  0  0  0  0  0  0  0  0  # atno 17395 bound_to 11000

$$$$
