AV-unprocessed.smi:3318|AV-procd|sdf|12764|dock3
  -GOLD-   2272019103D 1   1.00000     0.00000
 Structure written by MMmdl.
 44 45  0  0  0  0  0  0  0  0  2 V2000
  151.9699  143.8481  158.4136 C   0  0  0  0  0  0  0  0  0  0  0  0
  151.0940  143.2014  157.3323 C   0  0  0  0  0  0  0  0  0  0  0  0
  151.2537  141.6704  157.2555 C   0  0  0  0  0  0  0  0  0  0  0  0
  150.7016  141.0990  156.0261 N   0  0  0  0  0  0  0  0  0  0  0  0
  149.2494  141.2894  156.0273 C   0  0  0  0  0  0  0  0  0  0  0  0
  148.6456  140.7959  154.7013 C   0  0  0  0  0  0  0  0  0  0  0  0
  148.9536  139.3088  154.4737 C   0  0  0  0  0  0  0  0  0  0  0  0
  148.4397  138.8796  153.1543 N   0  3  0  0  0  0  0  0  0  0  0  0
  146.9975  139.1123  152.9324 C   0  0  0  0  0  0  0  0  0  0  0  0
  146.5911  138.7144  151.5068 C   0  0  0  0  0  0  0  0  0  0  0  0
  145.6279  137.5423  151.4883 C   0  0  0  0  0  0  0  0  0  0  0  0
  144.4629  137.5530  152.2848 C   0  0  0  0  0  0  0  0  0  0  0  0
  143.6039  136.4379  152.2316 C   0  0  0  0  0  0  0  0  0  0  0  0
  143.9423  135.3609  151.3899 C   0  0  0  0  0  0  0  0  0  0  0  0
  145.1289  135.4469  150.6349 C   0  0  0  0  0  0  0  0  0  0  0  0
  145.9596  136.5113  150.6789 N   0  0  0  0  0  0  0  0  0  0  0  0
  150.4732  139.0986  154.5968 C   0  0  0  0  0  0  0  0  0  0  0  0
  151.0056  139.6677  155.9240 C   0  0  0  0  0  0  0  0  0  0  0  0
  151.8674  144.9334  158.3973 H   0  0  0  0  0  0  0  0  0  0  0  0
  153.0231  143.6114  158.2613 H   0  0  0  0  0  0  0  0  0  0  0  0
  151.6888  143.5052  159.4096 H   0  0  0  0  0  0  0  0  0  0  0  0
  150.0532  143.4880  157.4767 H   0  0  0  0  0  0  0  0  0  0  0  0
  151.3783  143.6216  156.3673 H   0  0  0  0  0  0  0  0  0  0  0  0
  152.3046  141.3931  157.3520 H   0  0  0  0  0  0  0  0  0  0  0  0
  150.7426  141.2391  158.1175 H   0  0  0  0  0  0  0  0  0  0  0  0
  148.7996  140.7645  156.8717 H   0  0  0  0  0  0  0  0  0  0  0  0
  149.0181  142.3486  156.1492 H   0  0  0  0  0  0  0  0  0  0  0  0
  147.5670  140.9571  154.7082 H   0  0  0  0  0  0  0  0  0  0  0  0
  149.0427  141.3930  153.8786 H   0  0  0  0  0  0  0  0  0  0  0  0
  148.4452  138.7330  155.2485 H   0  0  0  0  0  0  0  0  0  0  0  0
  148.9407  139.3992  152.4478 H   0  0  0  0  0  0  0  0  0  0  0  0
  146.4171  138.5374  153.6541 H   0  0  0  0  0  0  0  0  0  0  0  0
  146.7717  140.1662  153.1003 H   0  0  0  0  0  0  0  0  0  0  0  0
  146.1313  139.5634  150.9991 H   0  0  0  0  0  0  0  0  0  0  0  0
  147.4757  138.4515  150.9245 H   0  0  0  0  0  0  0  0  0  0  0  0
  144.2295  138.3935  152.9220 H   0  0  0  0  0  0  0  0  0  0  0  0
  142.7020  136.4093  152.8252 H   0  0  0  0  0  0  0  0  0  0  0  0
  143.3073  134.4896  151.3238 H   0  0  0  0  0  0  0  0  0  0  0  0
  145.4191  134.6390  149.9795 H   0  0  0  0  0  0  0  0  0  0  0  0
  150.7193  138.0382  154.5429 H   0  0  0  0  0  0  0  0  0  0  0  0
  150.9878  139.5792  153.7632 H   0  0  0  0  0  0  0  0  0  0  0  0
  152.0811  139.5023  155.9621 H   0  0  0  0  0  0  0  0  0  0  0  0
  150.5708  139.1295  156.7679 H   0  0  0  0  0  0  0  0  0  0  0  0
  148.6407  137.8974  153.0312 H   0  0  0  0  0  0  0  0  0  0  0  0
  1  2  1  0  0  0  0
  1 19  1  0  0  0  0
  1 20  1  0  0  0  0
  1 21  1  0  0  0  0
  2  3  1  0  0  0  0
  2 22  1  0  0  0  0
  2 23  1  0  0  0  0
  3  4  1  0  0  0  0
  3 24  1  0  0  0  0
  3 25  1  0  0  0  0
  4 18  1  0  0  0  0
  4  5  1  0  0  0  0
  5  6  1  0  0  0  0
  5 26  1  0  0  0  0
  5 27  1  0  0  0  0
  6  7  1  0  0  0  0
  6 28  1  0  0  0  0
  6 29  1  0  0  0  0
  7  8  1  0  0  0  0
  7 17  1  0  0  0  0
  7 30  1  0  0  0  0
  8  9  1  0  0  0  0
  8 31  1  0  0  0  0
  8 44  1  0  0  0  0
  9 10  1  0  0  0  0
  9 32  1  0  0  0  0
  9 33  1  0  0  0  0
 10 11  1  0  0  0  0
 10 34  1  0  0  0  0
 10 35  1  0  0  0  0
 11 16  1  0  0  0  0
 11 12  2  0  0  0  0
 12 13  1  0  0  0  0
 12 36  1  0  0  0  0
 13 14  2  0  0  0  0
 13 37  1  0  0  0  0
 14 15  1  0  0  0  0
 14 38  1  0  0  0  0
 15 16  2  0  0  0  0
 15 39  1  0  0  0  0
 17 18  1  0  0  0  0
 17 40  1  0  0  0  0
 17 41  1  0  0  0  0
 18 42  1  0  0  0  0
 18 43  1  0  0  0  0
M  CHG  1   8   1
M  END
> <s_m_source_file>
AV-unprocessed.smi

> <i_m_source_file_index>
3318

> <i_lp_mmshare_version>
43012

> <i_f3d_flags>
0

> <s_epik_input>
W0NIM11bQ0gyXVtDSDJdTjFbQ0gyXVtDSDJdW0NIXShbQ0gyXVtDSDJdMSlbTkhdW0NIMl1bQ0gyXWMyW2NIXVtjSF1bY0hdW2NIXW4y

> <s_epik_cmdline>
J2VwaWtfcHl0aG9uJywgJy1waCcsICc3LjAnLCAnLXRuJywgJzgnLCAnLW1hJywgJzIwMCcsICctbWV0YWxfYmluZGluZycsICctaW1hZScsICc8aW5maWxlLm1hZT4nLCAnLW9tYWUnLCAnPG91dGZpbGUubWFlPic=

> <r_epik_Ionization_Penalty>
1.50803

> <r_epik_Ionization_Penalty_Charging>
0.000531593

> <r_epik_Ionization_Penalty_Neutral>
1.5075

> <r_epik_State_Penalty>
1.60727

> <r_epik_Charging_Adjusted_Penalty>
1.6078

> <i_epik_Tot_Q>
1

> <i_epik_Tot_abs_Q>
1

> <r_epik_Metal_State_Penalty>
1.6087

> <b_epik_Metal_Only>
0

> <s_lp_Force_Field>
OPLS_2005

> <r_lp_Energy>
19.6285

> <b_lp_Chiralities_Consistent>
1

> <s_lp_Variant>
AV-unprocessed.smi:3318-3

> <Gold.Version>
5.8.1

> <Gold.Id.Protein>
6NUR|6NUR_protein|mol2

> <Gold.PLP.Fitness>
48.4032

> <Gold.PLP.PLP>
-37.4164

> <Gold.PLP.part.hbond>
-2.0000

> <Gold.PLP.part.metal>
0.0000

> <Gold.PLP.part.buried>
-2.3896

> <Gold.PLP.part.nonpolar>
-35.1037

> <Gold.PLP.part.repulsive>
0.6754

> <Gold.PLP.ligand.clash>
0.0000

> <Gold.PLP.ligand.torsion>
0.5284

> <Gold.PLP.Chemscore.Hbond>
3.0000

> <Gold.PLP.Chemscore.CHOScore>
1.0000

> <Gold.PLP.Chemscore.Metal>
0.0000

> <Gold.Chemscore.Hbonds>
donor molecule, donor type, donor heavy atom, donor atom, acceptor molecule, acceptor atom, score
      L1  H     8    31       P1  7957  1.00
      L1  H     8    44       P1  7948  1.95
      L1  C    15    39       P1  7921  0.94

> <Gold.PLP.Chemscore.Internal.Correction>
0.0435

> <Gold.Rescore>
     Score         DG    S(hbond)    S(metal)    S(lipo)     H(rot)  DE(clash)    DE(int)     intcor
     19.20     -19.85       1.99        0.00      98.48       1.48       0.07       0.58       ----

> <Gold.Chemscore.Fitness>
19.2013

> <Gold.Chemscore.DG>
-19.8476

> <Gold.Chemscore.ZeroCoef>
-5.4800

> <Gold.Chemscore.Hbond>
1.9893

> <Gold.Chemscore.Metal>
0.0000

> <Gold.Chemscore.Lipo>
98.4835

> <Gold.Chemscore.Internal_Hbond>
0.0000

> <Gold.Chemscore.DEClash>
0.0705

> <Gold.Chemscore.DEInternal>
0.5757

> <Gold.Chemscore.Rot>
1.4840

> <Gold.Chemscore.Internal.Correction>
   9.000000E+99

> <Gold.Chemscore.Hbonds>
donor molecule, donor type, donor heavy atom, donor atom, acceptor molecule, acceptor atom, score
      L1  H     8    31       P1  7957  0.97
      L1  H     8    44       P1  7948  0.89

> <Gold.Chemscore.Hbond.Weighted>
-6.6441

> <Gold.Chemscore.Metal.Weighted>
-0.0000

> <Gold.Chemscore.Lipo.Weighted>
-11.5226

> <Gold.Chemscore.Internal_Hbond.Weighted>
0.0000

> <Gold.Chemscore.DEClash.Weighted>
0.0705

> <Gold.Chemscore.DEInternal.Weighted>
0.5757

> <Gold.Chemscore.Rot.Weighted>
3.7991

> <Gold.Chemscore.Internal.Correction.Weighted>
   9.000000E+99

> <Gold.Protein.RotatedTorsions>
[ 6907 6896 6895 6894 ] final   16.90 input  -60.11 | X-H torsion
[ 7974 7965 7964 7962 ] final -113.06 input  175.53 | X-H torsion
[ 8008 7997 7996 7995 ] final -124.08 input   59.86 | X-H torsion
[ 10167 10162 10161 10158 ] final -158.22 input  -65.29 | X-H torsion
[ 10718 10713 10712 10709 ] final -134.61 input   66.30 | X-H torsion
[ 10763 10752 10751 10750 ] final  -72.89 input  -60.55 | X-H torsion
[ 11005 11000 10999 10996 ] final  135.20 input  -57.11 | X-H torsion

> <Gold.Protein.ActiveResidues>
 VAL166  LYS551  ARG553  GLY616  TRP617  ASP618  TYR619  PRO620  LYS621  CYS622 
 ASP623  PHE694  ASN695  SER759  ASP760  ASP761  ALA762  ILE779  LEU786  VAL792 
 PHE793  MET794  SER795  GLU796  ALA797  LYS798  CYS799  TRP800  GLU811  SER814 

> <Gold.Protein.RotatedAtoms>
  151.8412  135.0589  160.0447 H   0  0  0  0  0  0  0  0  0  0  0  0  # atno 6907 bound_to 6896
  152.2808  133.5464  159.5505 H   0  0  0  0  0  0  0  0  0  0  0  0  # atno 6908 bound_to 6896
  150.7188  134.0483  159.3832 H   0  0  0  0  0  0  0  0  0  0  0  0  # atno 6909 bound_to 6896
  145.1365  140.8754  143.3727 H   0  0  0  0  0  0  0  0  0  0  0  0  # atno 7974 bound_to 7965
  155.1911  140.0413  157.2900 H   0  0  0  0  0  0  0  0  0  0  0  0  # atno 8008 bound_to 7997
  154.6138  140.2483  155.7607 H   0  0  0  0  0  0  0  0  0  0  0  0  # atno 8009 bound_to 7997
  156.2394  140.2909  156.0413 H   0  0  0  0  0  0  0  0  0  0  0  0  # atno 8010 bound_to 7997
  139.6709  143.9746  152.2283 H   0  0  0  0  0  0  0  0  0  0  0  0  # atno 10167 bound_to 10162
  156.2573  130.7189  151.1110 H   0  0  0  0  0  0  0  0  0  0  0  0  # atno 10718 bound_to 10713
  154.4519  135.5915  153.6197 H   0  0  0  0  0  0  0  0  0  0  0  0  # atno 10763 bound_to 10752
  152.9814  135.6023  154.3594 H   0  0  0  0  0  0  0  0  0  0  0  0  # atno 10764 bound_to 10752
  154.3456  135.2841  155.2378 H   0  0  0  0  0  0  0  0  0  0  0  0  # atno 10765 bound_to 10752
  139.9964  134.9496  156.9973 H   0  0  0  0  0  0  0  0  0  0  0  0  # atno 11005 bound_to 11000
  145.0579  139.3129  143.5895 LP  0  0  0  0  0  0  0  0  0  0  0  0  # atno 17320 bound_to 7965
  146.3509  140.0010  142.8676 LP  0  0  0  0  0  0  0  0  0  0  0  0  # atno 17321 bound_to 7965
  139.9511  144.6620  150.8171 LP  0  0  0  0  0  0  0  0  0  0  0  0  # atno 17342 bound_to 10162
  140.7618  143.3182  151.2684 LP  0  0  0  0  0  0  0  0  0  0  0  0  # atno 17343 bound_to 10162
  157.7237  131.0664  150.6024 LP  0  0  0  0  0  0  0  0  0  0  0  0  # atno 17370 bound_to 10713
  156.6109  130.4380  149.5859 LP  0  0  0  0  0  0  0  0  0  0  0  0  # atno 17371 bound_to 10713
  140.4810  134.1289  155.7217 LP  0  0  0  0  0  0  0  0  0  0  0  0  # atno 17394 bound_to 11000
  141.1607  133.8797  157.1854 LP  0  0  0  0  0  0  0  0  0  0  0  0  # atno 17395 bound_to 11000

$$$$
