#       Name:                AV-unprocessed.smi:2465
#       Creating user name   scv26
#       Creation time:       Fri Mar 27 13:36:25 2020


#       File generated by GOLD software.
#

@<TRIPOS>MOLECULE
AV-unprocessed.smi:2465
    45    46     1
SMALL
NO_CHARGES


@<TRIPOS>ATOM
      1 ****        -4.8527  -1.5367  -0.2672 C.3            1 S1                 0.0000
      2 ****        -4.7270  -0.1507  -0.8766 C.ar           1 S1                 0.0000
      3 ****        -5.8718   0.6713  -0.9738 C.ar           1 S1                 0.0000
      4 ****        -5.7563   1.9546  -1.5413 C.ar           1 S1                 0.0000
      5 ****        -4.5581   2.3825  -1.9893 N.pl3          1 S1                 1.0000
      6 ****        -3.4370   1.6335  -1.9176 C.ar           1 S1                 0.0000
      7 ****        -3.4796   0.3355  -1.3470 C.ar           1 S1                 0.0000
      8 ****        -2.3395  -0.5140  -1.2489 N.am           1 S1                 0.0000
      9 ****        -1.0363  -0.2045  -1.3666 C.2            1 S1                 0.0000
     10 ****        -0.5866   0.9184  -1.5928 O.2            1 S1                 0.0000
     11 ****        -0.2651  -1.2873  -1.1924 N.am           1 S1                 0.0000
     12 ****         1.1918  -1.3003  -1.2615 C.3            1 S1                 0.0000
     13 ****         1.8309  -0.7640   0.0297 C.3            1 S1                 0.0000
     14 ****         3.3664  -0.8329  -0.0086 C.3            1 S1                 0.0000
     15 ****         3.9631  -0.2610   1.1955 N.am           1 S1                 0.0000
     16 ****         4.6219   1.0338   1.1513 C.3            1 S1                 0.0000
     17 ****         4.9412   1.3698   2.6152 C.3            1 S1                 0.0000
     18 ****         4.7421   0.0660   3.3958 C.3            1 S1                 0.0000
     19 ****         4.0247  -0.8335   2.4036 C.2            1 S1                 0.0000
     20 ****         3.5753  -1.9376   2.7077 O.2            1 S1                 0.0000
     21 ****        -5.8799  -1.7495   0.0307 H              1 S1                 0.0000
     22 ****        -4.2207  -1.6227   0.6173 H              1 S1                 0.0000
     23 ****        -4.5472  -2.2978  -0.9857 H              1 S1                 0.0000
     24 ****        -6.8316   0.3245  -0.6190 H              1 S1                 0.0000
     25 ****        -6.5800   2.6445  -1.6543 H              1 S1                 0.0000
     26 ****        -2.5599   2.1064  -2.3314 H              1 S1                 0.0000
     27 ****        -2.5401  -1.4741  -1.0099 H              1 S1                 0.0000
     28 ****        -0.7165  -2.1708  -1.0054 H              1 S1                 0.0000
     29 ****         1.5108  -2.3288  -1.4332 H              1 S1                 0.0000
     30 ****         1.5292  -0.7223  -2.1236 H              1 S1                 0.0000
     31 ****         1.5219   0.2698   0.1902 H              1 S1                 0.0000
     32 ****         1.4580  -1.3335   0.8822 H              1 S1                 0.0000
     33 ****         3.6946  -1.8677  -0.1184 H              1 S1                 0.0000
     34 ****         3.7402  -0.2985  -0.8831 H              1 S1                 0.0000
     35 ****         5.5350   0.9542   0.5598 H              1 S1                 0.0000
     36 ****         3.9818   1.7892   0.6935 H              1 S1                 0.0000
     37 ****         5.9524   1.7624   2.7270 H              1 S1                 0.0000
     38 ****         4.2519   2.1309   2.9833 H              1 S1                 0.0000
     39 ****         5.6965  -0.3843   3.6705 H              1 S1                 0.0000
     40 ****         4.1504   0.2136   4.2997 H              1 S1                 0.0000
     41 ****        -4.4959   3.3129  -2.4036 H              1 S1                 0.0000
     42 ****        -1.2090   1.6930  -1.7051 LP             1 S1                 0.0000
     43 ****         0.4013   1.0563  -1.6644 LP             1 S1                 0.0000
     44 ****         3.1120  -2.4957   2.0193 LP             1 S1                 0.0000
     45 ****         3.6734  -2.2770   3.6432 LP             1 S1                 0.0000
@<TRIPOS>BOND
    1    1    2 1     
    2    1   21 1     
    3    1   22 1     
    4    1   23 1     
    5    2    7 ar    
    6    2    3 ar    
    7    3    4 ar    
    8    3   24 1     
    9    4    5 ar    
   10    4   25 1     
   11    5    6 ar    
   12    5   41 1     
   13    6    7 ar    
   14    6   26 1     
   15    7    8 1     
   16    8    9 am    
   17    8   27 1     
   18    9   10 2     
   19    9   11 am    
   20   11   12 1     
   21   11   28 1     
   22   12   13 1     
   23   12   29 1     
   24   12   30 1     
   25   13   14 1     
   26   13   31 1     
   27   13   32 1     
   28   14   15 1     
   29   14   33 1     
   30   14   34 1     
   31   15   19 am    
   32   15   16 1     
   33   16   17 1     
   34   16   35 1     
   35   16   36 1     
   36   17   18 1     
   37   17   37 1     
   38   17   38 1     
   39   18   19 1     
   40   18   39 1     
   41   18   40 1     
   42   19   20 2     
   43   10   42 1     
   44   10   43 1     
   45   20   44 1     
   46   20   45 1     
@<TRIPOS>SUBSTRUCTURE
      1 S1             1
@<TRIPOS>SET
LONE_PAIRS      STATIC     ATOMS    <user>   **** ""
4 42 43 44 45
DONOR_HYDROGENS      STATIC     ATOMS    <user>   **** ""
3 41 27 28
ATOM$BLUE        STATIC     ATOMS    COLORGROUP SYSTEM
4 42 43 44 45
ATOM$RED        STATIC     ATOMS    COLORGROUP SYSTEM
3 41 27 28
