AV-unprocessed.smi:1295|AV-procd|sdf|5406|dock9
  -GOLD-   22720 4563D 1   1.00000     0.00000
 Structure written by MMmdl.
 43 44  0  0  0  0  0  0  0  0  1 V2000
  150.9685  134.2669  155.7886 C   0  0  0  0  0  0  0  0  0  0  0  0
  150.9442  135.6932  156.2938 C   0  0  0  0  0  0  0  0  0  0  0  0
  150.1869  135.8645  157.4407 N   0  0  0  0  0  0  0  0  0  0  0  0
  150.1060  137.1366  157.9792 C   0  0  0  0  0  0  0  0  0  0  0  0
  149.2584  137.2380  159.2359 C   0  0  0  0  0  0  0  0  0  0  0  0
  150.7435  138.1860  157.4006 C   0  0  0  0  0  0  0  0  0  0  0  0
  150.6728  139.6050  157.9619 C   0  0  0  0  0  0  0  0  0  0  0  0
  152.0210  140.2515  158.2885 C   0  0  0  0  0  0  0  0  0  0  0  0
  153.0691  139.6622  158.0253 O   0  0  0  0  0  0  0  0  0  0  0  0
  151.9745  141.4659  158.8575 N   0  0  0  0  0  0  0  0  0  0  0  0
  153.1248  142.2957  159.2215 C   0  0  1  0  0  0  0  0  0  0  0  0
  152.7943  143.7794  158.9632 C   0  0  0  0  0  0  0  0  0  0  0  0
  151.7521  144.3240  159.9556 C   0  0  0  0  0  0  0  0  0  0  0  0
  152.1979  144.1016  161.4085 C   0  0  0  0  0  0  0  0  0  0  0  0
  152.5090  142.6208  161.6794 C   0  0  0  0  0  0  0  0  0  0  0  0
  153.5600  142.0712  160.6927 C   0  0  1  0  0  0  0  0  0  0  0  0
  153.9150  140.6069  161.0032 C   0  0  0  0  0  0  0  0  0  0  0  0
  151.5334  137.9417  156.1705 C   0  0  0  0  0  0  0  0  0  0  0  0
  152.1243  138.8527  155.5923 O   0  0  0  0  0  0  0  0  0  0  0  0
  151.5891  136.6310  155.6692 N   0  0  0  0  0  0  0  0  0  0  0  0
  149.6936  135.1125  157.9002 H   0  0  0  0  0  0  0  0  0  0  0  0
  151.6918  134.1516  154.9803 H   0  0  0  0  0  0  0  0  0  0  0  0
  149.9857  133.9829  155.4115 H   0  0  0  0  0  0  0  0  0  0  0  0
  151.2438  133.5812  156.5907 H   0  0  0  0  0  0  0  0  0  0  0  0
  149.8607  137.5857  160.0753 H   0  0  0  0  0  0  0  0  0  0  0  0
  148.8293  136.2734  159.5098 H   0  0  0  0  0  0  0  0  0  0  0  0
  148.4363  137.9385  159.0869 H   0  0  0  0  0  0  0  0  0  0  0  0
  150.0542  139.6382  158.8590 H   0  0  0  0  0  0  0  0  0  0  0  0
  150.1453  140.2300  157.2403 H   0  0  0  0  0  0  0  0  0  0  0  0
  151.0634  141.8616  159.0392 H   0  0  0  0  0  0  0  0  0  0  0  0
  153.9682  142.0400  158.5777 H   0  0  0  0  0  0  0  0  0  0  0  0
  153.7079  144.3692  159.0480 H   0  0  0  0  0  0  0  0  0  0  0  0
  152.4420  143.9146  157.9397 H   0  0  0  0  0  0  0  0  0  0  0  0
  151.5906  145.3873  159.7763 H   0  0  0  0  0  0  0  0  0  0  0  0
  150.7911  143.8359  159.7888 H   0  0  0  0  0  0  0  0  0  0  0  0
  153.0835  144.7041  161.6146 H   0  0  0  0  0  0  0  0  0  0  0  0
  151.4228  144.4492  162.0919 H   0  0  0  0  0  0  0  0  0  0  0  0
  152.8667  142.5082  162.7035 H   0  0  0  0  0  0  0  0  0  0  0  0
  151.5910  142.0357  161.6106 H   0  0  0  0  0  0  0  0  0  0  0  0
  154.4731  142.6490  160.8436 H   0  0  0  0  0  0  0  0  0  0  0  0
  153.0425  139.9564  160.9377 H   0  0  0  0  0  0  0  0  0  0  0  0
  154.3211  140.5089  162.0102 H   0  0  0  0  0  0  0  0  0  0  0  0
  154.6655  140.2299  160.3082 H   0  0  0  0  0  0  0  0  0  0  0  0
  1 22  1  0  0  0  0
  1 23  1  0  0  0  0
  1 24  1  0  0  0  0
  1  2  1  0  0  0  0
  2  3  1  0  0  0  0
  2 20  2  0  0  0  0
  3  4  1  0  0  0  0
  3 21  1  0  0  0  0
  4  6  2  0  0  0  0
  4  5  1  0  0  0  0
  5 25  1  0  0  0  0
  5 26  1  0  0  0  0
  5 27  1  0  0  0  0
  6 18  1  0  0  0  0
  6  7  1  0  0  0  0
  7  8  1  0  0  0  0
  7 28  1  0  0  0  0
  7 29  1  0  0  0  0
  8  9  2  0  0  0  0
  8 10  1  0  0  0  0
 10 11  1  0  0  0  0
 10 30  1  0  0  0  0
 11 16  1  0  0  0  0
 11 12  1  0  0  0  0
 11 31  1  0  0  0  0
 12 13  1  0  0  0  0
 12 32  1  0  0  0  0
 12 33  1  0  0  0  0
 13 14  1  0  0  0  0
 13 34  1  0  0  0  0
 13 35  1  0  0  0  0
 14 15  1  0  0  0  0
 14 36  1  0  0  0  0
 14 37  1  0  0  0  0
 15 16  1  0  0  0  0
 15 38  1  0  0  0  0
 15 39  1  0  0  0  0
 16 17  1  0  0  0  0
 16 40  1  0  0  0  0
 17 41  1  0  0  0  0
 17 42  1  0  0  0  0
 17 43  1  0  0  0  0
 18 19  2  0  0  0  0
 18 20  1  0  0  0  0
M  END
> <s_m_source_file>
AV-unprocessed.smi

> <i_m_source_file_index>
1295

> <i_lp_mmshare_version>
43012

> <i_f3d_flags>
0

> <s_epik_input>
W0NIM11jMW5jKFtDSDNdKWMoYyg9TylbbkhdMSlbQ0gyXUMoPU8pW05IXVtDQEBIXTJbQ0gyXVtDSDJdW0NIMl1bQ0gyXVtDQEhdMltDSDNd

> <s_epik_cmdline>
J2VwaWtfcHl0aG9uJywgJy1waCcsICc3LjAnLCAnLXRuJywgJzgnLCAnLW1hJywgJzIwMCcsICctbWV0YWxfYmluZGluZycsICctaW1hZScsICc8aW5maWxlLm1hZT4nLCAnLW9tYWUnLCAnPG91dGZpbGUubWFlPic=

> <r_lp_tautomer_probability>
0.156392

> <r_epik_Ionization_Penalty>
0.0136057

> <r_epik_Ionization_Penalty_Charging>
0.0134742

> <r_epik_Ionization_Penalty_Neutral>
0.000131572

> <r_epik_State_Penalty>
1.15342

> <r_epik_Charging_Adjusted_Penalty>
1.16689

> <i_epik_Tot_Q>
0

> <i_epik_Tot_abs_Q>
0

> <r_epik_Metal_State_Penalty>
1.31351

> <b_epik_Metal_Only>
0

> <s_lp_Force_Field>
OPLS_2005

> <r_lp_Energy>
15.3468

> <b_lp_Chiralities_Consistent>
1

> <s_lp_Variant>
AV-unprocessed.smi:1295-6

> <Gold.Version>
5.8.1

> <Gold.Id.Protein>
6NUR|6NUR_protein|mol2

> <Gold.PLP.Fitness>
44.1926

> <Gold.PLP.PLP>
-38.9335

> <Gold.PLP.part.hbond>
-2.0000

> <Gold.PLP.part.metal>
0.0000

> <Gold.PLP.part.buried>
-6.1602

> <Gold.PLP.part.nonpolar>
-30.2179

> <Gold.PLP.part.repulsive>
0.2683

> <Gold.PLP.ligand.clash>
0.0000

> <Gold.PLP.ligand.torsion>
0.3747

> <Gold.PLP.Chemscore.Hbond>
2.0000

> <Gold.PLP.Chemscore.CHOScore>
0.0000

> <Gold.PLP.Chemscore.Metal>
0.0000

> <Gold.Chemscore.Hbonds>
donor molecule, donor type, donor heavy atom, donor atom, acceptor molecule, acceptor atom, score
      P1  H  7997  8009       L1     9  1.00
      P1  H 10752 10764       L1    20  1.00

> <Gold.PLP.Chemscore.Internal.Correction>
0.0086

> <Gold.Rescore>
     Score         DG    S(hbond)    S(metal)    S(lipo)     H(rot)  DE(clash)    DE(int)     intcor
     16.85     -19.57       1.92        0.00      98.11       1.48       0.08       2.64       ----

> <Gold.Chemscore.Fitness>
16.8496

> <Gold.Chemscore.DG>
-19.5685

> <Gold.Chemscore.ZeroCoef>
-5.4800

> <Gold.Chemscore.Hbond>
1.9159

> <Gold.Chemscore.Metal>
0.0000

> <Gold.Chemscore.Lipo>
98.1066

> <Gold.Chemscore.Internal_Hbond>
0.0000

> <Gold.Chemscore.DEClash>
0.0787

> <Gold.Chemscore.DEInternal>
2.6402

> <Gold.Chemscore.Rot>
1.4801

> <Gold.Chemscore.Internal.Correction>
   9.000000E+99

> <Gold.Chemscore.Hbonds>
donor molecule, donor type, donor heavy atom, donor atom, acceptor molecule, acceptor atom, score
      P1  H  7997  8009       L1     9  1.00
      P1  H 10752 10764       L1    20  0.29

> <Gold.Chemscore.Hbond.Weighted>
-6.3992

> <Gold.Chemscore.Metal.Weighted>
-0.0000

> <Gold.Chemscore.Lipo.Weighted>
-11.4785

> <Gold.Chemscore.Internal_Hbond.Weighted>
0.0000

> <Gold.Chemscore.DEClash.Weighted>
0.0787

> <Gold.Chemscore.DEInternal.Weighted>
2.6402

> <Gold.Chemscore.Rot.Weighted>
3.7891

> <Gold.Chemscore.Internal.Correction.Weighted>
   9.000000E+99

> <Gold.Protein.RotatedTorsions>
[ 6907 6896 6895 6894 ] final  132.01 input  -60.11 | X-H torsion
[ 7974 7965 7964 7962 ] final  117.00 input  175.53 | X-H torsion
[ 8008 7997 7996 7995 ] final  159.85 input   59.86 | X-H torsion
[ 10167 10162 10161 10158 ] final  110.17 input  -65.29 | X-H torsion
[ 10718 10713 10712 10709 ] final  139.31 input   66.30 | X-H torsion
[ 10763 10752 10751 10750 ] final  -52.48 input  -60.55 | X-H torsion
[ 11005 11000 10999 10996 ] final -134.00 input  -57.11 | X-H torsion

> <Gold.Protein.ActiveResidues>
 VAL166  LYS551  ARG553  GLY616  TRP617  ASP618  TYR619  PRO620  LYS621  CYS622 
 ASP623  PHE694  ASN695  SER759  ASP760  ASP761  ALA762  ILE779  LEU786  VAL792 
 PHE793  MET794  SER795  GLU796  ALA797  LYS798  CYS799  TRP800  GLU811  SER814 

> <Gold.Protein.RotatedAtoms>
  152.3368  133.6021  159.5847 H   0  0  0  0  0  0  0  0  0  0  0  0  # atno 6907 bound_to 6896
  150.7455  133.9784  159.3577 H   0  0  0  0  0  0  0  0  0  0  0  0  # atno 6908 bound_to 6896
  151.7652  135.0801  160.0402 H   0  0  0  0  0  0  0  0  0  0  0  0  # atno 6909 bound_to 6896
  145.1728  139.3092  143.4459 H   0  0  0  0  0  0  0  0  0  0  0  0  # atno 7974 bound_to 7965
  156.2211  140.1820  156.7473 H   0  0  0  0  0  0  0  0  0  0  0  0  # atno 8008 bound_to 7997
  154.5868  140.0657  156.9210 H   0  0  0  0  0  0  0  0  0  0  0  0  # atno 8009 bound_to 7997
  155.2406  140.3321  155.4295 H   0  0  0  0  0  0  0  0  0  0  0  0  # atno 8010 bound_to 7997
  139.6709  144.7125  151.1690 H   0  0  0  0  0  0  0  0  0  0  0  0  # atno 10167 bound_to 10162
  157.4157  131.1033  151.0407 H   0  0  0  0  0  0  0  0  0  0  0  0  # atno 10718 bound_to 10713
  154.1434  135.6501  153.4947 H   0  0  0  0  0  0  0  0  0  0  0  0  # atno 10763 bound_to 10752
  153.0159  135.5321  154.6881 H   0  0  0  0  0  0  0  0  0  0  0  0  # atno 10764 bound_to 10752
  154.6149  135.2958  155.0362 H   0  0  0  0  0  0  0  0  0  0  0  0  # atno 10765 bound_to 10752
  140.9030  134.1666  157.4446 H   0  0  0  0  0  0  0  0  0  0  0  0  # atno 11005 bound_to 11000
  146.3466  140.1879  142.8589 LP  0  0  0  0  0  0  0  0  0  0  0  0  # atno 17320 bound_to 7965
  145.0216  140.8798  143.5163 LP  0  0  0  0  0  0  0  0  0  0  0  0  # atno 17321 bound_to 7965
  140.7617  143.5846  150.8859 LP  0  0  0  0  0  0  0  0  0  0  0  0  # atno 17342 bound_to 10162
  139.9511  143.6271  152.3029 LP  0  0  0  0  0  0  0  0  0  0  0  0  # atno 17343 bound_to 10162
  157.1355  130.6120  149.5541 LP  0  0  0  0  0  0  0  0  0  0  0  0  # atno 17370 bound_to 10713
  155.9864  130.4899  150.7079 LP  0  0  0  0  0  0  0  0  0  0  0  0  # atno 17371 bound_to 10713
  139.8745  134.9905  156.5508 LP  0  0  0  0  0  0  0  0  0  0  0  0  # atno 17394 bound_to 11000
  140.8206  133.8356  155.8892 LP  0  0  0  0  0  0  0  0  0  0  0  0  # atno 17395 bound_to 11000

$$$$
