AV-unprocessed.smi:1554|AV-procd|sdf|6254|dock1
  -GOLD-   22720 6433D 1   1.00000     0.00000
 Structure written by MMmdl.
 48 50  0  0  0  0  0  0  0  0  2 V2000
  152.4009  144.5174  160.1764 C   0  0  0  0  0  0  0  0  0  0  0  0
  152.1576  143.3634  159.2187 C   0  0  0  0  0  0  0  0  0  0  0  0
  151.2910  143.5689  158.1217 C   0  0  0  0  0  0  0  0  0  0  0  0
  151.0876  142.4945  157.2638 C   0  0  0  0  0  0  0  0  0  0  0  0
  150.3045  142.3796  156.1134 N   0  3  0  0  0  0  0  0  0  0  0  0
  150.4213  141.1206  155.6080 C   0  0  0  0  0  0  0  0  0  0  0  0
  151.2677  140.4294  156.4186 N   0  0  0  0  0  0  0  0  0  0  0  0
  151.7227  139.0349  156.3221 C   0  0  0  0  0  0  0  0  0  0  0  0
  151.9668  138.5871  154.8660 C   0  0  2  0  0  0  0  0  0  0  0  0
  151.7881  137.1889  154.7631 O   0  0  0  0  0  0  0  0  0  0  0  0
  153.3911  138.9134  154.3743 C   0  0  0  0  0  0  0  0  0  0  0  0
  154.4296  137.9618  154.7707 N   0  0  0  0  0  0  0  0  0  0  0  0
  154.6389  137.9262  156.2164 C   0  0  0  0  0  0  0  0  0  0  0  0
  155.7566  136.9458  156.6104 C   0  0  0  0  0  0  0  0  0  0  0  0
  156.9579  137.2876  155.9274 O   0  0  0  0  0  0  0  0  0  0  0  0
  156.8113  137.2843  154.5102 C   0  0  2  0  0  0  0  0  0  0  0  0
  158.1603  137.6554  153.8856 C   0  0  0  0  0  0  0  0  0  0  0  0
  155.6971  138.2741  154.1186 C   0  0  0  0  0  0  0  0  0  0  0  0
  151.7112  141.2474  157.4651 C   0  0  0  0  0  0  0  0  0  0  0  0
  152.5684  141.0290  158.5412 C   0  0  0  0  0  0  0  0  0  0  0  0
  152.7894  142.1097  159.4246 C   0  0  0  0  0  0  0  0  0  0  0  0
  153.7207  141.9001  160.6065 C   0  0  0  0  0  0  0  0  0  0  0  0
  151.8030  145.3897  159.9103 H   0  0  0  0  0  0  0  0  0  0  0  0
  153.4498  144.8136  160.1584 H   0  0  0  0  0  0  0  0  0  0  0  0
  152.1377  144.2340  161.1957 H   0  0  0  0  0  0  0  0  0  0  0  0
  150.8065  144.5206  157.9585 H   0  0  0  0  0  0  0  0  0  0  0  0
  149.9303  140.7385  154.7245 H   0  0  0  0  0  0  0  0  0  0  0  0
  152.6506  138.9671  156.8917 H   0  0  0  0  0  0  0  0  0  0  0  0
  151.0093  138.3833  156.8268 H   0  0  0  0  0  0  0  0  0  0  0  0
  151.2250  139.0459  154.2130 H   0  0  0  0  0  0  0  0  0  0  0  0
  150.8905  137.0180  154.5234 H   0  0  0  0  0  0  0  0  0  0  0  0
  153.3625  138.9729  153.2851 H   0  0  0  0  0  0  0  0  0  0  0  0
  153.6711  139.9109  154.7176 H   0  0  0  0  0  0  0  0  0  0  0  0
  154.8899  138.9241  156.5792 H   0  0  0  0  0  0  0  0  0  0  0  0
  153.7236  137.6284  156.7263 H   0  0  0  0  0  0  0  0  0  0  0  0
  155.9348  136.9856  157.6852 H   0  0  0  0  0  0  0  0  0  0  0  0
  155.4725  135.9201  156.3701 H   0  0  0  0  0  0  0  0  0  0  0  0
  156.5385  136.2788  154.1846 H   0  0  0  0  0  0  0  0  0  0  0  0
  158.1019  137.6573  152.7969 H   0  0  0  0  0  0  0  0  0  0  0  0
  158.9327  136.9428  154.1755 H   0  0  0  0  0  0  0  0  0  0  0  0
  158.4836  138.6463  154.2059 H   0  0  0  0  0  0  0  0  0  0  0  0
  155.5673  138.2580  153.0358 H   0  0  0  0  0  0  0  0  0  0  0  0
  156.0052  139.2881  154.3794 H   0  0  0  0  0  0  0  0  0  0  0  0
  153.0460  140.0743  158.7033 H   0  0  0  0  0  0  0  0  0  0  0  0
  154.1516  140.8983  160.6025 H   0  0  0  0  0  0  0  0  0  0  0  0
  153.1813  142.0270  161.5453 H   0  0  0  0  0  0  0  0  0  0  0  0
  154.5434  142.6149  160.5788 H   0  0  0  0  0  0  0  0  0  0  0  0
  149.7304  143.1046  155.7024 H   0  0  0  0  0  0  0  0  0  0  0  0
  1  2  1  0  0  0  0
  1 23  1  0  0  0  0
  1 24  1  0  0  0  0
  1 25  1  0  0  0  0
  2 21  1  0  0  0  0
  2  3  2  0  0  0  0
  3  4  1  0  0  0  0
  3 26  1  0  0  0  0
  4 19  2  0  0  0  0
  4  5  1  0  0  0  0
  5  6  2  0  0  0  0
  5 48  1  0  0  0  0
  6  7  1  0  0  0  0
  6 27  1  0  0  0  0
  7  8  1  0  0  0  0
  7 19  1  0  0  0  0
  8  9  1  0  0  0  0
  8 28  1  0  0  0  0
  8 29  1  0  0  0  0
  9 10  1  0  0  0  0
  9 11  1  0  0  0  0
  9 30  1  0  0  0  0
 10 31  1  0  0  0  0
 11 12  1  0  0  0  0
 11 32  1  0  0  0  0
 11 33  1  0  0  0  0
 12 18  1  0  0  0  0
 12 13  1  0  0  0  0
 13 14  1  0  0  0  0
 13 34  1  0  0  0  0
 13 35  1  0  0  0  0
 14 15  1  0  0  0  0
 14 36  1  0  0  0  0
 14 37  1  0  0  0  0
 15 16  1  0  0  0  0
 16 17  1  0  0  0  0
 16 18  1  0  0  0  0
 16 38  1  0  0  0  0
 17 39  1  0  0  0  0
 17 40  1  0  0  0  0
 17 41  1  0  0  0  0
 18 42  1  0  0  0  0
 18 43  1  0  0  0  0
 19 20  1  0  0  0  0
 20 21  2  0  0  0  0
 20 44  1  0  0  0  0
 21 22  1  0  0  0  0
 22 45  1  0  0  0  0
 22 46  1  0  0  0  0
 22 47  1  0  0  0  0
M  CHG  1   5   1
M  END
> <s_m_source_file>
AV-unprocessed.smi

> <i_m_source_file_index>
1554

> <i_lp_mmshare_version>
43012

> <i_f3d_flags>
0

> <s_epik_input>
W0NIM11jKFtjSF0xKWMoW0NIM10pW2NIXWMoYzEyKW4oW2NIXW4yKVtDSDJdW0NASF0oW09IXSlbQ0gyXU4zW0NIMl1bQ0gyXU9bQ0BASF0oW0NIM10pW0NIMl0z

> <s_epik_cmdline>
J2VwaWtfcHl0aG9uJywgJy1waCcsICc3LjAnLCAnLXRuJywgJzgnLCAnLW1hJywgJzIwMCcsICctbWV0YWxfYmluZGluZycsICctaW1hZScsICc8aW5maWxlLm1hZT4nLCAnLW9tYWUnLCAnPG91dGZpbGUubWFlPic=

> <r_epik_Ionization_Penalty>
1.42504

> <r_epik_Ionization_Penalty_Charging>
1.21068

> <r_epik_Ionization_Penalty_Neutral>
0.214359

> <r_epik_State_Penalty>
1.46962

> <r_epik_Charging_Adjusted_Penalty>
2.6803

> <i_epik_Tot_Q>
1

> <i_epik_Tot_abs_Q>
1

> <r_epik_Metal_State_Penalty>
5.48754

> <b_epik_Metal_Only>
0

> <s_lp_Force_Field>
OPLS_2005

> <r_lp_Energy>
32.4448

> <b_lp_Chiralities_Consistent>
1

> <s_lp_Variant>
AV-unprocessed.smi:1554-15

> <Gold.Version>
5.8.1

> <Gold.Id.Protein>
6NUR|6NUR_protein|mol2

> <Gold.PLP.Fitness>
52.6259

> <Gold.PLP.PLP>
-45.2451

> <Gold.PLP.part.hbond>
-4.0000

> <Gold.PLP.part.metal>
0.0000

> <Gold.PLP.part.buried>
0.5174

> <Gold.PLP.part.nonpolar>
-42.0545

> <Gold.PLP.part.repulsive>
0.1865

> <Gold.PLP.ligand.clash>
0.0000

> <Gold.PLP.ligand.torsion>
0.8566

> <Gold.PLP.Chemscore.Hbond>
2.9920

> <Gold.PLP.Chemscore.CHOScore>
0.0000

> <Gold.PLP.Chemscore.Metal>
0.0000

> <Gold.Chemscore.Hbonds>
donor molecule, donor type, donor heavy atom, donor atom, acceptor molecule, acceptor atom, score
      L1  H     5    48       P1  8028  2.00
      P1  H 10752 10763       L1    10  1.00

> <Gold.PLP.Chemscore.Internal.Correction>
0.1181

> <Gold.Rescore>
     Score         DG    S(hbond)    S(metal)    S(lipo)     H(rot)  DE(clash)    DE(int)     intcor
     20.64     -22.94       1.86        0.00     140.84       2.04       1.45       0.84       ----

> <Gold.Chemscore.Fitness>
20.6435

> <Gold.Chemscore.DG>
-22.9403

> <Gold.Chemscore.ZeroCoef>
-5.4800

> <Gold.Chemscore.Hbond>
1.8597

> <Gold.Chemscore.Metal>
0.0000

> <Gold.Chemscore.Lipo>
140.8413

> <Gold.Chemscore.Internal_Hbond>
0.0000

> <Gold.Chemscore.DEClash>
1.4543

> <Gold.Chemscore.DEInternal>
0.8424

> <Gold.Chemscore.Rot>
2.0427

> <Gold.Chemscore.Internal.Correction>
   9.000000E+99

> <Gold.Chemscore.Hbonds>
donor molecule, donor type, donor heavy atom, donor atom, acceptor molecule, acceptor atom, score
      L1  H     5    48       P1  8028  0.98
      P1  H 10752 10763       L1    10  0.77

> <Gold.Chemscore.Hbond.Weighted>
-6.2113

> <Gold.Chemscore.Metal.Weighted>
-0.0000

> <Gold.Chemscore.Lipo.Weighted>
-16.4784

> <Gold.Chemscore.Internal_Hbond.Weighted>
0.0000

> <Gold.Chemscore.DEClash.Weighted>
1.4543

> <Gold.Chemscore.DEInternal.Weighted>
0.8424

> <Gold.Chemscore.Rot.Weighted>
5.2294

> <Gold.Chemscore.Internal.Correction.Weighted>
   9.000000E+99

> <Gold.Protein.RotatedTorsions>
[ 6907 6896 6895 6894 ] final  114.12 input  -60.11 | X-H torsion
[ 7974 7965 7964 7962 ] final  166.15 input  175.53 | X-H torsion
[ 8008 7997 7996 7995 ] final  139.01 input   59.86 | X-H torsion
[ 10167 10162 10161 10158 ] final  128.38 input  -65.29 | X-H torsion
[ 10718 10713 10712 10709 ] final -178.54 input   66.30 | X-H torsion
[ 10763 10752 10751 10750 ] final   53.53 input  -60.55 | X-H torsion
[ 11005 11000 10999 10996 ] final  -55.83 input  -57.11 | X-H torsion

> <Gold.Protein.ActiveResidues>
 VAL166  LYS551  ARG553  GLY616  TRP617  ASP618  TYR619  PRO620  LYS621  CYS622 
 ASP623  PHE694  ASN695  SER759  ASP760  ASP761  ALA762  ILE779  LEU786  VAL792 
 PHE793  MET794  SER795  GLU796  ALA797  LYS798  CYS799  TRP800  GLU811  SER814 

> <Gold.Protein.RotatedAtoms>
  152.4821  133.8281  159.7088 H   0  0  0  0  0  0  0  0  0  0  0  0  # atno 6907 bound_to 6896
  150.8879  133.7273  159.2919 H   0  0  0  0  0  0  0  0  0  0  0  0  # atno 6908 bound_to 6896
  151.4756  135.1052  159.9816 H   0  0  0  0  0  0  0  0  0  0  0  0  # atno 6909 bound_to 6896
  144.7474  139.8574  143.6378 H   0  0  0  0  0  0  0  0  0  0  0  0  # atno 7974 bound_to 7965
  156.2993  140.2378  156.4168 H   0  0  0  0  0  0  0  0  0  0  0  0  # atno 8008 bound_to 7997
  154.8391  140.0429  157.1549 H   0  0  0  0  0  0  0  0  0  0  0  0  # atno 8009 bound_to 7997
  154.9122  140.2992  155.5264 H   0  0  0  0  0  0  0  0  0  0  0  0  # atno 8010 bound_to 7997
  139.5530  144.6828  151.4266 H   0  0  0  0  0  0  0  0  0  0  0  0  # atno 10167 bound_to 10162
  156.8458  130.9702  151.3096 H   0  0  0  0  0  0  0  0  0  0  0  0  # atno 10718 bound_to 10713
  152.9796  135.5776  154.4756 H   0  0  0  0  0  0  0  0  0  0  0  0  # atno 10763 bound_to 10752
  154.4312  135.2773  155.1913 H   0  0  0  0  0  0  0  0  0  0  0  0  # atno 10764 bound_to 10752
  154.3620  135.6186  153.5749 H   0  0  0  0  0  0  0  0  0  0  0  0  # atno 10765 bound_to 10752
  141.1092  133.6611  156.4529 H   0  0  0  0  0  0  0  0  0  0  0  0  # atno 11005 bound_to 11000
  146.1373  139.4421  143.0131 LP  0  0  0  0  0  0  0  0  0  0  0  0  # atno 17320 bound_to 7965
  145.7072  141.0117  143.1472 LP  0  0  0  0  0  0  0  0  0  0  0  0  # atno 17321 bound_to 7965
  140.6797  143.8110  150.7105 LP  0  0  0  0  0  0  0  0  0  0  0  0  # atno 17342 bound_to 10162
  140.1559  143.4317  152.2100 LP  0  0  0  0  0  0  0  0  0  0  0  0  # atno 17343 bound_to 10162
  157.6331  130.8745  149.9309 LP  0  0  0  0  0  0  0  0  0  0  0  0  # atno 17370 bound_to 10713
  156.0855  130.3668  150.0495 LP  0  0  0  0  0  0  0  0  0  0  0  0  # atno 17371 bound_to 10713
  140.4820  134.6655  157.5175 LP  0  0  0  0  0  0  0  0  0  0  0  0  # atno 17394 bound_to 11000
  139.9977  134.6885  155.9581 LP  0  0  0  0  0  0  0  0  0  0  0  0  # atno 17395 bound_to 11000

$$$$
