AV-unprocessed.smi:3219|AV-procd|sdf|12296|dock8
  -GOLD-   2272018143D 1   1.00000     0.00000
 Structure written by MMmdl.
 41 42  0  0  0  0  0  0  0  0  2 V2000
  149.1339  138.3116  155.2161 C   0  0  0  0  0  0  0  0  0  0  0  0
  148.5510  139.4740  154.4783 C   0  0  0  0  0  0  0  0  0  0  0  0
  147.5126  139.5421  153.5874 C   0  0  0  0  0  0  0  0  0  0  0  0
  146.6187  138.4412  153.0774 C   0  0  0  0  0  0  0  0  0  0  0  0
  146.5511  138.4220  151.5428 C   0  0  0  0  0  0  0  0  0  0  0  0
  146.4138  137.0448  151.0291 N   0  3  0  0  0  0  0  0  0  0  0  0
  145.2327  136.3196  151.5348 C   0  0  0  0  0  0  0  0  0  0  0  0
  145.0759  134.9554  150.8394 C   0  0  1  0  0  0  0  0  0  0  0  0
  146.3560  134.0942  150.9621 C   0  0  0  0  0  0  0  0  0  0  0  0
  146.1343  132.6518  150.5428 C   0  0  0  0  0  0  0  0  0  0  0  0
  144.9171  132.1046  150.3887 C   0  0  0  0  0  0  0  0  0  0  0  0
  143.6259  132.8657  150.6238 C   0  0  0  0  0  0  0  0  0  0  0  0
  143.8577  134.1849  151.3839 C   0  0  0  0  0  0  0  0  0  0  0  0
  147.4523  140.9229  153.2460 C   0  0  0  0  0  0  0  0  0  0  0  0
  148.3625  141.6465  153.8717 N   0  0  0  0  0  0  0  0  0  0  0  0
  149.0401  140.7581  154.6271 N   0  0  0  0  0  0  0  0  0  0  0  0
  150.1333  141.2205  155.4602 C   0  0  0  0  0  0  0  0  0  0  0  0
  148.5263  137.4159  155.0907 H   0  0  0  0  0  0  0  0  0  0  0  0
  149.1990  138.5209  156.2842 H   0  0  0  0  0  0  0  0  0  0  0  0
  150.1373  138.0888  154.8532 H   0  0  0  0  0  0  0  0  0  0  0  0
  146.9807  137.4724  153.4229 H   0  0  0  0  0  0  0  0  0  0  0  0
  145.6112  138.5340  153.4842 H   0  0  0  0  0  0  0  0  0  0  0  0
  145.7066  139.0234  151.2026 H   0  0  0  0  0  0  0  0  0  0  0  0
  147.4531  138.8701  151.1245 H   0  0  0  0  0  0  0  0  0  0  0  0
  146.3688  137.0763  150.0207 H   0  0  0  0  0  0  0  0  0  0  0  0
  145.3190  136.1853  152.6142 H   0  0  0  0  0  0  0  0  0  0  0  0
  144.3485  136.9337  151.3585 H   0  0  0  0  0  0  0  0  0  0  0  0
  144.8906  135.1378  149.7792 H   0  0  0  0  0  0  0  0  0  0  0  0
  147.1530  134.5162  150.3488 H   0  0  0  0  0  0  0  0  0  0  0  0
  146.7177  134.0883  151.9911 H   0  0  0  0  0  0  0  0  0  0  0  0
  147.0168  132.0513  150.3769 H   0  0  0  0  0  0  0  0  0  0  0  0
  144.8260  131.0750  150.0748 H   0  0  0  0  0  0  0  0  0  0  0  0
  143.1686  133.0634  149.6536 H   0  0  0  0  0  0  0  0  0  0  0  0
  142.9317  132.2343  151.1791 H   0  0  0  0  0  0  0  0  0  0  0  0
  144.0134  133.9689  152.4420 H   0  0  0  0  0  0  0  0  0  0  0  0
  142.9578  134.7984  151.3260 H   0  0  0  0  0  0  0  0  0  0  0  0
  146.7717  141.4184  152.5692 H   0  0  0  0  0  0  0  0  0  0  0  0
  151.0436  140.6772  155.2060 H   0  0  0  0  0  0  0  0  0  0  0  0
  149.8939  141.0447  156.5092 H   0  0  0  0  0  0  0  0  0  0  0  0
  150.3069  142.2876  155.3122 H   0  0  0  0  0  0  0  0  0  0  0  0
  147.2388  136.5276  151.2988 H   0  0  0  0  0  0  0  0  0  0  0  0
  1  2  1  0  0  0  0
  1 18  1  0  0  0  0
  1 19  1  0  0  0  0
  1 20  1  0  0  0  0
  2 16  1  0  0  0  0
  2  3  2  0  0  0  0
  3  4  1  0  0  0  0
  3 14  1  0  0  0  0
  4  5  1  0  0  0  0
  4 21  1  0  0  0  0
  4 22  1  0  0  0  0
  5  6  1  0  0  0  0
  5 23  1  0  0  0  0
  5 24  1  0  0  0  0
  6  7  1  0  0  0  0
  6 25  1  0  0  0  0
  6 41  1  0  0  0  0
  7  8  1  0  0  0  0
  7 26  1  0  0  0  0
  7 27  1  0  0  0  0
  8 13  1  0  0  0  0
  8  9  1  0  0  0  0
  8 28  1  0  0  0  0
  9 10  1  0  0  0  0
  9 29  1  0  0  0  0
  9 30  1  0  0  0  0
 10 11  2  0  0  0  0
 10 31  1  0  0  0  0
 11 12  1  0  0  0  0
 11 32  1  0  0  0  0
 12 13  1  0  0  0  0
 12 33  1  0  0  0  0
 12 34  1  0  0  0  0
 13 35  1  0  0  0  0
 13 36  1  0  0  0  0
 14 15  2  0  0  0  0
 14 37  1  0  0  0  0
 15 16  1  0  0  0  0
 16 17  1  0  0  0  0
 17 38  1  0  0  0  0
 17 39  1  0  0  0  0
 17 40  1  0  0  0  0
M  CHG  1   6   1
M  END
> <s_m_source_file>
AV-unprocessed.smi

> <i_m_source_file_index>
3219

> <i_lp_mmshare_version>
43012

> <i_f3d_flags>
0

> <s_epik_input>
W0NIM11uMW5bY0hdYyhjMVtDSDNdKVtDSDJdW0NIMl1bTkhdW0NIMl1bQ0BASF0yW0NIMl1bQ0hdPVtDSF1bQ0gyXVtDSDJdMg==

> <s_epik_cmdline>
J2VwaWtfcHl0aG9uJywgJy1waCcsICc3LjAnLCAnLXRuJywgJzgnLCAnLW1hJywgJzIwMCcsICctbWV0YWxfYmluZGluZycsICctaW1hZScsICc8aW5maWxlLm1hZT4nLCAnLW9tYWUnLCAnPG91dGZpbGUubWFlPic=

> <r_lp_tautomer_probability>
1

> <r_epik_Ionization_Penalty>
0.000661401

> <r_epik_Ionization_Penalty_Charging>
0.00057791

> <r_epik_Ionization_Penalty_Neutral>
8.34914e-05

> <r_epik_State_Penalty>
-0

> <r_epik_Charging_Adjusted_Penalty>
0.00057791

> <i_epik_Tot_Q>
1

> <i_epik_Tot_abs_Q>
1

> <r_epik_Metal_State_Penalty>
-0

> <b_epik_Metal_Only>
0

> <s_lp_Force_Field>
OPLS_2005

> <r_lp_Energy>
9.67125

> <b_lp_Chiralities_Consistent>
1

> <s_lp_Variant>
AV-unprocessed.smi:3219-2

> <Gold.Version>
5.8.1

> <Gold.Id.Protein>
6NUR|6NUR_protein|mol2

> <Gold.PLP.Fitness>
44.4951

> <Gold.PLP.PLP>
-38.0614

> <Gold.PLP.part.hbond>
-2.5230

> <Gold.PLP.part.metal>
0.0000

> <Gold.PLP.part.buried>
-1.7694

> <Gold.PLP.part.nonpolar>
-32.6130

> <Gold.PLP.part.repulsive>
0.2893

> <Gold.PLP.ligand.clash>
0.0000

> <Gold.PLP.ligand.torsion>
0.3043

> <Gold.PLP.Chemscore.Hbond>
2.3367

> <Gold.PLP.Chemscore.CHOScore>
0.0000

> <Gold.PLP.Chemscore.Metal>
0.0000

> <Gold.Chemscore.Hbonds>
donor molecule, donor type, donor heavy atom, donor atom, acceptor molecule, acceptor atom, score
      L1  H     6    41       P1  7948  2.00
      P1  H  8011  8017       L1    15  0.29

> <Gold.PLP.Chemscore.Internal.Correction>
0.0323

> <Gold.Rescore>
     Score         DG    S(hbond)    S(metal)    S(lipo)     H(rot)  DE(clash)    DE(int)     intcor
     16.61     -17.37       1.24        0.00      98.05       1.46       0.46       0.31       ----

> <Gold.Chemscore.Fitness>
16.6052

> <Gold.Chemscore.DG>
-17.3690

> <Gold.Chemscore.ZeroCoef>
-5.4800

> <Gold.Chemscore.Hbond>
1.2436

> <Gold.Chemscore.Metal>
0.0000

> <Gold.Chemscore.Lipo>
98.0512

> <Gold.Chemscore.Internal_Hbond>
0.0000

> <Gold.Chemscore.DEClash>
0.4573

> <Gold.Chemscore.DEInternal>
0.3064

> <Gold.Chemscore.Rot>
1.4597

> <Gold.Chemscore.Internal.Correction>
   9.000000E+99

> <Gold.Chemscore.Hbonds>
donor molecule, donor type, donor heavy atom, donor atom, acceptor molecule, acceptor atom, score
      L1  H     6    41       P1  7948  0.99
      P1  H  8011  8017       L1    15  0.12

> <Gold.Chemscore.Hbond.Weighted>
-4.1537

> <Gold.Chemscore.Metal.Weighted>
-0.0000

> <Gold.Chemscore.Lipo.Weighted>
-11.4720

> <Gold.Chemscore.Internal_Hbond.Weighted>
0.0000

> <Gold.Chemscore.DEClash.Weighted>
0.4573

> <Gold.Chemscore.DEInternal.Weighted>
0.3064

> <Gold.Chemscore.Rot.Weighted>
3.7368

> <Gold.Chemscore.Internal.Correction.Weighted>
   9.000000E+99

> <Gold.Protein.RotatedTorsions>
[ 6907 6896 6895 6894 ] final  -67.73 input  -60.11 | X-H torsion
[ 7974 7965 7964 7962 ] final  -27.90 input  175.53 | X-H torsion
[ 8008 7997 7996 7995 ] final -173.65 input   59.86 | X-H torsion
[ 10167 10162 10161 10158 ] final  169.58 input  -65.29 | X-H torsion
[ 10718 10713 10712 10709 ] final   40.58 input   66.30 | X-H torsion
[ 10763 10752 10751 10750 ] final -129.43 input  -60.55 | X-H torsion
[ 11005 11000 10999 10996 ] final  -39.34 input  -57.11 | X-H torsion

> <Gold.Protein.ActiveResidues>
 VAL166  LYS551  ARG553  GLY616  TRP617  ASP618  TYR619  PRO620  LYS621  CYS622 
 ASP623  PHE694  ASN695  SER759  ASP760  ASP761  ALA762  ILE779  LEU786  VAL792 
 PHE793  MET794  SER795  GLU796  ALA797  LYS798  CYS799  TRP800  GLU811  SER814 

> <Gold.Protein.RotatedAtoms>
  150.7394  134.5839  159.5952 H   0  0  0  0  0  0  0  0  0  0  0  0  # atno 6907 bound_to 6896
  152.3245  134.7335  160.0314 H   0  0  0  0  0  0  0  0  0  0  0  0  # atno 6908 bound_to 6896
  151.7839  133.3316  159.3516 H   0  0  0  0  0  0  0  0  0  0  0  0  # atno 6909 bound_to 6896
  146.1325  140.5213  142.8687 H   0  0  0  0  0  0  0  0  0  0  0  0  # atno 7974 bound_to 7965
  155.9601  140.1143  157.0903 H   0  0  0  0  0  0  0  0  0  0  0  0  # atno 8008 bound_to 7997
  154.4130  140.1183  156.5234 H   0  0  0  0  0  0  0  0  0  0  0  0  # atno 8009 bound_to 7997
  155.6732  140.3473  155.4828 H   0  0  0  0  0  0  0  0  0  0  0  0  # atno 8010 bound_to 7997
  139.4996  144.3690  151.9744 H   0  0  0  0  0  0  0  0  0  0  0  0  # atno 10167 bound_to 10162
  157.3837  130.7768  149.7213 H   0  0  0  0  0  0  0  0  0  0  0  0  # atno 10718 bound_to 10713
  154.8757  135.3895  154.3919 H   0  0  0  0  0  0  0  0  0  0  0  0  # atno 10763 bound_to 10752
  153.4654  135.7029  153.6030 H   0  0  0  0  0  0  0  0  0  0  0  0  # atno 10764 bound_to 10752
  153.4511  135.3833  155.2252 H   0  0  0  0  0  0  0  0  0  0  0  0  # atno 10765 bound_to 10752
  141.0094  133.6915  156.2173 H   0  0  0  0  0  0  0  0  0  0  0  0  # atno 11005 bound_to 11000
  144.7706  140.5628  143.6673 LP  0  0  0  0  0  0  0  0  0  0  0  0  # atno 17320 bound_to 7965
  145.5228  139.1476  143.3543 LP  0  0  0  0  0  0  0  0  0  0  0  0  # atno 17321 bound_to 7965
  140.3126  144.3520  150.6030 LP  0  0  0  0  0  0  0  0  0  0  0  0  # atno 17342 bound_to 10162
  140.5786  143.2174  151.7469 LP  0  0  0  0  0  0  0  0  0  0  0  0  # atno 17343 bound_to 10162
  155.9782  130.4054  150.3665 LP  0  0  0  0  0  0  0  0  0  0  0  0  # atno 17370 bound_to 10713
  157.1773  131.0383  151.2766 LP  0  0  0  0  0  0  0  0  0  0  0  0  # atno 17371 bound_to 10713
  140.6758  134.4820  157.5588 LP  0  0  0  0  0  0  0  0  0  0  0  0  # atno 17394 bound_to 11000
  139.9081  134.8403  156.1628 LP  0  0  0  0  0  0  0  0  0  0  0  0  # atno 17395 bound_to 11000

$$$$
