AV-unprocessed.smi:1805|AV-procd|sdf|7297|dock3
  -GOLD-   22720 8553D 1   1.00000     0.00000
 Structure written by MMmdl.
 29 30  0  0  0  0  0  0  0  0  1 V2000
  150.2134  140.4398  156.1967 O   0  0  0  0  0  0  0  0  0  0  0  0
  149.9141  141.6297  156.0941 C   0  0  0  0  0  0  0  0  0  0  0  0
  150.5291  142.6118  156.7677 N   0  0  0  0  0  0  0  0  0  0  0  0
  151.6184  142.4224  157.7190 C   0  0  0  0  0  0  0  0  0  0  0  0
  151.9011  143.7072  158.5144 C   0  0  2  0  0  0  0  0  0  0  0  0
  152.5781  143.4612  159.8620 C   0  0  0  0  0  0  0  0  0  0  0  0
  152.1618  144.6604  160.7010 C   0  0  0  0  0  0  0  0  0  0  0  0
  151.0307  145.3064  159.8963 C   0  0  0  0  0  0  0  0  0  0  0  0
  150.6973  144.3517  158.8996 O   0  0  0  0  0  0  0  0  0  0  0  0
  148.9425  142.1155  155.3041 N   0  0  0  0  0  0  0  0  0  0  0  0
  148.0891  141.3842  154.4398 C   0  0  0  0  0  0  0  0  0  0  0  0
  148.3153  140.0445  154.0223 C   0  0  0  0  0  0  0  0  0  0  0  0
  147.3517  139.6194  153.2177 N   0  0  0  0  0  0  0  0  0  0  0  0
  146.5126  140.6749  153.1177 N   0  0  0  0  0  0  0  0  0  0  0  0
  146.9214  141.7714  153.8445 C   0  0  0  0  0  0  0  0  0  0  0  0
  145.6741  140.6324  152.5561 H   0  0  0  0  0  0  0  0  0  0  0  0
  150.2156  143.5596  156.6189 H   0  0  0  0  0  0  0  0  0  0  0  0
  151.4105  141.5877  158.3908 H   0  0  0  0  0  0  0  0  0  0  0  0
  152.5058  142.1454  157.1494 H   0  0  0  0  0  0  0  0  0  0  0  0
  152.5022  144.3993  157.9211 H   0  0  0  0  0  0  0  0  0  0  0  0
  152.1915  142.5485  160.3179 H   0  0  0  0  0  0  0  0  0  0  0  0
  153.6601  143.3593  159.7743 H   0  0  0  0  0  0  0  0  0  0  0  0
  151.8206  144.3418  161.6864 H   0  0  0  0  0  0  0  0  0  0  0  0
  152.9856  145.3612  160.8410 H   0  0  0  0  0  0  0  0  0  0  0  0
  150.1650  145.5528  160.5115 H   0  0  0  0  0  0  0  0  0  0  0  0
  151.3775  146.2211  159.4135 H   0  0  0  0  0  0  0  0  0  0  0  0
  148.8011  143.1150  155.3191 H   0  0  0  0  0  0  0  0  0  0  0  0
  149.1296  139.3799  154.2713 H   0  0  0  0  0  0  0  0  0  0  0  0
  146.3586  142.6928  153.8674 H   0  0  0  0  0  0  0  0  0  0  0  0
  1  2  2  0  0  0  0
  2  3  1  0  0  0  0
  2 10  1  0  0  0  0
  3  4  1  0  0  0  0
  3 17  1  0  0  0  0
  4  5  1  0  0  0  0
  4 18  1  0  0  0  0
  4 19  1  0  0  0  0
  5  9  1  0  0  0  0
  5  6  1  0  0  0  0
  5 20  1  0  0  0  0
  6  7  1  0  0  0  0
  6 21  1  0  0  0  0
  6 22  1  0  0  0  0
  7  8  1  0  0  0  0
  7 23  1  0  0  0  0
  7 24  1  0  0  0  0
  8  9  1  0  0  0  0
  8 25  1  0  0  0  0
  8 26  1  0  0  0  0
 10 11  1  0  0  0  0
 10 27  1  0  0  0  0
 11 15  2  0  0  0  0
 11 12  1  0  0  0  0
 12 13  2  0  0  0  0
 12 28  1  0  0  0  0
 13 14  1  0  0  0  0
 14 16  1  0  0  0  0
 14 15  1  0  0  0  0
 15 29  1  0  0  0  0
M  END
> <s_m_source_file>
AV-unprocessed.smi

> <i_m_source_file_index>
1805

> <i_lp_mmshare_version>
43012

> <i_f3d_flags>
0

> <s_epik_input>
W2NIXTFbbkhdbltjSF1jMVtOSF1DKD1PKVtOSF1bQ0gyXVtDQEBIXTJbQ0gyXVtDSDJdW0NIMl1PMg==

> <s_epik_cmdline>
J2VwaWtfcHl0aG9uJywgJy1waCcsICc3LjAnLCAnLXRuJywgJzgnLCAnLW1hJywgJzIwMCcsICctbWV0YWxfYmluZGluZycsICctaW1hZScsICc8aW5maWxlLm1hZT4nLCAnLW9tYWUnLCAnPG91dGZpbGUubWFlPic=

> <r_lp_tautomer_probability>
1

> <r_epik_Ionization_Penalty>
4.81496e-05

> <r_epik_Ionization_Penalty_Charging>
0

> <r_epik_Ionization_Penalty_Neutral>
4.81496e-05

> <r_epik_State_Penalty>
-0

> <r_epik_Charging_Adjusted_Penalty>
0

> <i_epik_Tot_Q>
0

> <i_epik_Tot_abs_Q>
0

> <r_epik_Metal_State_Penalty>
-0

> <b_epik_Metal_Only>
0

> <s_lp_Force_Field>
OPLS_2005

> <r_lp_Energy>
19.369

> <b_lp_Chiralities_Consistent>
1

> <s_lp_Variant>
AV-unprocessed.smi:1805-1

> <Gold.Version>
5.8.1

> <Gold.Id.Protein>
6NUR|6NUR_protein|mol2

> <Gold.PLP.Fitness>
40.2022

> <Gold.PLP.PLP>
-32.0781

> <Gold.PLP.part.hbond>
-3.0000

> <Gold.PLP.part.metal>
0.0000

> <Gold.PLP.part.buried>
-6.3588

> <Gold.PLP.part.nonpolar>
-23.7786

> <Gold.PLP.part.repulsive>
1.0287

> <Gold.PLP.ligand.clash>
0.0000

> <Gold.PLP.ligand.torsion>
0.3217

> <Gold.PLP.Chemscore.Hbond>
2.9200

> <Gold.PLP.Chemscore.CHOScore>
0.0000

> <Gold.PLP.Chemscore.Metal>
0.0000

> <Gold.Chemscore.Hbonds>
donor molecule, donor type, donor heavy atom, donor atom, acceptor molecule, acceptor atom, score
      L1  H     3    17       P1  8028  0.91
      L1  H    10    27       P1  8028  1.00
      L1  H    14    16       P1 10175  0.99

> <Gold.PLP.Chemscore.Internal.Correction>
0.0075

> <Gold.Rescore>
     Score         DG    S(hbond)    S(metal)    S(lipo)     H(rot)  DE(clash)    DE(int)     intcor
     18.94     -20.64       2.92        0.00      75.31       1.33       0.09       1.61       ----

> <Gold.Chemscore.Fitness>
18.9362

> <Gold.Chemscore.DG>
-20.6408

> <Gold.Chemscore.ZeroCoef>
-5.4800

> <Gold.Chemscore.Hbond>
2.9208

> <Gold.Chemscore.Metal>
0.0000

> <Gold.Chemscore.Lipo>
75.3119

> <Gold.Chemscore.Internal_Hbond>
0.0000

> <Gold.Chemscore.DEClash>
0.0902

> <Gold.Chemscore.DEInternal>
1.6144

> <Gold.Chemscore.Rot>
1.3306

> <Gold.Chemscore.Internal.Correction>
   9.000000E+99

> <Gold.Chemscore.Hbonds>
donor molecule, donor type, donor heavy atom, donor atom, acceptor molecule, acceptor atom, score
      L1  H     3    17       P1  8028  0.86
      L1  H    10    27       P1  8028  1.00
      L1  H    14    16       P1 10175  0.36

> <Gold.Chemscore.Hbond.Weighted>
-9.7555

> <Gold.Chemscore.Metal.Weighted>
-0.0000

> <Gold.Chemscore.Lipo.Weighted>
-8.8115

> <Gold.Chemscore.Internal_Hbond.Weighted>
0.0000

> <Gold.Chemscore.DEClash.Weighted>
0.0902

> <Gold.Chemscore.DEInternal.Weighted>
1.6144

> <Gold.Chemscore.Rot.Weighted>
3.4063

> <Gold.Chemscore.Internal.Correction.Weighted>
   9.000000E+99

> <Gold.Protein.RotatedTorsions>
[ 6907 6896 6895 6894 ] final  173.56 input  -60.11 | X-H torsion
[ 7974 7965 7964 7962 ] final -140.66 input  175.53 | X-H torsion
[ 8008 7997 7996 7995 ] final  130.49 input   59.86 | X-H torsion
[ 10167 10162 10161 10158 ] final  103.50 input  -65.29 | X-H torsion
[ 10718 10713 10712 10709 ] final   31.35 input   66.30 | X-H torsion
[ 10763 10752 10751 10750 ] final   13.28 input  -60.55 | X-H torsion
[ 11005 11000 10999 10996 ] final -147.77 input  -57.11 | X-H torsion

> <Gold.Protein.ActiveResidues>
 VAL166  LYS551  ARG553  GLY616  TRP617  ASP618  TYR619  PRO620  LYS621  CYS622 
 ASP623  PHE694  ASN695  SER759  ASP760  ASP761  ALA762  ILE779  LEU786  VAL792 
 PHE793  MET794  SER795  GLU796  ALA797  LYS798  CYS799  TRP800  GLU811  SER814 

> <Gold.Protein.RotatedAtoms>
  151.7664  133.3337  159.3431 H   0  0  0  0  0  0  0  0  0  0  0  0  # atno 6907 bound_to 6896
  150.7478  134.6059  159.6070 H   0  0  0  0  0  0  0  0  0  0  0  0  # atno 6908 bound_to 6896
  152.3371  134.7186  160.0325 H   0  0  0  0  0  0  0  0  0  0  0  0  # atno 6909 bound_to 6896
  144.8580  140.6173  143.5347 H   0  0  0  0  0  0  0  0  0  0  0  0  # atno 7974 bound_to 7965
  156.2955  140.2594  156.2771 H   0  0  0  0  0  0  0  0  0  0  0  0  # atno 8008 bound_to 7997
  154.9638  140.0392  157.2221 H   0  0  0  0  0  0  0  0  0  0  0  0  # atno 8009 bound_to 7997
  154.7922  140.2813  155.5988 H   0  0  0  0  0  0  0  0  0  0  0  0  # atno 8010 bound_to 7997
  139.7258  144.7048  151.0801 H   0  0  0  0  0  0  0  0  0  0  0  0  # atno 10167 bound_to 10162
  157.2714  130.7210  149.6506 H   0  0  0  0  0  0  0  0  0  0  0  0  # atno 10718 bound_to 10713
  153.1737  135.6816  153.8572 H   0  0  0  0  0  0  0  0  0  0  0  0  # atno 10763 bound_to 10752
  153.7927  135.3167  155.3381 H   0  0  0  0  0  0  0  0  0  0  0  0  # atno 10764 bound_to 10752
  154.8015  135.4775  154.0380 H   0  0  0  0  0  0  0  0  0  0  0  0  # atno 10765 bound_to 10752
  140.7682  134.3219  157.5082 H   0  0  0  0  0  0  0  0  0  0  0  0  # atno 11005 bound_to 11000
  145.4369  139.1541  143.3992 LP  0  0  0  0  0  0  0  0  0  0  0  0  # atno 17320 bound_to 7965
  146.2838  140.4488  142.8766 LP  0  0  0  0  0  0  0  0  0  0  0  0  # atno 17321 bound_to 7965
  140.7762  143.5107  150.9656 LP  0  0  0  0  0  0  0  0  0  0  0  0  # atno 17342 bound_to 10162
  139.8795  143.7090  152.3158 LP  0  0  0  0  0  0  0  0  0  0  0  0  # atno 17343 bound_to 10162
  155.9663  130.4366  150.5142 LP  0  0  0  0  0  0  0  0  0  0  0  0  # atno 17370 bound_to 10713
  157.3067  131.0656  151.2030 LP  0  0  0  0  0  0  0  0  0  0  0  0  # atno 17371 bound_to 10713
  139.8760  134.9244  156.3350 LP  0  0  0  0  0  0  0  0  0  0  0  0  # atno 17394 bound_to 11000
  140.9599  133.7396  156.0386 LP  0  0  0  0  0  0  0  0  0  0  0  0  # atno 17395 bound_to 11000

$$$$
