AV-unprocessed.smi:1429|AV-procd|sdf|5818|dock5
  -GOLD-   22720 5473D 1   1.00000     0.00000
 Structure written by MMmdl.
 30 31  0  0  0  0  0  0  0  0  1 V2000
  146.9628  128.8865  152.6261 C   0  0  0  0  0  0  0  0  0  0  0  0
  147.2109  130.3563  152.6258 C   0  0  0  0  0  0  0  0  0  0  0  0
  146.5211  131.2047  151.8541 N   0  0  0  0  0  0  0  0  0  0  0  0
  146.9287  132.5204  152.0237 N   0  0  0  0  0  0  0  0  0  0  0  0
  147.9192  132.6253  152.9202 C   0  0  0  0  0  0  0  0  0  0  0  0
  148.5256  133.8564  153.2854 N   0  0  0  0  0  0  0  0  0  0  0  0
  149.2745  134.1267  154.3690 C   0  0  0  0  0  0  0  0  0  0  0  0
  149.5686  133.3197  155.2512 O   0  0  0  0  0  0  0  0  0  0  0  0
  149.6719  135.4072  154.3780 N   0  0  0  0  0  0  0  0  0  0  0  0
  150.4940  136.0197  155.4165 C   0  0  0  0  0  0  0  0  0  0  0  0
  151.1438  137.3334  154.9419 C   0  0  2  0  0  0  0  0  0  0  0  0
  152.0261  138.0152  155.9695 C   0  0  0  0  0  0  0  0  0  0  0  0
  152.1007  139.4345  155.4177 C   0  0  0  0  0  0  0  0  0  0  0  0
  150.8376  139.6724  154.8046 O   0  0  0  0  0  0  0  0  0  0  0  0
  150.1401  138.4423  154.6243 C   0  0  0  0  0  0  0  0  0  0  0  0
  148.4398  131.1091  153.6355 S   0  0  0  0  0  0  0  0  0  0  0  0
  145.9035  128.6803  152.4693 H   0  0  0  0  0  0  0  0  0  0  0  0
  147.2638  128.4525  153.5797 H   0  0  0  0  0  0  0  0  0  0  0  0
  147.5351  128.4126  151.8286 H   0  0  0  0  0  0  0  0  0  0  0  0
  148.3700  134.6217  152.6460 H   0  0  0  0  0  0  0  0  0  0  0  0
  149.3860  136.0020  153.6139 H   0  0  0  0  0  0  0  0  0  0  0  0
  149.8923  136.1976  156.3092 H   0  0  0  0  0  0  0  0  0  0  0  0
  151.2635  135.3023  155.7036 H   0  0  0  0  0  0  0  0  0  0  0  0
  151.7385  137.1458  154.0461 H   0  0  0  0  0  0  0  0  0  0  0  0
  151.5428  138.0178  156.9478 H   0  0  0  0  0  0  0  0  0  0  0  0
  153.0067  137.5494  156.0724 H   0  0  0  0  0  0  0  0  0  0  0  0
  152.3171  140.1737  156.1893 H   0  0  0  0  0  0  0  0  0  0  0  0
  152.8764  139.5041  154.6542 H   0  0  0  0  0  0  0  0  0  0  0  0
  149.7377  138.3590  153.6145 H   0  0  0  0  0  0  0  0  0  0  0  0
  149.3021  138.4209  155.3226 H   0  0  0  0  0  0  0  0  0  0  0  0
  1  2  1  0  0  0  0
  1 17  1  0  0  0  0
  1 18  1  0  0  0  0
  1 19  1  0  0  0  0
  2 16  1  0  0  0  0
  2  3  2  0  0  0  0
  3  4  1  0  0  0  0
  4  5  2  0  0  0  0
  5  6  1  0  0  0  0
  5 16  1  0  0  0  0
  6  7  1  0  0  0  0
  6 20  1  0  0  0  0
  7  8  2  0  0  0  0
  7  9  1  0  0  0  0
  9 10  1  0  0  0  0
  9 21  1  0  0  0  0
 10 11  1  0  0  0  0
 10 22  1  0  0  0  0
 10 23  1  0  0  0  0
 11 15  1  0  0  0  0
 11 12  1  0  0  0  0
 11 24  1  0  0  0  0
 12 13  1  0  0  0  0
 12 25  1  0  0  0  0
 12 26  1  0  0  0  0
 13 14  1  0  0  0  0
 13 27  1  0  0  0  0
 13 28  1  0  0  0  0
 14 15  1  0  0  0  0
 15 29  1  0  0  0  0
 15 30  1  0  0  0  0
M  END
> <s_m_source_file>
AV-unprocessed.smi

> <i_m_source_file_index>
1429

> <i_lp_mmshare_version>
43012

> <i_f3d_flags>
0

> <s_epik_input>
W0NIM11jMW5uYyhzMSlbTkhdQyg9TylbTkhdW0NIMl1bQ0BASF0yW0NIMl1bQ0gyXU9bQ0gyXTI=

> <s_epik_cmdline>
J2VwaWtfcHl0aG9uJywgJy1waCcsICc3LjAnLCAnLXRuJywgJzgnLCAnLW1hJywgJzIwMCcsICctbWV0YWxfYmluZGluZycsICctaW1hZScsICc8aW5maWxlLm1hZT4nLCAnLW9tYWUnLCAnPG91dGZpbGUubWFlPic=

> <r_lp_tautomer_probability>
1

> <r_epik_Ionization_Penalty>
0.000468089

> <r_epik_Ionization_Penalty_Charging>
0

> <r_epik_Ionization_Penalty_Neutral>
0.000468089

> <r_epik_State_Penalty>
-0

> <r_epik_Charging_Adjusted_Penalty>
0

> <i_epik_Tot_Q>
0

> <i_epik_Tot_abs_Q>
0

> <r_epik_Metal_State_Penalty>
0.211262

> <b_epik_Metal_Only>
0

> <s_lp_Force_Field>
OPLS_2005

> <r_lp_Energy>
16.548

> <b_lp_Chiralities_Consistent>
1

> <s_lp_Variant>
AV-unprocessed.smi:1429-1

> <Gold.Version>
5.8.1

> <Gold.Id.Protein>
6NUR|6NUR_protein|mol2

> <Gold.PLP.Fitness>
35.5167

> <Gold.PLP.PLP>
-26.9320

> <Gold.PLP.part.hbond>
-3.1812

> <Gold.PLP.part.metal>
0.0000

> <Gold.PLP.part.buried>
-3.1653

> <Gold.PLP.part.nonpolar>
-20.6625

> <Gold.PLP.part.repulsive>
0.4193

> <Gold.PLP.ligand.clash>
0.0000

> <Gold.PLP.ligand.torsion>
0.1978

> <Gold.PLP.Chemscore.Hbond>
2.9920

> <Gold.PLP.Chemscore.CHOScore>
0.0000

> <Gold.PLP.Chemscore.Metal>
0.0000

> <Gold.Chemscore.Hbonds>
donor molecule, donor type, donor heavy atom, donor atom, acceptor molecule, acceptor atom, score
      L1  H     6    20       P1  7948  0.99
      L1  H     9    21       P1  7948  0.99
      P1  H  7989  7998       L1    14  0.60

> <Gold.PLP.Chemscore.Internal.Correction>
0.0042

> <Gold.Rescore>
     Score         DG    S(hbond)    S(metal)    S(lipo)     H(rot)  DE(clash)    DE(int)     intcor
     16.59     -17.13       2.69        0.00      51.47       1.31       0.02       0.52       ----

> <Gold.Chemscore.Fitness>
16.5927

> <Gold.Chemscore.DG>
-17.1304

> <Gold.Chemscore.ZeroCoef>
-5.4800

> <Gold.Chemscore.Hbond>
2.6912

> <Gold.Chemscore.Metal>
0.0000

> <Gold.Chemscore.Lipo>
51.4689

> <Gold.Chemscore.Internal_Hbond>
0.0000

> <Gold.Chemscore.DEClash>
0.0211

> <Gold.Chemscore.DEInternal>
0.5165

> <Gold.Chemscore.Rot>
1.3125

> <Gold.Chemscore.Internal.Correction>
   9.000000E+99

> <Gold.Chemscore.Hbonds>
donor molecule, donor type, donor heavy atom, donor atom, acceptor molecule, acceptor atom, score
      L1  H     6    20       P1  7948  0.24
      L1  H     9    21       P1  7948  0.57
      P1  H  7989  7998       L1    14  0.04

> <Gold.Chemscore.Hbond.Weighted>
-8.9885

> <Gold.Chemscore.Metal.Weighted>
-0.0000

> <Gold.Chemscore.Lipo.Weighted>
-6.0219

> <Gold.Chemscore.Internal_Hbond.Weighted>
0.0000

> <Gold.Chemscore.DEClash.Weighted>
0.0211

> <Gold.Chemscore.DEInternal.Weighted>
0.5165

> <Gold.Chemscore.Rot.Weighted>
3.3600

> <Gold.Chemscore.Internal.Correction.Weighted>
   9.000000E+99

> <Gold.Protein.RotatedTorsions>
[ 6907 6896 6895 6894 ] final  -50.63 input  -60.11 | X-H torsion
[ 7974 7965 7964 7962 ] final  -19.63 input  175.53 | X-H torsion
[ 8008 7997 7996 7995 ] final -135.02 input   59.86 | X-H torsion
[ 10167 10162 10161 10158 ] final   -4.45 input  -65.29 | X-H torsion
[ 10718 10713 10712 10709 ] final  134.30 input   66.30 | X-H torsion
[ 10763 10752 10751 10750 ] final  -70.12 input  -60.55 | X-H torsion
[ 11005 11000 10999 10996 ] final   13.44 input  -57.11 | X-H torsion

> <Gold.Protein.ActiveResidues>
 VAL166  LYS551  ARG553  GLY616  TRP617  ASP618  TYR619  PRO620  LYS621  CYS622 
 ASP623  PHE694  ASN695  SER759  ASP760  ASP761  ALA762  ILE779  LEU786  VAL792 
 PHE793  MET794  SER795  GLU796  ALA797  LYS798  CYS799  TRP800  GLU811  SER814 

> <Gold.Protein.RotatedAtoms>
  150.8688  134.8057  159.7138 H   0  0  0  0  0  0  0  0  0  0  0  0  # atno 6907 bound_to 6896
  152.4700  134.4980  159.9726 H   0  0  0  0  0  0  0  0  0  0  0  0  # atno 6908 bound_to 6896
  151.5072  133.3454  159.2914 H   0  0  0  0  0  0  0  0  0  0  0  0  # atno 6909 bound_to 6896
  146.1831  140.4088  142.8487 H   0  0  0  0  0  0  0  0  0  0  0  0  # atno 7974 bound_to 7965
  155.3718  140.0489  157.3045 H   0  0  0  0  0  0  0  0  0  0  0  0  # atno 8008 bound_to 7997
  154.5126  140.2197  155.9090 H   0  0  0  0  0  0  0  0  0  0  0  0  # atno 8009 bound_to 7997
  156.1600  140.3118  155.8797 H   0  0  0  0  0  0  0  0  0  0  0  0  # atno 8010 bound_to 7997
  140.6928  143.6422  150.8425 H   0  0  0  0  0  0  0  0  0  0  0  0  # atno 10167 bound_to 10162
  157.4687  131.1078  150.9830 H   0  0  0  0  0  0  0  0  0  0  0  0  # atno 10718 bound_to 10713
  154.4132  135.6004  153.5965 H   0  0  0  0  0  0  0  0  0  0  0  0  # atno 10763 bound_to 10752
  152.9791  135.5934  154.4045 H   0  0  0  0  0  0  0  0  0  0  0  0  # atno 10764 bound_to 10752
  154.3860  135.2841  155.2161 H   0  0  0  0  0  0  0  0  0  0  0  0  # atno 10765 bound_to 10752
  140.4807  134.0938  155.7750 H   0  0  0  0  0  0  0  0  0  0  0  0  # atno 11005 bound_to 11000
  144.8350  140.6767  143.6266 LP  0  0  0  0  0  0  0  0  0  0  0  0  # atno 17320 bound_to 7965
  145.4018  139.1596  143.4173 LP  0  0  0  0  0  0  0  0  0  0  0  0  # atno 17321 bound_to 7965
  140.0137  143.5615  152.2828 LP  0  0  0  0  0  0  0  0  0  0  0  0  # atno 17342 bound_to 10162
  139.6348  144.7649  151.2460 LP  0  0  0  0  0  0  0  0  0  0  0  0  # atno 17343 bound_to 10162
  157.0603  130.5822  149.5384 LP  0  0  0  0  0  0  0  0  0  0  0  0  # atno 17370 bound_to 10713
  156.0062  130.5149  150.7839 LP  0  0  0  0  0  0  0  0  0  0  0  0  # atno 17371 bound_to 10713
  141.1533  133.8930  157.2043 LP  0  0  0  0  0  0  0  0  0  0  0  0  # atno 17394 bound_to 11000
  139.9828  135.0092  156.9791 LP  0  0  0  0  0  0  0  0  0  0  0  0  # atno 17395 bound_to 11000

$$$$
