AV-unprocessed.smi:1404|AV-procd|sdf|5706|dock3
  -GOLD-   22720 5333D 1   1.00000     0.00000
 Structure written by MMmdl.
 48 49  0  0  0  0  0  0  0  0  2 V2000
  150.6727  142.0786  156.1941 C   0  0  0  0  0  0  0  0  0  0  0  0
  150.3036  140.8545  155.5138 N   0  0  0  0  0  0  0  0  0  0  0  0
  151.2631  139.8211  155.3831 C   0  0  0  0  0  0  0  0  0  0  0  0
  152.4062  139.9144  155.8312 O   0  0  0  0  0  0  0  0  0  0  0  0
  150.7860  138.6424  154.6694 C   0  0  0  0  0  0  0  0  0  0  0  0
  149.5263  138.5861  154.1846 C   0  0  0  0  0  0  0  0  0  0  0  0
  148.6108  139.6137  154.3203 N   0  0  0  0  0  0  0  0  0  0  0  0
  147.2660  139.4744  153.7485 C   0  0  0  0  0  0  0  0  0  0  0  0
  146.4200  138.4386  154.4981 C   0  0  0  0  0  0  0  0  0  0  0  0
  146.1684  138.5871  155.6944 O   0  0  0  0  0  0  0  0  0  0  0  0
  145.9869  137.3934  153.7772 N   0  0  0  0  0  0  0  0  0  0  0  0
  145.2138  136.2634  154.2914 C   0  0  0  0  0  0  0  0  0  0  0  0
  143.9844  135.8791  153.4092 C   0  0  0  0  0  0  0  0  0  0  0  0
  142.8028  135.5598  154.3633 C   0  0  0  0  0  0  0  0  0  0  0  0
  143.5532  137.0648  152.5101 C   0  0  0  0  0  0  0  0  0  0  0  0
  144.3537  134.6745  152.5764 N   0  3  0  0  0  0  0  0  0  0  0  0
  143.2212  133.9151  151.9717 C   0  0  0  0  0  0  0  0  0  0  0  0
  143.7246  132.6376  151.2760 C   0  0  0  0  0  0  0  0  0  0  0  0
  144.7049  132.9625  150.3015 O   0  0  0  0  0  0  0  0  0  0  0  0
  145.8341  133.5924  150.8877 C   0  0  0  0  0  0  0  0  0  0  0  0
  145.3959  134.9143  151.5365 C   0  0  0  0  0  0  0  0  0  0  0  0
  148.9903  140.7921  154.9987 C   0  0  0  0  0  0  0  0  0  0  0  0
  148.1971  141.7289  155.1264 O   0  0  0  0  0  0  0  0  0  0  0  0
  151.6455  141.9856  156.6755 H   0  0  0  0  0  0  0  0  0  0  0  0
  149.9159  142.2745  156.9560 H   0  0  0  0  0  0  0  0  0  0  0  0
  150.6940  142.8679  155.4408 H   0  0  0  0  0  0  0  0  0  0  0  0
  151.4516  137.8040  154.5250 H   0  0  0  0  0  0  0  0  0  0  0  0
  149.2234  137.6916  153.6597 H   0  0  0  0  0  0  0  0  0  0  0  0
  146.7413  140.4303  153.7802 H   0  0  0  0  0  0  0  0  0  0  0  0
  147.3389  139.2114  152.6911 H   0  0  0  0  0  0  0  0  0  0  0  0
  146.2389  137.3627  152.7995 H   0  0  0  0  0  0  0  0  0  0  0  0
  145.8890  135.4219  154.4372 H   0  0  0  0  0  0  0  0  0  0  0  0
  144.8714  136.5371  155.2901 H   0  0  0  0  0  0  0  0  0  0  0  0
  142.5866  136.3873  155.0391 H   0  0  0  0  0  0  0  0  0  0  0  0
  143.0111  134.6850  154.9801 H   0  0  0  0  0  0  0  0  0  0  0  0
  141.8731  135.3814  153.8228 H   0  0  0  0  0  0  0  0  0  0  0  0
  143.1516  137.8888  153.1004 H   0  0  0  0  0  0  0  0  0  0  0  0
  142.7721  136.7760  151.8070 H   0  0  0  0  0  0  0  0  0  0  0  0
  144.3869  137.4686  151.9356 H   0  0  0  0  0  0  0  0  0  0  0  0
  142.5026  133.5976  152.7250 H   0  0  0  0  0  0  0  0  0  0  0  0
  142.6890  134.5441  151.2574 H   0  0  0  0  0  0  0  0  0  0  0  0
  144.1386  131.9377  152.0037 H   0  0  0  0  0  0  0  0  0  0  0  0
  142.8960  132.1280  150.7839 H   0  0  0  0  0  0  0  0  0  0  0  0
  146.3040  132.9319  151.6181 H   0  0  0  0  0  0  0  0  0  0  0  0
  146.5726  133.7836  150.1088 H   0  0  0  0  0  0  0  0  0  0  0  0
  145.0071  135.5727  150.7589 H   0  0  0  0  0  0  0  0  0  0  0  0
  146.2767  135.3991  151.9508 H   0  0  0  0  0  0  0  0  0  0  0  0
  144.7700  134.0300  153.2332 H   0  0  0  0  0  0  0  0  0  0  0  0
  1  2  1  0  0  0  0
  1 24  1  0  0  0  0
  1 25  1  0  0  0  0
  1 26  1  0  0  0  0
  2 22  1  0  0  0  0
  2  3  1  0  0  0  0
  3  4  2  0  0  0  0
  3  5  1  0  0  0  0
  5  6  2  0  0  0  0
  5 27  1  0  0  0  0
  6  7  1  0  0  0  0
  6 28  1  0  0  0  0
  7  8  1  0  0  0  0
  7 22  1  0  0  0  0
  8  9  1  0  0  0  0
  8 29  1  0  0  0  0
  8 30  1  0  0  0  0
  9 10  2  0  0  0  0
  9 11  1  0  0  0  0
 11 12  1  0  0  0  0
 11 31  1  0  0  0  0
 12 13  1  0  0  0  0
 12 32  1  0  0  0  0
 12 33  1  0  0  0  0
 13 14  1  0  0  0  0
 13 15  1  0  0  0  0
 13 16  1  0  0  0  0
 14 34  1  0  0  0  0
 14 35  1  0  0  0  0
 14 36  1  0  0  0  0
 15 37  1  0  0  0  0
 15 38  1  0  0  0  0
 15 39  1  0  0  0  0
 16 21  1  0  0  0  0
 16 17  1  0  0  0  0
 16 48  1  0  0  0  0
 17 18  1  0  0  0  0
 17 40  1  0  0  0  0
 17 41  1  0  0  0  0
 18 19  1  0  0  0  0
 18 42  1  0  0  0  0
 18 43  1  0  0  0  0
 19 20  1  0  0  0  0
 20 21  1  0  0  0  0
 20 44  1  0  0  0  0
 20 45  1  0  0  0  0
 21 46  1  0  0  0  0
 21 47  1  0  0  0  0
 22 23  2  0  0  0  0
M  CHG  1  16   1
M  END
> <s_m_source_file>
AV-unprocessed.smi

> <i_m_source_file_index>
1404

> <i_lp_mmshare_version>
43012

> <i_f3d_flags>
0

> <s_epik_input>
W0NIM11uMWMoPU8pW2NIXVtjSF1uKGMxPU8pW0NIMl1DKD1PKVtOSF1bQ0gyXUMoW0NIM10pKFtDSDNdKU4yW0NIMl1bQ0gyXU9bQ0gyXVtDSDJdMg==

> <s_epik_cmdline>
J2VwaWtfcHl0aG9uJywgJy1waCcsICc3LjAnLCAnLXRuJywgJzgnLCAnLW1hJywgJzIwMCcsICctbWV0YWxfYmluZGluZycsICctaW1hZScsICc8aW5maWxlLm1hZT4nLCAnLW9tYWUnLCAnPG91dGZpbGUubWFlPic=

> <r_lp_tautomer_probability>
1

> <r_epik_Ionization_Penalty>
0.656654

> <r_epik_Ionization_Penalty_Charging>
0.656653

> <r_epik_Ionization_Penalty_Neutral>
9.12373e-08

> <r_epik_State_Penalty>
0.675641

> <r_epik_Charging_Adjusted_Penalty>
1.33229

> <i_epik_Tot_Q>
1

> <i_epik_Tot_abs_Q>
1

> <r_epik_Metal_State_Penalty>
0.675694

> <b_epik_Metal_Only>
0

> <s_lp_Force_Field>
OPLS_2005

> <r_lp_Energy>
33.2005

> <b_lp_Chiralities_Consistent>
1

> <s_lp_Variant>
AV-unprocessed.smi:1404-2

> <Gold.Version>
5.8.1

> <Gold.Id.Protein>
6NUR|6NUR_protein|mol2

> <Gold.PLP.Fitness>
38.7178

> <Gold.PLP.PLP>
-35.0385

> <Gold.PLP.part.hbond>
-1.0061

> <Gold.PLP.part.metal>
0.0000

> <Gold.PLP.part.buried>
-3.7968

> <Gold.PLP.part.nonpolar>
-30.5059

> <Gold.PLP.part.repulsive>
0.3027

> <Gold.PLP.ligand.clash>
0.0000

> <Gold.PLP.ligand.torsion>
1.2314

> <Gold.PLP.Chemscore.Hbond>
1.0000

> <Gold.PLP.Chemscore.CHOScore>
1.0000

> <Gold.PLP.Chemscore.Metal>
0.0000

> <Gold.Chemscore.Hbonds>
donor molecule, donor type, donor heavy atom, donor atom, acceptor molecule, acceptor atom, score
      P1  H  7997  8010       L1     4  1.00
      L1  C     6    28       P1  7948  1.00

> <Gold.PLP.Chemscore.Internal.Correction>
0.1422

> <Gold.Rescore>
     Score         DG    S(hbond)    S(metal)    S(lipo)     H(rot)  DE(clash)    DE(int)     intcor
     12.79     -13.93       1.81        0.00      67.23       2.14       0.03       1.11       ----

> <Gold.Chemscore.Fitness>
12.7867

> <Gold.Chemscore.DG>
-13.9271

> <Gold.Chemscore.ZeroCoef>
-5.4800

> <Gold.Chemscore.Hbond>
1.8128

> <Gold.Chemscore.Metal>
0.0000

> <Gold.Chemscore.Lipo>
67.2305

> <Gold.Chemscore.Internal_Hbond>
0.0000

> <Gold.Chemscore.DEClash>
0.0312

> <Gold.Chemscore.DEInternal>
1.1092

> <Gold.Chemscore.Rot>
2.1381

> <Gold.Chemscore.Internal.Correction>
   9.000000E+99

> <Gold.Chemscore.Hbonds>
donor molecule, donor type, donor heavy atom, donor atom, acceptor molecule, acceptor atom, score
      P1  H  7997  8010       L1     4  0.95

> <Gold.Chemscore.Hbond.Weighted>
-6.0546

> <Gold.Chemscore.Metal.Weighted>
-0.0000

> <Gold.Chemscore.Lipo.Weighted>
-7.8660

> <Gold.Chemscore.Internal_Hbond.Weighted>
0.0000

> <Gold.Chemscore.DEClash.Weighted>
0.0312

> <Gold.Chemscore.DEInternal.Weighted>
1.1092

> <Gold.Chemscore.Rot.Weighted>
5.4735

> <Gold.Chemscore.Internal.Correction.Weighted>
   9.000000E+99

> <Gold.Protein.RotatedTorsions>
[ 6907 6896 6895 6894 ] final  127.68 input  -60.11 | X-H torsion
[ 7974 7965 7964 7962 ] final   23.95 input  175.53 | X-H torsion
[ 8008 7997 7996 7995 ] final   75.05 input   59.86 | X-H torsion
[ 10167 10162 10161 10158 ] final   -2.20 input  -65.29 | X-H torsion
[ 10718 10713 10712 10709 ] final   38.21 input   66.30 | X-H torsion
[ 10763 10752 10751 10750 ] final   -9.01 input  -60.55 | X-H torsion
[ 11005 11000 10999 10996 ] final   42.78 input  -57.11 | X-H torsion

> <Gold.Protein.ActiveResidues>
 VAL166  LYS551  ARG553  GLY616  TRP617  ASP618  TYR619  PRO620  LYS621  CYS622 
 ASP623  PHE694  ASN695  SER759  ASP760  ASP761  ALA762  ILE779  LEU786  VAL792 
 PHE793  MET794  SER795  GLU796  ALA797  LYS798  CYS799  TRP800  GLU811  SER814 

> <Gold.Protein.RotatedAtoms>
  152.3790  133.6520  159.6145 H   0  0  0  0  0  0  0  0  0  0  0  0  # atno 6907 bound_to 6896
  150.7726  133.9146  159.3388 H   0  0  0  0  0  0  0  0  0  0  0  0  # atno 6908 bound_to 6896
  151.6955  135.0940  160.0292 H   0  0  0  0  0  0  0  0  0  0  0  0  # atno 6909 bound_to 6896
  146.1960  139.7672  142.8797 H   0  0  0  0  0  0  0  0  0  0  0  0  # atno 7974 bound_to 7965
  155.8073  140.3474  155.5437 H   0  0  0  0  0  0  0  0  0  0  0  0  # atno 8008 bound_to 7997
  155.8477  140.0951  157.1715 H   0  0  0  0  0  0  0  0  0  0  0  0  # atno 8009 bound_to 7997
  154.4007  140.1382  156.3793 H   0  0  0  0  0  0  0  0  0  0  0  0  # atno 8010 bound_to 7997
  140.6841  143.6685  150.8205 H   0  0  0  0  0  0  0  0  0  0  0  0  # atno 10167 bound_to 10162
  157.3561  130.7624  149.7013 H   0  0  0  0  0  0  0  0  0  0  0  0  # atno 10718 bound_to 10713
  153.4486  135.7015  153.6123 H   0  0  0  0  0  0  0  0  0  0  0  0  # atno 10763 bound_to 10752
  153.4467  135.3767  155.2260 H   0  0  0  0  0  0  0  0  0  0  0  0  # atno 10764 bound_to 10752
  154.8728  135.3987  154.3895 H   0  0  0  0  0  0  0  0  0  0  0  0  # atno 10765 bound_to 10752
  140.1707  134.4225  155.8259 H   0  0  0  0  0  0  0  0  0  0  0  0  # atno 11005 bound_to 11000
  145.3641  141.0331  143.3268 LP  0  0  0  0  0  0  0  0  0  0  0  0  # atno 17320 bound_to 7965
  144.8582  139.5217  143.6824 LP  0  0  0  0  0  0  0  0  0  0  0  0  # atno 17321 bound_to 7965
  140.0390  143.5366  152.2726 LP  0  0  0  0  0  0  0  0  0  0  0  0  # atno 17342 bound_to 10162
  139.6186  144.7624  151.2791 LP  0  0  0  0  0  0  0  0  0  0  0  0  # atno 17343 bound_to 10162
  155.9729  130.4127  150.4044 LP  0  0  0  0  0  0  0  0  0  0  0  0  # atno 17370 bound_to 10713
  157.2114  131.0461  151.2597 LP  0  0  0  0  0  0  0  0  0  0  0  0  # atno 17371 bound_to 10713
  141.2217  133.6955  156.7758 LP  0  0  0  0  0  0  0  0  0  0  0  0  # atno 17394 bound_to 11000
  140.2381  134.8635  157.3545 LP  0  0  0  0  0  0  0  0  0  0  0  0  # atno 17395 bound_to 11000

$$$$
