#       Name:                AV-unprocessed.smi:1913
#       Creating user name   scv26
#       Creation time:       Fri Mar 27 09:49:21 2020


#       File generated by GOLD software.
#

@<TRIPOS>MOLECULE
AV-unprocessed.smi:1913
    47    49     1
SMALL
NO_CHARGES


@<TRIPOS>ATOM
      1 ****        -3.5262  -3.2930  -1.2100 C.3            1 S1                 0.0000
      2 ****        -2.1069  -3.2431  -1.2176 O.3            1 S1                 0.0000
      3 ****        -1.5019  -2.0080  -1.3077 C.ar           1 S1                 0.0000
      4 ****        -2.2021  -0.7866  -1.4431 C.ar           1 S1                 0.0000
      5 ****        -1.5027   0.4318  -1.5159 C.ar           1 S1                 0.0000
      6 ****        -0.0877   0.4621  -1.4552 C.ar           1 S1                 0.0000
      7 ****         0.6443   1.6314  -1.4925 O.3            1 S1                 0.0000
      8 ****        -0.0501   2.8651  -1.3866 C.3            1 S1                 0.0000
      9 ****         0.6177  -0.7604  -1.3314 C.ar           1 S1                 0.0000
     10 ****         2.1425  -0.7707  -1.2222 C.3            1 S1                 0.0000
     11 ****         2.7278  -1.8649  -1.9000 O.3            1 S1                 0.0000
     12 ****         2.6229  -0.8038   0.2435 C.3            1 S1                 0.0000
     13 ****         2.2439   0.3929   0.9737 N.pl3          1 S1                 0.0000
     14 ****         2.9130   1.5608   1.0175 C.2            1 S1                 0.0000
     15 ****         2.3728   2.5469   1.7279 N.2            1 S1                 0.0000
     16 ****         1.2183   1.9487   2.2029 C.ar           1 S1                 0.0000
     17 ****         0.1871   2.4653   3.0196 C.ar           1 S1                 0.0000
     18 ****        -0.9145   1.6591   3.3749 C.ar           1 S1                 0.0000
     19 ****        -1.0015   0.3269   2.9217 C.ar           1 S1                 0.0000
     20 ****         0.0146  -0.2104   2.1087 C.ar           1 S1                 0.0000
     21 ****         1.1109   0.5979   1.7543 C.ar           1 S1                 0.0000
     22 ****        -0.0956  -1.9776  -1.2562 C.ar           1 S1                 0.0000
     23 ****        -3.8484  -4.3299  -1.1152 H              1 S1                 0.0000
     24 ****        -3.9454  -2.9012  -2.1378 H              1 S1                 0.0000
     25 ****        -3.9395  -2.7408  -0.3646 H              1 S1                 0.0000
     26 ****        -3.2798  -0.7553  -1.4897 H              1 S1                 0.0000
     27 ****        -2.0818   1.3369  -1.6142 H              1 S1                 0.0000
     28 ****         0.6732   3.6781  -1.3282 H              1 S1                 0.0000
     29 ****        -0.6602   2.9029  -0.4827 H              1 S1                 0.0000
     30 ****        -0.6797   3.0443  -2.2590 H              1 S1                 0.0000
     31 ****         2.5470   0.1181  -1.7069 H              1 S1                 0.0000
     32 ****         2.5221  -1.7912  -2.8195 H              1 S1                 0.0000
     33 ****         2.2267  -1.6770   0.7635 H              1 S1                 0.0000
     34 ****         3.7102  -0.8864   0.2811 H              1 S1                 0.0000
     35 ****         3.8450   1.6978   0.4886 H              1 S1                 0.0000
     36 ****         0.2423   3.4847   3.3716 H              1 S1                 0.0000
     37 ****        -1.6976   2.0656   3.9979 H              1 S1                 0.0000
     38 ****        -1.8500  -0.2820   3.1975 H              1 S1                 0.0000
     39 ****        -0.0515  -1.2282   1.7537 H              1 S1                 0.0000
     40 ****         0.4401  -2.9085  -1.1409 H              1 S1                 0.0000
     41 ****        -1.7948  -3.7844  -1.9984 LP             1 S1                 0.0000
     42 ****        -1.7901  -3.6678  -0.3696 LP             1 S1                 0.0000
     43 ****         1.1383   1.6437  -2.3619 LP             1 S1                 0.0000
     44 ****         1.2991   1.5948  -0.7376 LP             1 S1                 0.0000
     45 ****         2.3595  -2.7217  -1.5393 LP             1 S1                 0.0000
     46 ****         3.7197  -1.8490  -1.7736 LP             1 S1                 0.0000
     47 ****         2.7114   3.4757   1.8790 LP             1 S1                 0.0000
@<TRIPOS>BOND
    1    1    2 1     
    2    1   23 1     
    3    1   24 1     
    4    1   25 1     
    5    2    3 1     
    6    3   22 ar    
    7    3    4 ar    
    8    4    5 ar    
    9    4   26 1     
   10    5    6 ar    
   11    5   27 1     
   12    6    7 1     
   13    6    9 ar    
   14    7    8 1     
   15    8   28 1     
   16    8   29 1     
   17    8   30 1     
   18    9   10 1     
   19    9   22 ar    
   20   10   11 1     
   21   10   12 1     
   22   10   31 1     
   23   11   32 1     
   24   12   13 1     
   25   12   33 1     
   26   12   34 1     
   27   13   21 1     
   28   13   14 1     
   29   14   15 2     
   30   14   35 1     
   31   15   16 1     
   32   16   21 ar    
   33   16   17 ar    
   34   17   18 ar    
   35   17   36 1     
   36   18   19 ar    
   37   18   37 1     
   38   19   20 ar    
   39   19   38 1     
   40   20   21 ar    
   41   20   39 1     
   42   22   40 1     
   43    2   41 1     
   44    2   42 1     
   45    7   43 1     
   46    7   44 1     
   47   11   45 1     
   48   11   46 1     
   49   15   47 1     
@<TRIPOS>SUBSTRUCTURE
      1 S1             1
@<TRIPOS>SET
LONE_PAIRS      STATIC     ATOMS    <user>   **** ""
7 41 42 43 44 45 46 47
DONOR_HYDROGENS      STATIC     ATOMS    <user>   **** ""
1 32
ATOM$BLUE        STATIC     ATOMS    COLORGROUP SYSTEM
7 41 42 43 44 45 46 47
ATOM$RED        STATIC     ATOMS    COLORGROUP SYSTEM
1 32
