AV-unprocessed.smi:2358|AV-procd|sdf|9405|dock7
  -GOLD-   2272013 43D 1   1.00000     0.00000
 Structure written by MMmdl.
 46 48  0  0  0  0  0  0  0  0  2 V2000
  151.6518  144.9971  158.6471 C   0  0  0  0  0  0  0  0  0  0  0  0
  151.8722  143.5035  158.7719 C   0  0  0  0  0  0  0  0  0  0  0  0
  152.7443  142.9925  159.7535 C   0  0  0  0  0  0  0  0  0  0  0  0
  152.9416  141.6028  159.8683 C   0  0  0  0  0  0  0  0  0  0  0  0
  153.8808  141.0602  160.9256 C   0  0  0  0  0  0  0  0  0  0  0  0
  152.2637  140.7257  158.9973 C   0  0  0  0  0  0  0  0  0  0  0  0
  151.3880  141.2204  158.0092 C   0  0  0  0  0  0  0  0  0  0  0  0
  150.7675  140.2905  157.2027 O   0  0  0  0  0  0  0  0  0  0  0  0
  149.7149  140.7292  156.3540 C   0  0  0  0  0  0  0  0  0  0  0  0
  149.6053  139.7671  155.1594 C   0  0  2  0  0  0  0  0  0  0  0  0
  150.8577  139.7707  154.5010 O   0  0  0  0  0  0  0  0  0  0  0  0
  148.5370  140.2294  154.1438 C   0  0  0  0  0  0  0  0  0  0  0  0
  147.2725  139.5032  154.3114 N   0  0  0  0  0  0  0  0  0  0  0  0
  146.9468  138.6900  153.2406 N   0  0  0  0  0  0  0  0  0  0  0  0
  145.8698  137.9725  153.2550 C   0  0  0  0  0  0  0  0  0  0  0  0
  145.4896  137.0918  152.1634 N   0  0  0  0  0  0  0  0  0  0  0  0
  144.4256  136.2292  152.0502 C   0  0  0  0  0  0  0  0  0  0  0  0
  144.5419  135.6381  150.8179 C   0  0  0  0  0  0  0  0  0  0  0  0
  145.6655  136.1625  150.2348 N   0  3  0  0  0  0  0  0  0  0  0  0
  146.2438  137.0482  151.0533 C   0  0  0  0  0  0  0  0  0  0  0  0
  144.9798  138.0267  154.4046 C   0  0  0  0  0  0  0  0  0  0  0  0
  145.3079  138.8215  155.4461 C   0  0  0  0  0  0  0  0  0  0  0  0
  146.5278  139.6270  155.4496 C   0  0  0  0  0  0  0  0  0  0  0  0
  146.8579  140.3462  156.3918 O   0  0  0  0  0  0  0  0  0  0  0  0
  151.1971  142.6213  157.9038 C   0  0  0  0  0  0  0  0  0  0  0  0
  152.3628  145.5564  159.2560 H   0  0  0  0  0  0  0  0  0  0  0  0
  150.6443  145.2561  158.9729 H   0  0  0  0  0  0  0  0  0  0  0  0
  151.7700  145.3139  157.6106 H   0  0  0  0  0  0  0  0  0  0  0  0
  153.2633  143.6653  160.4208 H   0  0  0  0  0  0  0  0  0  0  0  0
  153.8488  139.9710  160.9665 H   0  0  0  0  0  0  0  0  0  0  0  0
  153.6076  141.4447  161.9085 H   0  0  0  0  0  0  0  0  0  0  0  0
  154.9057  141.3637  160.7104 H   0  0  0  0  0  0  0  0  0  0  0  0
  152.4139  139.6594  159.0840 H   0  0  0  0  0  0  0  0  0  0  0  0
  148.7852  140.7033  156.9251 H   0  0  0  0  0  0  0  0  0  0  0  0
  149.8705  141.7555  156.0159 H   0  0  0  0  0  0  0  0  0  0  0  0
  149.3768  138.7637  155.5216 H   0  0  0  0  0  0  0  0  0  0  0  0
  151.0123  138.9084  154.1467 H   0  0  0  0  0  0  0  0  0  0  0  0
  148.3434  141.2966  154.2661 H   0  0  0  0  0  0  0  0  0  0  0  0
  148.9102  140.1323  153.1222 H   0  0  0  0  0  0  0  0  0  0  0  0
  143.6800  136.0913  152.8189 H   0  0  0  0  0  0  0  0  0  0  0  0
  143.9242  134.9012  150.3251 H   0  0  0  0  0  0  0  0  0  0  0  0
  147.1405  137.6057  150.8456 H   0  0  0  0  0  0  0  0  0  0  0  0
  144.0710  137.4472  154.4434 H   0  0  0  0  0  0  0  0  0  0  0  0
  144.6522  138.8634  156.3034 H   0  0  0  0  0  0  0  0  0  0  0  0
  150.5343  143.0436  157.1638 H   0  0  0  0  0  0  0  0  0  0  0  0
  146.0118  135.9161  149.3158 H   0  0  0  0  0  0  0  0  0  0  0  0
  1  2  1  0  0  0  0
  1 26  1  0  0  0  0
  1 27  1  0  0  0  0
  1 28  1  0  0  0  0
  2 25  1  0  0  0  0
  2  3  2  0  0  0  0
  3  4  1  0  0  0  0
  3 29  1  0  0  0  0
  4  5  1  0  0  0  0
  4  6  2  0  0  0  0
  5 30  1  0  0  0  0
  5 31  1  0  0  0  0
  5 32  1  0  0  0  0
  6  7  1  0  0  0  0
  6 33  1  0  0  0  0
  7  8  1  0  0  0  0
  7 25  2  0  0  0  0
  8  9  1  0  0  0  0
  9 10  1  0  0  0  0
  9 34  1  0  0  0  0
  9 35  1  0  0  0  0
 10 11  1  0  0  0  0
 10 12  1  0  0  0  0
 10 36  1  0  0  0  0
 11 37  1  0  0  0  0
 12 13  1  0  0  0  0
 12 38  1  0  0  0  0
 12 39  1  0  0  0  0
 13 23  1  0  0  0  0
 13 14  1  0  0  0  0
 14 15  2  0  0  0  0
 15 16  1  0  0  0  0
 15 21  1  0  0  0  0
 16 20  1  0  0  0  0
 16 17  1  0  0  0  0
 17 18  2  0  0  0  0
 17 40  1  0  0  0  0
 18 19  1  0  0  0  0
 18 41  1  0  0  0  0
 19 20  2  0  0  0  0
 19 46  1  0  0  0  0
 20 42  1  0  0  0  0
 21 22  2  0  0  0  0
 21 43  1  0  0  0  0
 22 23  1  0  0  0  0
 22 44  1  0  0  0  0
 23 24  2  0  0  0  0
 25 45  1  0  0  0  0
M  CHG  1  19   1
M  END
> <s_m_source_file>
AV-unprocessed.smi

> <i_m_source_file_index>
2358

> <i_lp_mmshare_version>
43012

> <i_f3d_flags>
0

> <s_epik_input>
W0NIM11jMVtjSF1jKFtDSDNdKVtjSF1jKFtjSF0xKU9bQ0gyXVtDQEhdKFtPSF0pW0NIMl1uMm5jKFtjSF1bY0hdYzI9TyktbjNbY0hdW2NIXW5bY0hdMw==

> <s_epik_cmdline>
J2VwaWtfcHl0aG9uJywgJy1waCcsICc3LjAnLCAnLXRuJywgJzgnLCAnLW1hJywgJzIwMCcsICctbWV0YWxfYmluZGluZycsICctaW1hZScsICc8aW5maWxlLm1hZT4nLCAnLW9tYWUnLCAnPG91dGZpbGUubWFlPic=

> <r_lp_tautomer_probability>
1

> <r_epik_Ionization_Penalty>
1.66053

> <r_epik_Ionization_Penalty_Charging>
2.42216e-09

> <r_epik_Ionization_Penalty_Neutral>
1.66053

> <r_epik_State_Penalty>
1.76336

> <r_epik_Charging_Adjusted_Penalty>
1.76336

> <i_epik_Tot_Q>
1

> <i_epik_Tot_abs_Q>
1

> <r_epik_Metal_State_Penalty>
1.79856

> <b_epik_Metal_Only>
0

> <s_lp_Force_Field>
OPLS_2005

> <r_lp_Energy>
37.8442

> <b_lp_Chiralities_Consistent>
1

> <s_lp_Variant>
AV-unprocessed.smi:2358-3

> <Gold.Version>
5.8.1

> <Gold.Id.Protein>
6NUR|6NUR_protein|mol2

> <Gold.PLP.Fitness>
49.2687

> <Gold.PLP.PLP>
-43.4367

> <Gold.PLP.part.hbond>
-3.0000

> <Gold.PLP.part.metal>
0.0000

> <Gold.PLP.part.buried>
-0.3716

> <Gold.PLP.part.nonpolar>
-39.9197

> <Gold.PLP.part.repulsive>
0.3821

> <Gold.PLP.ligand.clash>
0.0000

> <Gold.PLP.ligand.torsion>
0.8103

> <Gold.PLP.Chemscore.Hbond>
2.0000

> <Gold.PLP.Chemscore.CHOScore>
0.4676

> <Gold.PLP.Chemscore.Metal>
0.0000

> <Gold.Chemscore.Hbonds>
donor molecule, donor type, donor heavy atom, donor atom, acceptor molecule, acceptor atom, score
      L1  H    19    46       P1  7921  1.00
      P1  H  7989  7998       L1    11  1.00
      L1  C    20    42       P1  7948  0.50

> <Gold.PLP.Chemscore.Internal.Correction>
0.0497

> <Gold.Rescore>
     Score         DG    S(hbond)    S(metal)    S(lipo)     H(rot)  DE(clash)    DE(int)     intcor
     15.17     -18.04       1.92        0.00     110.68       2.65       0.86       2.01       ----

> <Gold.Chemscore.Fitness>
15.1651

> <Gold.Chemscore.DG>
-18.0362

> <Gold.Chemscore.ZeroCoef>
-5.4800

> <Gold.Chemscore.Hbond>
1.9163

> <Gold.Chemscore.Metal>
0.0000

> <Gold.Chemscore.Lipo>
110.6777

> <Gold.Chemscore.Internal_Hbond>
0.0000

> <Gold.Chemscore.DEClash>
0.8612

> <Gold.Chemscore.DEInternal>
2.0099

> <Gold.Chemscore.Rot>
2.6537

> <Gold.Chemscore.Internal.Correction>
   9.000000E+99

> <Gold.Chemscore.Hbonds>
donor molecule, donor type, donor heavy atom, donor atom, acceptor molecule, acceptor atom, score
      L1  H    19    46       P1  7921  0.94
      P1  H  7989  7998       L1    11  0.60

> <Gold.Chemscore.Hbond.Weighted>
-6.4004

> <Gold.Chemscore.Metal.Weighted>
-0.0000

> <Gold.Chemscore.Lipo.Weighted>
-12.9493

> <Gold.Chemscore.Internal_Hbond.Weighted>
0.0000

> <Gold.Chemscore.DEClash.Weighted>
0.8612

> <Gold.Chemscore.DEInternal.Weighted>
2.0099

> <Gold.Chemscore.Rot.Weighted>
6.7935

> <Gold.Chemscore.Internal.Correction.Weighted>
   9.000000E+99

> <Gold.Protein.RotatedTorsions>
[ 6907 6896 6895 6894 ] final  142.22 input  -60.11 | X-H torsion
[ 7974 7965 7964 7962 ] final  -98.71 input  175.53 | X-H torsion
[ 8008 7997 7996 7995 ] final -110.38 input   59.86 | X-H torsion
[ 10167 10162 10161 10158 ] final   22.26 input  -65.29 | X-H torsion
[ 10718 10713 10712 10709 ] final    1.48 input   66.30 | X-H torsion
[ 10763 10752 10751 10750 ] final  148.84 input  -60.55 | X-H torsion
[ 11005 11000 10999 10996 ] final  179.43 input  -57.11 | X-H torsion

> <Gold.Protein.ActiveResidues>
 VAL166  LYS551  ARG553  GLY616  TRP617  ASP618  TYR619  PRO620  LYS621  CYS622 
 ASP623  PHE694  ASN695  SER759  ASP760  ASP761  ALA762  ILE779  LEU786  VAL792 
 PHE793  MET794  SER795  GLU796  ALA797  LYS798  CYS799  TRP800  GLU811  SER814 

> <Gold.Protein.RotatedAtoms>
  152.2213  133.4986  159.5163 H   0  0  0  0  0  0  0  0  0  0  0  0  # atno 6907 bound_to 6896
  150.7013  134.1338  159.4088 H   0  0  0  0  0  0  0  0  0  0  0  0  # atno 6908 bound_to 6896
  151.9259  135.0278  160.0576 H   0  0  0  0  0  0  0  0  0  0  0  0  # atno 6909 bound_to 6896
  145.3171  140.9413  143.2736 H   0  0  0  0  0  0  0  0  0  0  0  0  # atno 7974 bound_to 7965
  154.9736  140.0397  157.2245 H   0  0  0  0  0  0  0  0  0  0  0  0  # atno 8008 bound_to 7997
  154.7778  140.2813  155.6064 H   0  0  0  0  0  0  0  0  0  0  0  0  # atno 8009 bound_to 7997
  156.2931  140.2597  156.2597 H   0  0  0  0  0  0  0  0  0  0  0  0  # atno 8010 bound_to 7997
  140.5362  143.9756  150.6493 H   0  0  0  0  0  0  0  0  0  0  0  0  # atno 10167 bound_to 10162
  156.8488  130.5546  149.5671 H   0  0  0  0  0  0  0  0  0  0  0  0  # atno 10718 bound_to 10713
  154.0614  135.2874  155.3324 H   0  0  0  0  0  0  0  0  0  0  0  0  # atno 10763 bound_to 10752
  154.6806  135.5265  153.8261 H   0  0  0  0  0  0  0  0  0  0  0  0  # atno 10764 bound_to 10752
  153.0521  135.6580  154.0802 H   0  0  0  0  0  0  0  0  0  0  0  0  # atno 10765 bound_to 10752
  140.4061  134.6734  157.4588 H   0  0  0  0  0  0  0  0  0  0  0  0  # atno 11005 bound_to 11000
  144.8969  139.4700  143.6651 LP  0  0  0  0  0  0  0  0  0  0  0  0  # atno 17320 bound_to 7965
  146.3096  139.7700  142.9030 LP  0  0  0  0  0  0  0  0  0  0  0  0  # atno 17321 bound_to 7965
  140.3144  143.3177  152.0846 LP  0  0  0  0  0  0  0  0  0  0  0  0  # atno 17342 bound_to 10162
  139.4972  144.6615  151.6454 LP  0  0  0  0  0  0  0  0  0  0  0  0  # atno 17343 bound_to 10162
  156.0839  130.5843  150.9613 LP  0  0  0  0  0  0  0  0  0  0  0  0  # atno 17370 bound_to 10713
  157.6315  131.0920  150.8433 LP  0  0  0  0  0  0  0  0  0  0  0  0  # atno 17371 bound_to 10713
  140.0301  134.6418  155.9118 LP  0  0  0  0  0  0  0  0  0  0  0  0  # atno 17394 bound_to 11000
  141.1839  133.6551  156.5134 LP  0  0  0  0  0  0  0  0  0  0  0  0  # atno 17395 bound_to 11000

$$$$
