AV-unprocessed.smi:2557|AV-procd|sdf|10030|dock2
  -GOLD-   2272014 73D 1   1.00000     0.00000
 Structure written by MMmdl.
 38 40  0  0  0  0  0  0  0  0  2 V2000
  151.6192  135.3574  156.1331 O   0  5  0  0  0  0  0  0  0  0  0  0
  150.4990  135.6474  155.6503 C   0  0  0  0  0  0  0  0  0  0  0  0
  149.5599  134.9035  154.9302 C   0  0  0  0  0  0  0  0  0  0  0  0
  149.7831  133.4668  154.6218 C   0  0  0  0  0  0  0  0  0  0  0  0
  150.8066  132.8725  154.9582 O   0  0  0  0  0  0  0  0  0  0  0  0
  148.7840  132.7724  153.9221 N   0  0  0  0  0  0  0  0  0  0  0  0
  147.7013  133.3887  153.5548 C   0  0  0  0  0  0  0  0  0  0  0  0
  146.5905  132.6713  152.7832 C   0  0  0  0  0  0  0  0  0  0  0  0
  146.8990  131.1830  152.4891 C   0  0  0  0  0  0  0  0  0  0  0  0
  145.7358  130.4999  151.7521 C   0  0  0  0  0  0  0  0  0  0  0  0
  145.3899  131.2429  150.4530 C   0  0  0  0  0  0  0  0  0  0  0  0
  145.0767  132.7212  150.7294 C   0  0  0  0  0  0  0  0  0  0  0  0
  146.2326  133.4104  151.4737 C   0  0  0  0  0  0  0  0  0  0  0  0
  147.4301  134.7248  153.7877 N   0  0  0  0  0  0  0  0  0  0  0  0
  148.3682  135.4753  154.4864 N   0  0  0  0  0  0  0  0  0  0  0  0
  150.2341  137.0788  155.8934 C   0  0  0  0  0  0  0  0  0  0  0  0
  150.1785  137.5956  157.2066 C   0  0  0  0  0  0  0  0  0  0  0  0
  149.9156  138.9678  157.3848 C   0  0  0  0  0  0  0  0  0  0  0  0
  149.7093  139.8235  156.3610 N   0  0  0  0  0  0  0  0  0  0  0  0
  149.7551  139.3253  155.1068 C   0  0  0  0  0  0  0  0  0  0  0  0
  150.0108  137.9700  154.8207 C   0  0  0  0  0  0  0  0  0  0  0  0
  145.7054  132.6886  153.4217 H   0  0  0  0  0  0  0  0  0  0  0  0
  147.8015  131.0977  151.8817 H   0  0  0  0  0  0  0  0  0  0  0  0
  147.0989  130.6486  153.4190 H   0  0  0  0  0  0  0  0  0  0  0  0
  145.9940  129.4642  151.5301 H   0  0  0  0  0  0  0  0  0  0  0  0
  144.8593  130.4684  152.4006 H   0  0  0  0  0  0  0  0  0  0  0  0
  146.2254  131.1697  149.7558 H   0  0  0  0  0  0  0  0  0  0  0  0
  144.5383  130.7661  149.9670 H   0  0  0  0  0  0  0  0  0  0  0  0
  144.8777  133.2400  149.7912 H   0  0  0  0  0  0  0  0  0  0  0  0
  144.1644  132.7960  151.3226 H   0  0  0  0  0  0  0  0  0  0  0  0
  145.9544  134.4448  151.6792 H   0  0  0  0  0  0  0  0  0  0  0  0
  147.1081  133.4514  150.8237 H   0  0  0  0  0  0  0  0  0  0  0  0
  146.5867  135.1949  153.4928 H   0  0  0  0  0  0  0  0  0  0  0  0
  148.1612  136.4457  154.6751 H   0  0  0  0  0  0  0  0  0  0  0  0
  150.3342  136.9500  158.0586 H   0  0  0  0  0  0  0  0  0  0  0  0
  149.8698  139.3900  158.3777 H   0  0  0  0  0  0  0  0  0  0  0  0
  149.5835  140.0286  154.3056 H   0  0  0  0  0  0  0  0  0  0  0  0
  150.0371  137.6194  153.7996 H   0  0  0  0  0  0  0  0  0  0  0  0
  1  2  1  0  0  0  0
  2  3  2  0  0  0  0
  2 16  1  0  0  0  0
  3 15  1  0  0  0  0
  3  4  1  0  0  0  0
  4  5  2  0  0  0  0
  4  6  1  0  0  0  0
  6  7  2  0  0  0  0
  7  8  1  0  0  0  0
  7 14  1  0  0  0  0
  8 13  1  0  0  0  0
  8  9  1  0  0  0  0
  8 22  1  0  0  0  0
  9 10  1  0  0  0  0
  9 23  1  0  0  0  0
  9 24  1  0  0  0  0
 10 11  1  0  0  0  0
 10 25  1  0  0  0  0
 10 26  1  0  0  0  0
 11 12  1  0  0  0  0
 11 27  1  0  0  0  0
 11 28  1  0  0  0  0
 12 13  1  0  0  0  0
 12 29  1  0  0  0  0
 12 30  1  0  0  0  0
 13 31  1  0  0  0  0
 13 32  1  0  0  0  0
 14 15  1  0  0  0  0
 14 33  1  0  0  0  0
 15 34  1  0  0  0  0
 16 21  1  0  0  0  0
 16 17  2  0  0  0  0
 17 18  1  0  0  0  0
 17 35  1  0  0  0  0
 18 19  2  0  0  0  0
 18 36  1  0  0  0  0
 19 20  1  0  0  0  0
 20 21  2  0  0  0  0
 20 37  1  0  0  0  0
 21 38  1  0  0  0  0
M  CHG  1   1  -1
M  END
> <s_m_source_file>
AV-unprocessed.smi

> <i_m_source_file_index>
2557

> <i_lp_mmshare_version>
43012

> <i_f3d_flags>
0

> <s_epik_input>
W2NIXTFbY0hdbltjSF1bY0hdYzFDKD1PKUMyPUMoW09IXSlOPUMoW05IXVtOSF0yKVtDSF0zW0NIMl1bQ0gyXVtDSDJdW0NIMl1bQ0gyXTM=

> <s_epik_cmdline>
J2VwaWtfcHl0aG9uJywgJy1waCcsICc3LjAnLCAnLXRuJywgJzgnLCAnLW1hJywgJzIwMCcsICctbWV0YWxfYmluZGluZycsICctaW1hZScsICc8aW5maWxlLm1hZT4nLCAnLW9tYWUnLCAnPG91dGZpbGUubWFlPic=

> <r_epik_Ionization_Penalty>
0.904364

> <r_epik_Ionization_Penalty_Charging>
0.00179702

> <r_epik_Ionization_Penalty_Neutral>
0.902567

> <r_epik_State_Penalty>
2.26092

> <r_epik_Charging_Adjusted_Penalty>
2.26271

> <i_epik_Tot_Q>
-1

> <i_epik_Tot_abs_Q>
1

> <r_epik_Metal_State_Penalty>
1.86017

> <b_epik_Metal_Only>
0

> <s_epik_Chemistry_Notes>
This compound has an imine and may undergo hydrolysis.

> <s_lp_Force_Field>
OPLS_2005

> <r_lp_Energy>
33.3792

> <b_lp_Chiralities_Consistent>
1

> <s_lp_Variant>
AV-unprocessed.smi:2557-4

> <Gold.Version>
5.8.1

> <Gold.Id.Protein>
6NUR|6NUR_protein|mol2

> <Gold.PLP.Fitness>
41.0976

> <Gold.PLP.PLP>
-32.1745

> <Gold.PLP.part.hbond>
-2.9293

> <Gold.PLP.part.metal>
0.0000

> <Gold.PLP.part.buried>
-5.1280

> <Gold.PLP.part.nonpolar>
-24.7025

> <Gold.PLP.part.repulsive>
0.1174

> <Gold.PLP.ligand.clash>
0.0000

> <Gold.PLP.ligand.torsion>
1.1361

> <Gold.PLP.Chemscore.Hbond>
2.0000

> <Gold.PLP.Chemscore.CHOScore>
0.9998

> <Gold.PLP.Chemscore.Metal>
0.0000

> <Gold.Chemscore.Hbonds>
donor molecule, donor type, donor heavy atom, donor atom, acceptor molecule, acceptor atom, score
      P1  H 10752 10765       L1     1  2.00

> <Gold.PLP.Chemscore.Internal.Correction>
2.1959

> <Gold.Rescore>
     Score         DG    S(hbond)    S(metal)    S(lipo)     H(rot)  DE(clash)    DE(int)     intcor
     14.27     -15.75       0.92        0.00      83.35       1.00       0.17       1.31       ----

> <Gold.Chemscore.Fitness>
14.2714

> <Gold.Chemscore.DG>
-15.7491

> <Gold.Chemscore.ZeroCoef>
-5.4800

> <Gold.Chemscore.Hbond>
0.9213

> <Gold.Chemscore.Metal>
0.0000

> <Gold.Chemscore.Lipo>
83.3501

> <Gold.Chemscore.Internal_Hbond>
0.0000

> <Gold.Chemscore.DEClash>
0.1705

> <Gold.Chemscore.DEInternal>
1.3072

> <Gold.Chemscore.Rot>
1.0000

> <Gold.Chemscore.Internal.Correction>
   9.000000E+99

> <Gold.Chemscore.Hbonds>
donor molecule, donor type, donor heavy atom, donor atom, acceptor molecule, acceptor atom, score
      P1  H 10752 10765       L1     1  0.96

> <Gold.Chemscore.Hbond.Weighted>
-3.0772

> <Gold.Chemscore.Metal.Weighted>
-0.0000

> <Gold.Chemscore.Lipo.Weighted>
-9.7520

> <Gold.Chemscore.Internal_Hbond.Weighted>
0.0000

> <Gold.Chemscore.DEClash.Weighted>
0.1705

> <Gold.Chemscore.DEInternal.Weighted>
1.3072

> <Gold.Chemscore.Rot.Weighted>
2.5600

> <Gold.Chemscore.Internal.Correction.Weighted>
   9.000000E+99

> <Gold.Protein.RotatedTorsions>
[ 6907 6896 6895 6894 ] final  -56.91 input  -60.11 | X-H torsion
[ 7974 7965 7964 7962 ] final  -54.56 input  175.53 | X-H torsion
[ 8008 7997 7996 7995 ] final  142.80 input   59.86 | X-H torsion
[ 10167 10162 10161 10158 ] final  -26.77 input  -65.29 | X-H torsion
[ 10718 10713 10712 10709 ] final  -90.79 input   66.30 | X-H torsion
[ 10763 10752 10751 10750 ] final -141.24 input  -60.55 | X-H torsion
[ 11005 11000 10999 10996 ] final   -5.80 input  -57.11 | X-H torsion

> <Gold.Protein.ActiveResidues>
 VAL166  LYS551  ARG553  GLY616  TRP617  ASP618  TYR619  PRO620  LYS621  CYS622 
 ASP623  PHE694  ASN695  SER759  ASP760  ASP761  ALA762  ILE779  LEU786  VAL792 
 PHE793  MET794  SER795  GLU796  ALA797  LYS798  CYS799  TRP800  GLU811  SER814 

> <Gold.Protein.RotatedAtoms>
  150.8129  134.7294  159.6703 H   0  0  0  0  0  0  0  0  0  0  0  0  # atno 6907 bound_to 6896
  152.4248  134.5885  159.9977 H   0  0  0  0  0  0  0  0  0  0  0  0  # atno 6908 bound_to 6896
  151.6090  133.3312  159.3099 H   0  0  0  0  0  0  0  0  0  0  0  0  # atno 6909 bound_to 6896
  145.8841  140.8121  142.9824 H   0  0  0  0  0  0  0  0  0  0  0  0  # atno 7974 bound_to 7965
  156.2942  140.2279  156.4787 H   0  0  0  0  0  0  0  0  0  0  0  0  # atno 8008 bound_to 7997
  154.7872  140.0456  157.1194 H   0  0  0  0  0  0  0  0  0  0  0  0  # atno 8009 bound_to 7997
  154.9688  140.3064  155.5000 H   0  0  0  0  0  0  0  0  0  0  0  0  # atno 8010 bound_to 7997
  140.7281  143.4150  151.1044 H   0  0  0  0  0  0  0  0  0  0  0  0  # atno 10167 bound_to 10162
  155.9989  130.4923  150.5377 H   0  0  0  0  0  0  0  0  0  0  0  0  # atno 10718 bound_to 10713
  154.8552  135.3530  154.5836 H   0  0  0  0  0  0  0  0  0  0  0  0  # atno 10763 bound_to 10752
  153.6447  135.6997  153.5234 H   0  0  0  0  0  0  0  0  0  0  0  0  # atno 10764 bound_to 10752
  153.2942  135.4225  155.1153 H   0  0  0  0  0  0  0  0  0  0  0  0  # atno 10765 bound_to 10752
  140.6951  133.9038  155.8644 H   0  0  0  0  0  0  0  0  0  0  0  0  # atno 11005 bound_to 11000
  144.6728  140.1429  143.7436 LP  0  0  0  0  0  0  0  0  0  0  0  0  # atno 17320 bound_to 7965
  145.8988  139.2418  143.1506 LP  0  0  0  0  0  0  0  0  0  0  0  0  # atno 17321 bound_to 7965
  139.7788  143.8386  152.3134 LP  0  0  0  0  0  0  0  0  0  0  0  0  # atno 17342 bound_to 10162
  139.8330  144.7245  150.9427 LP  0  0  0  0  0  0  0  0  0  0  0  0  # atno 17343 bound_to 10162
  157.3318  131.0701  151.1855 LP  0  0  0  0  0  0  0  0  0  0  0  0  # atno 17370 bound_to 10713
  157.2734  130.6715  149.6030 LP  0  0  0  0  0  0  0  0  0  0  0  0  # atno 17371 bound_to 10713
  141.0210  134.0889  157.4121 LP  0  0  0  0  0  0  0  0  0  0  0  0  # atno 17394 bound_to 11000
  139.8912  135.0117  156.6780 LP  0  0  0  0  0  0  0  0  0  0  0  0  # atno 17395 bound_to 11000

$$$$
