AV-unprocessed.smi:2446|AV-procd|sdf|9641|dock3
  -GOLD-   2272013273D 1   1.00000     0.00000
 Structure written by MMmdl.
 39 40  0  0  0  0  0  0  0  0  1 V2000
  150.8939  145.2757  158.8500 C   0  0  0  0  0  0  0  0  0  0  0  0
  151.5935  143.9491  159.0911 C   0  0  0  0  0  0  0  0  0  0  0  0
  152.7168  143.8904  159.9436 C   0  0  0  0  0  0  0  0  0  0  0  0
  153.3907  142.7534  160.2126 N   0  0  0  0  0  0  0  0  0  0  0  0
  152.9577  141.6142  159.6350 C   0  0  0  0  0  0  0  0  0  0  0  0
  151.8493  141.5572  158.7677 C   0  0  0  0  0  0  0  0  0  0  0  0
  151.1518  142.7538  158.4733 C   0  0  0  0  0  0  0  0  0  0  0  0
  150.0112  142.8097  157.6240 N   0  0  0  0  0  0  0  0  0  0  0  0
  149.0915  141.8593  157.3657 C   0  0  0  0  0  0  0  0  0  0  0  0
  149.0759  140.7392  157.8711 O   0  0  0  0  0  0  0  0  0  0  0  0
  148.1595  142.2265  156.4671 N   0  0  0  0  0  0  0  0  0  0  0  0
  147.0225  141.4530  155.9556 C   0  0  2  0  0  0  0  0  0  0  0  0
  147.2147  141.1619  154.4552 C   0  0  0  0  0  0  0  0  0  0  0  0
  147.0531  142.4248  153.5924 C   0  0  0  0  0  0  0  0  0  0  0  0
  145.7050  143.1137  153.8541 C   0  0  0  0  0  0  0  0  0  0  0  0
  145.5184  143.4524  155.3479 C   0  0  1  0  0  0  0  0  0  0  0  0
  144.1746  144.1607  155.6165 C   0  0  0  0  0  0  0  0  0  0  0  0
  143.9952  145.1757  154.7707 F   0  0  0  0  0  0  0  0  0  0  0  0
  143.1683  143.2982  155.4734 F   0  0  0  0  0  0  0  0  0  0  0  0
  144.1464  144.6293  156.8642 F   0  0  0  0  0  0  0  0  0  0  0  0
  145.6797  142.1767  156.2052 C   0  0  0  0  0  0  0  0  0  0  0  0
  151.3496  146.0753  159.4346 H   0  0  0  0  0  0  0  0  0  0  0  0
  149.8426  145.2103  159.1322 H   0  0  0  0  0  0  0  0  0  0  0  0
  150.9535  145.5512  157.7969 H   0  0  0  0  0  0  0  0  0  0  0  0
  153.0872  144.7820  160.4280 H   0  0  0  0  0  0  0  0  0  0  0  0
  153.5076  140.7168  159.8767 H   0  0  0  0  0  0  0  0  0  0  0  0
  151.5545  140.6025  158.3612 H   0  0  0  0  0  0  0  0  0  0  0  0
  149.9252  143.6556  157.0802 H   0  0  0  0  0  0  0  0  0  0  0  0
  148.2476  143.1614  156.0958 H   0  0  0  0  0  0  0  0  0  0  0  0
  147.0024  140.4904  156.4693 H   0  0  0  0  0  0  0  0  0  0  0  0
  148.1926  140.7120  154.2793 H   0  0  0  0  0  0  0  0  0  0  0  0
  146.4801  140.4204  154.1387 H   0  0  0  0  0  0  0  0  0  0  0  0
  147.8663  143.1215  153.7992 H   0  0  0  0  0  0  0  0  0  0  0  0
  147.1353  142.1637  152.5371 H   0  0  0  0  0  0  0  0  0  0  0  0
  145.6416  144.0209  153.2527 H   0  0  0  0  0  0  0  0  0  0  0  0
  144.8952  142.4650  153.5177 H   0  0  0  0  0  0  0  0  0  0  0  0
  146.3098  144.1482  155.6306 H   0  0  0  0  0  0  0  0  0  0  0  0
  144.8638  141.4889  155.9798 H   0  0  0  0  0  0  0  0  0  0  0  0
  145.5753  142.4221  157.2620 H   0  0  0  0  0  0  0  0  0  0  0  0
  1  2  1  0  0  0  0
  1 22  1  0  0  0  0
  1 23  1  0  0  0  0
  1 24  1  0  0  0  0
  2  7  1  0  0  0  0
  2  3  2  0  0  0  0
  3  4  1  0  0  0  0
  3 25  1  0  0  0  0
  4  5  2  0  0  0  0
  5  6  1  0  0  0  0
  5 26  1  0  0  0  0
  6  7  2  0  0  0  0
  6 27  1  0  0  0  0
  7  8  1  0  0  0  0
  8  9  1  0  0  0  0
  8 28  1  0  0  0  0
  9 10  2  0  0  0  0
  9 11  1  0  0  0  0
 11 12  1  0  0  0  0
 11 29  1  0  0  0  0
 12 21  1  0  0  0  0
 12 13  1  0  0  0  0
 12 30  1  0  0  0  0
 13 14  1  0  0  0  0
 13 31  1  0  0  0  0
 13 32  1  0  0  0  0
 14 15  1  0  0  0  0
 14 33  1  0  0  0  0
 14 34  1  0  0  0  0
 15 16  1  0  0  0  0
 15 35  1  0  0  0  0
 15 36  1  0  0  0  0
 16 17  1  0  0  0  0
 16 21  1  0  0  0  0
 16 37  1  0  0  0  0
 17 18  1  0  0  0  0
 17 19  1  0  0  0  0
 17 20  1  0  0  0  0
 21 38  1  0  0  0  0
 21 39  1  0  0  0  0
M  END
> <s_m_source_file>
AV-unprocessed.smi

> <i_m_source_file_index>
2446

> <i_lp_mmshare_version>
43012

> <i_f3d_flags>
0

> <s_epik_input>
W0NIM11jMVtjSF1uW2NIXVtjSF1jMVtOSF1DKD1PKVtOSF1bQ0BASF0yW0NIMl1bQ0gyXVtDSDJdW0NAQEhdKEMoRikoRilGKVtDSDJdMg==

> <s_epik_cmdline>
J2VwaWtfcHl0aG9uJywgJy1waCcsICc3LjAnLCAnLXRuJywgJzgnLCAnLW1hJywgJzIwMCcsICctbWV0YWxfYmluZGluZycsICctaW1hZScsICc8aW5maWxlLm1hZT4nLCAnLW9tYWUnLCAnPG91dGZpbGUubWFlPic=

> <r_epik_Ionization_Penalty>
0.20168

> <r_epik_Ionization_Penalty_Charging>
0

> <r_epik_Ionization_Penalty_Neutral>
0.20168

> <r_epik_State_Penalty>
0.191514

> <r_epik_Charging_Adjusted_Penalty>
0.191514

> <i_epik_Tot_Q>
0

> <i_epik_Tot_abs_Q>
0

> <r_epik_Metal_State_Penalty>
0.142371

> <b_epik_Metal_Only>
0

> <s_lp_Force_Field>
OPLS_2005

> <r_lp_Energy>
25.5489

> <b_lp_Chiralities_Consistent>
1

> <s_lp_Variant>
AV-unprocessed.smi:2446-1

> <Gold.Version>
5.8.1

> <Gold.Id.Protein>
6NUR|6NUR_protein|mol2

> <Gold.PLP.Fitness>
43.6785

> <Gold.PLP.PLP>
-38.4012

> <Gold.PLP.part.hbond>
-2.0000

> <Gold.PLP.part.metal>
0.0000

> <Gold.PLP.part.buried>
-7.5655

> <Gold.PLP.part.nonpolar>
-27.9022

> <Gold.PLP.part.repulsive>
0.0663

> <Gold.PLP.ligand.clash>
0.0000

> <Gold.PLP.ligand.torsion>
0.3116

> <Gold.PLP.Chemscore.Hbond>
1.9600

> <Gold.PLP.Chemscore.CHOScore>
0.0000

> <Gold.PLP.Chemscore.Metal>
0.0000

> <Gold.Chemscore.Hbonds>
donor molecule, donor type, donor heavy atom, donor atom, acceptor molecule, acceptor atom, score
      L1  H     8    28       P1  8028  0.94
      L1  H    11    29       P1  8028  1.00

> <Gold.PLP.Chemscore.Internal.Correction>
0.0204

> <Gold.Rescore>
     Score         DG    S(hbond)    S(metal)    S(lipo)     H(rot)  DE(clash)    DE(int)     intcor
     19.35     -19.93       1.71        0.00      96.60       1.00       0.19       0.39       ----

> <Gold.Chemscore.Fitness>
19.3472

> <Gold.Chemscore.DG>
-19.9250

> <Gold.Chemscore.ZeroCoef>
-5.4800

> <Gold.Chemscore.Hbond>
1.7075

> <Gold.Chemscore.Metal>
0.0000

> <Gold.Chemscore.Lipo>
96.5973

> <Gold.Chemscore.Internal_Hbond>
0.0000

> <Gold.Chemscore.DEClash>
0.1914

> <Gold.Chemscore.DEInternal>
0.3864

> <Gold.Chemscore.Rot>
1.0000

> <Gold.Chemscore.Internal.Correction>
   9.000000E+99

> <Gold.Chemscore.Hbonds>
donor molecule, donor type, donor heavy atom, donor atom, acceptor molecule, acceptor atom, score
      L1  H     8    28       P1  8028  0.83
      L1  H    11    29       P1  8028  0.74

> <Gold.Chemscore.Hbond.Weighted>
-5.7031

> <Gold.Chemscore.Metal.Weighted>
-0.0000

> <Gold.Chemscore.Lipo.Weighted>
-11.3019

> <Gold.Chemscore.Internal_Hbond.Weighted>
0.0000

> <Gold.Chemscore.DEClash.Weighted>
0.1914

> <Gold.Chemscore.DEInternal.Weighted>
0.3864

> <Gold.Chemscore.Rot.Weighted>
2.5600

> <Gold.Chemscore.Internal.Correction.Weighted>
   9.000000E+99

> <Gold.Protein.RotatedTorsions>
[ 6907 6896 6895 6894 ] final  -79.62 input  -60.11 | X-H torsion
[ 7974 7965 7964 7962 ] final   43.94 input  175.53 | X-H torsion
[ 8008 7997 7996 7995 ] final -165.38 input   59.86 | X-H torsion
[ 10167 10162 10161 10158 ] final -168.71 input  -65.29 | X-H torsion
[ 10718 10713 10712 10709 ] final   35.52 input   66.30 | X-H torsion
[ 10763 10752 10751 10750 ] final   19.78 input  -60.55 | X-H torsion
[ 11005 11000 10999 10996 ] final -130.06 input  -57.11 | X-H torsion

> <Gold.Protein.ActiveResidues>
 VAL166  LYS551  ARG553  GLY616  TRP617  ASP618  TYR619  PRO620  LYS621  CYS622 
 ASP623  PHE694  ASN695  SER759  ASP760  ASP761  ALA762  ILE779  LEU786  VAL792 
 PHE793  MET794  SER795  GLU796  ALA797  LYS798  CYS799  TRP800  GLU811  SER814 

> <Gold.Protein.RotatedAtoms>
  150.6946  134.4094  159.5154 H   0  0  0  0  0  0  0  0  0  0  0  0  # atno 6907 bound_to 6896
  152.1855  134.8715  160.0531 H   0  0  0  0  0  0  0  0  0  0  0  0  # atno 6908 bound_to 6896
  151.9689  133.3684  159.4100 H   0  0  0  0  0  0  0  0  0  0  0  0  # atno 6909 bound_to 6896
  146.0612  139.5131  142.9657 H   0  0  0  0  0  0  0  0  0  0  0  0  # atno 7974 bound_to 7965
  155.8489  140.0960  157.1687 H   0  0  0  0  0  0  0  0  0  0  0  0  # atno 8008 bound_to 7997
  154.3984  140.1387  156.3882 H   0  0  0  0  0  0  0  0  0  0  0  0  # atno 8009 bound_to 7997
  155.7983  140.3453  155.5390 H   0  0  0  0  0  0  0  0  0  0  0  0  # atno 8010 bound_to 7997
  139.5968  144.1096  152.1698 H   0  0  0  0  0  0  0  0  0  0  0  0  # atno 10167 bound_to 10162
  157.3237  130.7461  149.6802 H   0  0  0  0  0  0  0  0  0  0  0  0  # atno 10718 bound_to 10713
  153.1133  135.6702  153.9463 H   0  0  0  0  0  0  0  0  0  0  0  0  # atno 10763 bound_to 10752
  153.9000  135.3037  155.3450 H   0  0  0  0  0  0  0  0  0  0  0  0  # atno 10764 bound_to 10752
  154.7551  135.5016  153.9437 H   0  0  0  0  0  0  0  0  0  0  0  0  # atno 10765 bound_to 10752
  140.9378  134.1233  157.4177 H   0  0  0  0  0  0  0  0  0  0  0  0  # atno 11005 bound_to 11000
  145.6556  141.0253  143.1736 LP  0  0  0  0  0  0  0  0  0  0  0  0  # atno 17320 bound_to 7965
  144.7176  139.8142  143.7393 LP  0  0  0  0  0  0  0  0  0  0  0  0  # atno 17321 bound_to 7965
  140.0683  144.5800  150.7211 LP  0  0  0  0  0  0  0  0  0  0  0  0  # atno 17342 bound_to 10162
  140.7218  143.2596  151.4253 LP  0  0  0  0  0  0  0  0  0  0  0  0  # atno 17343 bound_to 10162
  155.9688  130.4215  150.4475 LP  0  0  0  0  0  0  0  0  0  0  0  0  # atno 17370 bound_to 10713
  157.2495  131.0543  151.2388 LP  0  0  0  0  0  0  0  0  0  0  0  0  # atno 17371 bound_to 10713
  139.8812  135.0027  156.6140 LP  0  0  0  0  0  0  0  0  0  0  0  0  # atno 17394 bound_to 11000
  140.7775  133.8687  155.8541 LP  0  0  0  0  0  0  0  0  0  0  0  0  # atno 17395 bound_to 11000

$$$$
