AV-unprocessed.smi:3004|AV-procd|sdf|11442|dock1
  -GOLD-   2272016373D 1   1.00000     0.00000
 Structure written by MMmdl.
 47 48  0  0  0  0  0  0  0  0  2 V2000
  147.7479  141.6800  153.8328 C   0  0  0  0  0  0  0  0  0  0  0  0
  148.9187  140.9314  154.3973 C   0  0  0  0  0  0  0  0  0  0  0  0
  149.9162  141.4029  155.2960 C   0  0  0  0  0  0  0  0  0  0  0  0
  150.7376  140.3272  155.4836 C   0  0  0  0  0  0  0  0  0  0  0  0
  151.9674  140.1894  156.3197 C   0  0  0  0  0  0  0  0  0  0  0  0
  150.2232  139.2923  154.7223 N   0  0  0  0  0  0  0  0  0  0  0  0
  150.7120  137.9309  154.5733 C   0  0  0  0  0  0  0  0  0  0  0  0
  149.7917  136.9342  155.2790 C   0  0  0  0  0  0  0  0  0  0  0  0
  149.7478  136.8997  156.5087 O   0  0  0  0  0  0  0  0  0  0  0  0
  149.0624  136.1279  154.4914 N   0  0  0  0  0  0  0  0  0  0  0  0
  148.1098  135.1322  154.9679 C   0  0  0  0  0  0  0  0  0  0  0  0
  146.6844  135.4138  154.4550 C   0  0  0  0  0  0  0  0  0  0  0  0
  146.5730  135.1876  152.9866 N   0  3  1  0  0  0  0  0  0  0  0  0
  146.7091  133.7375  152.6671 C   0  0  0  0  0  0  0  0  0  0  0  0
  146.7310  133.4750  151.1563 C   0  0  0  0  0  0  0  0  0  0  0  0
  145.4601  134.0225  150.5087 C   0  0  0  0  0  0  0  0  0  0  0  0
  145.3364  135.5139  150.8271 C   0  0  0  0  0  0  0  0  0  0  0  0
  145.3628  135.8012  152.3462 C   0  0  2  0  0  0  0  0  0  0  0  0
  145.2897  137.3322  152.5396 C   0  0  0  0  0  0  0  0  0  0  0  0
  149.1071  139.6666  154.0590 N   0  0  0  0  0  0  0  0  0  0  0  0
  147.7571  142.7229  154.1505 H   0  0  0  0  0  0  0  0  0  0  0  0
  146.8058  141.2410  154.1618 H   0  0  0  0  0  0  0  0  0  0  0  0
  147.7608  141.6658  152.7427 H   0  0  0  0  0  0  0  0  0  0  0  0
  150.0140  142.3841  155.7368 H   0  0  0  0  0  0  0  0  0  0  0  0
  152.1852  141.1182  156.8471 H   0  0  0  0  0  0  0  0  0  0  0  0
  152.8318  139.9454  155.7022 H   0  0  0  0  0  0  0  0  0  0  0  0
  151.8471  139.4021  157.0639 H   0  0  0  0  0  0  0  0  0  0  0  0
  150.7882  137.6861  153.5124 H   0  0  0  0  0  0  0  0  0  0  0  0
  151.7200  137.8651  154.9844 H   0  0  0  0  0  0  0  0  0  0  0  0
  149.1569  136.2330  153.4909 H   0  0  0  0  0  0  0  0  0  0  0  0
  148.4350  134.1366  154.6609 H   0  0  0  0  0  0  0  0  0  0  0  0
  148.1406  135.1452  156.0567 H   0  0  0  0  0  0  0  0  0  0  0  0
  145.9558  134.7980  154.9845 H   0  0  0  0  0  0  0  0  0  0  0  0
  146.4377  136.4372  154.7199 H   0  0  0  0  0  0  0  0  0  0  0  0
  147.6254  133.3401  153.1023 H   0  0  0  0  0  0  0  0  0  0  0  0
  145.8840  133.1865  153.1218 H   0  0  0  0  0  0  0  0  0  0  0  0
  147.6098  133.9421  150.7096 H   0  0  0  0  0  0  0  0  0  0  0  0
  146.8153  132.4051  150.9639 H   0  0  0  0  0  0  0  0  0  0  0  0
  145.4876  133.8672  149.4296 H   0  0  0  0  0  0  0  0  0  0  0  0
  144.5866  133.4864  150.8823 H   0  0  0  0  0  0  0  0  0  0  0  0
  146.1504  136.0514  150.3376 H   0  0  0  0  0  0  0  0  0  0  0  0
  144.4130  135.8968  150.3906 H   0  0  0  0  0  0  0  0  0  0  0  0
  144.4770  135.3507  152.7972 H   0  0  0  0  0  0  0  0  0  0  0  0
  144.5080  137.7646  151.9142 H   0  0  0  0  0  0  0  0  0  0  0  0
  146.2290  137.8129  152.2637 H   0  0  0  0  0  0  0  0  0  0  0  0
  145.0452  137.6244  153.5596 H   0  0  0  0  0  0  0  0  0  0  0  0
  147.3652  135.6546  152.5685 H   0  0  0  0  0  0  0  0  0  0  0  0
  1  2  1  0  0  0  0
  1 21  1  0  0  0  0
  1 22  1  0  0  0  0
  1 23  1  0  0  0  0
  2 20  2  0  0  0  0
  2  3  1  0  0  0  0
  3  4  2  0  0  0  0
  3 24  1  0  0  0  0
  4  5  1  0  0  0  0
  4  6  1  0  0  0  0
  5 25  1  0  0  0  0
  5 26  1  0  0  0  0
  5 27  1  0  0  0  0
  6  7  1  0  0  0  0
  6 20  1  0  0  0  0
  7  8  1  0  0  0  0
  7 28  1  0  0  0  0
  7 29  1  0  0  0  0
  8  9  2  0  0  0  0
  8 10  1  0  0  0  0
 10 11  1  0  0  0  0
 10 30  1  0  0  0  0
 11 12  1  0  0  0  0
 11 31  1  0  0  0  0
 11 32  1  0  0  0  0
 12 13  1  0  0  0  0
 12 33  1  0  0  0  0
 12 34  1  0  0  0  0
 13 18  1  0  0  0  0
 13 14  1  0  0  0  0
 13 47  1  0  0  0  0
 14 15  1  0  0  0  0
 14 35  1  0  0  0  0
 14 36  1  0  0  0  0
 15 16  1  0  0  0  0
 15 37  1  0  0  0  0
 15 38  1  0  0  0  0
 16 17  1  0  0  0  0
 16 39  1  0  0  0  0
 16 40  1  0  0  0  0
 17 18  1  0  0  0  0
 17 41  1  0  0  0  0
 17 42  1  0  0  0  0
 18 19  1  0  0  0  0
 18 43  1  0  0  0  0
 19 44  1  0  0  0  0
 19 45  1  0  0  0  0
 19 46  1  0  0  0  0
M  CHG  1  13   1
M  END
> <s_m_source_file>
AV-unprocessed.smi

> <i_m_source_file_index>
3004

> <i_lp_mmshare_version>
43012

> <i_f3d_flags>
0

> <s_epik_input>
W0NIM11jMVtjSF1jKFtDSDNdKW4objEpW0NIMl1DKD1PKVtOSF1bQ0gyXVtDSDJdTjJbQ0gyXVtDSDJdW0NIMl1bQ0gyXVtDQEhdMltDSDNd

> <s_epik_cmdline>
J2VwaWtfcHl0aG9uJywgJy1waCcsICc3LjAnLCAnLXRuJywgJzgnLCAnLW1hJywgJzIwMCcsICctbWV0YWxfYmluZGluZycsICctaW1hZScsICc8aW5maWxlLm1hZT4nLCAnLW9tYWUnLCAnPG91dGZpbGUubWFlPic=

> <r_lp_tautomer_probability>
1

> <r_epik_Ionization_Penalty>
0.00303644

> <r_epik_Ionization_Penalty_Charging>
0.00284254

> <r_epik_Ionization_Penalty_Neutral>
0.000193908

> <r_epik_State_Penalty>
-0

> <r_epik_Charging_Adjusted_Penalty>
0.00284254

> <i_epik_Tot_Q>
1

> <i_epik_Tot_abs_Q>
1

> <r_epik_Metal_State_Penalty>
-0

> <b_epik_Metal_Only>
0

> <s_lp_Force_Field>
OPLS_2005

> <r_lp_Energy>
17.2859

> <b_lp_Chiralities_Consistent>
1

> <s_lp_Variant>
AV-unprocessed.smi:3004-4

> <Gold.Version>
5.8.1

> <Gold.Id.Protein>
6NUR|6NUR_protein|mol2

> <Gold.PLP.Fitness>
44.0967

> <Gold.PLP.PLP>
-35.6770

> <Gold.PLP.part.hbond>
-2.0000

> <Gold.PLP.part.metal>
0.0000

> <Gold.PLP.part.buried>
-4.5008

> <Gold.PLP.part.nonpolar>
-30.2647

> <Gold.PLP.part.repulsive>
1.0343

> <Gold.PLP.ligand.clash>
0.0000

> <Gold.PLP.ligand.torsion>
0.3212

> <Gold.PLP.Chemscore.Hbond>
3.0000

> <Gold.PLP.Chemscore.CHOScore>
0.0000

> <Gold.PLP.Chemscore.Metal>
0.0000

> <Gold.Chemscore.Hbonds>
donor molecule, donor type, donor heavy atom, donor atom, acceptor molecule, acceptor atom, score
      L1  H    10    30       P1  7948  1.00
      L1  H    13    47       P1  7948  2.00

> <Gold.PLP.Chemscore.Internal.Correction>
0.0622

> <Gold.Rescore>
     Score         DG    S(hbond)    S(metal)    S(lipo)     H(rot)  DE(clash)    DE(int)     intcor
     16.59     -17.02       1.95        0.00      79.45       1.67       0.11       0.32       ----

> <Gold.Chemscore.Fitness>
16.5887

> <Gold.Chemscore.DG>
-17.0201

> <Gold.Chemscore.ZeroCoef>
-5.4800

> <Gold.Chemscore.Hbond>
1.9486

> <Gold.Chemscore.Metal>
0.0000

> <Gold.Chemscore.Lipo>
79.4524

> <Gold.Chemscore.Internal_Hbond>
0.0000

> <Gold.Chemscore.DEClash>
0.1066

> <Gold.Chemscore.DEInternal>
0.3248

> <Gold.Chemscore.Rot>
1.6657

> <Gold.Chemscore.Internal.Correction>
   9.000000E+99

> <Gold.Chemscore.Hbonds>
donor molecule, donor type, donor heavy atom, donor atom, acceptor molecule, acceptor atom, score
      L1  H    10    30       P1  7948  0.92
      L1  H    13    47       P1  7948  1.00

> <Gold.Chemscore.Hbond.Weighted>
-6.5083

> <Gold.Chemscore.Metal.Weighted>
-0.0000

> <Gold.Chemscore.Lipo.Weighted>
-9.2959

> <Gold.Chemscore.Internal_Hbond.Weighted>
0.0000

> <Gold.Chemscore.DEClash.Weighted>
0.1066

> <Gold.Chemscore.DEInternal.Weighted>
0.3248

> <Gold.Chemscore.Rot.Weighted>
4.2641

> <Gold.Chemscore.Internal.Correction.Weighted>
   9.000000E+99

> <Gold.Protein.RotatedTorsions>
[ 6907 6896 6895 6894 ] final  -54.85 input  -60.11 | X-H torsion
[ 7974 7965 7964 7962 ] final  -19.50 input  175.53 | X-H torsion
[ 8008 7997 7996 7995 ] final   19.01 input   59.86 | X-H torsion
[ 10167 10162 10161 10158 ] final    6.55 input  -65.29 | X-H torsion
[ 10718 10713 10712 10709 ] final  105.15 input   66.30 | X-H torsion
[ 10763 10752 10751 10750 ] final   89.61 input  -60.55 | X-H torsion
[ 11005 11000 10999 10996 ] final  112.44 input  -57.11 | X-H torsion

> <Gold.Protein.ActiveResidues>
 VAL166  LYS551  ARG553  GLY616  TRP617  ASP618  TYR619  PRO620  LYS621  CYS622 
 ASP623  PHE694  ASN695  SER759  ASP760  ASP761  ALA762  ILE779  LEU786  VAL792 
 PHE793  MET794  SER795  GLU796  ALA797  LYS798  CYS799  TRP800  GLU811  SER814 

> <Gold.Protein.RotatedAtoms>
  150.8302  134.7552  159.6846 H   0  0  0  0  0  0  0  0  0  0  0  0  # atno 6907 bound_to 6896
  152.4408  134.5592  159.9899 H   0  0  0  0  0  0  0  0  0  0  0  0  # atno 6908 bound_to 6896
  151.5755  133.3347  159.3034 H   0  0  0  0  0  0  0  0  0  0  0  0  # atno 6909 bound_to 6896
  146.1838  140.4070  142.8484 H   0  0  0  0  0  0  0  0  0  0  0  0  # atno 7974 bound_to 7965
  154.9144  140.3018  155.5249 H   0  0  0  0  0  0  0  0  0  0  0  0  # atno 8008 bound_to 7997
  156.3013  140.2383  156.4122 H   0  0  0  0  0  0  0  0  0  0  0  0  # atno 8009 bound_to 7997
  154.8393  140.0414  157.1519 H   0  0  0  0  0  0  0  0  0  0  0  0  # atno 8010 bound_to 7997
  140.6421  143.7749  150.7444 H   0  0  0  0  0  0  0  0  0  0  0  0  # atno 10167 bound_to 10162
  157.6715  131.0821  150.5814 H   0  0  0  0  0  0  0  0  0  0  0  0  # atno 10718 bound_to 10713
  153.1888  135.4464  155.0123 H   0  0  0  0  0  0  0  0  0  0  0  0  # atno 10763 bound_to 10752
  154.8077  135.3281  154.7389 H   0  0  0  0  0  0  0  0  0  0  0  0  # atno 10764 bound_to 10752
  153.7845  135.6975  153.4937 H   0  0  0  0  0  0  0  0  0  0  0  0  # atno 10765 bound_to 10752
  139.8927  134.9530  156.6586 H   0  0  0  0  0  0  0  0  0  0  0  0  # atno 11005 bound_to 11000
  144.8361  140.6784  143.6259 LP  0  0  0  0  0  0  0  0  0  0  0  0  # atno 17320 bound_to 7965
  145.3999  139.1600  143.4183 LP  0  0  0  0  0  0  0  0  0  0  0  0  # atno 17321 bound_to 7965
  140.1382  143.4465  152.2211 LP  0  0  0  0  0  0  0  0  0  0  0  0  # atno 17342 bound_to 10162
  139.5631  144.7418  151.4099 LP  0  0  0  0  0  0  0  0  0  0  0  0  # atno 17343 bound_to 10162
  156.6114  130.4381  149.5857 LP  0  0  0  0  0  0  0  0  0  0  0  0  # atno 17370 bound_to 10713
  156.2427  130.6861  151.1571 LP  0  0  0  0  0  0  0  0  0  0  0  0  # atno 17371 bound_to 10713
  140.7464  133.8934  155.8315 LP  0  0  0  0  0  0  0  0  0  0  0  0  # atno 17394 bound_to 11000
  141.0036  134.1117  157.4293 LP  0  0  0  0  0  0  0  0  0  0  0  0  # atno 17395 bound_to 11000

$$$$
