#       Name:                AV-unprocessed.smi:1239
#       Creating user name   scv26
#       Creation time:       Fri Mar 27 04:27:29 2020


#       File generated by GOLD software.
#

@<TRIPOS>MOLECULE
AV-unprocessed.smi:1239
    53    54     1
SMALL
NO_CHARGES


@<TRIPOS>ATOM
      1 ****        -1.9177   2.0410  -0.1346 C.3            1 S1                 0.0000
      2 ****        -2.3997   1.4315   1.2042 C.3            1 S1                 0.0000
      3 ****        -1.8395  -0.0077   1.3869 C.3            1 S1                 0.0000
      4 ****        -0.3846  -0.0859   1.2705 N.am           1 S1                 0.0000
      5 ****         0.2855  -0.6089   0.2329 C.2            1 S1                 0.0000
      6 ****        -0.2657  -1.0534  -0.7734 O.2            1 S1                 0.0000
      7 ****         1.6125  -0.5570   0.4397 N.am           1 S1                 0.0000
      8 ****         2.6687  -1.0169  -0.3939 C.ar           1 S1                 0.0000
      9 ****         3.9764  -0.5962  -0.0855 C.ar           1 S1                 0.0000
     10 ****         5.0522  -1.0422  -0.8757 C.ar           1 S1                 0.0000
     11 ****         4.7966  -1.9125  -1.9639 C.ar           1 S1                 0.0000
     12 ****         5.8413  -2.3902  -2.7880 N.pl3          1 S1                 0.0000
     13 ****         5.5359  -3.2735  -3.9089 C.3            1 S1                 0.0000
     14 ****         7.2157  -1.9662  -2.5508 C.3            1 S1                 0.0000
     15 ****         3.5377  -2.3237  -2.2528 N.ar           1 S1                 0.0000
     16 ****         2.5084  -1.8934  -1.4931 C.ar           1 S1                 0.0000
     17 ****        -3.8973   1.4860   1.3127 N.4            1 S1                 1.0000
     18 ****        -4.4665   0.7094   2.4507 C.3            1 S1                 0.0000
     19 ****        -6.0010   0.8093   2.4940 C.3            1 S1                 0.0000
     20 ****        -6.3954   2.1703   2.5640 O.3            1 S1                 0.0000
     21 ****        -5.9698   2.8861   1.4160 C.3            1 S1                 0.0000
     22 ****        -4.4342   2.8761   1.3431 C.3            1 S1                 0.0000
     23 ****        -0.8330   2.0096  -0.2291 H              1 S1                 0.0000
     24 ****        -2.1755   3.0929  -0.2382 H              1 S1                 0.0000
     25 ****        -2.3371   1.5051  -0.9867 H              1 S1                 0.0000
     26 ****        -1.9920   2.0394   2.0137 H              1 S1                 0.0000
     27 ****        -2.0529  -0.3779   2.3889 H              1 S1                 0.0000
     28 ****        -2.3268  -0.6945   0.6924 H              1 S1                 0.0000
     29 ****         0.1518   0.2650   2.0507 H              1 S1                 0.0000
     30 ****         1.9079  -0.1034   1.2918 H              1 S1                 0.0000
     31 ****         4.1584   0.0651   0.7490 H              1 S1                 0.0000
     32 ****         6.0491  -0.7094  -0.6296 H              1 S1                 0.0000
     33 ****         4.8741  -2.7759  -4.6185 H              1 S1                 0.0000
     34 ****         5.0477  -4.1831  -3.5577 H              1 S1                 0.0000
     35 ****         6.4397  -3.5658  -4.4435 H              1 S1                 0.0000
     36 ****         7.5423  -2.2627  -1.5536 H              1 S1                 0.0000
     37 ****         7.3031  -0.8830  -2.6408 H              1 S1                 0.0000
     38 ****         7.8997  -2.4154  -3.2707 H              1 S1                 0.0000
     39 ****         1.5478  -2.2878  -1.7825 H              1 S1                 0.0000
     40 ****        -4.2221  -0.3482   2.3641 H              1 S1                 0.0000
     41 ****        -4.0406   1.0702   3.3883 H              1 S1                 0.0000
     42 ****        -6.4477   0.3311   1.6205 H              1 S1                 0.0000
     43 ****        -6.3845   0.2872   3.3708 H              1 S1                 0.0000
     44 ****        -6.4077   2.4543   0.5145 H              1 S1                 0.0000
     45 ****        -6.3343   3.9112   1.4854 H              1 S1                 0.0000
     46 ****        -4.0197   3.4097   2.1997 H              1 S1                 0.0000
     47 ****        -4.1496   3.4309   0.4520 H              1 S1                 0.0000
     48 ****        -4.2582   1.0544   0.4735 H              1 S1                 0.0000
     49 ****        -1.2629  -1.0357  -0.8464 LP             1 S1                 0.0000
     50 ****         0.2835  -1.4324  -1.5182 LP             1 S1                 0.0000
     51 ****         3.3730  -2.9407  -3.0223 LP             1 S1                 0.0000
     52 ****        -5.9890   2.5865   3.3774 LP             1 S1                 0.0000
     53 ****        -7.3922   2.2184   2.6277 LP             1 S1                 0.0000
@<TRIPOS>BOND
    1    1    2 1     
    2    1   23 1     
    3    1   24 1     
    4    1   25 1     
    5    2    3 1     
    6    2   17 1     
    7    2   26 1     
    8    3    4 1     
    9    3   27 1     
   10    3   28 1     
   11    4    5 am    
   12    4   29 1     
   13    5    6 2     
   14    5    7 am    
   15    7    8 1     
   16    7   30 1     
   17    8   16 ar    
   18    8    9 ar    
   19    9   10 ar    
   20    9   31 1     
   21   10   11 ar    
   22   10   32 1     
   23   11   12 1     
   24   11   15 ar    
   25   12   13 1     
   26   12   14 1     
   27   13   33 1     
   28   13   34 1     
   29   13   35 1     
   30   14   36 1     
   31   14   37 1     
   32   14   38 1     
   33   15   16 ar    
   34   16   39 1     
   35   17   22 1     
   36   17   18 1     
   37   17   48 1     
   38   18   19 1     
   39   18   40 1     
   40   18   41 1     
   41   19   20 1     
   42   19   42 1     
   43   19   43 1     
   44   20   21 1     
   45   21   22 1     
   46   21   44 1     
   47   21   45 1     
   48   22   46 1     
   49   22   47 1     
   50    6   49 1     
   51    6   50 1     
   52   15   51 1     
   53   20   52 1     
   54   20   53 1     
@<TRIPOS>SUBSTRUCTURE
      1 S1             1
@<TRIPOS>SET
LONE_PAIRS      STATIC     ATOMS    <user>   **** ""
5 49 50 51 52 53
DONOR_HYDROGENS      STATIC     ATOMS    <user>   **** ""
3 29 30 48
ATOM$BLUE        STATIC     ATOMS    COLORGROUP SYSTEM
5 49 50 51 52 53
ATOM$RED        STATIC     ATOMS    COLORGROUP SYSTEM
3 29 30 48
