AV-unprocessed.smi:3110|AV-procd|sdf|11831|dock6
  -GOLD-   2272017203D 1   1.00000     0.00000
 Structure written by MMmdl.
 33 34  0  0  0  0  0  0  0  0  1 V2000
  150.1492  142.7016  158.7740 O   0  0  0  0  0  0  0  0  0  0  0  0
  150.7493  143.0002  157.7413 C   0  0  0  0  0  0  0  0  0  0  0  0
  151.8127  144.1032  157.7547 C   0  0  0  0  0  0  0  0  0  0  0  0
  152.6050  144.1708  159.0768 C   0  0  1  0  0  0  0  0  0  0  0  0
  151.8362  144.8717  160.1669 C   0  0  0  0  0  0  0  0  0  0  0  0
  151.7809  144.1659  161.2942 C   0  0  0  0  0  0  0  0  0  0  0  0
  152.5004  142.8504  161.1851 C   0  0  0  0  0  0  0  0  0  0  0  0
  152.9316  142.7882  159.7033 C   0  0  0  0  0  0  0  0  0  0  0  0
  150.5257  142.4019  156.5614 N   0  0  0  0  0  0  0  0  0  0  0  0
  149.5529  141.3404  156.3330 C   0  0  0  0  0  0  0  0  0  0  0  0
  149.6842  140.7479  154.9201 C   0  0  0  0  0  0  0  0  0  0  0  0
  150.5535  139.5892  154.9099 N   0  0  0  0  0  0  0  0  0  0  0  0
  150.4562  138.4743  154.0878 C   0  0  0  0  0  0  0  0  0  0  0  0
  151.4948  137.6397  154.4343 C   0  0  0  0  0  0  0  0  0  0  0  0
  152.2396  138.2180  155.4594 N   0  0  0  0  0  0  0  0  0  0  0  0
  151.6217  139.3697  155.6886 C   0  0  0  0  0  0  0  0  0  0  0  0
  152.4964  143.9174  156.9255 H   0  0  0  0  0  0  0  0  0  0  0  0
  151.3441  145.0689  157.5569 H   0  0  0  0  0  0  0  0  0  0  0  0
  153.5271  144.7350  158.9285 H   0  0  0  0  0  0  0  0  0  0  0  0
  151.4009  145.8501  160.0254 H   0  0  0  0  0  0  0  0  0  0  0  0
  151.2945  144.4834  162.2048 H   0  0  0  0  0  0  0  0  0  0  0  0
  153.3596  142.8425  161.8564 H   0  0  0  0  0  0  0  0  0  0  0  0
  151.8404  142.0245  161.4517 H   0  0  0  0  0  0  0  0  0  0  0  0
  152.3757  141.9946  159.2019 H   0  0  0  0  0  0  0  0  0  0  0  0
  153.9903  142.5461  159.6039 H   0  0  0  0  0  0  0  0  0  0  0  0
  151.0648  142.7073  155.7640 H   0  0  0  0  0  0  0  0  0  0  0  0
  149.7201  140.5627  157.0789 H   0  0  0  0  0  0  0  0  0  0  0  0
  148.5425  141.7184  156.4994 H   0  0  0  0  0  0  0  0  0  0  0  0
  148.7093  140.4491  154.5319 H   0  0  0  0  0  0  0  0  0  0  0  0
  150.0863  141.4912  154.2303 H   0  0  0  0  0  0  0  0  0  0  0  0
  149.6790  138.3701  153.3451 H   0  0  0  0  0  0  0  0  0  0  0  0
  151.7620  136.6755  154.0271 H   0  0  0  0  0  0  0  0  0  0  0  0
  151.9560  140.0724  156.4380 H   0  0  0  0  0  0  0  0  0  0  0  0
  1  2  2  0  0  0  0
  2  3  1  0  0  0  0
  2  9  1  0  0  0  0
  3  4  1  0  0  0  0
  3 17  1  0  0  0  0
  3 18  1  0  0  0  0
  4  8  1  0  0  0  0
  4  5  1  0  0  0  0
  4 19  1  0  0  0  0
  5  6  2  0  0  0  0
  5 20  1  0  0  0  0
  6  7  1  0  0  0  0
  6 21  1  0  0  0  0
  7  8  1  0  0  0  0
  7 22  1  0  0  0  0
  7 23  1  0  0  0  0
  8 24  1  0  0  0  0
  8 25  1  0  0  0  0
  9 10  1  0  0  0  0
  9 26  1  0  0  0  0
 10 11  1  0  0  0  0
 10 27  1  0  0  0  0
 10 28  1  0  0  0  0
 11 12  1  0  0  0  0
 11 29  1  0  0  0  0
 11 30  1  0  0  0  0
 12 16  1  0  0  0  0
 12 13  1  0  0  0  0
 13 14  2  0  0  0  0
 13 31  1  0  0  0  0
 14 15  1  0  0  0  0
 14 32  1  0  0  0  0
 15 16  2  0  0  0  0
 16 33  1  0  0  0  0
M  END
> <s_m_source_file>
AV-unprocessed.smi

> <i_m_source_file_index>
3110

> <i_lp_mmshare_version>
43012

> <i_f3d_flags>
0

> <s_epik_input>
W0NIMl0xW0NIMl1bQ0hdPVtDSF1bQ0BIXTFbQ0gyXUMoPU8pW05IXVtDSDJdW0NIMl1uMltjSF1bY0hdbltjSF0y

> <s_epik_cmdline>
J2VwaWtfcHl0aG9uJywgJy1waCcsICc3LjAnLCAnLXRuJywgJzgnLCAnLW1hJywgJzIwMCcsICctbWV0YWxfYmluZGluZycsICctaW1hZScsICc8aW5maWxlLm1hZT4nLCAnLW9tYWUnLCAnPG91dGZpbGUubWFlPic=

> <r_lp_tautomer_probability>
1

> <r_epik_Ionization_Penalty>
0.593629

> <r_epik_Ionization_Penalty_Charging>
0.593629

> <r_epik_Ionization_Penalty_Neutral>
1.57355e-08

> <r_epik_State_Penalty>
0.607413

> <r_epik_Charging_Adjusted_Penalty>
1.20104

> <i_epik_Tot_Q>
0

> <i_epik_Tot_abs_Q>
0

> <r_epik_Metal_State_Penalty>
0.299385

> <b_epik_Metal_Only>
0

> <s_lp_Force_Field>
OPLS_2005

> <r_lp_Energy>
16.9466

> <b_lp_Chiralities_Consistent>
1

> <s_lp_Variant>
AV-unprocessed.smi:3110-4

> <Gold.Version>
5.8.1

> <Gold.Id.Protein>
6NUR|6NUR_protein|mol2

> <Gold.PLP.Fitness>
48.8692

> <Gold.PLP.PLP>
-44.2020

> <Gold.PLP.part.hbond>
-1.0967

> <Gold.PLP.part.metal>
0.0000

> <Gold.PLP.part.buried>
-2.4768

> <Gold.PLP.part.nonpolar>
-40.5902

> <Gold.PLP.part.repulsive>
0.1758

> <Gold.PLP.ligand.clash>
0.0000

> <Gold.PLP.ligand.torsion>
1.1697

> <Gold.PLP.Chemscore.Hbond>
0.0000

> <Gold.PLP.Chemscore.CHOScore>
2.3224

> <Gold.PLP.Chemscore.Metal>
0.0000

> <Gold.Chemscore.Hbonds>
donor molecule, donor type, donor heavy atom, donor atom, acceptor molecule, acceptor atom, score
      L1  C    13    31       P1  7948  0.67
      L1  C    13    31       P1  7957  0.39
      L1  C    14    32       P1  7949  0.51

> <Gold.PLP.Chemscore.Internal.Correction>
0.0393

> <Gold.Rescore>
     Score         DG    S(hbond)    S(metal)    S(lipo)     H(rot)  DE(clash)    DE(int)     intcor
     10.46     -12.73       0.00        0.00     105.96       2.01       0.02       2.24       ----

> <Gold.Chemscore.Fitness>
10.4638

> <Gold.Chemscore.DG>
-12.7290

> <Gold.Chemscore.ZeroCoef>
-5.4800

> <Gold.Chemscore.Hbond>
0.0000

> <Gold.Chemscore.Metal>
0.0000

> <Gold.Chemscore.Lipo>
105.9553

> <Gold.Chemscore.Internal_Hbond>
0.0000

> <Gold.Chemscore.DEClash>
0.0246

> <Gold.Chemscore.DEInternal>
2.2407

> <Gold.Chemscore.Rot>
2.0108

> <Gold.Chemscore.Internal.Correction>
   9.000000E+99

> <Gold.Chemscore.Hbond.Weighted>
-0.0000

> <Gold.Chemscore.Metal.Weighted>
-0.0000

> <Gold.Chemscore.Lipo.Weighted>
-12.3968

> <Gold.Chemscore.Internal_Hbond.Weighted>
0.0000

> <Gold.Chemscore.DEClash.Weighted>
0.0246

> <Gold.Chemscore.DEInternal.Weighted>
2.2407

> <Gold.Chemscore.Rot.Weighted>
5.1477

> <Gold.Chemscore.Internal.Correction.Weighted>
   9.000000E+99

> <Gold.Protein.RotatedTorsions>
[ 6907 6896 6895 6894 ] final   16.01 input  -60.11 | X-H torsion
[ 7974 7965 7964 7962 ] final  -67.53 input  175.53 | X-H torsion
[ 8008 7997 7996 7995 ] final   76.17 input   59.86 | X-H torsion
[ 10167 10162 10161 10158 ] final -154.20 input  -65.29 | X-H torsion
[ 10718 10713 10712 10709 ] final -149.82 input   66.30 | X-H torsion
[ 10763 10752 10751 10750 ] final   96.52 input  -60.55 | X-H torsion
[ 11005 11000 10999 10996 ] final   97.69 input  -57.11 | X-H torsion

> <Gold.Protein.ActiveResidues>
 VAL166  LYS551  ARG553  GLY616  TRP617  ASP618  TYR619  PRO620  LYS621  CYS622 
 ASP623  PHE694  ASN695  SER759  ASP760  ASP761  ALA762  ILE779  LEU786  VAL792 
 PHE793  MET794  SER795  GLU796  ALA797  LYS798  CYS799  TRP800  GLU811  SER814 

> <Gold.Protein.RotatedAtoms>
  151.8272  135.0633  160.0432 H   0  0  0  0  0  0  0  0  0  0  0  0  # atno 6907 bound_to 6896
  152.2907  133.5554  159.5564 H   0  0  0  0  0  0  0  0  0  0  0  0  # atno 6908 bound_to 6896
  150.7229  134.0348  159.3788 H   0  0  0  0  0  0  0  0  0  0  0  0  # atno 6909 bound_to 6896
  145.7279  140.9010  143.0595 H   0  0  0  0  0  0  0  0  0  0  0  0  # atno 7974 bound_to 7965
  155.8235  140.3469  155.5529 H   0  0  0  0  0  0  0  0  0  0  0  0  # atno 8008 bound_to 7997
  155.8317  140.0928  157.1808 H   0  0  0  0  0  0  0  0  0  0  0  0  # atno 8009 bound_to 7997
  154.4004  140.1411  156.3609 H   0  0  0  0  0  0  0  0  0  0  0  0  # atno 8010 bound_to 7997
  139.7033  143.9227  152.2438 H   0  0  0  0  0  0  0  0  0  0  0  0  # atno 10167 bound_to 10162
  156.4381  130.8108  151.2337 H   0  0  0  0  0  0  0  0  0  0  0  0  # atno 10718 bound_to 10713
  153.2659  135.4216  155.0940 H   0  0  0  0  0  0  0  0  0  0  0  0  # atno 10763 bound_to 10752
  154.8438  135.3460  154.6312 H   0  0  0  0  0  0  0  0  0  0  0  0  # atno 10764 bound_to 10752
  153.6732  135.7042  153.5198 H   0  0  0  0  0  0  0  0  0  0  0  0  # atno 10765 bound_to 10752
  139.8775  134.9013  156.4345 H   0  0  0  0  0  0  0  0  0  0  0  0  # atno 11005 bound_to 11000
  144.6900  139.9291  143.7471 LP  0  0  0  0  0  0  0  0  0  0  0  0  # atno 17320 bound_to 7965
  146.0564  139.3561  143.0608 LP  0  0  0  0  0  0  0  0  0  0  0  0  # atno 17321 bound_to 7965
  139.9076  144.6875  150.8597 LP  0  0  0  0  0  0  0  0  0  0  0  0  # atno 17342 bound_to 10162
  140.7715  143.3467  151.2097 LP  0  0  0  0  0  0  0  0  0  0  0  0  # atno 17343 bound_to 10162
  157.7507  131.0177  150.3596 LP  0  0  0  0  0  0  0  0  0  0  0  0  # atno 17370 bound_to 10713
  156.3947  130.3904  149.7003 LP  0  0  0  0  0  0  0  0  0  0  0  0  # atno 17371 bound_to 10713
  140.9043  133.7757  155.9717 LP  0  0  0  0  0  0  0  0  0  0  0  0  # atno 17394 bound_to 11000
  140.8616  134.2833  157.5231 LP  0  0  0  0  0  0  0  0  0  0  0  0  # atno 17395 bound_to 11000

$$$$
