#       Name:                AV-unprocessed.smi:2283
#       Creating user name   scv26
#       Creation time:       Fri Mar 27 12:41:34 2020


#       File generated by GOLD software.
#

@<TRIPOS>MOLECULE
AV-unprocessed.smi:2283
    42    43     1
SMALL
NO_CHARGES


@<TRIPOS>ATOM
      1 ****        -1.6006  -2.7035  -0.5754 C.3            1 S1                 0.0000
      2 ****        -1.7307  -1.9916  -1.9110 C.ar           1 S1                 0.0000
      3 ****        -2.1395  -2.7405  -3.0359 C.ar           1 S1                 0.0000
      4 ****        -2.2601  -2.1305  -4.2975 C.ar           1 S1                 0.0000
      5 ****        -1.9680  -0.7636  -4.4447 C.ar           1 S1                 0.0000
      6 ****        -1.5617  -0.0088  -3.3289 C.ar           1 S1                 0.0000
      7 ****        -1.4460  -0.6067  -2.0520 C.ar           1 S1                 0.0000
      8 ****        -0.9980   0.2502  -0.8674 C.3            1 S1                 0.0000
      9 ****        -1.6101   1.5259  -0.8905 O.3            1 S1                 0.0000
     10 ****         0.5358   0.4392  -0.8734 C.3            1 S1                 0.0000
     11 ****         1.0481   0.9387   0.4151 N.am           1 S1                 0.0000
     12 ****         1.3111   2.3168   0.4876 C.2            1 S1                 0.0000
     13 ****         1.7604   2.8674   1.5677 N.2            1 S1                 0.0000
     14 ****         1.9924   2.0866   2.7036 C.2            1 S1                 0.0000
     15 ****         2.5146   2.8335   3.9180 C.3            1 S1                 0.0000
     16 ****         1.7563   0.7463   2.7002 C.2            1 S1                 0.0000
     17 ****         1.9872  -0.1540   3.9077 C.3            1 S1                 0.0000
     18 ****         1.2475   0.1053   1.4770 C.2            1 S1                 0.0000
     19 ****         1.0117  -1.1020   1.4057 O.2            1 S1                 0.0000
     20 ****        -1.7781  -3.7747  -0.6759 H              1 S1                 0.0000
     21 ****        -2.3240  -2.3126   0.1404 H              1 S1                 0.0000
     22 ****        -0.5980  -2.5733  -0.1695 H              1 S1                 0.0000
     23 ****        -2.3607  -3.7933  -2.9371 H              1 S1                 0.0000
     24 ****        -2.5721  -2.7124  -5.1523 H              1 S1                 0.0000
     25 ****        -2.0541  -0.2937  -5.4133 H              1 S1                 0.0000
     26 ****        -1.3356   1.0392  -3.4614 H              1 S1                 0.0000
     27 ****        -1.3118  -0.2175   0.0644 H              1 S1                 0.0000
     28 ****        -2.5448   1.4094  -0.8133 H              1 S1                 0.0000
     29 ****         1.0126  -0.5210  -1.0799 H              1 S1                 0.0000
     30 ****         0.8369   1.0741  -1.7096 H              1 S1                 0.0000
     31 ****         1.1069   2.8829  -0.4229 H              1 S1                 0.0000
     32 ****         3.4893   2.4459   4.2151 H              1 S1                 0.0000
     33 ****         1.8260   2.7273   4.7566 H              1 S1                 0.0000
     34 ****         2.6273   3.8986   3.7120 H              1 S1                 0.0000
     35 ****         1.0541  -0.6374   4.1993 H              1 S1                 0.0000
     36 ****         2.3641   0.3815   4.7775 H              1 S1                 0.0000
     37 ****         2.7101  -0.9331   3.6634 H              1 S1                 0.0000
     38 ****        -1.3971   1.9872  -1.7518 LP             1 S1                 0.0000
     39 ****        -1.2739   2.0758  -0.1259 LP             1 S1                 0.0000
     40 ****         1.9417   3.8506   1.5904 LP             1 S1                 0.0000
     41 ****         0.6650  -1.4942   0.5537 LP             1 S1                 0.0000
     42 ****         1.1671  -1.6895   2.1998 LP             1 S1                 0.0000
@<TRIPOS>BOND
    1    1    2 1     
    2    1   20 1     
    3    1   21 1     
    4    1   22 1     
    5    2    7 ar    
    6    2    3 ar    
    7    3    4 ar    
    8    3   23 1     
    9    4    5 ar    
   10    4   24 1     
   11    5    6 ar    
   12    5   25 1     
   13    6    7 ar    
   14    6   26 1     
   15    7    8 1     
   16    8    9 1     
   17    8   10 1     
   18    8   27 1     
   19    9   28 1     
   20   10   11 1     
   21   10   29 1     
   22   10   30 1     
   23   11   18 am    
   24   11   12 1     
   25   12   13 2     
   26   12   31 1     
   27   13   14 1     
   28   14   15 1     
   29   14   16 2     
   30   15   32 1     
   31   15   33 1     
   32   15   34 1     
   33   16   17 1     
   34   16   18 1     
   35   17   35 1     
   36   17   36 1     
   37   17   37 1     
   38   18   19 2     
   39    9   38 1     
   40    9   39 1     
   41   13   40 1     
   42   19   41 1     
   43   19   42 1     
@<TRIPOS>SUBSTRUCTURE
      1 S1             1
@<TRIPOS>SET
LONE_PAIRS      STATIC     ATOMS    <user>   **** ""
5 38 39 40 41 42
DONOR_HYDROGENS      STATIC     ATOMS    <user>   **** ""
1 28
ATOM$BLUE        STATIC     ATOMS    COLORGROUP SYSTEM
5 38 39 40 41 42
ATOM$RED        STATIC     ATOMS    COLORGROUP SYSTEM
1 28
