#       Name:                AV-unprocessed.smi:564
#       Creating user name   scv26
#       Creation time:       Thu Mar 26 23:44:57 2020


#       File generated by GOLD software.
#

@<TRIPOS>MOLECULE
AV-unprocessed.smi:564
    53    54     1
SMALL
NO_CHARGES


@<TRIPOS>ATOM
      1 ****        -4.5999   1.0868   3.0435 C.3            1 S1                 0.0000
      2 ****        -4.5488   1.3993   1.5751 C.2            1 S1                 0.0000
      3 ****        -5.1839   2.4704   1.1303 N.2            1 S1                 0.0000
      4 ****        -4.9485   2.4864  -0.1966 N.pl3          1 S1                 0.0000
      5 ****        -5.5075   3.5544  -1.0025 C.3            1 S1                 0.0000
      6 ****        -4.1587   1.4241  -0.5913 C.2            1 S1                 0.0000
      7 ****        -3.7443   1.2194  -2.0127 C.3            1 S1                 0.0000
      8 ****        -3.8818   0.6903   0.5314 C.2            1 S1                 0.0000
      9 ****        -3.0577  -0.5705   0.6466 C.3            1 S1                 0.0000
     10 ****        -1.5743  -0.2608   0.8855 C.2            1 S1                 0.0000
     11 ****        -1.1892   0.8841   1.1290 O.2            1 S1                 0.0000
     12 ****        -0.7392  -1.3080   0.8093 N.am           1 S1                 0.0000
     13 ****         0.7050  -1.2381   0.9978 C.3            1 S1                 0.0000
     14 ****         1.4145  -0.7366  -0.2760 C.3            1 S1                 0.0000
     15 ****         2.8829  -0.5603  -0.1092 N.4            1 S1                 1.0000
     16 ****         3.4844   0.1808  -1.2512 C.3            1 S1                 0.0000
     17 ****         4.9510   0.5485  -0.9756 C.3            1 S1                 0.0000
     18 ****         5.7765  -0.6975  -0.6392 C.3            1 S1                 0.0000
     19 ****         5.1285  -1.4497   0.5310 C.3            1 S1                 0.0000
     20 ****         3.6487  -1.7941   0.2563 C.3            1 S1                 0.0000
     21 ****         3.4979  -2.9421  -0.7651 C.3            1 S1                 0.0000
     22 ****        -4.0910   0.1519   3.2752 H              1 S1                 0.0000
     23 ****        -5.6298   0.9958   3.3893 H              1 S1                 0.0000
     24 ****        -4.1212   1.8739   3.6262 H              1 S1                 0.0000
     25 ****        -5.9159   3.1464  -1.9272 H              1 S1                 0.0000
     26 ****        -4.7265   4.2755  -1.2443 H              1 S1                 0.0000
     27 ****        -6.3069   4.0638  -0.4626 H              1 S1                 0.0000
     28 ****        -2.9092   0.5225  -2.0825 H              1 S1                 0.0000
     29 ****        -3.4291   2.1581  -2.4684 H              1 S1                 0.0000
     30 ****        -4.5691   0.8166  -2.6006 H              1 S1                 0.0000
     31 ****        -3.4133  -1.2020   1.4607 H              1 S1                 0.0000
     32 ****        -3.1452  -1.1743  -0.2573 H              1 S1                 0.0000
     33 ****        -1.1335  -2.2165   0.6111 H              1 S1                 0.0000
     34 ****         0.9427  -0.5980   1.8494 H              1 S1                 0.0000
     35 ****         1.0368  -2.2429   1.2566 H              1 S1                 0.0000
     36 ****         1.2051  -1.3971  -1.1177 H              1 S1                 0.0000
     37 ****         0.9903   0.2316  -0.5451 H              1 S1                 0.0000
     38 ****         3.4060  -0.4107  -2.1640 H              1 S1                 0.0000
     39 ****         2.9219   1.0983  -1.4287 H              1 S1                 0.0000
     40 ****         5.3773   1.0553  -1.8421 H              1 S1                 0.0000
     41 ****         5.0021   1.2565  -0.1473 H              1 S1                 0.0000
     42 ****         5.8446  -1.3460  -1.5132 H              1 S1                 0.0000
     43 ****         6.7980  -0.4137  -0.3842 H              1 S1                 0.0000
     44 ****         5.6944  -2.3555   0.7518 H              1 S1                 0.0000
     45 ****         5.1911  -0.8304   1.4270 H              1 S1                 0.0000
     46 ****         3.2551  -2.1603   1.2039 H              1 S1                 0.0000
     47 ****         4.0918  -3.8052  -0.4632 H              1 S1                 0.0000
     48 ****         3.8285  -2.6562  -1.7631 H              1 S1                 0.0000
     49 ****         2.4662  -3.2845  -0.8405 H              1 S1                 0.0000
     50 ****         2.9842   0.0578   0.6835 H              1 S1                 0.0000
     51 ****        -5.7212   3.1252   1.6620 LP             1 S1                 0.0000
     52 ****        -1.8487   1.6345   1.1742 LP             1 S1                 0.0000
     53 ****        -0.2172   1.0629   1.2814 LP             1 S1                 0.0000
@<TRIPOS>BOND
    1    1    2 1     
    2    1   22 1     
    3    1   23 1     
    4    1   24 1     
    5    2    8 1     
    6    2    3 2     
    7    3    4 1     
    8    4    5 1     
    9    4    6 1     
   10    5   25 1     
   11    5   26 1     
   12    5   27 1     
   13    6    7 1     
   14    6    8 2     
   15    7   28 1     
   16    7   29 1     
   17    7   30 1     
   18    8    9 1     
   19    9   10 1     
   20    9   31 1     
   21    9   32 1     
   22   10   11 2     
   23   10   12 am    
   24   12   13 1     
   25   12   33 1     
   26   13   14 1     
   27   13   34 1     
   28   13   35 1     
   29   14   15 1     
   30   14   36 1     
   31   14   37 1     
   32   15   20 1     
   33   15   16 1     
   34   15   50 1     
   35   16   17 1     
   36   16   38 1     
   37   16   39 1     
   38   17   18 1     
   39   17   40 1     
   40   17   41 1     
   41   18   19 1     
   42   18   42 1     
   43   18   43 1     
   44   19   20 1     
   45   19   44 1     
   46   19   45 1     
   47   20   21 1     
   48   20   46 1     
   49   21   47 1     
   50   21   48 1     
   51   21   49 1     
   52    3   51 1     
   53   11   52 1     
   54   11   53 1     
@<TRIPOS>SUBSTRUCTURE
      1 S1             1
@<TRIPOS>SET
LONE_PAIRS      STATIC     ATOMS    <user>   **** ""
3 51 52 53
DONOR_HYDROGENS      STATIC     ATOMS    <user>   **** ""
2 33 50
ATOM$BLUE        STATIC     ATOMS    COLORGROUP SYSTEM
3 51 52 53
ATOM$RED        STATIC     ATOMS    COLORGROUP SYSTEM
2 33 50
