AV-unprocessed.smi:544|AV-procd|sdf|2878|dock8
  -GOLD-   2262023373D 1   1.00000     0.00000
 Structure written by MMmdl.
 49 51  0  0  0  0  0  0  0  0  1 V2000
  148.4806  136.0446  159.7361 C   0  0  0  0  0  0  0  0  0  0  0  0
  149.4364  137.0804  159.1400 C   0  0  0  0  0  0  0  0  0  0  0  0
  150.5628  136.4039  158.6118 O   0  0  0  0  0  0  0  0  0  0  0  0
  151.6603  137.2634  158.3540 C   0  0  0  0  0  0  0  0  0  0  0  0
  152.0168  138.0901  159.6039 C   0  0  0  0  0  0  0  0  0  0  0  0
  153.3511  138.6873  159.5623 N   0  0  0  0  0  0  0  0  0  0  0  0
  153.6954  139.9924  159.3834 C   0  0  0  0  0  0  0  0  0  0  0  0
  152.7454  140.9921  159.1747 N   0  0  0  0  0  0  0  0  0  0  0  0
  152.6318  142.2305  159.9423 C   0  0  0  0  0  0  0  0  0  0  0  0
  152.4681  143.4573  159.0298 C   0  0  0  0  0  0  0  0  0  0  0  0
  151.2427  143.2888  158.1214 C   0  0  0  0  0  0  0  0  0  0  0  0
  151.3077  141.9411  157.3815 C   0  0  2  0  0  0  0  0  0  0  0  0
  150.0537  141.7046  156.5291 C   0  0  0  0  0  0  0  0  0  0  0  0
  151.5283  140.7948  158.3897 C   0  0  0  0  0  0  0  0  0  0  0  0
  155.0047  140.2415  159.4713 N   0  0  0  0  0  0  0  0  0  0  0  0
  155.5472  138.9888  159.7096 C   0  0  0  0  0  0  0  0  0  0  0  0
  154.5735  138.0460  159.7817 C   0  0  0  0  0  0  0  0  0  0  0  0
  154.8682  136.6342  160.0694 C   0  0  0  0  0  0  0  0  0  0  0  0
  154.0041  135.7674  160.1807 O   0  0  0  0  0  0  0  0  0  0  0  0
  156.1929  136.3837  160.2036 N   0  0  0  0  0  0  0  0  0  0  0  0
  157.2213  137.2821  160.1258 C   0  0  0  0  0  0  0  0  0  0  0  0
  158.3834  136.8992  160.2600 O   0  0  0  0  0  0  0  0  0  0  0  0
  156.9029  138.5964  159.8990 N   0  0  0  0  0  0  0  0  0  0  0  0
  157.9595  139.6072  159.8242 C   0  0  0  0  0  0  0  0  0  0  0  0
  156.4504  135.4249  160.3864 H   0  0  0  0  0  0  0  0  0  0  0  0
  147.5966  136.5254  160.1552 H   0  0  0  0  0  0  0  0  0  0  0  0
  148.9644  135.4788  160.5329 H   0  0  0  0  0  0  0  0  0  0  0  0
  148.1489  135.3362  158.9764 H   0  0  0  0  0  0  0  0  0  0  0  0
  148.9316  137.6447  158.3547 H   0  0  0  0  0  0  0  0  0  0  0  0
  149.7485  137.7876  159.9099 H   0  0  0  0  0  0  0  0  0  0  0  0
  152.5118  136.6706  158.0264 H   0  0  0  0  0  0  0  0  0  0  0  0
  151.4179  137.9398  157.5332 H   0  0  0  0  0  0  0  0  0  0  0  0
  151.2752  138.8707  159.7656 H   0  0  0  0  0  0  0  0  0  0  0  0
  151.9554  137.4577  160.4886 H   0  0  0  0  0  0  0  0  0  0  0  0
  151.7690  142.1501  160.6051 H   0  0  0  0  0  0  0  0  0  0  0  0
  153.4918  142.3453  160.5968 H   0  0  0  0  0  0  0  0  0  0  0  0
  152.3636  144.3596  159.6324 H   0  0  0  0  0  0  0  0  0  0  0  0
  153.3619  143.5943  158.4217 H   0  0  0  0  0  0  0  0  0  0  0  0
  150.3357  143.3343  158.7258 H   0  0  0  0  0  0  0  0  0  0  0  0
  151.1869  144.1137  157.4105 H   0  0  0  0  0  0  0  0  0  0  0  0
  152.1657  141.9656  156.7075 H   0  0  0  0  0  0  0  0  0  0  0  0
  149.1563  141.6635  157.1474 H   0  0  0  0  0  0  0  0  0  0  0  0
  150.1242  140.7645  155.9817 H   0  0  0  0  0  0  0  0  0  0  0  0
  149.9192  142.5027  155.7984 H   0  0  0  0  0  0  0  0  0  0  0  0
  151.5986  139.8468  157.8549 H   0  0  0  0  0  0  0  0  0  0  0  0
  150.6750  140.7081  159.0637 H   0  0  0  0  0  0  0  0  0  0  0  0
  158.6575  139.5091  160.6571 H   0  0  0  0  0  0  0  0  0  0  0  0
  157.5659  140.6231  159.8591 H   0  0  0  0  0  0  0  0  0  0  0  0
  158.5193  139.4993  158.8946 H   0  0  0  0  0  0  0  0  0  0  0  0
  1  2  1  0  0  0  0
  1 26  1  0  0  0  0
  1 27  1  0  0  0  0
  1 28  1  0  0  0  0
  2  3  1  0  0  0  0
  2 29  1  0  0  0  0
  2 30  1  0  0  0  0
  3  4  1  0  0  0  0
  4  5  1  0  0  0  0
  4 31  1  0  0  0  0
  4 32  1  0  0  0  0
  5  6  1  0  0  0  0
  5 33  1  0  0  0  0
  5 34  1  0  0  0  0
  6 17  1  0  0  0  0
  6  7  1  0  0  0  0
  7  8  1  0  0  0  0
  7 15  2  0  0  0  0
  8 14  1  0  0  0  0
  8  9  1  0  0  0  0
  9 10  1  0  0  0  0
  9 35  1  0  0  0  0
  9 36  1  0  0  0  0
 10 11  1  0  0  0  0
 10 37  1  0  0  0  0
 10 38  1  0  0  0  0
 11 12  1  0  0  0  0
 11 39  1  0  0  0  0
 11 40  1  0  0  0  0
 12 13  1  0  0  0  0
 12 14  1  0  0  0  0
 12 41  1  0  0  0  0
 13 42  1  0  0  0  0
 13 43  1  0  0  0  0
 13 44  1  0  0  0  0
 14 45  1  0  0  0  0
 14 46  1  0  0  0  0
 15 16  1  0  0  0  0
 16 23  1  0  0  0  0
 16 17  2  0  0  0  0
 17 18  1  0  0  0  0
 18 19  2  0  0  0  0
 18 20  1  0  0  0  0
 20 25  1  0  0  0  0
 20 21  1  0  0  0  0
 21 22  2  0  0  0  0
 21 23  1  0  0  0  0
 23 24  1  0  0  0  0
 24 47  1  0  0  0  0
 24 48  1  0  0  0  0
 24 49  1  0  0  0  0
M  END
> <s_m_source_file>
AV-unprocessed.smi

> <i_m_source_file_index>
544

> <i_lp_mmshare_version>
43012

> <i_f3d_flags>
0

> <s_epik_input>
W0NIM11uMWMoPU8pW25IXWMoPU8pYyhjMTIpbihbQ0gyXVtDSDJdT1tDSDJdW0NIM10pYyhuMilOM1tDSDJdW0NIMl1bQ0gyXVtDQEBIXShbQ0gzXSlbQ0gyXTM=

> <s_epik_cmdline>
J2VwaWtfcHl0aG9uJywgJy1waCcsICc3LjAnLCAnLXRuJywgJzgnLCAnLW1hJywgJzIwMCcsICctbWV0YWxfYmluZGluZycsICctaW1hZScsICc8aW5maWxlLm1hZT4nLCAnLW9tYWUnLCAnPG91dGZpbGUubWFlPic=

> <r_lp_tautomer_probability>
1

> <r_epik_Ionization_Penalty>
0.000382477

> <r_epik_Ionization_Penalty_Charging>
0.000119472

> <r_epik_Ionization_Penalty_Neutral>
0.000263005

> <r_epik_State_Penalty>
-0

> <r_epik_Charging_Adjusted_Penalty>
0.000119472

> <i_epik_Tot_Q>
0

> <i_epik_Tot_abs_Q>
0

> <r_epik_Metal_State_Penalty>
0.0919313

> <b_epik_Metal_Only>
0

> <s_lp_Force_Field>
OPLS_2005

> <r_lp_Energy>
37.0872

> <b_lp_Chiralities_Consistent>
1

> <s_lp_Variant>
AV-unprocessed.smi:544-2

> <Gold.Version>
5.8.1

> <Gold.Id.Protein>
6NUR|6NUR_protein|mol2

> <Gold.PLP.Fitness>
39.9655

> <Gold.PLP.PLP>
-34.5705

> <Gold.PLP.part.hbond>
-3.0000

> <Gold.PLP.part.metal>
0.0000

> <Gold.PLP.part.buried>
-4.9751

> <Gold.PLP.part.nonpolar>
-27.8325

> <Gold.PLP.part.repulsive>
0.0637

> <Gold.PLP.ligand.clash>
0.0000

> <Gold.PLP.ligand.torsion>
1.0506

> <Gold.PLP.Chemscore.Hbond>
2.3130

> <Gold.PLP.Chemscore.CHOScore>
0.0000

> <Gold.PLP.Chemscore.Metal>
0.0000

> <Gold.Chemscore.Hbonds>
donor molecule, donor type, donor heavy atom, donor atom, acceptor molecule, acceptor atom, score
      P1  H  6896  6908       L1     3  0.96
      P1  H  6896  6909       L1    19  1.00
      P1  H  7997  8010       L1    15  0.29

> <Gold.PLP.Chemscore.Internal.Correction>
0.5570

> <Gold.Rescore>
     Score         DG    S(hbond)    S(metal)    S(lipo)     H(rot)  DE(clash)    DE(int)     intcor
     15.34     -17.24       1.86        0.00      81.83       1.58       0.03       1.86       ----

> <Gold.Chemscore.Fitness>
15.3440

> <Gold.Chemscore.DG>
-17.2359

> <Gold.Chemscore.ZeroCoef>
-5.4800

> <Gold.Chemscore.Hbond>
1.8648

> <Gold.Chemscore.Metal>
0.0000

> <Gold.Chemscore.Lipo>
81.8271

> <Gold.Chemscore.Internal_Hbond>
0.0000

> <Gold.Chemscore.DEClash>
0.0317

> <Gold.Chemscore.DEInternal>
1.8602

> <Gold.Chemscore.Rot>
1.5806

> <Gold.Chemscore.Internal.Correction>
   9.000000E+99

> <Gold.Chemscore.Hbonds>
donor molecule, donor type, donor heavy atom, donor atom, acceptor molecule, acceptor atom, score
      P1  H  6896  6908       L1     3  0.55
      P1  H  6896  6909       L1    19  0.92

> <Gold.Chemscore.Hbond.Weighted>
-6.2284

> <Gold.Chemscore.Metal.Weighted>
-0.0000

> <Gold.Chemscore.Lipo.Weighted>
-9.5738

> <Gold.Chemscore.Internal_Hbond.Weighted>
0.0000

> <Gold.Chemscore.DEClash.Weighted>
0.0317

> <Gold.Chemscore.DEInternal.Weighted>
1.8602

> <Gold.Chemscore.Rot.Weighted>
4.0463

> <Gold.Chemscore.Internal.Correction.Weighted>
   9.000000E+99

> <Gold.Protein.RotatedTorsions>
[ 6907 6896 6895 6894 ] final -161.73 input  -60.11 | X-H torsion
[ 7974 7965 7964 7962 ] final  -18.81 input  175.53 | X-H torsion
[ 8008 7997 7996 7995 ] final  -13.00 input   59.86 | X-H torsion
[ 10167 10162 10161 10158 ] final   57.44 input  -65.29 | X-H torsion
[ 10718 10713 10712 10709 ] final  -14.01 input   66.30 | X-H torsion
[ 10763 10752 10751 10750 ] final -147.39 input  -60.55 | X-H torsion
[ 11005 11000 10999 10996 ] final  -21.94 input  -57.11 | X-H torsion

> <Gold.Protein.ActiveResidues>
 VAL166  LYS551  ARG553  GLY616  TRP617  ASP618  TYR619  PRO620  LYS621  CYS622 
 ASP623  PHE694  ASN695  SER759  ASP760  ASP761  ALA762  ILE779  LEU786  VAL792 
 PHE793  MET794  SER795  GLU796  ALA797  LYS798  CYS799  TRP800  GLU811  SER814 

> <Gold.Protein.RotatedAtoms>
  151.3692  133.3861  159.2697 H   0  0  0  0  0  0  0  0  0  0  0  0  # atno 6907 bound_to 6896
  150.9664  134.9045  159.7772 H   0  0  0  0  0  0  0  0  0  0  0  0  # atno 6908 bound_to 6896
  152.5169  134.3653  159.9351 H   0  0  0  0  0  0  0  0  0  0  0  0  # atno 6909 bound_to 6896
  146.1873  140.3974  142.8471 H   0  0  0  0  0  0  0  0  0  0  0  0  # atno 7974 bound_to 7965
  154.5329  140.2261  155.8773 H   0  0  0  0  0  0  0  0  0  0  0  0  # atno 8008 bound_to 7997
  156.1782  140.3106  155.9062 H   0  0  0  0  0  0  0  0  0  0  0  0  # atno 8009 bound_to 7997
  155.3414  140.0450  157.3035 H   0  0  0  0  0  0  0  0  0  0  0  0  # atno 8010 bound_to 7997
  140.1979  144.4018  150.6542 H   0  0  0  0  0  0  0  0  0  0  0  0  # atno 10167 bound_to 10162
  156.6220  130.4878  149.6161 H   0  0  0  0  0  0  0  0  0  0  0  0  # atno 10718 bound_to 10713
  154.8288  135.3361  154.6810 H   0  0  0  0  0  0  0  0  0  0  0  0  # atno 10763 bound_to 10752
  153.7433  135.6944  153.4966 H   0  0  0  0  0  0  0  0  0  0  0  0  # atno 10764 bound_to 10752
  153.2229  135.4443  155.0460 H   0  0  0  0  0  0  0  0  0  0  0  0  # atno 10765 bound_to 10752
  140.8610  133.7788  156.0074 H   0  0  0  0  0  0  0  0  0  0  0  0  # atno 11005 bound_to 11000
  144.8421  140.6873  143.6223 LP  0  0  0  0  0  0  0  0  0  0  0  0  # atno 17320 bound_to 7965
  145.3900  139.1618  143.4234 LP  0  0  0  0  0  0  0  0  0  0  0  0  # atno 17321 bound_to 7965
  140.6410  143.2203  151.6289 LP  0  0  0  0  0  0  0  0  0  0  0  0  # atno 17342 bound_to 10162
  139.5229  144.3150  152.0960 LP  0  0  0  0  0  0  0  0  0  0  0  0  # atno 17343 bound_to 10162
  156.2304  130.6791  151.1457 LP  0  0  0  0  0  0  0  0  0  0  0  0  # atno 17370 bound_to 10713
  157.7225  131.0672  150.6076 LP  0  0  0  0  0  0  0  0  0  0  0  0  # atno 17371 bound_to 10713
  140.8683  134.2757  157.5202 LP  0  0  0  0  0  0  0  0  0  0  0  0  # atno 17394 bound_to 11000
  139.8707  134.9554  156.4205 LP  0  0  0  0  0  0  0  0  0  0  0  0  # atno 17395 bound_to 11000

$$$$
