AV-unprocessed.smi:1795|AV-procd|sdf|7239|dock9
  -GOLD-   22720 8483D 1   1.00000     0.00000
 Structure written by MMmdl.
 47 48  0  0  0  0  0  0  0  0  1 V2000
  147.9188  141.4558  155.1470 C   0  0  0  0  0  0  0  0  0  0  0  0
  149.4058  141.3457  154.7678 C   0  0  2  0  0  0  0  0  0  0  0  0
  149.8723  139.8934  154.5420 C   0  0  0  0  0  0  0  0  0  0  0  0
  150.0256  139.1231  155.7824 N   0  0  0  0  0  0  0  0  0  0  0  0
  150.4998  137.7396  155.5415 C   0  0  1  0  0  0  0  0  0  0  0  0
  151.8431  137.6907  154.7683 C   0  0  0  0  0  0  0  0  0  0  0  0
  150.6464  136.9076  156.8454 C   0  0  0  0  0  0  0  0  0  0  0  0
  149.4013  136.8399  157.6038 N   0  0  0  0  0  0  0  0  0  0  0  0
  148.8700  135.7192  158.1129 C   0  0  0  0  0  0  0  0  0  0  0  0
  149.3936  134.6106  157.9927 O   0  0  0  0  0  0  0  0  0  0  0  0
  147.5415  135.8942  158.8638 C   0  0  0  0  0  0  0  0  0  0  0  0
  147.5217  135.2529  160.1893 N   0  0  0  0  0  0  0  0  0  0  0  0
  147.5632  133.8446  160.2178 C   0  0  0  0  0  0  0  0  0  0  0  0
  147.5527  133.1568  161.3704 C   0  0  0  0  0  0  0  0  0  0  0  0
  147.4964  133.8991  162.6073 C   0  0  0  0  0  0  0  0  0  0  0  0
  147.4613  135.2465  162.5919 C   0  0  0  0  0  0  0  0  0  0  0  0
  147.4752  136.0025  161.3341 C   0  0  0  0  0  0  0  0  0  0  0  0
  147.4467  137.2333  161.3111 O   0  0  0  0  0  0  0  0  0  0  0  0
  150.9105  139.8782  156.6743 C   0  0  0  0  0  0  0  0  0  0  0  0
  150.4037  141.3051  156.9487 C   0  0  1  0  0  0  0  0  0  0  0  0
  151.3766  142.1038  157.8228 C   0  0  0  0  0  0  0  0  0  0  0  0
  150.2473  141.9984  155.7155 O   0  0  0  0  0  0  0  0  0  0  0  0
  147.2861  141.0655  154.3496 H   0  0  0  0  0  0  0  0  0  0  0  0
  147.6352  142.4951  155.3132 H   0  0  0  0  0  0  0  0  0  0  0  0
  147.6832  140.8951  156.0511 H   0  0  0  0  0  0  0  0  0  0  0  0
  149.5318  141.8853  153.8288 H   0  0  0  0  0  0  0  0  0  0  0  0
  149.1493  139.4263  153.8770 H   0  0  0  0  0  0  0  0  0  0  0  0
  150.8234  139.9082  154.0072 H   0  0  0  0  0  0  0  0  0  0  0  0
  149.7578  137.2341  154.9212 H   0  0  0  0  0  0  0  0  0  0  0  0
  152.2264  136.6771  154.6561 H   0  0  0  0  0  0  0  0  0  0  0  0
  152.6114  138.2746  155.2767 H   0  0  0  0  0  0  0  0  0  0  0  0
  151.7474  138.0695  153.7517 H   0  0  0  0  0  0  0  0  0  0  0  0
  151.0026  135.9054  156.5999 H   0  0  0  0  0  0  0  0  0  0  0  0
  151.3732  137.3456  157.5270 H   0  0  0  0  0  0  0  0  0  0  0  0
  148.9073  137.7088  157.7470 H   0  0  0  0  0  0  0  0  0  0  0  0
  147.3257  136.9605  158.9536 H   0  0  0  0  0  0  0  0  0  0  0  0
  146.7394  135.4944  158.2414 H   0  0  0  0  0  0  0  0  0  0  0  0
  147.6112  133.3664  159.2503 H   0  0  0  0  0  0  0  0  0  0  0  0
  147.5895  132.0772  161.3729 H   0  0  0  0  0  0  0  0  0  0  0  0
  147.4839  133.3714  163.5497 H   0  0  0  0  0  0  0  0  0  0  0  0
  147.4214  135.7850  163.5275 H   0  0  0  0  0  0  0  0  0  0  0  0
  150.9938  139.3834  157.6400 H   0  0  0  0  0  0  0  0  0  0  0  0
  151.9151  139.9186  156.2503 H   0  0  0  0  0  0  0  0  0  0  0  0
  149.4439  141.2571  157.4639 H   0  0  0  0  0  0  0  0  0  0  0  0
  151.5190  141.6232  158.7910 H   0  0  0  0  0  0  0  0  0  0  0  0
  151.0000  143.1105  158.0049 H   0  0  0  0  0  0  0  0  0  0  0  0
  152.3532  142.1941  157.3463 H   0  0  0  0  0  0  0  0  0  0  0  0
  1  2  1  0  0  0  0
  1 23  1  0  0  0  0
  1 24  1  0  0  0  0
  1 25  1  0  0  0  0
  2 22  1  0  0  0  0
  2  3  1  0  0  0  0
  2 26  1  0  0  0  0
  3  4  1  0  0  0  0
  3 27  1  0  0  0  0
  3 28  1  0  0  0  0
  4  5  1  0  0  0  0
  4 19  1  0  0  0  0
  5  6  1  0  0  0  0
  5  7  1  0  0  0  0
  5 29  1  0  0  0  0
  6 30  1  0  0  0  0
  6 31  1  0  0  0  0
  6 32  1  0  0  0  0
  7  8  1  0  0  0  0
  7 33  1  0  0  0  0
  7 34  1  0  0  0  0
  8  9  1  0  0  0  0
  8 35  1  0  0  0  0
  9 10  2  0  0  0  0
  9 11  1  0  0  0  0
 11 12  1  0  0  0  0
 11 36  1  0  0  0  0
 11 37  1  0  0  0  0
 12 17  1  0  0  0  0
 12 13  1  0  0  0  0
 13 14  2  0  0  0  0
 13 38  1  0  0  0  0
 14 15  1  0  0  0  0
 14 39  1  0  0  0  0
 15 16  2  0  0  0  0
 15 40  1  0  0  0  0
 16 17  1  0  0  0  0
 16 41  1  0  0  0  0
 17 18  2  0  0  0  0
 19 20  1  0  0  0  0
 19 42  1  0  0  0  0
 19 43  1  0  0  0  0
 20 21  1  0  0  0  0
 20 22  1  0  0  0  0
 20 44  1  0  0  0  0
 21 45  1  0  0  0  0
 21 46  1  0  0  0  0
 21 47  1  0  0  0  0
M  END
> <s_m_source_file>
AV-unprocessed.smi

> <i_m_source_file_index>
1795

> <i_lp_mmshare_version>
43012

> <i_f3d_flags>
0

> <s_epik_input>
W0NIM11bQ0BASF0xW0NIMl1OKFtDSDJdW0NASF0oTzEpW0NIM10pW0NASF0oW0NIM10pW0NIMl1bTkhdQyg9TylbQ0gyXW4yW2NIXVtjSF1bY0hdW2NIXWMyPU8=

> <s_epik_cmdline>
J2VwaWtfcHl0aG9uJywgJy1waCcsICc3LjAnLCAnLXRuJywgJzgnLCAnLW1hJywgJzIwMCcsICctbWV0YWxfYmluZGluZycsICctaW1hZScsICc8aW5maWxlLm1hZT4nLCAnLW9tYWUnLCAnPG91dGZpbGUubWFlPic=

> <r_lp_tautomer_probability>
1

> <r_epik_Ionization_Penalty>
0.237383

> <r_epik_Ionization_Penalty_Charging>
3.58805e-07

> <r_epik_Ionization_Penalty_Neutral>
0.237382

> <r_epik_State_Penalty>
0.228245

> <r_epik_Charging_Adjusted_Penalty>
0.228245

> <i_epik_Tot_Q>
0

> <i_epik_Tot_abs_Q>
0

> <r_epik_Metal_State_Penalty>
0.228221

> <b_epik_Metal_Only>
0

> <s_lp_Force_Field>
OPLS_2005

> <r_lp_Energy>
40.7521

> <b_lp_Chiralities_Consistent>
1

> <s_lp_Variant>
AV-unprocessed.smi:1795-3

> <Gold.Version>
5.8.1

> <Gold.Id.Protein>
6NUR|6NUR_protein|mol2

> <Gold.PLP.Fitness>
44.9063

> <Gold.PLP.PLP>
-36.7782

> <Gold.PLP.part.hbond>
-3.0000

> <Gold.PLP.part.metal>
0.0000

> <Gold.PLP.part.buried>
-3.3704

> <Gold.PLP.part.nonpolar>
-31.1523

> <Gold.PLP.part.repulsive>
0.7027

> <Gold.PLP.ligand.clash>
0.0000

> <Gold.PLP.ligand.torsion>
0.2449

> <Gold.PLP.Chemscore.Hbond>
2.8560

> <Gold.PLP.Chemscore.CHOScore>
0.0000

> <Gold.PLP.Chemscore.Metal>
0.0000

> <Gold.Chemscore.Hbonds>
donor molecule, donor type, donor heavy atom, donor atom, acceptor molecule, acceptor atom, score
      P1  H  6896  6908       L1    10  1.00
      P1  H  6931  6943       L1    18  0.88
      P1  H  6934  6947       L1    18  0.94

> <Gold.PLP.Chemscore.Internal.Correction>
0.0499

> <Gold.Rescore>
     Score         DG    S(hbond)    S(metal)    S(lipo)     H(rot)  DE(clash)    DE(int)     intcor
     18.24     -19.83       2.58        0.00      88.86       1.83       0.22       1.37       ----

> <Gold.Chemscore.Fitness>
18.2441

> <Gold.Chemscore.DG>
-19.8333

> <Gold.Chemscore.ZeroCoef>
-5.4800

> <Gold.Chemscore.Hbond>
2.5835

> <Gold.Chemscore.Metal>
0.0000

> <Gold.Chemscore.Lipo>
88.8602

> <Gold.Chemscore.Internal_Hbond>
0.0000

> <Gold.Chemscore.DEClash>
0.2178

> <Gold.Chemscore.DEInternal>
1.3713

> <Gold.Chemscore.Rot>
1.8251

> <Gold.Chemscore.Internal.Correction>
   9.000000E+99

> <Gold.Chemscore.Hbonds>
donor molecule, donor type, donor heavy atom, donor atom, acceptor molecule, acceptor atom, score
      P1  H  6896  6908       L1    10  0.78
      P1  H  6931  6943       L1    18  0.83
      P1  H  6934  6947       L1    18  0.91

> <Gold.Chemscore.Hbond.Weighted>
-8.6290

> <Gold.Chemscore.Metal.Weighted>
-0.0000

> <Gold.Chemscore.Lipo.Weighted>
-10.3966

> <Gold.Chemscore.Internal_Hbond.Weighted>
0.0000

> <Gold.Chemscore.DEClash.Weighted>
0.2178

> <Gold.Chemscore.DEInternal.Weighted>
1.3713

> <Gold.Chemscore.Rot.Weighted>
4.6724

> <Gold.Chemscore.Internal.Correction.Weighted>
   9.000000E+99

> <Gold.Protein.RotatedTorsions>
[ 6907 6896 6895 6894 ] final  150.75 input  -60.11 | X-H torsion
[ 7974 7965 7964 7962 ] final -162.86 input  175.53 | X-H torsion
[ 8008 7997 7996 7995 ] final -159.48 input   59.86 | X-H torsion
[ 10167 10162 10161 10158 ] final -124.65 input  -65.29 | X-H torsion
[ 10718 10713 10712 10709 ] final   98.20 input   66.30 | X-H torsion
[ 10763 10752 10751 10750 ] final -156.27 input  -60.55 | X-H torsion
[ 11005 11000 10999 10996 ] final  139.97 input  -57.11 | X-H torsion

> <Gold.Protein.ActiveResidues>
 VAL166  LYS551  ARG553  GLY616  TRP617  ASP618  TYR619  PRO620  LYS621  CYS622 
 ASP623  PHE694  ASN695  SER759  ASP760  ASP761  ALA762  ILE779  LEU786  VAL792 
 PHE793  MET794  SER795  GLU796  ALA797  LYS798  CYS799  TRP800  GLU811  SER814 

> <Gold.Protein.RotatedAtoms>
  152.1101  133.4296  159.4626 H   0  0  0  0  0  0  0  0  0  0  0  0  # atno 6907 bound_to 6896
  150.6867  134.2658  159.4577 H   0  0  0  0  0  0  0  0  0  0  0  0  # atno 6908 bound_to 6896
  152.0526  134.9644  160.0625 H   0  0  0  0  0  0  0  0  0  0  0  0  # atno 6909 bound_to 6896
  144.7344  140.3191  143.6174 H   0  0  0  0  0  0  0  0  0  0  0  0  # atno 7974 bound_to 7965
  155.7632  140.0842  157.2145 H   0  0  0  0  0  0  0  0  0  0  0  0  # atno 8008 bound_to 7997
  154.4002  140.1539  156.2913 H   0  0  0  0  0  0  0  0  0  0  0  0  # atno 8009 bound_to 7997
  155.8819  140.3420  155.5896 H   0  0  0  0  0  0  0  0  0  0  0  0  # atno 8010 bound_to 7997
  139.9905  143.5646  152.2344 H   0  0  0  0  0  0  0  0  0  0  0  0  # atno 10167 bound_to 10162
  157.6900  131.0633  150.4760 H   0  0  0  0  0  0  0  0  0  0  0  0  # atno 10718 bound_to 10713
  154.7726  135.3149  154.8159 H   0  0  0  0  0  0  0  0  0  0  0  0  # atno 10763 bound_to 10752
  153.8891  135.6827  153.4766 H   0  0  0  0  0  0  0  0  0  0  0  0  # atno 10764 bound_to 10752
  153.1342  135.4767  154.9332 H   0  0  0  0  0  0  0  0  0  0  0  0  # atno 10765 bound_to 10752
  140.0293  134.9359  157.0631 H   0  0  0  0  0  0  0  0  0  0  0  0  # atno 11005 bound_to 11000
  145.7586  139.1817  143.2280 LP  0  0  0  0  0  0  0  0  0  0  0  0  # atno 17320 bound_to 7965
  146.1004  140.7551  142.9552 LP  0  0  0  0  0  0  0  0  0  0  0  0  # atno 17321 bound_to 7965
  139.6343  144.7648  151.2470 LP  0  0  0  0  0  0  0  0  0  0  0  0  # atno 17342 bound_to 10162
  140.7456  143.6425  150.8322 LP  0  0  0  0  0  0  0  0  0  0  0  0  # atno 17343 bound_to 10162
  156.5095  130.4136  149.6309 LP  0  0  0  0  0  0  0  0  0  0  0  0  # atno 17370 bound_to 10713
  156.3254  130.7303  151.2222 LP  0  0  0  0  0  0  0  0  0  0  0  0  # atno 17371 bound_to 10713
  140.4253  134.1838  155.7166 LP  0  0  0  0  0  0  0  0  0  0  0  0  # atno 17394 bound_to 11000
  141.1821  133.8391  157.1219 LP  0  0  0  0  0  0  0  0  0  0  0  0  # atno 17395 bound_to 11000

$$$$
