AV-unprocessed.smi:1019|AV-procd|sdf|4443|dock3
  -GOLD-   22720 2403D 1   1.00000     0.00000
 Structure written by MMmdl.
 44 46  0  0  0  0  0  0  0  0  2 V2000
  148.8089  133.6570  153.7732 C   0  0  0  0  0  0  0  0  0  0  0  0
  148.0610  134.8384  154.2643 N   0  3  1  0  0  0  0  0  0  0  0  0
  146.5894  134.6349  154.2448 C   0  0  0  0  0  0  0  0  0  0  0  0
  146.0936  134.2273  152.8690 C   0  0  0  0  0  0  0  0  0  0  0  0
  145.5192  135.1919  152.0142 C   0  0  0  0  0  0  0  0  0  0  0  0
  145.0619  134.8206  150.7349 C   0  0  0  0  0  0  0  0  0  0  0  0
  145.1754  133.4839  150.3063 C   0  0  0  0  0  0  0  0  0  0  0  0
  145.7452  132.5178  151.1580 C   0  0  0  0  0  0  0  0  0  0  0  0
  146.2026  132.8878  152.4376 C   0  0  0  0  0  0  0  0  0  0  0  0
  148.5654  135.3126  155.5784 C   0  0  0  0  0  0  0  0  0  0  0  0
  149.7860  136.2424  155.4312 C   0  0  2  0  0  0  0  0  0  0  0  0
  150.9621  135.4560  155.4663 O   0  0  0  0  0  0  0  0  0  0  0  0
  149.8409  137.2992  156.5512 C   0  0  0  0  0  0  0  0  0  0  0  0
  150.1948  138.6169  156.0540 N   0  0  0  0  0  0  0  0  0  0  0  0
  150.3333  138.9850  154.7658 C   0  0  0  0  0  0  0  0  0  0  0  0
  150.6704  140.2485  154.5252 N   0  0  0  0  0  0  0  0  0  0  0  0
  150.7587  140.7630  155.8072 C   0  0  0  0  0  0  0  0  0  0  0  0
  151.0826  142.0646  156.2525 C   0  0  0  0  0  0  0  0  0  0  0  0
  151.1109  142.3618  157.6309 C   0  0  0  0  0  0  0  0  0  0  0  0
  150.8169  141.3649  158.5836 C   0  0  0  0  0  0  0  0  0  0  0  0
  150.4922  140.0603  158.1646 C   0  0  0  0  0  0  0  0  0  0  0  0
  150.4650  139.7676  156.7879 C   0  0  0  0  0  0  0  0  0  0  0  0
  148.6568  132.7982  154.4281 H   0  0  0  0  0  0  0  0  0  0  0  0
  149.8778  133.8679  153.7283 H   0  0  0  0  0  0  0  0  0  0  0  0
  148.4958  133.3800  152.7667 H   0  0  0  0  0  0  0  0  0  0  0  0
  146.3042  133.8901  154.9897 H   0  0  0  0  0  0  0  0  0  0  0  0
  146.0700  135.5523  154.5204 H   0  0  0  0  0  0  0  0  0  0  0  0
  145.4302  136.2193  152.3367 H   0  0  0  0  0  0  0  0  0  0  0  0
  144.6240  135.5611  150.0816 H   0  0  0  0  0  0  0  0  0  0  0  0
  144.8251  133.1996  149.3249 H   0  0  0  0  0  0  0  0  0  0  0  0
  145.8313  131.4925  150.8291 H   0  0  0  0  0  0  0  0  0  0  0  0
  146.6401  132.1410  153.0839 H   0  0  0  0  0  0  0  0  0  0  0  0
  147.7576  135.8156  156.1127 H   0  0  0  0  0  0  0  0  0  0  0  0
  148.8534  134.4624  156.1992 H   0  0  0  0  0  0  0  0  0  0  0  0
  149.7570  136.7568  154.4706 H   0  0  0  0  0  0  0  0  0  0  0  0
  151.2037  135.3091  156.3684 H   0  0  0  0  0  0  0  0  0  0  0  0
  148.8721  137.3725  157.0472 H   0  0  0  0  0  0  0  0  0  0  0  0
  150.5603  137.0088  157.3180 H   0  0  0  0  0  0  0  0  0  0  0  0
  150.1817  138.2836  153.9581 H   0  0  0  0  0  0  0  0  0  0  0  0
  151.3098  142.8364  155.5319 H   0  0  0  0  0  0  0  0  0  0  0  0
  151.3592  143.3604  157.9592 H   0  0  0  0  0  0  0  0  0  0  0  0
  150.8405  141.6030  159.6370 H   0  0  0  0  0  0  0  0  0  0  0  0
  150.2673  139.2961  158.8932 H   0  0  0  0  0  0  0  0  0  0  0  0
  148.2579  135.5857  153.6131 H   0  0  0  0  0  0  0  0  0  0  0  0
  1  2  1  0  0  0  0
  1 23  1  0  0  0  0
  1 24  1  0  0  0  0
  1 25  1  0  0  0  0
  2  3  1  0  0  0  0
  2 10  1  0  0  0  0
  2 44  1  0  0  0  0
  3  4  1  0  0  0  0
  3 26  1  0  0  0  0
  3 27  1  0  0  0  0
  4  9  1  0  0  0  0
  4  5  2  0  0  0  0
  5  6  1  0  0  0  0
  5 28  1  0  0  0  0
  6  7  2  0  0  0  0
  6 29  1  0  0  0  0
  7  8  1  0  0  0  0
  7 30  1  0  0  0  0
  8  9  2  0  0  0  0
  8 31  1  0  0  0  0
  9 32  1  0  0  0  0
 10 11  1  0  0  0  0
 10 33  1  0  0  0  0
 10 34  1  0  0  0  0
 11 12  1  0  0  0  0
 11 13  1  0  0  0  0
 11 35  1  0  0  0  0
 12 36  1  0  0  0  0
 13 14  1  0  0  0  0
 13 37  1  0  0  0  0
 13 38  1  0  0  0  0
 14 22  1  0  0  0  0
 14 15  1  0  0  0  0
 15 16  2  0  0  0  0
 15 39  1  0  0  0  0
 16 17  1  0  0  0  0
 17 22  2  0  0  0  0
 17 18  1  0  0  0  0
 18 19  2  0  0  0  0
 18 40  1  0  0  0  0
 19 20  1  0  0  0  0
 19 41  1  0  0  0  0
 20 21  2  0  0  0  0
 20 42  1  0  0  0  0
 21 22  1  0  0  0  0
 21 43  1  0  0  0  0
M  CHG  1   2   1
M  END
> <s_m_source_file>
AV-unprocessed.smi

> <i_m_source_file_index>
1019

> <i_lp_mmshare_version>
43012

> <i_f3d_flags>
0

> <s_epik_input>
W2NIXTFbY0hdW2NIXVtjSF1bY0hdYzFbQ0gyXU4oW0NIM10pW0NIMl1bQ0BIXShbT0hdKVtDSDJdbihbY0hdbjIpYyhjMjMpW2NIXVtjSF1bY0hdW2NIXTM=

> <s_epik_cmdline>
J2VwaWtfcHl0aG9uJywgJy1waCcsICc3LjAnLCAnLXRuJywgJzgnLCAnLW1hJywgJzIwMCcsICctbWV0YWxfYmluZGluZycsICctaW1hZScsICc8aW5maWxlLm1hZT4nLCAnLW9tYWUnLCAnPG91dGZpbGUubWFlPic=

> <r_epik_Ionization_Penalty>
0.0996557

> <r_epik_Ionization_Penalty_Charging>
0.0475377

> <r_epik_Ionization_Penalty_Neutral>
0.0521179

> <r_epik_State_Penalty>
0.0851777

> <r_epik_Charging_Adjusted_Penalty>
0.132715

> <i_epik_Tot_Q>
1

> <i_epik_Tot_abs_Q>
1

> <r_epik_Metal_State_Penalty>
0.0423478

> <b_epik_Metal_Only>
0

> <s_lp_Force_Field>
OPLS_2005

> <r_lp_Energy>
15.2714

> <b_lp_Chiralities_Consistent>
1

> <s_lp_Variant>
AV-unprocessed.smi:1019-1

> <Gold.Version>
5.8.1

> <Gold.Id.Protein>
6NUR|6NUR_protein|mol2

> <Gold.PLP.Fitness>
44.0489

> <Gold.PLP.PLP>
-35.4184

> <Gold.PLP.part.hbond>
-2.9372

> <Gold.PLP.part.metal>
0.0000

> <Gold.PLP.part.buried>
-4.3821

> <Gold.PLP.part.nonpolar>
-27.7036

> <Gold.PLP.part.repulsive>
0.0990

> <Gold.PLP.ligand.clash>
0.0000

> <Gold.PLP.ligand.torsion>
1.6787

> <Gold.PLP.Chemscore.Hbond>
3.9120

> <Gold.PLP.Chemscore.CHOScore>
0.0000

> <Gold.PLP.Chemscore.Metal>
0.0000

> <Gold.Chemscore.Hbonds>
donor molecule, donor type, donor heavy atom, donor atom, acceptor molecule, acceptor atom, score
      L1  H     2    44       P1  7948  1.98
      P1  H  7989  7998       L1    16  1.00
      P1  H 10752 10764       L1    12  0.58

> <Gold.PLP.Chemscore.Internal.Correction>
0.2520

> <Gold.Rescore>
     Score         DG    S(hbond)    S(metal)    S(lipo)     H(rot)  DE(clash)    DE(int)     intcor
     16.19     -18.08       2.52        0.00      87.44       2.36       0.01       1.89       ----

> <Gold.Chemscore.Fitness>
16.1879

> <Gold.Chemscore.DG>
-18.0816

> <Gold.Chemscore.ZeroCoef>
-5.4800

> <Gold.Chemscore.Hbond>
2.5199

> <Gold.Chemscore.Metal>
0.0000

> <Gold.Chemscore.Lipo>
87.4449

> <Gold.Chemscore.Internal_Hbond>
0.0000

> <Gold.Chemscore.DEClash>
0.0065

> <Gold.Chemscore.DEInternal>
1.8872

> <Gold.Chemscore.Rot>
2.3616

> <Gold.Chemscore.Internal.Correction>
   9.000000E+99

> <Gold.Chemscore.Hbonds>
donor molecule, donor type, donor heavy atom, donor atom, acceptor molecule, acceptor atom, score
      L1  H     2    44       P1  7948  0.92
      P1  H  7989  7998       L1    16  0.86
      P1  H 10752 10764       L1    12  0.20

> <Gold.Chemscore.Hbond.Weighted>
-8.4163

> <Gold.Chemscore.Metal.Weighted>
-0.0000

> <Gold.Chemscore.Lipo.Weighted>
-10.2310

> <Gold.Chemscore.Internal_Hbond.Weighted>
0.0000

> <Gold.Chemscore.DEClash.Weighted>
0.0065

> <Gold.Chemscore.DEInternal.Weighted>
1.8872

> <Gold.Chemscore.Rot.Weighted>
6.0457

> <Gold.Chemscore.Internal.Correction.Weighted>
   9.000000E+99

> <Gold.Protein.RotatedTorsions>
[ 6907 6896 6895 6894 ] final  131.90 input  -60.11 | X-H torsion
[ 7974 7965 7964 7962 ] final  -89.31 input  175.53 | X-H torsion
[ 8008 7997 7996 7995 ] final   97.04 input   59.86 | X-H torsion
[ 10167 10162 10161 10158 ] final -146.86 input  -65.29 | X-H torsion
[ 10718 10713 10712 10709 ] final  -66.28 input   66.30 | X-H torsion
[ 10763 10752 10751 10750 ] final  -65.99 input  -60.55 | X-H torsion
[ 11005 11000 10999 10996 ] final -172.67 input  -57.11 | X-H torsion

> <Gold.Protein.ActiveResidues>
 VAL166  LYS551  ARG553  GLY616  TRP617  ASP618  TYR619  PRO620  LYS621  CYS622 
 ASP623  PHE694  ASN695  SER759  ASP760  ASP761  ALA762  ILE779  LEU786  VAL792 
 PHE793  MET794  SER795  GLU796  ALA797  LYS798  CYS799  TRP800  GLU811  SER814 

> <Gold.Protein.RotatedAtoms>
  152.3379  133.6033  159.5855 H   0  0  0  0  0  0  0  0  0  0  0  0  # atno 6907 bound_to 6896
  150.7461  133.9767  159.3572 H   0  0  0  0  0  0  0  0  0  0  0  0  # atno 6908 bound_to 6896
  151.7635  135.0805  160.0400 H   0  0  0  0  0  0  0  0  0  0  0  0  # atno 6909 bound_to 6896
  145.4414  140.9559  143.2073 H   0  0  0  0  0  0  0  0  0  0  0  0  # atno 7974 bound_to 7965
  156.0859  140.3264  155.7753 H   0  0  0  0  0  0  0  0  0  0  0  0  # atno 8008 bound_to 7997
  155.5076  140.0574  157.2946 H   0  0  0  0  0  0  0  0  0  0  0  0  # atno 8009 bound_to 7997
  154.4609  140.1966  156.0264 H   0  0  0  0  0  0  0  0  0  0  0  0  # atno 8010 bound_to 7997
  139.7674  143.8287  152.2618 H   0  0  0  0  0  0  0  0  0  0  0  0  # atno 10167 bound_to 10162
  156.0621  130.4260  150.1686 H   0  0  0  0  0  0  0  0  0  0  0  0  # atno 10718 bound_to 10713
  154.3532  135.6132  153.5653 H   0  0  0  0  0  0  0  0  0  0  0  0  # atno 10763 bound_to 10752
  152.9797  135.5797  154.4719 H   0  0  0  0  0  0  0  0  0  0  0  0  # atno 10764 bound_to 10752
  154.4444  135.2851  155.1803 H   0  0  0  0  0  0  0  0  0  0  0  0  # atno 10765 bound_to 10752
  140.4943  134.5954  157.4966 H   0  0  0  0  0  0  0  0  0  0  0  0  # atno 11005 bound_to 11000
  144.8119  139.5947  143.7026 LP  0  0  0  0  0  0  0  0  0  0  0  0  # atno 17320 bound_to 7965
  146.2554  139.6290  142.9398 LP  0  0  0  0  0  0  0  0  0  0  0  0  # atno 17321 bound_to 7965
  139.8312  144.7253  150.9448 LP  0  0  0  0  0  0  0  0  0  0  0  0  # atno 17342 bound_to 10162
  140.7812  143.4068  151.1057 LP  0  0  0  0  0  0  0  0  0  0  0  0  # atno 17343 bound_to 10162
  156.9753  130.9847  151.3450 LP  0  0  0  0  0  0  0  0  0  0  0  0  # atno 17370 bound_to 10713
  157.5637  130.8263  149.8299 LP  0  0  0  0  0  0  0  0  0  0  0  0  # atno 17371 bound_to 10713
  139.9750  134.7230  155.9967 LP  0  0  0  0  0  0  0  0  0  0  0  0  # atno 17394 bound_to 11000
  141.1468  133.6554  156.3891 LP  0  0  0  0  0  0  0  0  0  0  0  0  # atno 17395 bound_to 11000

$$$$
