AV-unprocessed.smi:2889|AV-procd|sdf|11109|dock9
  -GOLD-   2272015573D 1   1.00000     0.00000
 Structure written by MMmdl.
 36 37  0  0  0  0  0  0  0  0  1 V2000
  152.7973  142.7606  159.2133 C   0  0  0  0  0  0  0  0  0  0  0  0
  152.6611  140.9576  159.0765 S   0  0  0  0  0  0  0  0  0  0  0  0
  151.0955  140.7816  158.1603 C   0  0  1  0  0  0  0  0  0  0  0  0
  151.1568  141.5555  156.8297 C   0  0  0  0  0  0  0  0  0  0  0  0
  149.8425  141.4437  156.0438 C   0  0  0  0  0  0  0  0  0  0  0  0
  149.4780  139.9756  155.7857 C   0  0  0  0  0  0  0  0  0  0  0  0
  149.3919  139.1813  157.0989 C   0  0  0  0  0  0  0  0  0  0  0  0
  150.6734  139.3054  157.9508 C   0  0  1  0  0  0  0  0  0  0  0  0
  151.7695  138.5170  157.3704 N   0  0  0  0  0  0  0  0  0  0  0  0
  151.7337  136.7932  157.4783 S   0  0  0  0  0  0  0  0  0  0  0  0
  152.9539  136.2736  156.8405 O   0  0  0  0  0  0  0  0  0  0  0  0
  151.4244  136.4552  158.8759 O   0  0  0  0  0  0  0  0  0  0  0  0
  150.2774  136.3645  156.4285 C   0  0  0  0  0  0  0  0  0  0  0  0
  150.1640  134.8733  156.2812 C   0  0  0  0  0  0  0  0  0  0  0  0
  150.1309  134.1063  155.0841 C   0  0  0  0  0  0  0  0  0  0  0  0
  150.0288  132.8209  155.5311 C   0  0  0  0  0  0  0  0  0  0  0  0
  149.9896  132.7916  156.8869 O   0  0  0  0  0  0  0  0  0  0  0  0
  150.0709  134.1073  157.3568 N   0  0  0  0  0  0  0  0  0  0  0  0
  153.7586  143.0274  159.6517 H   0  0  0  0  0  0  0  0  0  0  0  0
  152.0120  143.1612  159.8539 H   0  0  0  0  0  0  0  0  0  0  0  0
  152.7241  143.2271  158.2309 H   0  0  0  0  0  0  0  0  0  0  0  0
  150.3302  141.2594  158.7736 H   0  0  0  0  0  0  0  0  0  0  0  0
  151.3771  142.6060  157.0224 H   0  0  0  0  0  0  0  0  0  0  0  0
  151.9781  141.1769  156.2197 H   0  0  0  0  0  0  0  0  0  0  0  0
  149.0396  141.9297  156.5994 H   0  0  0  0  0  0  0  0  0  0  0  0
  149.9306  141.9762  155.0965 H   0  0  0  0  0  0  0  0  0  0  0  0
  148.5271  139.9171  155.2559 H   0  0  0  0  0  0  0  0  0  0  0  0
  150.2230  139.5218  155.1310 H   0  0  0  0  0  0  0  0  0  0  0  0
  148.5502  139.5614  157.6791 H   0  0  0  0  0  0  0  0  0  0  0  0
  149.1601  138.1361  156.8930 H   0  0  0  0  0  0  0  0  0  0  0  0
  150.4506  138.8850  158.9307 H   0  0  0  0  0  0  0  0  0  0  0  0
  151.9793  138.8226  156.4204 H   0  0  0  0  0  0  0  0  0  0  0  0
  149.3875  136.7735  156.9075 H   0  0  0  0  0  0  0  0  0  0  0  0
  150.3858  136.8564  155.4622 H   0  0  0  0  0  0  0  0  0  0  0  0
  150.1829  134.4451  154.0601 H   0  0  0  0  0  0  0  0  0  0  0  0
  149.9746  131.8642  155.0330 H   0  0  0  0  0  0  0  0  0  0  0  0
  1  2  1  0  0  0  0
  1 19  1  0  0  0  0
  1 20  1  0  0  0  0
  1 21  1  0  0  0  0
  2  3  1  0  0  0  0
  3  8  1  0  0  0  0
  3  4  1  0  0  0  0
  3 22  1  0  0  0  0
  4  5  1  0  0  0  0
  4 23  1  0  0  0  0
  4 24  1  0  0  0  0
  5  6  1  0  0  0  0
  5 25  1  0  0  0  0
  5 26  1  0  0  0  0
  6  7  1  0  0  0  0
  6 27  1  0  0  0  0
  6 28  1  0  0  0  0
  7  8  1  0  0  0  0
  7 29  1  0  0  0  0
  7 30  1  0  0  0  0
  8  9  1  0  0  0  0
  8 31  1  0  0  0  0
  9 10  1  0  0  0  0
  9 32  1  0  0  0  0
 10 11  2  0  0  0  0
 10 12  2  0  0  0  0
 10 13  1  0  0  0  0
 13 14  1  0  0  0  0
 13 33  1  0  0  0  0
 13 34  1  0  0  0  0
 14 18  2  0  0  0  0
 14 15  1  0  0  0  0
 15 16  2  0  0  0  0
 15 35  1  0  0  0  0
 16 17  1  0  0  0  0
 16 36  1  0  0  0  0
 17 18  1  0  0  0  0
M  END
> <s_m_source_file>
AV-unprocessed.smi

> <i_m_source_file_index>
2889

> <i_lp_mmshare_version>
43012

> <i_f3d_flags>
0

> <s_epik_input>
W0NIM11TW0NAQEhdMVtDSDJdW0NIMl1bQ0gyXVtDSDJdW0NASF0xW05IXVMoPU8pKD1PKVtDSDJdYzJbY0hdW2NIXW9uMg==

> <s_epik_cmdline>
J2VwaWtfcHl0aG9uJywgJy1waCcsICc3LjAnLCAnLXRuJywgJzgnLCAnLW1hJywgJzIwMCcsICctbWV0YWxfYmluZGluZycsICctaW1hZScsICc8aW5maWxlLm1hZT4nLCAnLW9tYWUnLCAnPG91dGZpbGUubWFlPic=

> <r_lp_tautomer_probability>
1

> <r_epik_Ionization_Penalty>
0.000229547

> <r_epik_Ionization_Penalty_Charging>
0

> <r_epik_Ionization_Penalty_Neutral>
0.000229547

> <r_epik_State_Penalty>
-0

> <r_epik_Charging_Adjusted_Penalty>
0

> <i_epik_Tot_Q>
0

> <i_epik_Tot_abs_Q>
0

> <r_epik_Metal_State_Penalty>
0.145979

> <b_epik_Metal_Only>
0

> <s_lp_Force_Field>
OPLS_2005

> <r_lp_Energy>
4.05076

> <b_lp_Chiralities_Consistent>
1

> <s_lp_Variant>
AV-unprocessed.smi:2889-2

> <Gold.Version>
5.8.1

> <Gold.Id.Protein>
6NUR|6NUR_protein|mol2

> <Gold.PLP.Fitness>
31.6473

> <Gold.PLP.PLP>
-24.1128

> <Gold.PLP.part.hbond>
-2.9941

> <Gold.PLP.part.metal>
0.0000

> <Gold.PLP.part.buried>
-4.7965

> <Gold.PLP.part.nonpolar>
-17.9794

> <Gold.PLP.part.repulsive>
0.0000

> <Gold.PLP.ligand.clash>
0.0000

> <Gold.PLP.ligand.torsion>
0.3114

> <Gold.PLP.Chemscore.Hbond>
2.6640

> <Gold.PLP.Chemscore.CHOScore>
0.0000

> <Gold.PLP.Chemscore.Metal>
0.0000

> <Gold.Chemscore.Hbonds>
donor molecule, donor type, donor heavy atom, donor atom, acceptor molecule, acceptor atom, score
      P1  H  6896  6907       L1    12  0.78
      P1  H  6896  6909       L1    18  0.80
      P1  H 10752 10764       L1    11  1.00

> <Gold.PLP.Chemscore.Internal.Correction>
0.1652

> <Gold.Rescore>
     Score         DG    S(hbond)    S(metal)    S(lipo)     H(rot)  DE(clash)    DE(int)     intcor
     16.46     -17.17       2.60        0.00      65.29       1.81       0.04       0.67       ----

> <Gold.Chemscore.Fitness>
16.4613

> <Gold.Chemscore.DG>
-17.1741

> <Gold.Chemscore.ZeroCoef>
-5.4800

> <Gold.Chemscore.Hbond>
2.5983

> <Gold.Chemscore.Metal>
0.0000

> <Gold.Chemscore.Lipo>
65.2866

> <Gold.Chemscore.Internal_Hbond>
0.0000

> <Gold.Chemscore.DEClash>
0.0402

> <Gold.Chemscore.DEInternal>
0.6726

> <Gold.Chemscore.Rot>
1.8058

> <Gold.Chemscore.Internal.Correction>
   9.000000E+99

> <Gold.Chemscore.Hbonds>
donor molecule, donor type, donor heavy atom, donor atom, acceptor molecule, acceptor atom, score
      P1  H  6896  6907       L1    12  0.78
      P1  H  6896  6909       L1    18  0.19
      P1  H 10752 10764       L1    11  0.98

> <Gold.Chemscore.Hbond.Weighted>
-8.6784

> <Gold.Chemscore.Metal.Weighted>
-0.0000

> <Gold.Chemscore.Lipo.Weighted>
-7.6385

> <Gold.Chemscore.Internal_Hbond.Weighted>
0.0000

> <Gold.Chemscore.DEClash.Weighted>
0.0402

> <Gold.Chemscore.DEInternal.Weighted>
0.6726

> <Gold.Chemscore.Rot.Weighted>
4.6228

> <Gold.Chemscore.Internal.Correction.Weighted>
   9.000000E+99

> <Gold.Protein.RotatedTorsions>
[ 6907 6896 6895 6894 ] final   -2.92 input  -60.11 | X-H torsion
[ 7974 7965 7964 7962 ] final    0.68 input  175.53 | X-H torsion
[ 8008 7997 7996 7995 ] final -137.81 input   59.86 | X-H torsion
[ 10167 10162 10161 10158 ] final  -18.26 input  -65.29 | X-H torsion
[ 10718 10713 10712 10709 ] final -117.01 input   66.30 | X-H torsion
[ 10763 10752 10751 10750 ] final    7.10 input  -60.55 | X-H torsion
[ 11005 11000 10999 10996 ] final -107.70 input  -57.11 | X-H torsion

> <Gold.Protein.ActiveResidues>
 VAL166  LYS551  ARG553  GLY616  TRP617  ASP618  TYR619  PRO620  LYS621  CYS622 
 ASP623  PHE694  ASN695  SER759  ASP760  ASP761  ALA762  ILE779  LEU786  VAL792 
 PHE793  MET794  SER795  GLU796  ALA797  LYS798  CYS799  TRP800  GLU811  SER814 

> <Gold.Protein.RotatedAtoms>
  151.5221  135.1067  159.9880 H   0  0  0  0  0  0  0  0  0  0  0  0  # atno 6907 bound_to 6896
  152.4616  133.7830  159.6871 H   0  0  0  0  0  0  0  0  0  0  0  0  # atno 6908 bound_to 6896
  150.8580  133.7621  159.3027 H   0  0  0  0  0  0  0  0  0  0  0  0  # atno 6909 bound_to 6896
  146.2436  140.1102  142.8344 H   0  0  0  0  0  0  0  0  0  0  0  0  # atno 7974 bound_to 7965
  155.4180  140.0516  157.3027 H   0  0  0  0  0  0  0  0  0  0  0  0  # atno 8008 bound_to 7997
  154.4915  140.2122  155.9496 H   0  0  0  0  0  0  0  0  0  0  0  0  # atno 8009 bound_to 7997
  156.1349  140.3165  155.8410 H   0  0  0  0  0  0  0  0  0  0  0  0  # atno 8010 bound_to 7997
  140.7257  143.4934  150.9962 H   0  0  0  0  0  0  0  0  0  0  0  0  # atno 10167 bound_to 10162
  156.1003  130.6166  150.9109 H   0  0  0  0  0  0  0  0  0  0  0  0  # atno 10718 bound_to 10713
  153.2401  135.6902  153.7792 H   0  0  0  0  0  0  0  0  0  0  0  0  # atno 10763 bound_to 10752
  153.6925  135.3310  155.3206 H   0  0  0  0  0  0  0  0  0  0  0  0  # atno 10764 bound_to 10752
  154.8352  135.4548  154.1320 H   0  0  0  0  0  0  0  0  0  0  0  0  # atno 10765 bound_to 10752
  141.0940  133.9004  157.2007 H   0  0  0  0  0  0  0  0  0  0  0  0  # atno 11005 bound_to 11000
  145.0494  140.9006  143.5005 LP  0  0  0  0  0  0  0  0  0  0  0  0  # atno 17320 bound_to 7965
  145.1197  139.2702  143.5595 LP  0  0  0  0  0  0  0  0  0  0  0  0  # atno 17321 bound_to 7965
  139.8639  143.7279  152.3171 LP  0  0  0  0  0  0  0  0  0  0  0  0  # atno 17342 bound_to 10162
  139.7504  144.7536  151.0516 LP  0  0  0  0  0  0  0  0  0  0  0  0  # atno 17343 bound_to 10162
  157.6172  131.0932  150.8688 LP  0  0  0  0  0  0  0  0  0  0  0  0  # atno 17370 bound_to 10713
  156.8818  130.5182  149.5290 LP  0  0  0  0  0  0  0  0  0  0  0  0  # atno 17371 bound_to 10713
  139.9772  135.0110  156.9662 LP  0  0  0  0  0  0  0  0  0  0  0  0  # atno 17394 bound_to 11000
  140.5184  134.0932  155.7286 LP  0  0  0  0  0  0  0  0  0  0  0  0  # atno 17395 bound_to 11000

$$$$
