#       Name:                AV-unprocessed.smi:2629
#       Creating user name   scv26
#       Creation time:       Fri Mar 27 14:25:29 2020


#       File generated by GOLD software.
#

@<TRIPOS>MOLECULE
AV-unprocessed.smi:2629
    29    30     1
SMALL
NO_CHARGES


@<TRIPOS>ATOM
      1 ****        -4.5309  -1.7481   0.0277 O.2            1 S1                 0.0000
      2 ****        -3.4507  -1.1627   0.0180 C.2            1 S1                 0.0000
      3 ****        -2.1641  -1.9515   0.0153 N.2            1 S1                 0.0000
      4 ****        -1.0685  -1.3371   0.0062 N.pl3          1 S1                 1.0000
      5 ****        -0.9163   0.0878  -0.0021 C.2            1 S1                 0.0000
      6 ****         0.3477   0.6468  -0.0102 N.pl3          1 S1                 0.0000
      7 ****         1.1389   0.7737  -1.2238 C.3            1 S1                 0.0000
      8 ****         2.3261  -0.2041  -1.1830 C.3            1 S1                 0.0000
      9 ****         3.0918   0.0240  -0.0029 O.3            1 S1                 0.0000
     10 ****         2.3269  -0.1732   1.1833 C.3            1 S1                 0.0000
     11 ****         1.1394   0.8050   1.1994 C.3            1 S1                 0.0000
     12 ****        -2.0921   0.8237  -0.0003 C.2            1 S1                 0.0000
     13 ****        -2.3625   2.0446  -0.0054 O.co2          1 S1                -1.0000
     14 ****        -3.3253   0.1758   0.0092 N.am           1 S1                 0.0000
     15 ****        -0.2237  -1.8984   0.0052 H              1 S1                 0.0000
     16 ****         1.4967   1.8004  -1.3073 H              1 S1                 0.0000
     17 ****         0.5170   0.5805  -2.0988 H              1 S1                 0.0000
     18 ****         1.9781  -1.2380  -1.2087 H              1 S1                 0.0000
     19 ****         2.9638  -0.0598  -2.0552 H              1 S1                 0.0000
     20 ****         1.9793  -1.2062   1.2366 H              1 S1                 0.0000
     21 ****         2.9652  -0.0056   2.0508 H              1 S1                 0.0000
     22 ****         0.5180   0.6337   2.0792 H              1 S1                 0.0000
     23 ****         1.4967   1.8337   1.2567 H              1 S1                 0.0000
     24 ****        -4.1526   0.7548   0.0100 H              1 S1                 0.0000
     25 ****        -5.3831  -1.2249   0.0294 LP             1 S1                 0.0000
     26 ****        -4.5578  -2.7477   0.0339 LP             1 S1                 0.0000
     27 ****        -2.1835  -2.9513   0.0207 LP             1 S1                 0.0000
     28 ****         3.4295   0.9652  -0.0153 LP             1 S1                 0.0000
     29 ****         3.8667  -0.6080   0.0051 LP             1 S1                 0.0000
@<TRIPOS>BOND
    1    1    2 2     
    2    2   14 am    
    3    2    3 1     
    4    3    4 2     
    5    4   15 1     
    6    4    5 1     
    7    5   12 2     
    8    5    6 1     
    9    6   11 1     
   10    6    7 1     
   11    7    8 1     
   12    7   16 1     
   13    7   17 1     
   14    8    9 1     
   15    8   18 1     
   16    8   19 1     
   17    9   10 1     
   18   10   11 1     
   19   10   20 1     
   20   10   21 1     
   21   11   22 1     
   22   11   23 1     
   23   12   13 ar    
   24   12   14 1     
   25   14   24 1     
   26    1   25 1     
   27    1   26 1     
   28    3   27 1     
   29    9   28 1     
   30    9   29 1     
@<TRIPOS>SUBSTRUCTURE
      1 S1             1
@<TRIPOS>SET
LONE_PAIRS      STATIC     ATOMS    <user>   **** ""
6 25 26 27 28 29 13
DONOR_HYDROGENS      STATIC     ATOMS    <user>   **** ""
2 15 24
ATOM$BLUE        STATIC     ATOMS    COLORGROUP SYSTEM
6 25 26 27 28 29 13
ATOM$RED        STATIC     ATOMS    COLORGROUP SYSTEM
2 15 24
