AV-unprocessed.smi:1946|AV-procd|sdf|7864|dock1
  -GOLD-   2272010 13D 1   1.00000     0.00000
 Structure written by MMmdl.
 39 41  0  0  0  0  0  0  0  0  2 V2000
  151.0842  140.3522  155.5556 C   0  0  0  0  0  0  0  0  0  0  0  0
  149.4755  141.2409  155.6098 S   0  0  0  0  0  0  0  0  0  0  0  0
  148.9928  141.2273  156.9995 O   0  0  0  0  0  0  0  0  0  0  0  0
  149.6395  142.5236  154.9083 O   0  0  0  0  0  0  0  0  0  0  0  0
  148.3900  140.2077  154.6332 C   0  0  0  0  0  0  0  0  0  0  0  0
  147.7036  140.7603  153.5341 C   0  0  0  0  0  0  0  0  0  0  0  0
  146.8740  139.9387  152.7469 C   0  0  0  0  0  0  0  0  0  0  0  0
  146.7357  138.5657  153.0496 C   0  0  0  0  0  0  0  0  0  0  0  0
  145.8493  137.6711  152.1944 C   0  0  1  0  0  0  0  0  0  0  0  0
  146.2405  137.6788  150.8377 O   0  0  0  0  0  0  0  0  0  0  0  0
  145.8436  136.2083  152.6823 C   0  0  0  0  0  0  0  0  0  0  0  0
  144.9802  135.3432  151.8686 N   0  0  0  0  0  0  0  0  0  0  0  0
  143.8398  135.6396  151.1880 C   0  0  0  0  0  0  0  0  0  0  0  0
  143.4162  134.4972  150.5792 N   0  3  0  0  0  0  0  0  0  0  0  0
  144.2969  133.4553  150.8785 C   0  0  0  0  0  0  0  0  0  0  0  0
  144.2906  132.1174  150.4959 C   0  0  0  0  0  0  0  0  0  0  0  0
  145.3451  131.3156  150.9805 C   0  0  0  0  0  0  0  0  0  0  0  0
  146.3520  131.8487  151.8116 C   0  0  0  0  0  0  0  0  0  0  0  0
  146.3485  133.2066  152.1936 C   0  0  0  0  0  0  0  0  0  0  0  0
  145.3034  133.9920  151.7090 C   0  0  0  0  0  0  0  0  0  0  0  0
  147.4423  138.0187  154.1432 C   0  0  0  0  0  0  0  0  0  0  0  0
  148.2731  138.8362  154.9336 C   0  0  0  0  0  0  0  0  0  0  0  0
  151.8248  140.9098  156.1286 H   0  0  0  0  0  0  0  0  0  0  0  0
  151.4172  140.2640  154.5216 H   0  0  0  0  0  0  0  0  0  0  0  0
  150.9663  139.3581  155.9861 H   0  0  0  0  0  0  0  0  0  0  0  0
  147.8087  141.8074  153.2917 H   0  0  0  0  0  0  0  0  0  0  0  0
  146.3469  140.3652  151.9059 H   0  0  0  0  0  0  0  0  0  0  0  0
  144.8313  138.0612  152.2221 H   0  0  0  0  0  0  0  0  0  0  0  0
  145.5906  138.1521  150.3407 H   0  0  0  0  0  0  0  0  0  0  0  0
  146.8506  135.7885  152.6732 H   0  0  0  0  0  0  0  0  0  0  0  0
  145.4927  136.1478  153.7137 H   0  0  0  0  0  0  0  0  0  0  0  0
  143.3615  136.6072  151.1357 H   0  0  0  0  0  0  0  0  0  0  0  0
  143.5199  131.7052  149.8609 H   0  0  0  0  0  0  0  0  0  0  0  0
  145.3821  130.2703  150.7103 H   0  0  0  0  0  0  0  0  0  0  0  0
  147.1430  131.2028  152.1642 H   0  0  0  0  0  0  0  0  0  0  0  0
  147.1236  133.6052  152.8316 H   0  0  0  0  0  0  0  0  0  0  0  0
  147.3533  136.9679  154.3776 H   0  0  0  0  0  0  0  0  0  0  0  0
  148.8148  138.4083  155.7642 H   0  0  0  0  0  0  0  0  0  0  0  0
  142.5858  134.4362  150.0040 H   0  0  0  0  0  0  0  0  0  0  0  0
  1  2  1  0  0  0  0
  1 23  1  0  0  0  0
  1 24  1  0  0  0  0
  1 25  1  0  0  0  0
  2  3  2  0  0  0  0
  2  4  2  0  0  0  0
  2  5  1  0  0  0  0
  5 22  1  0  0  0  0
  5  6  2  0  0  0  0
  6  7  1  0  0  0  0
  6 26  1  0  0  0  0
  7  8  2  0  0  0  0
  7 27  1  0  0  0  0
  8  9  1  0  0  0  0
  8 21  1  0  0  0  0
  9 10  1  0  0  0  0
  9 11  1  0  0  0  0
  9 28  1  0  0  0  0
 10 29  1  0  0  0  0
 11 12  1  0  0  0  0
 11 30  1  0  0  0  0
 11 31  1  0  0  0  0
 12 20  1  0  0  0  0
 12 13  1  0  0  0  0
 13 14  2  0  0  0  0
 13 32  1  0  0  0  0
 14 15  1  0  0  0  0
 14 39  1  0  0  0  0
 15 20  2  0  0  0  0
 15 16  1  0  0  0  0
 16 17  2  0  0  0  0
 16 33  1  0  0  0  0
 17 18  1  0  0  0  0
 17 34  1  0  0  0  0
 18 19  2  0  0  0  0
 18 35  1  0  0  0  0
 19 20  1  0  0  0  0
 19 36  1  0  0  0  0
 21 22  2  0  0  0  0
 21 37  1  0  0  0  0
 22 38  1  0  0  0  0
M  CHG  1  14   1
M  END
> <s_m_source_file>
AV-unprocessed.smi

> <i_m_source_file_index>
1946

> <i_lp_mmshare_version>
43012

> <i_f3d_flags>
0

> <s_epik_input>
W0NIM11TKD1PKSg9TyljMVtjSF1bY0hdYyhbY0hdW2NIXTEpW0NASF0oW09IXSlbQ0gyXW4oW2NIXW4yKWMoYzIzKVtjSF1bY0hdW2NIXVtjSF0z

> <s_epik_cmdline>
J2VwaWtfcHl0aG9uJywgJy1waCcsICc3LjAnLCAnLXRuJywgJzgnLCAnLW1hJywgJzIwMCcsICctbWV0YWxfYmluZGluZycsICctaW1hZScsICc8aW5maWxlLm1hZT4nLCAnLW9tYWUnLCAnPG91dGZpbGUubWFlPic=

> <r_epik_Ionization_Penalty>
1.3029

> <r_epik_Ionization_Penalty_Charging>
1.3029

> <r_epik_Ionization_Penalty_Neutral>
1.34362e-06

> <r_epik_State_Penalty>
1.377

> <r_epik_Charging_Adjusted_Penalty>
2.6799

> <i_epik_Tot_Q>
1

> <i_epik_Tot_abs_Q>
1

> <r_epik_Metal_State_Penalty>
5.40879

> <b_epik_Metal_Only>
0

> <s_lp_Force_Field>
OPLS_2005

> <r_lp_Energy>
16.9066

> <b_lp_Chiralities_Consistent>
1

> <s_lp_Variant>
AV-unprocessed.smi:1946-4

> <Gold.Version>
5.8.1

> <Gold.Id.Protein>
6NUR|6NUR_protein|mol2

> <Gold.PLP.Fitness>
47.3190

> <Gold.PLP.PLP>
-33.2530

> <Gold.PLP.part.hbond>
-5.0000

> <Gold.PLP.part.metal>
0.0000

> <Gold.PLP.part.buried>
-1.3074

> <Gold.PLP.part.nonpolar>
-33.0963

> <Gold.PLP.part.repulsive>
5.3831

> <Gold.PLP.ligand.clash>
0.0000

> <Gold.PLP.ligand.torsion>
1.4705

> <Gold.PLP.Chemscore.Hbond>
3.9840

> <Gold.PLP.Chemscore.CHOScore>
1.0000

> <Gold.PLP.Chemscore.Metal>
0.0000

> <Gold.Chemscore.Hbonds>
donor molecule, donor type, donor heavy atom, donor atom, acceptor molecule, acceptor atom, score
      L1  H    10    29       P1 10171  1.00
      L1  H    14    39       P1 10186  2.00
      P1  H  7954  7966       L1    10  0.71
      L1  C    13    32       P1 10171  1.00

> <Gold.PLP.Chemscore.Internal.Correction>
2.0550

> <Gold.Rescore>
     Score         DG    S(hbond)    S(metal)    S(lipo)     H(rot)  DE(clash)    DE(int)     intcor
     16.86     -20.69       2.72        0.00      96.88       2.04       2.36       1.47       ----

> <Gold.Chemscore.Fitness>
16.8586

> <Gold.Chemscore.DG>
-20.6941

> <Gold.Chemscore.ZeroCoef>
-5.4800

> <Gold.Chemscore.Hbond>
2.7238

> <Gold.Chemscore.Metal>
0.0000

> <Gold.Chemscore.Lipo>
96.8758

> <Gold.Chemscore.Internal_Hbond>
0.0000

> <Gold.Chemscore.DEClash>
2.3633

> <Gold.Chemscore.DEInternal>
1.4723

> <Gold.Chemscore.Rot>
2.0382

> <Gold.Chemscore.Internal.Correction>
   9.000000E+99

> <Gold.Chemscore.Hbonds>
donor molecule, donor type, donor heavy atom, donor atom, acceptor molecule, acceptor atom, score
      L1  H    10    29       P1 10171  0.99
      L1  H    14    39       P1 10186  0.85
      P1  H  7954  7966       L1    10  0.51

> <Gold.Chemscore.Hbond.Weighted>
-9.0974

> <Gold.Chemscore.Metal.Weighted>
-0.0000

> <Gold.Chemscore.Lipo.Weighted>
-11.3345

> <Gold.Chemscore.Internal_Hbond.Weighted>
0.0000

> <Gold.Chemscore.DEClash.Weighted>
2.3633

> <Gold.Chemscore.DEInternal.Weighted>
1.4723

> <Gold.Chemscore.Rot.Weighted>
5.2177

> <Gold.Chemscore.Internal.Correction.Weighted>
   9.000000E+99

> <Gold.Protein.RotatedTorsions>
[ 6907 6896 6895 6894 ] final  -72.80 input  -60.11 | X-H torsion
[ 7974 7965 7964 7962 ] final  -47.26 input  175.53 | X-H torsion
[ 8008 7997 7996 7995 ] final  125.93 input   59.86 | X-H torsion
[ 10167 10162 10161 10158 ] final   98.07 input  -65.29 | X-H torsion
[ 10718 10713 10712 10709 ] final  167.01 input   66.30 | X-H torsion
[ 10763 10752 10751 10750 ] final  103.58 input  -60.55 | X-H torsion
[ 11005 11000 10999 10996 ] final -144.44 input  -57.11 | X-H torsion

> <Gold.Protein.ActiveResidues>
 VAL166  LYS551  ARG553  GLY616  TRP617  ASP618  TYR619  PRO620  LYS621  CYS622 
 ASP623  PHE694  ASN695  SER759  ASP760  ASP761  ALA762  ILE779  LEU786  VAL792 
 PHE793  MET794  SER795  GLU796  ALA797  LYS798  CYS799  TRP800  GLU811  SER814 

> <Gold.Protein.RotatedAtoms>
  150.7155  134.5109  159.5606 H   0  0  0  0  0  0  0  0  0  0  0  0  # atno 6907 bound_to 6896
  152.2686  134.7954  160.0427 H   0  0  0  0  0  0  0  0  0  0  0  0  # atno 6908 bound_to 6896
  151.8642  133.3428  159.3750 H   0  0  0  0  0  0  0  0  0  0  0  0  # atno 6909 bound_to 6896
  145.9635  140.7456  142.9446 H   0  0  0  0  0  0  0  0  0  0  0  0  # atno 7974 bound_to 7965
  156.2849  140.2705  156.2028 H   0  0  0  0  0  0  0  0  0  0  0  0  # atno 8008 bound_to 7997
  155.0343  140.0386  157.2504 H   0  0  0  0  0  0  0  0  0  0  0  0  # atno 8009 bound_to 7997
  154.7327  140.2710  155.6447 H   0  0  0  0  0  0  0  0  0  0  0  0  # atno 8010 bound_to 7997
  139.7743  144.6911  151.0112 H   0  0  0  0  0  0  0  0  0  0  0  0  # atno 10167 bound_to 10162
  157.0576  131.0331  151.2658 H   0  0  0  0  0  0  0  0  0  0  0  0  # atno 10718 bound_to 10713
  153.3546  135.3972  155.1672 H   0  0  0  0  0  0  0  0  0  0  0  0  # atno 10763 bound_to 10752
  154.8668  135.3665  154.5178 H   0  0  0  0  0  0  0  0  0  0  0  0  # atno 10764 bound_to 10752
  153.5632  135.7080  153.5598 H   0  0  0  0  0  0  0  0  0  0  0  0  # atno 10765 bound_to 10752
  140.8024  134.2841  157.4973 H   0  0  0  0  0  0  0  0  0  0  0  0  # atno 11005 bound_to 11000
  144.6820  140.2629  143.7316 LP  0  0  0  0  0  0  0  0  0  0  0  0  # atno 17320 bound_to 7965
  145.8007  139.1963  143.2049 LP  0  0  0  0  0  0  0  0  0  0  0  0  # atno 17321 bound_to 7965
  140.7815  143.4554  151.0354 LP  0  0  0  0  0  0  0  0  0  0  0  0  # atno 17342 bound_to 10162
  139.8236  143.7786  152.3178 LP  0  0  0  0  0  0  0  0  0  0  0  0  # atno 17343 bound_to 10162
  157.4980  130.7862  149.7575 LP  0  0  0  0  0  0  0  0  0  0  0  0  # atno 17370 bound_to 10713
  155.9988  130.3892  150.2688 LP  0  0  0  0  0  0  0  0  0  0  0  0  # atno 17371 bound_to 10713
  139.8720  134.9437  156.3860 LP  0  0  0  0  0  0  0  0  0  0  0  0  # atno 17394 bound_to 11000
  140.9281  133.7598  155.9990 LP  0  0  0  0  0  0  0  0  0  0  0  0  # atno 17395 bound_to 11000

$$$$
