AV-unprocessed.smi:692|AV-procd|sdf|3370|dock7
  -GOLD-   22720 0343D 1   1.00000     0.00000
 Structure written by MMmdl.
 36 37  0  0  0  0  0  0  0  0  2 V2000
  151.7969  137.8966  154.9311 C   0  0  0  0  0  0  0  0  0  0  0  0
  150.4155  138.1133  154.3038 C   0  0  0  0  0  0  0  0  0  0  0  0
  149.7197  139.3176  154.8611 C   0  0  0  0  0  0  0  0  0  0  0  0
  148.5217  139.8411  154.4493 C   0  0  0  0  0  0  0  0  0  0  0  0
  148.0799  141.2449  155.3785 S   0  0  0  0  0  0  0  0  0  0  0  0
  149.5680  141.0805  156.3132 C   0  0  0  0  0  0  0  0  0  0  0  0
  149.9404  141.8912  157.3169 N   0  5  0  0  0  0  0  0  0  0  0  0
  151.1011  141.6649  157.9732 C   0  0  0  0  0  0  0  0  0  0  0  0
  151.9408  140.8048  157.6976 O   0  0  0  0  0  0  0  0  0  0  0  0
  151.3028  142.4891  159.0114 N   0  0  0  0  0  0  0  0  0  0  0  0
  152.4624  142.4840  159.8989 C   0  0  2  0  0  0  0  0  0  0  0  0
  152.8016  141.0473  160.2994 C   0  0  0  0  0  0  0  0  0  0  0  0
  154.0437  141.0213  161.1977 C   0  0  0  0  0  0  0  0  0  0  0  0
  154.0010  142.0491  162.3388 C   0  0  0  0  0  0  0  0  0  0  0  0
  154.7552  141.8819  163.2981 O   0  0  0  0  0  0  0  0  0  0  0  0
  153.1686  143.1143  162.2443 N   0  0  0  0  0  0  0  0  0  0  0  0
  153.1381  144.1243  163.3035 C   0  0  0  0  0  0  0  0  0  0  0  0
  152.1942  143.3247  161.1624 C   0  0  0  0  0  0  0  0  0  0  0  0
  150.2931  140.0279  155.9191 N   0  0  0  0  0  0  0  0  0  0  0  0
  152.2804  137.0143  154.5114 H   0  0  0  0  0  0  0  0  0  0  0  0
  151.7206  137.7546  156.0095 H   0  0  0  0  0  0  0  0  0  0  0  0
  152.4496  138.7514  154.7509 H   0  0  0  0  0  0  0  0  0  0  0  0
  150.5227  138.2123  153.2231 H   0  0  0  0  0  0  0  0  0  0  0  0
  149.8062  137.2231  154.4630 H   0  0  0  0  0  0  0  0  0  0  0  0
  147.8739  139.4881  153.6615 H   0  0  0  0  0  0  0  0  0  0  0  0
  150.5880  143.1766  159.1994 H   0  0  0  0  0  0  0  0  0  0  0  0
  153.3205  142.8992  159.3660 H   0  0  0  0  0  0  0  0  0  0  0  0
  151.9579  140.5930  160.8212 H   0  0  0  0  0  0  0  0  0  0  0  0
  152.9811  140.4406  159.4109 H   0  0  0  0  0  0  0  0  0  0  0  0
  154.1789  140.0222  161.6136 H   0  0  0  0  0  0  0  0  0  0  0  0
  154.9303  141.2311  160.5985 H   0  0  0  0  0  0  0  0  0  0  0  0
  154.0961  144.6424  163.3641 H   0  0  0  0  0  0  0  0  0  0  0  0
  152.9359  143.6645  164.2721 H   0  0  0  0  0  0  0  0  0  0  0  0
  152.3655  144.8756  163.1340 H   0  0  0  0  0  0  0  0  0  0  0  0
  152.1675  144.3812  160.8912 H   0  0  0  0  0  0  0  0  0  0  0  0
  151.2081  143.0822  161.5617 H   0  0  0  0  0  0  0  0  0  0  0  0
  1  2  1  0  0  0  0
  1 20  1  0  0  0  0
  1 21  1  0  0  0  0
  1 22  1  0  0  0  0
  2  3  1  0  0  0  0
  2 23  1  0  0  0  0
  2 24  1  0  0  0  0
  3 19  1  0  0  0  0
  3  4  2  0  0  0  0
  4  5  1  0  0  0  0
  4 25  1  0  0  0  0
  5  6  1  0  0  0  0
  6  7  1  0  0  0  0
  6 19  2  0  0  0  0
  7  8  1  0  0  0  0
  8  9  2  0  0  0  0
  8 10  1  0  0  0  0
 10 11  1  0  0  0  0
 10 26  1  0  0  0  0
 11 18  1  0  0  0  0
 11 12  1  0  0  0  0
 11 27  1  0  0  0  0
 12 13  1  0  0  0  0
 12 28  1  0  0  0  0
 12 29  1  0  0  0  0
 13 14  1  0  0  0  0
 13 30  1  0  0  0  0
 13 31  1  0  0  0  0
 14 15  2  0  0  0  0
 14 16  1  0  0  0  0
 16 17  1  0  0  0  0
 16 18  1  0  0  0  0
 17 32  1  0  0  0  0
 17 33  1  0  0  0  0
 17 34  1  0  0  0  0
 18 35  1  0  0  0  0
 18 36  1  0  0  0  0
M  CHG  1   7  -1
M  END
> <s_m_source_file>
AV-unprocessed.smi

> <i_m_source_file_index>
692

> <i_lp_mmshare_version>
43012

> <i_f3d_flags>
0

> <s_epik_input>
W0NIM11bQ0gyXWMxW2NIXXNjKG4xKVtOSF1DKD1PKVtOSF1bQ0BASF0yW0NIMl1bQ0gyXUMoPU8pTihbQ0gzXSlbQ0gyXTI=

> <s_epik_cmdline>
J2VwaWtfcHl0aG9uJywgJy1waCcsICc3LjAnLCAnLXRuJywgJzgnLCAnLW1hJywgJzIwMCcsICctbWV0YWxfYmluZGluZycsICctaW1hZScsICc8aW5maWxlLm1hZT4nLCAnLW9tYWUnLCAnPG91dGZpbGUubWFlPic=

> <r_lp_tautomer_probability>
1

> <r_epik_Ionization_Penalty>
7.06728

> <r_epik_Ionization_Penalty_Charging>
5.78908

> <r_epik_Ionization_Penalty_Neutral>
1.2782

> <r_epik_State_Penalty>
5.78905

> <r_epik_Charging_Adjusted_Penalty>
11.5781

> <i_epik_Tot_Q>
-1

> <i_epik_Tot_abs_Q>
1

> <r_epik_Metal_State_Penalty>
1.76044

> <b_epik_Metal_Only>
1

> <s_lp_Force_Field>
OPLS_2005

> <r_lp_Energy>
4.23382

> <b_lp_Chiralities_Consistent>
1

> <s_lp_Variant>
AV-unprocessed.smi:692-3

> <Gold.Version>
5.8.1

> <Gold.Id.Protein>
6NUR|6NUR_protein|mol2

> <Gold.PLP.Fitness>
42.4186

> <Gold.PLP.PLP>
-40.9273

> <Gold.PLP.part.hbond>
-1.0000

> <Gold.PLP.part.metal>
0.0000

> <Gold.PLP.part.buried>
-1.5579

> <Gold.PLP.part.nonpolar>
-37.5285

> <Gold.PLP.part.repulsive>
0.2046

> <Gold.PLP.ligand.clash>
0.0000

> <Gold.PLP.ligand.torsion>
0.2084

> <Gold.PLP.Chemscore.Hbond>
0.0000

> <Gold.PLP.Chemscore.CHOScore>
0.6306

> <Gold.PLP.Chemscore.Metal>
0.0000

> <Gold.PLP.Chemscore.Internal.Correction>
0.0165

> <Gold.Rescore>
     Score         DG    S(hbond)    S(metal)    S(lipo)     H(rot)  DE(clash)    DE(int)     intcor
     10.75     -14.84       0.58        0.00      90.27       1.23       0.47       3.61       ----

> <Gold.Chemscore.Fitness>
10.7524

> <Gold.Chemscore.DG>
-14.8374

> <Gold.Chemscore.ZeroCoef>
-5.4800

> <Gold.Chemscore.Hbond>
0.5784

> <Gold.Chemscore.Metal>
0.0000

> <Gold.Chemscore.Lipo>
90.2710

> <Gold.Chemscore.Internal_Hbond>
0.0000

> <Gold.Chemscore.DEClash>
0.4719

> <Gold.Chemscore.DEInternal>
3.6131

> <Gold.Chemscore.Rot>
1.2251

> <Gold.Chemscore.Internal.Correction>
   9.000000E+99

> <Gold.Chemscore.Hbond.Weighted>
-1.9320

> <Gold.Chemscore.Metal.Weighted>
-0.0000

> <Gold.Chemscore.Lipo.Weighted>
-10.5617

> <Gold.Chemscore.Internal_Hbond.Weighted>
0.0000

> <Gold.Chemscore.DEClash.Weighted>
0.4719

> <Gold.Chemscore.DEInternal.Weighted>
3.6131

> <Gold.Chemscore.Rot.Weighted>
3.1362

> <Gold.Chemscore.Internal.Correction.Weighted>
   9.000000E+99

> <Gold.Protein.RotatedTorsions>
[ 6907 6896 6895 6894 ] final   83.01 input  -60.11 | X-H torsion
[ 7974 7965 7964 7962 ] final  105.10 input  175.53 | X-H torsion
[ 8008 7997 7996 7995 ] final  -32.75 input   59.86 | X-H torsion
[ 10167 10162 10161 10158 ] final -137.63 input  -65.29 | X-H torsion
[ 10718 10713 10712 10709 ] final  -90.97 input   66.30 | X-H torsion
[ 10763 10752 10751 10750 ] final  -87.73 input  -60.55 | X-H torsion
[ 11005 11000 10999 10996 ] final   24.22 input  -57.11 | X-H torsion

> <Gold.Protein.ActiveResidues>
 VAL166  LYS551  ARG553  GLY616  TRP617  ASP618  TYR619  PRO620  LYS621  CYS622 
 ASP623  PHE694  ASN695  SER759  ASP760  ASP761  ALA762  ILE779  LEU786  VAL792 
 PHE793  MET794  SER795  GLU796  ALA797  LYS798  CYS799  TRP800  GLU811  SER814 

> <Gold.Protein.RotatedAtoms>
  152.5315  134.2962  159.9061 H   0  0  0  0  0  0  0  0  0  0  0  0  # atno 6907 bound_to 6896
  151.2913  133.4157  159.2641 H   0  0  0  0  0  0  0  0  0  0  0  0  # atno 6908 bound_to 6896
  151.0198  134.9476  159.8110 H   0  0  0  0  0  0  0  0  0  0  0  0  # atno 6909 bound_to 6896
  145.3241  139.2504  143.3696 H   0  0  0  0  0  0  0  0  0  0  0  0  # atno 7974 bound_to 7965
  154.4170  140.1729  156.1778 H   0  0  0  0  0  0  0  0  0  0  0  0  # atno 8008 bound_to 7997
  155.9707  140.3386  155.6549 H   0  0  0  0  0  0  0  0  0  0  0  0  # atno 8009 bound_to 7997
  155.6628  140.0703  157.2538 H   0  0  0  0  0  0  0  0  0  0  0  0  # atno 8010 bound_to 7997
  139.8558  143.7140  152.2654 H   0  0  0  0  0  0  0  0  0  0  0  0  # atno 10167 bound_to 10162
  155.9991  130.4930  150.5403 H   0  0  0  0  0  0  0  0  0  0  0  0  # atno 10718 bound_to 10713
  154.6368  135.5402  153.7743 H   0  0  0  0  0  0  0  0  0  0  0  0  # atno 10763 bound_to 10752
  153.0313  135.6449  154.1219 H   0  0  0  0  0  0  0  0  0  0  0  0  # atno 10764 bound_to 10752
  154.1146  135.2924  155.3202 H   0  0  0  0  0  0  0  0  0  0  0  0  # atno 10765 bound_to 10752
  140.3610  134.2125  155.7672 H   0  0  0  0  0  0  0  0  0  0  0  0  # atno 11005 bound_to 11000
  146.3071  140.3804  142.8683 LP  0  0  0  0  0  0  0  0  0  0  0  0  # atno 17320 bound_to 7965
  144.8916  140.7531  143.5923 LP  0  0  0  0  0  0  0  0  0  0  0  0  # atno 17321 bound_to 7965
  139.7421  144.7557  151.0637 LP  0  0  0  0  0  0  0  0  0  0  0  0  # atno 17342 bound_to 10162
  140.7781  143.4960  150.9832 LP  0  0  0  0  0  0  0  0  0  0  0  0  # atno 17343 bound_to 10162
  157.3341  131.0705  151.1839 LP  0  0  0  0  0  0  0  0  0  0  0  0  # atno 17370 bound_to 10713
  157.2709  130.6704  149.6019 LP  0  0  0  0  0  0  0  0  0  0  0  0  # atno 17371 bound_to 10713
  141.1984  133.8037  157.0585 LP  0  0  0  0  0  0  0  0  0  0  0  0  # atno 17394 bound_to 11000
  140.0626  134.9746  157.1331 LP  0  0  0  0  0  0  0  0  0  0  0  0  # atno 17395 bound_to 11000

$$$$
