AV-unprocessed.smi:1662|AV-procd|sdf|6662|dock1
  -GOLD-   22720 7373D 1   1.00000     0.00000
 Structure written by MMmdl.
 47 48  0  0  0  0  0  0  0  0  1 V2000
  145.5079  143.7203  153.6534 C   0  0  0  0  0  0  0  0  0  0  0  0
  145.9519  143.0983  154.9499 C   0  0  0  0  0  0  0  0  0  0  0  0
  146.8697  142.1914  154.8741 N   0  0  0  0  0  0  0  0  0  0  0  0
  147.3452  141.5534  156.0034 N   0  0  0  0  0  0  0  0  0  0  0  0
  148.3673  140.5322  155.7317 C   0  0  0  0  0  0  0  0  0  0  0  0
  149.7954  141.0359  155.9832 C   0  0  0  0  0  0  0  0  0  0  0  0
  150.7046  140.7579  155.1999 O   0  0  0  0  0  0  0  0  0  0  0  0
  149.9694  141.7923  157.0773 N   0  0  0  0  0  0  0  0  0  0  0  0
  151.2420  142.3509  157.5298 C   0  0  1  0  0  0  0  0  0  0  0  0
  151.1278  143.8858  157.5895 C   0  0  0  0  0  0  0  0  0  0  0  0
  152.4243  144.5203  158.1005 C   0  0  0  0  0  0  0  0  0  0  0  0
  152.7983  143.9524  159.4740 C   0  0  0  0  0  0  0  0  0  0  0  0
  152.9420  142.4174  159.4417 C   0  0  1  0  0  0  0  0  0  0  0  0
  153.3508  141.9097  160.8367 C   0  0  0  0  0  0  0  0  0  0  0  0
  151.6480  141.7448  158.9007 C   0  0  2  0  0  0  0  0  0  0  0  0
  151.7910  140.2093  158.8075 C   0  0  0  0  0  0  0  0  0  0  0  0
  146.9264  141.8118  157.2760 C   0  0  0  0  0  0  0  0  0  0  0  0
  147.3884  141.2265  158.2571 O   0  0  0  0  0  0  0  0  0  0  0  0
  145.8855  142.8390  157.3540 C   0  0  0  0  0  0  0  0  0  0  0  0
  145.4117  143.1333  158.6679 C   0  0  0  0  0  0  0  0  0  0  0  0
  145.0320  143.3533  159.7391 N   0  0  0  0  0  0  0  0  0  0  0  0
  145.4036  143.4656  156.2516 C   0  0  0  0  0  0  0  0  0  0  0  0
  144.3235  144.5383  156.2789 C   0  0  0  0  0  0  0  0  0  0  0  0
  145.6152  144.8047  153.6857 H   0  0  0  0  0  0  0  0  0  0  0  0
  144.4616  143.4892  153.4538 H   0  0  0  0  0  0  0  0  0  0  0  0
  146.0929  143.3578  152.8066 H   0  0  0  0  0  0  0  0  0  0  0  0
  148.2050  139.6541  156.3592 H   0  0  0  0  0  0  0  0  0  0  0  0
  148.2723  140.1785  154.7030 H   0  0  0  0  0  0  0  0  0  0  0  0
  149.1632  141.9761  157.6570 H   0  0  0  0  0  0  0  0  0  0  0  0
  152.0226  142.0934  156.8109 H   0  0  0  0  0  0  0  0  0  0  0  0
  150.8937  144.2845  156.6015 H   0  0  0  0  0  0  0  0  0  0  0  0
  150.3015  144.1722  158.2420 H   0  0  0  0  0  0  0  0  0  0  0  0
  153.2315  144.3344  157.3909 H   0  0  0  0  0  0  0  0  0  0  0  0
  152.3090  145.6027  158.1640 H   0  0  0  0  0  0  0  0  0  0  0  0
  153.7314  144.4079  159.8079 H   0  0  0  0  0  0  0  0  0  0  0  0
  152.0387  144.2369  160.2034 H   0  0  0  0  0  0  0  0  0  0  0  0
  153.7569  142.1790  158.7563 H   0  0  0  0  0  0  0  0  0  0  0  0
  152.5422  142.0341  161.5574 H   0  0  0  0  0  0  0  0  0  0  0  0
  154.2161  142.4562  161.2131 H   0  0  0  0  0  0  0  0  0  0  0  0
  153.6300  140.8567  160.8214 H   0  0  0  0  0  0  0  0  0  0  0  0
  150.8440  141.9560  159.6080 H   0  0  0  0  0  0  0  0  0  0  0  0
  152.6220  139.9294  158.1596 H   0  0  0  0  0  0  0  0  0  0  0  0
  150.8920  139.7380  158.4106 H   0  0  0  0  0  0  0  0  0  0  0  0
  151.9622  139.7585  159.7842 H   0  0  0  0  0  0  0  0  0  0  0  0
  143.9241  144.6968  157.2803 H   0  0  0  0  0  0  0  0  0  0  0  0
  143.4878  144.2596  155.6363 H   0  0  0  0  0  0  0  0  0  0  0  0
  144.7240  145.4905  155.9293 H   0  0  0  0  0  0  0  0  0  0  0  0
  1  2  1  0  0  0  0
  1 24  1  0  0  0  0
  1 25  1  0  0  0  0
  1 26  1  0  0  0  0
  2 22  1  0  0  0  0
  2  3  2  0  0  0  0
  3  4  1  0  0  0  0
  4  5  1  0  0  0  0
  4 17  1  0  0  0  0
  5  6  1  0  0  0  0
  5 27  1  0  0  0  0
  5 28  1  0  0  0  0
  6  7  2  0  0  0  0
  6  8  1  0  0  0  0
  8  9  1  0  0  0  0
  8 29  1  0  0  0  0
  9 15  1  0  0  0  0
  9 10  1  0  0  0  0
  9 30  1  0  0  0  0
 10 11  1  0  0  0  0
 10 31  1  0  0  0  0
 10 32  1  0  0  0  0
 11 12  1  0  0  0  0
 11 33  1  0  0  0  0
 11 34  1  0  0  0  0
 12 13  1  0  0  0  0
 12 35  1  0  0  0  0
 12 36  1  0  0  0  0
 13 14  1  0  0  0  0
 13 15  1  0  0  0  0
 13 37  1  0  0  0  0
 14 38  1  0  0  0  0
 14 39  1  0  0  0  0
 14 40  1  0  0  0  0
 15 16  1  0  0  0  0
 15 41  1  0  0  0  0
 16 42  1  0  0  0  0
 16 43  1  0  0  0  0
 16 44  1  0  0  0  0
 17 18  2  0  0  0  0
 17 19  1  0  0  0  0
 19 20  1  0  0  0  0
 19 22  2  0  0  0  0
 20 21  3  0  0  0  0
 22 23  1  0  0  0  0
 23 45  1  0  0  0  0
 23 46  1  0  0  0  0
 23 47  1  0  0  0  0
M  END
> <s_m_source_file>
AV-unprocessed.smi

> <i_m_source_file_index>
1662

> <i_lp_mmshare_version>
43012

> <i_f3d_flags>
0

> <s_epik_input>
TiNDYyhjMVtDSDNdKWMoPU8pbihuYzFbQ0gzXSlbQ0gyXUMoPU8pW05IXVtDQEBIXTJbQ0gyXVtDSDJdW0NIMl1bQ0BASF0oW0NIM10pW0NASF0yW0NIM10=

> <s_epik_cmdline>
J2VwaWtfcHl0aG9uJywgJy1waCcsICc3LjAnLCAnLXRuJywgJzgnLCAnLW1hJywgJzIwMCcsICctbWV0YWxfYmluZGluZycsICctaW1hZScsICc8aW5maWxlLm1hZT4nLCAnLW9tYWUnLCAnPG91dGZpbGUubWFlPic=

> <r_lp_tautomer_probability>
1

> <r_epik_Ionization_Penalty>
1.90709e-08

> <r_epik_Ionization_Penalty_Charging>
2.37982e-11

> <r_epik_Ionization_Penalty_Neutral>
1.90471e-08

> <r_epik_State_Penalty>
-0

> <r_epik_Charging_Adjusted_Penalty>
2.37982e-11

> <i_epik_Tot_Q>
0

> <i_epik_Tot_abs_Q>
0

> <r_epik_Metal_State_Penalty>
-0

> <b_epik_Metal_Only>
0

> <s_lp_Force_Field>
OPLS_2005

> <r_lp_Energy>
26.9998

> <b_lp_Chiralities_Consistent>
1

> <s_lp_Variant>
AV-unprocessed.smi:1662-6

> <Gold.Version>
5.8.1

> <Gold.Id.Protein>
6NUR|6NUR_protein|mol2

> <Gold.PLP.Fitness>
44.5681

> <Gold.PLP.PLP>
-42.9571

> <Gold.PLP.part.hbond>
-1.9013

> <Gold.PLP.part.metal>
0.0000

> <Gold.PLP.part.buried>
-5.7655

> <Gold.PLP.part.nonpolar>
-36.1344

> <Gold.PLP.part.repulsive>
0.3035

> <Gold.PLP.ligand.clash>
0.0000

> <Gold.PLP.ligand.torsion>
0.5491

> <Gold.PLP.Chemscore.Hbond>
0.8960

> <Gold.PLP.Chemscore.CHOScore>
0.0000

> <Gold.PLP.Chemscore.Metal>
0.0000

> <Gold.Chemscore.Hbonds>
donor molecule, donor type, donor heavy atom, donor atom, acceptor molecule, acceptor atom, score
      P1  H  7989  7998       L1     7  0.86

> <Gold.PLP.Chemscore.Internal.Correction>
0.0213

> <Gold.Rescore>
     Score         DG    S(hbond)    S(metal)    S(lipo)     H(rot)  DE(clash)    DE(int)     intcor
     15.80     -17.60       0.88        0.00     110.13       1.45       0.44       1.36       ----

> <Gold.Chemscore.Fitness>
15.8039

> <Gold.Chemscore.DG>
-17.6024

> <Gold.Chemscore.ZeroCoef>
-5.4800

> <Gold.Chemscore.Hbond>
0.8832

> <Gold.Chemscore.Metal>
0.0000

> <Gold.Chemscore.Lipo>
110.1304

> <Gold.Chemscore.Internal_Hbond>
0.0000

> <Gold.Chemscore.DEClash>
0.4394

> <Gold.Chemscore.DEInternal>
1.3591

> <Gold.Chemscore.Rot>
1.4504

> <Gold.Chemscore.Internal.Correction>
   9.000000E+99

> <Gold.Chemscore.Hbonds>
donor molecule, donor type, donor heavy atom, donor atom, acceptor molecule, acceptor atom, score
      P1  H  7989  7998       L1     7  0.84

> <Gold.Chemscore.Hbond.Weighted>
-2.9500

> <Gold.Chemscore.Metal.Weighted>
-0.0000

> <Gold.Chemscore.Lipo.Weighted>
-12.8853

> <Gold.Chemscore.Internal_Hbond.Weighted>
0.0000

> <Gold.Chemscore.DEClash.Weighted>
0.4394

> <Gold.Chemscore.DEInternal.Weighted>
1.3591

> <Gold.Chemscore.Rot.Weighted>
3.7129

> <Gold.Chemscore.Internal.Correction.Weighted>
   9.000000E+99

> <Gold.Protein.RotatedTorsions>
[ 6907 6896 6895 6894 ] final -137.61 input  -60.11 | X-H torsion
[ 7974 7965 7964 7962 ] final -179.53 input  175.53 | X-H torsion
[ 8008 7997 7996 7995 ] final  143.96 input   59.86 | X-H torsion
[ 10167 10162 10161 10158 ] final -160.83 input  -65.29 | X-H torsion
[ 10718 10713 10712 10709 ] final   -0.58 input   66.30 | X-H torsion
[ 10763 10752 10751 10750 ] final   58.53 input  -60.55 | X-H torsion
[ 11005 11000 10999 10996 ] final   17.42 input  -57.11 | X-H torsion

> <Gold.Protein.ActiveResidues>
 VAL166  LYS551  ARG553  GLY616  TRP617  ASP618  TYR619  PRO620  LYS621  CYS622 
 ASP623  PHE694  ASN695  SER759  ASP760  ASP761  ALA762  ILE779  LEU786  VAL792 
 PHE793  MET794  SER795  GLU796  ALA797  LYS798  CYS799  TRP800  GLU811  SER814 

> <Gold.Protein.RotatedAtoms>
  151.0246  133.5845  159.2667 H   0  0  0  0  0  0  0  0  0  0  0  0  # atno 6907 bound_to 6896
  151.2949  135.0751  159.9227 H   0  0  0  0  0  0  0  0  0  0  0  0  # atno 6908 bound_to 6896
  152.5331  133.9938  159.7917 H   0  0  0  0  0  0  0  0  0  0  0  0  # atno 6909 bound_to 6896
  144.7137  140.0704  143.6429 H   0  0  0  0  0  0  0  0  0  0  0  0  # atno 7974 bound_to 7965
  156.2919  140.2248  156.4975 H   0  0  0  0  0  0  0  0  0  0  0  0  # atno 8008 bound_to 7997
  154.7718  140.0466  157.1078 H   0  0  0  0  0  0  0  0  0  0  0  0  # atno 8009 bound_to 7997
  154.9865  140.3085  155.4927 H   0  0  0  0  0  0  0  0  0  0  0  0  # atno 8010 bound_to 7997
  139.6510  144.0084  152.2161 H   0  0  0  0  0  0  0  0  0  0  0  0  # atno 10167 bound_to 10162
  156.8183  130.5448  149.5700 H   0  0  0  0  0  0  0  0  0  0  0  0  # atno 10718 bound_to 10713
  152.9873  135.5603  154.5566 H   0  0  0  0  0  0  0  0  0  0  0  0  # atno 10763 bound_to 10752
  154.4993  135.2796  155.1435 H   0  0  0  0  0  0  0  0  0  0  0  0  # atno 10764 bound_to 10752
  154.2872  135.6333  153.5424 H   0  0  0  0  0  0  0  0  0  0  0  0  # atno 10765 bound_to 10752
  140.4361  134.1369  155.7685 H   0  0  0  0  0  0  0  0  0  0  0  0  # atno 11005 bound_to 11000
  145.9788  139.2925  143.1054 LP  0  0  0  0  0  0  0  0  0  0  0  0  # atno 17320 bound_to 7965
  145.9034  140.9228  143.0491 LP  0  0  0  0  0  0  0  0  0  0  0  0  # atno 17321 bound_to 7965
  139.9798  144.6436  150.7911 LP  0  0  0  0  0  0  0  0  0  0  0  0  # atno 17342 bound_to 10162
  140.7537  143.3014  151.3070 LP  0  0  0  0  0  0  0  0  0  0  0  0  # atno 17343 bound_to 10162
  156.1003  130.5964  150.9883 LP  0  0  0  0  0  0  0  0  0  0  0  0  # atno 17370 bound_to 10713
  157.6470  131.0902  150.8132 LP  0  0  0  0  0  0  0  0  0  0  0  0  # atno 17371 bound_to 10713
  141.1725  133.8580  157.1526 LP  0  0  0  0  0  0  0  0  0  0  0  0  # atno 17394 bound_to 11000
  140.0101  134.9992  157.0377 LP  0  0  0  0  0  0  0  0  0  0  0  0  # atno 17395 bound_to 11000

$$$$
