AV-unprocessed.smi:2106|AV-procd|sdf|8597|dock4
  -GOLD-   2272011333D 1   1.00000     0.00000
 Structure written by MMmdl.
 48 49  0  0  0  0  0  0  0  0  2 V2000
  153.6838  140.9541  161.6101 C   0  0  0  0  0  0  0  0  0  0  0  0
  153.0247  141.6654  160.4655 C   0  0  0  0  0  0  0  0  0  0  0  0
  152.8964  143.0667  160.2554 C   0  0  0  0  0  0  0  0  0  0  0  0
  152.2229  143.1709  159.0711 C   0  0  0  0  0  0  0  0  0  0  0  0
  151.7888  144.3839  158.3153 C   0  0  0  0  0  0  0  0  0  0  0  0
  151.9804  141.8807  158.6329 N   0  0  0  0  0  0  0  0  0  0  0  0
  151.3095  141.4312  157.4234 C   0  0  0  0  0  0  0  0  0  0  0  0
  151.6220  139.9620  157.1364 C   0  0  0  0  0  0  0  0  0  0  0  0
  152.7183  139.4930  157.4421 O   0  0  0  0  0  0  0  0  0  0  0  0
  150.6494  139.2445  156.5529 N   0  0  0  0  0  0  0  0  0  0  0  0
  150.7329  137.8240  156.2359 C   0  0  0  0  0  0  0  0  0  0  0  0
  150.3401  137.5396  154.7725 C   0  0  0  0  0  0  0  0  0  0  0  0
  149.4099  136.3902  154.6447 N   0  3  1  0  0  0  0  0  0  0  0  0
  149.9552  135.1569  155.2606 C   0  0  0  0  0  0  0  0  0  0  0  0
  149.0019  133.9624  155.0609 C   0  0  2  0  0  0  0  0  0  0  0  0
  148.9956  133.4139  153.6229 C   0  0  0  0  0  0  0  0  0  0  0  0
  147.6915  134.2955  155.5190 O   0  0  0  0  0  0  0  0  0  0  0  0
  147.1256  135.4580  154.9199 C   0  0  1  0  0  0  0  0  0  0  0  0
  145.7307  135.6682  155.5192 C   0  0  0  0  0  0  0  0  0  0  0  0
  148.0494  136.6642  155.1676 C   0  0  0  0  0  0  0  0  0  0  0  0
  152.4737  140.9606  159.4910 N   0  0  0  0  0  0  0  0  0  0  0  0
  154.0558  141.6614  162.3517 H   0  0  0  0  0  0  0  0  0  0  0  0
  154.5300  140.3585  161.2670 H   0  0  0  0  0  0  0  0  0  0  0  0
  152.9850  140.2846  162.1125 H   0  0  0  0  0  0  0  0  0  0  0  0
  153.2479  143.8743  160.8802 H   0  0  0  0  0  0  0  0  0  0  0  0
  152.1116  145.2939  158.8215 H   0  0  0  0  0  0  0  0  0  0  0  0
  150.7030  144.4182  158.2256 H   0  0  0  0  0  0  0  0  0  0  0  0
  152.2141  144.3921  157.3119 H   0  0  0  0  0  0  0  0  0  0  0  0
  150.2330  141.5753  157.5309 H   0  0  0  0  0  0  0  0  0  0  0  0
  151.6276  142.0508  156.5843 H   0  0  0  0  0  0  0  0  0  0  0  0
  149.7782  139.7117  156.3447 H   0  0  0  0  0  0  0  0  0  0  0  0
  151.7422  137.4761  156.4569 H   0  0  0  0  0  0  0  0  0  0  0  0
  150.0649  137.2877  156.9102 H   0  0  0  0  0  0  0  0  0  0  0  0
  149.8573  138.4331  154.3735 H   0  0  0  0  0  0  0  0  0  0  0  0
  151.2205  137.3632  154.1528 H   0  0  0  0  0  0  0  0  0  0  0  0
  150.9342  134.9246  154.8393 H   0  0  0  0  0  0  0  0  0  0  0  0
  150.1049  135.3313  156.3275 H   0  0  0  0  0  0  0  0  0  0  0  0
  149.3481  133.1524  155.7035 H   0  0  0  0  0  0  0  0  0  0  0  0
  149.9828  133.0429  153.3466 H   0  0  0  0  0  0  0  0  0  0  0  0
  148.7192  134.1717  152.8904 H   0  0  0  0  0  0  0  0  0  0  0  0
  148.2951  132.5838  153.5274 H   0  0  0  0  0  0  0  0  0  0  0  0
  147.0093  135.3004  153.8475 H   0  0  0  0  0  0  0  0  0  0  0  0
  145.2448  136.5441  155.0881 H   0  0  0  0  0  0  0  0  0  0  0  0
  145.7808  135.8108  156.5989 H   0  0  0  0  0  0  0  0  0  0  0  0
  145.0905  134.8068  155.3268 H   0  0  0  0  0  0  0  0  0  0  0  0
  148.1063  136.8855  156.2349 H   0  0  0  0  0  0  0  0  0  0  0  0
  147.6237  137.5423  154.6839 H   0  0  0  0  0  0  0  0  0  0  0  0
  149.3178  136.1998  153.6570 H   0  0  0  0  0  0  0  0  0  0  0  0
  1  2  1  0  0  0  0
  1 22  1  0  0  0  0
  1 23  1  0  0  0  0
  1 24  1  0  0  0  0
  2 21  2  0  0  0  0
  2  3  1  0  0  0  0
  3  4  2  0  0  0  0
  3 25  1  0  0  0  0
  4  5  1  0  0  0  0
  4  6  1  0  0  0  0
  5 26  1  0  0  0  0
  5 27  1  0  0  0  0
  5 28  1  0  0  0  0
  6  7  1  0  0  0  0
  6 21  1  0  0  0  0
  7  8  1  0  0  0  0
  7 29  1  0  0  0  0
  7 30  1  0  0  0  0
  8  9  2  0  0  0  0
  8 10  1  0  0  0  0
 10 11  1  0  0  0  0
 10 31  1  0  0  0  0
 11 12  1  0  0  0  0
 11 32  1  0  0  0  0
 11 33  1  0  0  0  0
 12 13  1  0  0  0  0
 12 34  1  0  0  0  0
 12 35  1  0  0  0  0
 13 20  1  0  0  0  0
 13 14  1  0  0  0  0
 13 48  1  0  0  0  0
 14 15  1  0  0  0  0
 14 36  1  0  0  0  0
 14 37  1  0  0  0  0
 15 16  1  0  0  0  0
 15 17  1  0  0  0  0
 15 38  1  0  0  0  0
 16 39  1  0  0  0  0
 16 40  1  0  0  0  0
 16 41  1  0  0  0  0
 17 18  1  0  0  0  0
 18 19  1  0  0  0  0
 18 20  1  0  0  0  0
 18 42  1  0  0  0  0
 19 43  1  0  0  0  0
 19 44  1  0  0  0  0
 19 45  1  0  0  0  0
 20 46  1  0  0  0  0
 20 47  1  0  0  0  0
M  CHG  1  13   1
M  END
> <s_m_source_file>
AV-unprocessed.smi

> <i_m_source_file_index>
2106

> <i_lp_mmshare_version>
43012

> <i_f3d_flags>
0

> <s_epik_input>
W0NIM11jMVtjSF1jKFtDSDNdKW4objEpW0NIMl1DKD1PKVtOSF1bQ0gyXVtDSDJdTjJbQ0gyXVtDQEBIXShbQ0gzXSlPW0NAQEhdKFtDSDNdKVtDSDJdMg==

> <s_epik_cmdline>
J2VwaWtfcHl0aG9uJywgJy1waCcsICc3LjAnLCAnLXRuJywgJzgnLCAnLW1hJywgJzIwMCcsICctbWV0YWxfYmluZGluZycsICctaW1hZScsICc8aW5maWxlLm1hZT4nLCAnLW9tYWUnLCAnPG91dGZpbGUubWFlPic=

> <r_lp_tautomer_probability>
1

> <r_epik_Ionization_Penalty>
0.748586

> <r_epik_Ionization_Penalty_Charging>
0.748396

> <r_epik_Ionization_Penalty_Neutral>
0.000189656

> <r_epik_State_Penalty>
0.775162

> <r_epik_Charging_Adjusted_Penalty>
1.52356

> <i_epik_Tot_Q>
1

> <i_epik_Tot_abs_Q>
1

> <r_epik_Metal_State_Penalty>
0.775295

> <b_epik_Metal_Only>
0

> <s_lp_Force_Field>
OPLS_2005

> <r_lp_Energy>
15.7435

> <b_lp_Chiralities_Consistent>
1

> <s_lp_Variant>
AV-unprocessed.smi:2106-5

> <Gold.Version>
5.8.1

> <Gold.Id.Protein>
6NUR|6NUR_protein|mol2

> <Gold.PLP.Fitness>
45.8984

> <Gold.PLP.PLP>
-38.7948

> <Gold.PLP.part.hbond>
-2.0000

> <Gold.PLP.part.metal>
0.0000

> <Gold.PLP.part.buried>
-5.0443

> <Gold.PLP.part.nonpolar>
-31.3313

> <Gold.PLP.part.repulsive>
0.1313

> <Gold.PLP.ligand.clash>
0.0000

> <Gold.PLP.ligand.torsion>
0.9786

> <Gold.PLP.Chemscore.Hbond>
3.0000

> <Gold.PLP.Chemscore.CHOScore>
0.0000

> <Gold.PLP.Chemscore.Metal>
0.0000

> <Gold.Chemscore.Hbonds>
donor molecule, donor type, donor heavy atom, donor atom, acceptor molecule, acceptor atom, score
      L1  H    13    48       P1  7948  2.00
      P1  H  7997  8010       L1     9  1.00

> <Gold.PLP.Chemscore.Internal.Correction>
0.0608

> <Gold.Rescore>
     Score         DG    S(hbond)    S(metal)    S(lipo)     H(rot)  DE(clash)    DE(int)     intcor
     16.02     -18.69       1.96        0.00      94.97       1.73       0.01       2.66       ----

> <Gold.Chemscore.Fitness>
16.0203

> <Gold.Chemscore.DG>
-18.6941

> <Gold.Chemscore.ZeroCoef>
-5.4800

> <Gold.Chemscore.Hbond>
1.9566

> <Gold.Chemscore.Metal>
0.0000

> <Gold.Chemscore.Lipo>
94.9734

> <Gold.Chemscore.Internal_Hbond>
0.0000

> <Gold.Chemscore.DEClash>
0.0128

> <Gold.Chemscore.DEInternal>
2.6610

> <Gold.Chemscore.Rot>
1.7316

> <Gold.Chemscore.Internal.Correction>
   9.000000E+99

> <Gold.Chemscore.Hbonds>
donor molecule, donor type, donor heavy atom, donor atom, acceptor molecule, acceptor atom, score
      L1  H    13    48       P1  7948  0.82
      P1  H  7997  8010       L1     9  0.99

> <Gold.Chemscore.Hbond.Weighted>
-6.5352

> <Gold.Chemscore.Metal.Weighted>
-0.0000

> <Gold.Chemscore.Lipo.Weighted>
-11.1119

> <Gold.Chemscore.Internal_Hbond.Weighted>
0.0000

> <Gold.Chemscore.DEClash.Weighted>
0.0128

> <Gold.Chemscore.DEInternal.Weighted>
2.6610

> <Gold.Chemscore.Rot.Weighted>
4.4330

> <Gold.Chemscore.Internal.Correction.Weighted>
   9.000000E+99

> <Gold.Protein.RotatedTorsions>
[ 6907 6896 6895 6894 ] final  103.29 input  -60.11 | X-H torsion
[ 7974 7965 7964 7962 ] final  176.44 input  175.53 | X-H torsion
[ 8008 7997 7996 7995 ] final   54.61 input   59.86 | X-H torsion
[ 10167 10162 10161 10158 ] final  167.88 input  -65.29 | X-H torsion
[ 10718 10713 10712 10709 ] final  -49.84 input   66.30 | X-H torsion
[ 10763 10752 10751 10750 ] final   43.01 input  -60.55 | X-H torsion
[ 11005 11000 10999 10996 ] final -119.07 input  -57.11 | X-H torsion

> <Gold.Protein.ActiveResidues>
 VAL166  LYS551  ARG553  GLY616  TRP617  ASP618  TYR619  PRO620  LYS621  CYS622 
 ASP623  PHE694  ASN695  SER759  ASP760  ASP761  ALA762  ILE779  LEU786  VAL792 
 PHE793  MET794  SER795  GLU796  ALA797  LYS798  CYS799  TRP800  GLU811  SER814 

> <Gold.Protein.RotatedAtoms>
  152.5299  133.9848  159.7822 H   0  0  0  0  0  0  0  0  0  0  0  0  # atno 6907 bound_to 6896
  151.0095  133.5971  159.2691 H   0  0  0  0  0  0  0  0  0  0  0  0  # atno 6908 bound_to 6896
  151.3051  135.0786  159.9305 H   0  0  0  0  0  0  0  0  0  0  0  0  # atno 6909 bound_to 6896
  144.7184  140.0097  143.6440 H   0  0  0  0  0  0  0  0  0  0  0  0  # atno 7974 bound_to 7965
  155.4876  140.3470  155.4350 H   0  0  0  0  0  0  0  0  0  0  0  0  # atno 8008 bound_to 7997
  156.0998  140.1432  156.9511 H   0  0  0  0  0  0  0  0  0  0  0  0  # atno 8009 bound_to 7997
  154.4686  140.0908  156.7064 H   0  0  0  0  0  0  0  0  0  0  0  0  # atno 8010 bound_to 7997
  139.4955  144.3874  151.9555 H   0  0  0  0  0  0  0  0  0  0  0  0  # atno 10167 bound_to 10162
  156.1856  130.4151  149.9444 H   0  0  0  0  0  0  0  0  0  0  0  0  # atno 10718 bound_to 10713
  152.9870  135.6114  154.3042 H   0  0  0  0  0  0  0  0  0  0  0  0  # atno 10763 bound_to 10752
  154.2761  135.2778  155.2719 H   0  0  0  0  0  0  0  0  0  0  0  0  # atno 10764 bound_to 10752
  154.5079  135.5849  153.6639 H   0  0  0  0  0  0  0  0  0  0  0  0  # atno 10765 bound_to 10752
  141.0241  134.0080  157.3240 H   0  0  0  0  0  0  0  0  0  0  0  0  # atno 11005 bound_to 11000
  146.0268  139.3300  143.0779 LP  0  0  0  0  0  0  0  0  0  0  0  0  # atno 17320 bound_to 7965
  145.8501  140.9533  143.0754 LP  0  0  0  0  0  0  0  0  0  0  0  0  # atno 17321 bound_to 7965
  140.3311  144.3315  150.5987 LP  0  0  0  0  0  0  0  0  0  0  0  0  # atno 17342 bound_to 10162
  140.5644  143.2188  151.7709 LP  0  0  0  0  0  0  0  0  0  0  0  0  # atno 17343 bound_to 10162
  156.7201  130.9003  151.3617 LP  0  0  0  0  0  0  0  0  0  0  0  0  # atno 17370 bound_to 10713
  157.6896  130.9220  150.0479 LP  0  0  0  0  0  0  0  0  0  0  0  0  # atno 17371 bound_to 10713
  139.9165  135.0197  156.7900 LP  0  0  0  0  0  0  0  0  0  0  0  0  # atno 17394 bound_to 11000
  140.6521  133.9721  155.7761 LP  0  0  0  0  0  0  0  0  0  0  0  0  # atno 17395 bound_to 11000

$$$$
