AV-unprocessed.smi:712|AV-procd|sdf|3473|dock1
  -GOLD-   22720 0463D 1   1.00000     0.00000
 Structure written by MMmdl.
 50 51  0  0  0  0  0  0  0  0  1 V2000
  151.6770  144.8926  158.7089 C   0  0  0  0  0  0  0  0  0  0  0  0
  152.1686  143.5184  159.1143 C   0  0  0  0  0  0  0  0  0  0  0  0
  152.7436  143.2936  160.4243 C   0  0  0  0  0  0  0  0  0  0  0  0
  153.1624  142.0612  160.7518 C   0  0  0  0  0  0  0  0  0  0  0  0
  153.0599  140.9795  159.8581 N   0  0  0  0  0  0  0  0  0  0  0  0
  153.5447  139.6698  160.3238 C   0  0  0  0  0  0  0  0  0  0  0  0
  155.0700  139.6163  160.4866 C   0  0  0  0  0  0  0  0  0  0  0  0
  155.8086  139.7040  159.5051 O   0  0  0  0  0  0  0  0  0  0  0  0
  155.5236  139.5008  161.7440 N   0  0  0  0  0  0  0  0  0  0  0  0
  156.9272  139.4424  162.1438 C   0  0  0  0  0  0  0  0  0  0  0  0
  157.1088  139.5951  163.6647 C   0  0  1  0  0  0  0  0  0  0  0  0
  157.1320  141.0597  164.1510 C   0  0  0  0  0  0  0  0  0  0  0  0
  157.2752  141.1573  165.6001 N   0  0  0  0  0  0  0  0  0  0  0  0
  157.3090  142.5624  166.0182 C   0  0  0  0  0  0  0  0  0  0  0  0
  155.9795  143.3562  165.9836 C   0  0  0  0  0  0  0  0  0  0  0  0
  155.4895  143.6873  164.5638 C   0  0  0  0  0  0  0  0  0  0  0  0
  155.9652  144.5792  166.9168 C   0  0  0  0  0  0  0  0  0  0  0  0
  156.2019  140.3929  166.2300 C   0  0  0  0  0  0  0  0  0  0  0  0
  156.1672  138.9345  165.7413 C   0  0  0  0  0  0  0  0  0  0  0  0
  156.0532  138.8997  164.3233 O   0  0  0  0  0  0  0  0  0  0  0  0
  152.5338  141.1260  158.6048 C   0  0  0  0  0  0  0  0  0  0  0  0
  152.4469  140.1842  157.8163 O   0  0  0  0  0  0  0  0  0  0  0  0
  152.0759  142.4766  158.2589 C   0  0  0  0  0  0  0  0  0  0  0  0
  151.9368  145.6414  159.4577 H   0  0  0  0  0  0  0  0  0  0  0  0
  150.5931  144.8872  158.5929 H   0  0  0  0  0  0  0  0  0  0  0  0
  152.1236  145.1919  157.7603 H   0  0  0  0  0  0  0  0  0  0  0  0
  152.8381  144.1054  161.1307 H   0  0  0  0  0  0  0  0  0  0  0  0
  153.6051  141.8281  161.7093 H   0  0  0  0  0  0  0  0  0  0  0  0
  153.0949  139.4121  161.2835 H   0  0  0  0  0  0  0  0  0  0  0  0
  153.2182  138.8868  159.6365 H   0  0  0  0  0  0  0  0  0  0  0  0
  154.8421  139.4487  162.4871 H   0  0  0  0  0  0  0  0  0  0  0  0
  157.3235  138.4774  161.8269 H   0  0  0  0  0  0  0  0  0  0  0  0
  157.5172  140.1960  161.6200 H   0  0  0  0  0  0  0  0  0  0  0  0
  158.0532  139.1200  163.9367 H   0  0  0  0  0  0  0  0  0  0  0  0
  157.9536  141.5847  163.6624 H   0  0  0  0  0  0  0  0  0  0  0  0
  156.2154  141.5655  163.8447 H   0  0  0  0  0  0  0  0  0  0  0  0
  157.6483  142.5870  167.0548 H   0  0  0  0  0  0  0  0  0  0  0  0
  158.0754  143.0996  165.4573 H   0  0  0  0  0  0  0  0  0  0  0  0
  155.2349  142.6796  166.4053 H   0  0  0  0  0  0  0  0  0  0  0  0
  156.1393  144.4091  164.0692 H   0  0  0  0  0  0  0  0  0  0  0  0
  154.4860  144.1124  164.5874 H   0  0  0  0  0  0  0  0  0  0  0  0
  155.4522  142.7916  163.9434 H   0  0  0  0  0  0  0  0  0  0  0  0
  156.6215  145.3774  166.5773 H   0  0  0  0  0  0  0  0  0  0  0  0
  156.2712  144.3055  167.9270 H   0  0  0  0  0  0  0  0  0  0  0  0
  154.9610  144.9983  166.9858 H   0  0  0  0  0  0  0  0  0  0  0  0
  156.3330  140.3784  167.3094 H   0  0  0  0  0  0  0  0  0  0  0  0
  155.2399  140.8676  166.0306 H   0  0  0  0  0  0  0  0  0  0  0  0
  157.0678  138.4031  166.0522 H   0  0  0  0  0  0  0  0  0  0  0  0
  155.3190  138.4084  166.1789 H   0  0  0  0  0  0  0  0  0  0  0  0
  151.6474  142.6376  157.2802 H   0  0  0  0  0  0  0  0  0  0  0  0
  1  2  1  0  0  0  0
  1 24  1  0  0  0  0
  1 25  1  0  0  0  0
  1 26  1  0  0  0  0
  2 23  2  0  0  0  0
  2  3  1  0  0  0  0
  3  4  2  0  0  0  0
  3 27  1  0  0  0  0
  4  5  1  0  0  0  0
  4 28  1  0  0  0  0
  5  6  1  0  0  0  0
  5 21  1  0  0  0  0
  6  7  1  0  0  0  0
  6 29  1  0  0  0  0
  6 30  1  0  0  0  0
  7  8  2  0  0  0  0
  7  9  1  0  0  0  0
  9 10  1  0  0  0  0
  9 31  1  0  0  0  0
 10 11  1  0  0  0  0
 10 32  1  0  0  0  0
 10 33  1  0  0  0  0
 11 20  1  0  0  0  0
 11 12  1  0  0  0  0
 11 34  1  0  0  0  0
 12 13  1  0  0  0  0
 12 35  1  0  0  0  0
 12 36  1  0  0  0  0
 13 14  1  0  0  0  0
 13 18  1  0  0  0  0
 14 15  1  0  0  0  0
 14 37  1  0  0  0  0
 14 38  1  0  0  0  0
 15 16  1  0  0  0  0
 15 17  1  0  0  0  0
 15 39  1  0  0  0  0
 16 40  1  0  0  0  0
 16 41  1  0  0  0  0
 16 42  1  0  0  0  0
 17 43  1  0  0  0  0
 17 44  1  0  0  0  0
 17 45  1  0  0  0  0
 18 19  1  0  0  0  0
 18 46  1  0  0  0  0
 18 47  1  0  0  0  0
 19 20  1  0  0  0  0
 19 48  1  0  0  0  0
 19 49  1  0  0  0  0
 21 22  2  0  0  0  0
 21 23  1  0  0  0  0
 23 50  1  0  0  0  0
M  END
> <s_m_source_file>
AV-unprocessed.smi

> <i_m_source_file_index>
712

> <i_lp_mmshare_version>
43012

> <i_f3d_flags>
0

> <s_epik_input>
W0NIM11jMVtjSF1bY0hdbihjKD1PKVtjSF0xKVtDSDJdQyg9TylbTkhdW0NIMl1bQ0BASF0yW0NIMl1OKFtDSDJdW0NIMl1PMilbQ0gyXVtDSF0oW0NIM10pW0NIM10=

> <s_epik_cmdline>
J2VwaWtfcHl0aG9uJywgJy1waCcsICc3LjAnLCAnLXRuJywgJzgnLCAnLW1hJywgJzIwMCcsICctbWV0YWxfYmluZGluZycsICctaW1hZScsICc8aW5maWxlLm1hZT4nLCAnLW9tYWUnLCAnPG91dGZpbGUubWFlPic=

> <r_lp_tautomer_probability>
1

> <r_epik_Ionization_Penalty>
1.11669

> <r_epik_Ionization_Penalty_Charging>
4.93496e-07

> <r_epik_Ionization_Penalty_Neutral>
1.11669

> <r_epik_State_Penalty>
1.17516

> <r_epik_Charging_Adjusted_Penalty>
1.17516

> <i_epik_Tot_Q>
0

> <i_epik_Tot_abs_Q>
0

> <r_epik_Metal_State_Penalty>
1.17513

> <b_epik_Metal_Only>
0

> <s_lp_Force_Field>
OPLS_2005

> <r_lp_Energy>
40.1187

> <b_lp_Chiralities_Consistent>
1

> <s_lp_Variant>
AV-unprocessed.smi:712-6

> <Gold.Version>
5.8.1

> <Gold.Id.Protein>
6NUR|6NUR_protein|mol2

> <Gold.PLP.Fitness>
47.7025

> <Gold.PLP.PLP>
-46.4616

> <Gold.PLP.part.hbond>
-1.0000

> <Gold.PLP.part.metal>
0.0000

> <Gold.PLP.part.buried>
-4.0814

> <Gold.PLP.part.nonpolar>
-40.9071

> <Gold.PLP.part.repulsive>
0.0148

> <Gold.PLP.ligand.clash>
0.0000

> <Gold.PLP.ligand.torsion>
0.6505

> <Gold.PLP.Chemscore.Hbond>
0.8112

> <Gold.PLP.Chemscore.CHOScore>
0.0000

> <Gold.PLP.Chemscore.Metal>
0.0000

> <Gold.Chemscore.Hbonds>
donor molecule, donor type, donor heavy atom, donor atom, acceptor molecule, acceptor atom, score
      P1  H  7997  8009       L1    22  0.44

> <Gold.PLP.Chemscore.Internal.Correction>
0.1084

> <Gold.Rescore>
     Score         DG    S(hbond)    S(metal)    S(lipo)     H(rot)  DE(clash)    DE(int)     intcor
     17.56     -18.26       0.87        0.00     124.28       1.82       0.04       0.66       ----

> <Gold.Chemscore.Fitness>
17.5571

> <Gold.Chemscore.DG>
-18.2612

> <Gold.Chemscore.ZeroCoef>
-5.4800

> <Gold.Chemscore.Hbond>
0.8714

> <Gold.Chemscore.Metal>
0.0000

> <Gold.Chemscore.Lipo>
124.2823

> <Gold.Chemscore.Internal_Hbond>
0.0000

> <Gold.Chemscore.DEClash>
0.0402

> <Gold.Chemscore.DEInternal>
0.6638

> <Gold.Chemscore.Rot>
1.8243

> <Gold.Chemscore.Internal.Correction>
   9.000000E+99

> <Gold.Chemscore.Hbonds>
donor molecule, donor type, donor heavy atom, donor atom, acceptor molecule, acceptor atom, score
      P1  H  7997  8009       L1    22  0.17

> <Gold.Chemscore.Hbond.Weighted>
-2.9104

> <Gold.Chemscore.Metal.Weighted>
-0.0000

> <Gold.Chemscore.Lipo.Weighted>
-14.5410

> <Gold.Chemscore.Internal_Hbond.Weighted>
0.0000

> <Gold.Chemscore.DEClash.Weighted>
0.0402

> <Gold.Chemscore.DEInternal.Weighted>
0.6638

> <Gold.Chemscore.Rot.Weighted>
4.6703

> <Gold.Chemscore.Internal.Correction.Weighted>
   9.000000E+99

> <Gold.Protein.RotatedTorsions>
[ 6907 6896 6895 6894 ] final   25.37 input  -60.11 | X-H torsion
[ 7974 7965 7964 7962 ] final   11.39 input  175.53 | X-H torsion
[ 8008 7997 7996 7995 ] final  161.90 input   59.86 | X-H torsion
[ 10167 10162 10161 10158 ] final   90.74 input  -65.29 | X-H torsion
[ 10718 10713 10712 10709 ] final -131.86 input   66.30 | X-H torsion
[ 10763 10752 10751 10750 ] final   30.66 input  -60.55 | X-H torsion
[ 11005 11000 10999 10996 ] final  -47.29 input  -57.11 | X-H torsion

> <Gold.Protein.ActiveResidues>
 VAL166  LYS551  ARG553  GLY616  TRP617  ASP618  TYR619  PRO620  LYS621  CYS622 
 ASP623  PHE694  ASN695  SER759  ASP760  ASP761  ALA762  ILE779  LEU786  VAL792 
 PHE793  MET794  SER795  GLU796  ALA797  LYS798  CYS799  TRP800  GLU811  SER814 

> <Gold.Protein.RotatedAtoms>
  151.9715  135.0074  160.0552 H   0  0  0  0  0  0  0  0  0  0  0  0  # atno 6907 bound_to 6896
  152.1779  133.4682  159.4951 H   0  0  0  0  0  0  0  0  0  0  0  0  # atno 6908 bound_to 6896
  150.6912  134.1788  159.4283 H   0  0  0  0  0  0  0  0  0  0  0  0  # atno 6909 bound_to 6896
  146.2372  139.9492  142.8473 H   0  0  0  0  0  0  0  0  0  0  0  0  # atno 7974 bound_to 7965
  156.2070  140.1765  156.7777 H   0  0  0  0  0  0  0  0  0  0  0  0  # atno 8008 bound_to 7997
  154.5669  140.0689  156.8936 H   0  0  0  0  0  0  0  0  0  0  0  0  # atno 8009 bound_to 7997
  155.2744  140.3344  155.4265 H   0  0  0  0  0  0  0  0  0  0  0  0  # atno 8010 bound_to 7997
  139.8444  144.6625  150.9245 H   0  0  0  0  0  0  0  0  0  0  0  0  # atno 10167 bound_to 10162
  156.2286  130.7023  151.0834 H   0  0  0  0  0  0  0  0  0  0  0  0  # atno 10718 bound_to 10713
  153.0359  135.6458  154.1078 H   0  0  0  0  0  0  0  0  0  0  0  0  # atno 10763 bound_to 10752
  154.0793  135.2874  155.3295 H   0  0  0  0  0  0  0  0  0  0  0  0  # atno 10764 bound_to 10752
  154.6541  135.5415  153.8001 H   0  0  0  0  0  0  0  0  0  0  0  0  # atno 10765 bound_to 10752
  141.0631  133.6702  156.3276 H   0  0  0  0  0  0  0  0  0  0  0  0  # atno 11005 bound_to 11000
  145.1877  140.9797  143.4229 LP  0  0  0  0  0  0  0  0  0  0  0  0  # atno 17320 bound_to 7965
  144.9885  139.3713  143.6227 LP  0  0  0  0  0  0  0  0  0  0  0  0  # atno 17321 bound_to 7965
  140.7794  143.3884  151.1354 LP  0  0  0  0  0  0  0  0  0  0  0  0  # atno 17342 bound_to 10162
  139.7527  143.8754  152.3081 LP  0  0  0  0  0  0  0  0  0  0  0  0  # atno 17343 bound_to 10162
  157.7122  131.0728  150.6458 LP  0  0  0  0  0  0  0  0  0  0  0  0  # atno 17370 bound_to 10713
  156.6524  130.4489  149.5715 LP  0  0  0  0  0  0  0  0  0  0  0  0  # atno 17371 bound_to 10713
  140.5828  134.5729  157.5483 LP  0  0  0  0  0  0  0  0  0  0  0  0  # atno 17394 bound_to 11000
  139.9451  134.7716  156.0582 LP  0  0  0  0  0  0  0  0  0  0  0  0  # atno 17395 bound_to 11000

$$$$
