AV-unprocessed.smi:471|AV-procd|sdf|2659|dock5
  -GOLD-   2262023 73D 1   1.00000     0.00000
 Structure written by MMmdl.
 16 16  0  0  0  0  0  0  0  0  3 V2000
  150.8259  140.0262  154.4760 O   0  0  0  0  0  0  0  0  0  0  0  0
  151.6080  139.2010  154.9969 C   0  0  0  0  0  0  0  0  0  0  0  0
  152.7753  139.4450  155.3748 O   0  5  0  0  0  0  0  0  0  0  0  0
  151.0916  137.7717  155.1929 C   0  0  0  0  0  0  0  0  0  0  0  0
  150.6263  137.5299  156.5700 N   0  0  0  0  0  0  0  0  0  0  0  0
  149.5722  138.3324  157.0454 C   0  0  0  0  0  0  0  0  0  0  0  0
  149.0538  138.1742  158.2778 C   0  0  0  0  0  0  0  0  0  0  0  0
  149.6073  137.1295  159.1291 C   0  0  0  0  0  0  0  0  0  0  0  0
  149.1509  136.9730  160.2603 O   0  0  0  0  0  0  0  0  0  0  0  0
  150.6156  136.3641  158.6189 N   0  5  0  0  0  0  0  0  0  0  0  0
  151.1313  136.5341  157.3609 C   0  0  0  0  0  0  0  0  0  0  0  0
  152.0328  135.8171  156.9258 O   0  0  0  0  0  0  0  0  0  0  0  0
  150.2583  137.5978  154.5104 H   0  0  0  0  0  0  0  0  0  0  0  0
  151.8711  137.0785  154.8744 H   0  0  0  0  0  0  0  0  0  0  0  0
  149.2148  139.0766  156.3487 H   0  0  0  0  0  0  0  0  0  0  0  0
  148.2455  138.8011  158.6246 H   0  0  0  0  0  0  0  0  0  0  0  0
  1  2  2  0  0  0  0
  2  3  1  0  0  0  0
  2  4  1  0  0  0  0
  4  5  1  0  0  0  0
  4 13  1  0  0  0  0
  4 14  1  0  0  0  0
  5 11  1  0  0  0  0
  5  6  1  0  0  0  0
  6  7  2  0  0  0  0
  6 15  1  0  0  0  0
  7  8  1  0  0  0  0
  7 16  1  0  0  0  0
  8  9  2  0  0  0  0
  8 10  1  0  0  0  0
 10 11  1  0  0  0  0
 11 12  2  0  0  0  0
M  CHG  1   3  -1
M  CHG  1  10  -1
M  END
> <s_m_source_file>
AV-unprocessed.smi

> <i_m_source_file_index>
471

> <i_lp_mmshare_version>
43012

> <i_f3d_flags>
0

> <s_epik_input>
Tz1DKFtPSF0pW0NIMl1uMVtjSF1bY0hdYyg9TylbbkhdYzE9Tw==

> <s_epik_cmdline>
J2VwaWtfcHl0aG9uJywgJy1waCcsICc3LjAnLCAnLXRuJywgJzgnLCAnLW1hJywgJzIwMCcsICctbWV0YWxfYmluZGluZycsICctaW1hZScsICc8aW5maWxlLm1hZT4nLCAnLW9tYWUnLCAnPG91dGZpbGUubWFlPic=

> <r_lp_tautomer_probability>
1

> <r_epik_Ionization_Penalty>
3.94908

> <r_epik_Ionization_Penalty_Charging>
0.000183212

> <r_epik_Ionization_Penalty_Neutral>
3.94889

> <r_epik_State_Penalty>
3.94814

> <r_epik_Charging_Adjusted_Penalty>
3.94832

> <i_epik_Tot_Q>
-2

> <i_epik_Tot_abs_Q>
2

> <r_epik_Metal_State_Penalty>
0.342776

> <b_epik_Metal_Only>
1

> <s_lp_Force_Field>
OPLS_2005

> <r_lp_Energy>
13.443

> <b_lp_Chiralities_Consistent>
1

> <s_lp_Variant>
AV-unprocessed.smi:471-2

> <Gold.Version>
5.8.1

> <Gold.Id.Protein>
6NUR|6NUR_protein|mol2

> <Gold.PLP.Fitness>
33.6820

> <Gold.PLP.PLP>
-16.0521

> <Gold.PLP.part.hbond>
-4.5833

> <Gold.PLP.part.metal>
0.0000

> <Gold.PLP.part.buried>
-3.8804

> <Gold.PLP.part.nonpolar>
-7.9933

> <Gold.PLP.part.repulsive>
0.0957

> <Gold.PLP.ligand.clash>
0.0000

> <Gold.PLP.ligand.torsion>
0.3033

> <Gold.PLP.Chemscore.Hbond>
6.0772

> <Gold.PLP.Chemscore.CHOScore>
0.0000

> <Gold.PLP.Chemscore.Metal>
0.0000

> <Gold.Chemscore.Hbonds>
donor molecule, donor type, donor heavy atom, donor atom, acceptor molecule, acceptor atom, score
      P1  H  6896  6908       L1    10  1.89
      P1  H  6931  6943       L1     9  0.55
      P1  H  7989  7998       L1     1  0.98
      P1  H  7997  8009       L1     3  2.00
      P1  H 10752 10765       L1    12  0.62

> <Gold.PLP.Chemscore.Internal.Correction>
0.0048

> <Gold.Rescore>
     Score         DG    S(hbond)    S(metal)    S(lipo)     H(rot)  DE(clash)    DE(int)     intcor
     14.68     -14.92       3.72        0.00      10.31       1.64       0.00       0.24       ----

> <Gold.Chemscore.Fitness>
14.6806

> <Gold.Chemscore.DG>
-14.9164

> <Gold.Chemscore.ZeroCoef>
-5.4800

> <Gold.Chemscore.Hbond>
3.7214

> <Gold.Chemscore.Metal>
0.0000

> <Gold.Chemscore.Lipo>
10.3093

> <Gold.Chemscore.Internal_Hbond>
0.0000

> <Gold.Chemscore.DEClash>
0.0000

> <Gold.Chemscore.DEInternal>
0.2359

> <Gold.Chemscore.Rot>
1.6404

> <Gold.Chemscore.Internal.Correction>
   9.000000E+99

> <Gold.Chemscore.Hbonds>
donor molecule, donor type, donor heavy atom, donor atom, acceptor molecule, acceptor atom, score
      P1  H  6896  6908       L1    10  0.68
      P1  H  6931  6943       L1     9  0.51
      P1  H  7989  7998       L1     1  0.60
      P1  H  7997  8009       L1     3  1.00
      P1  H 10752 10765       L1    12  0.63

> <Gold.Chemscore.Hbond.Weighted>
-12.4296

> <Gold.Chemscore.Metal.Weighted>
-0.0000

> <Gold.Chemscore.Lipo.Weighted>
-1.2062

> <Gold.Chemscore.Internal_Hbond.Weighted>
0.0000

> <Gold.Chemscore.DEClash.Weighted>
0.0000

> <Gold.Chemscore.DEInternal.Weighted>
0.2359

> <Gold.Chemscore.Rot.Weighted>
4.1994

> <Gold.Chemscore.Internal.Correction.Weighted>
   9.000000E+99

> <Gold.Protein.RotatedTorsions>
[ 6907 6896 6895 6894 ] final -160.74 input  -60.11 | X-H torsion
[ 7974 7965 7964 7962 ] final  -43.98 input  175.53 | X-H torsion
[ 8008 7997 7996 7995 ] final -142.47 input   59.86 | X-H torsion
[ 10167 10162 10161 10158 ] final -162.77 input  -65.29 | X-H torsion
[ 10718 10713 10712 10709 ] final   89.75 input   66.30 | X-H torsion
[ 10763 10752 10751 10750 ] final -146.52 input  -60.55 | X-H torsion
[ 11005 11000 10999 10996 ] final  108.40 input  -57.11 | X-H torsion

> <Gold.Protein.ActiveResidues>
 VAL166  LYS551  ARG553  GLY616  TRP617  ASP618  TYR619  PRO620  LYS621  CYS622 
 ASP623  PHE694  ASN695  SER759  ASP760  ASP761  ALA762  ILE779  LEU786  VAL792 
 PHE793  MET794  SER795  GLU796  ALA797  LYS798  CYS799  TRP800  GLU811  SER814 

> <Gold.Protein.RotatedAtoms>
  151.3538  133.3915  159.2682 H   0  0  0  0  0  0  0  0  0  0  0  0  # atno 6907 bound_to 6896
  150.9780  134.9142  159.7838 H   0  0  0  0  0  0  0  0  0  0  0  0  # atno 6908 bound_to 6896
  152.5207  134.3501  159.9300 H   0  0  0  0  0  0  0  0  0  0  0  0  # atno 6909 bound_to 6896
  145.9965  140.7122  142.9291 H   0  0  0  0  0  0  0  0  0  0  0  0  # atno 7974 bound_to 7965
  155.4948  140.0571  157.2948 H   0  0  0  0  0  0  0  0  0  0  0  0  # atno 8008 bound_to 7997
  154.4609  140.1996  156.0198 H   0  0  0  0  0  0  0  0  0  0  0  0  # atno 8009 bound_to 7997
  156.0888  140.3236  155.7793 H   0  0  0  0  0  0  0  0  0  0  0  0  # atno 8010 bound_to 7997
  139.6368  144.0334  152.2061 H   0  0  0  0  0  0  0  0  0  0  0  0  # atno 10167 bound_to 10162
  157.6956  131.0345  150.3474 H   0  0  0  0  0  0  0  0  0  0  0  0  # atno 10718 bound_to 10713
  154.8332  135.3384  154.6675 H   0  0  0  0  0  0  0  0  0  0  0  0  # atno 10763 bound_to 10752
  153.7292  135.6953  153.4998 H   0  0  0  0  0  0  0  0  0  0  0  0  # atno 10764 bound_to 10752
  153.2324  135.4412  155.0562 H   0  0  0  0  0  0  0  0  0  0  0  0  # atno 10765 bound_to 10752
  139.8843  134.9429  156.5967 H   0  0  0  0  0  0  0  0  0  0  0  0  # atno 11005 bound_to 11000
  144.6905  140.3160  143.7240 LP  0  0  0  0  0  0  0  0  0  0  0  0  # atno 17320 bound_to 7965
  145.7551  139.1806  143.2299 LP  0  0  0  0  0  0  0  0  0  0  0  0  # atno 17321 bound_to 7965
  140.0013  144.6291  150.7727 LP  0  0  0  0  0  0  0  0  0  0  0  0  # atno 17342 bound_to 10162
  140.7470  143.2899  151.3359 LP  0  0  0  0  0  0  0  0  0  0  0  0  # atno 17343 bound_to 10162
  156.3927  130.3901  149.7018 LP  0  0  0  0  0  0  0  0  0  0  0  0  # atno 17370 bound_to 10713
  156.4362  130.7839  151.2860 LP  0  0  0  0  0  0  0  0  0  0  0  0  # atno 17371 bound_to 10713
  140.7915  133.8579  155.8650 LP  0  0  0  0  0  0  0  0  0  0  0  0  # atno 17394 bound_to 11000
  140.9673  134.1577  157.4605 LP  0  0  0  0  0  0  0  0  0  0  0  0  # atno 17395 bound_to 11000

$$$$
