#       Name:                AV-unprocessed.smi:861
#       Creating user name   scv26
#       Creation time:       Fri Mar 27 01:44:31 2020


#       File generated by GOLD software.
#

@<TRIPOS>MOLECULE
AV-unprocessed.smi:861
    48    49     1
SMALL
NO_CHARGES


@<TRIPOS>ATOM
      1 ****        -2.2519   3.6304  -1.6756 C.3            1 S1                 0.0000
      2 ****        -3.0097   2.2923  -1.6650 C.3            1 S1                 0.0000
      3 ****        -4.2395   2.3813  -0.7486 C.3            1 S1                 0.0000
      4 ****        -2.1084   1.1095  -1.2568 C.3            1 S1                 0.0000
      5 ****        -0.9683   0.8251  -2.2541 C.3            1 S1                 0.0000
      6 ****        -0.2347  -0.4171  -2.0156 N.3            1 S1                 0.0000
      7 ****         0.6771  -0.7039  -3.1173 C.3            1 S1                 0.0000
      8 ****         1.4679  -2.0023  -2.8866 C.3            1 S1                 0.0000
      9 ****         2.1713  -1.9163  -1.6517 O.3            1 S1                 0.0000
     10 ****         1.3125  -1.6956  -0.5364 C.3            1 S1                 0.0000
     11 ****         2.1819  -1.6450   0.7282 C.3            1 S1                 0.0000
     12 ****         1.3728  -1.6192   1.9393 N.pl3          1 S1                 0.0000
     13 ****         1.9679  -1.4932   3.2010 C.ar           1 S1                 0.0000
     14 ****         1.1405  -1.4309   4.3398 C.ar           1 S1                 0.0000
     15 ****         1.7640  -1.3032   5.5930 C.ar           1 S1                 0.0000
     16 ****         3.1695  -1.2479   5.6113 C.ar           1 S1                 0.0000
     17 ****         3.9157  -1.3130   4.4857 N.ar           1 S1                 0.0000
     18 ****         3.3204  -1.4344   3.2935 N.ar           1 S1                 0.0000
     19 ****         0.5254  -0.3879  -0.7684 C.3            1 S1                 0.0000
     20 ****        -1.8280   3.8537  -0.6961 H              1 S1                 0.0000
     21 ****        -2.9146   4.4533  -1.9452 H              1 S1                 0.0000
     22 ****        -1.4371   3.6259  -2.3990 H              1 S1                 0.0000
     23 ****        -3.3742   2.1058  -2.6759 H              1 S1                 0.0000
     24 ****        -3.9500   2.5709   0.2854 H              1 S1                 0.0000
     25 ****        -4.8149   1.4555  -0.7690 H              1 S1                 0.0000
     26 ****        -4.9054   3.1866  -1.0605 H              1 S1                 0.0000
     27 ****        -1.7053   1.2968  -0.2614 H              1 S1                 0.0000
     28 ****        -2.7229   0.2120  -1.1729 H              1 S1                 0.0000
     29 ****        -1.4052   0.7835  -3.2529 H              1 S1                 0.0000
     30 ****        -0.2695   1.6623  -2.2669 H              1 S1                 0.0000
     31 ****         0.1173  -0.7844  -4.0498 H              1 S1                 0.0000
     32 ****         1.3764   0.1242  -3.2435 H              1 S1                 0.0000
     33 ****         0.8009  -2.8656  -2.8759 H              1 S1                 0.0000
     34 ****         2.1830  -2.1594  -3.6940 H              1 S1                 0.0000
     35 ****         0.6211  -2.5372  -0.4614 H              1 S1                 0.0000
     36 ****         2.8252  -2.5252   0.7629 H              1 S1                 0.0000
     37 ****         2.8347  -0.7716   0.6980 H              1 S1                 0.0000
     38 ****         0.3674  -1.6620   1.8572 H              1 S1                 0.0000
     39 ****         0.0645  -1.4781   4.2579 H              1 S1                 0.0000
     40 ****         1.1878  -1.2497   6.5046 H              1 S1                 0.0000
     41 ****         3.7055  -1.1502   6.5436 H              1 S1                 0.0000
     42 ****         1.2170   0.4561  -0.7771 H              1 S1                 0.0000
     43 ****        -0.1468  -0.2313   0.0743 H              1 S1                 0.0000
     44 ****        -0.9244  -1.1380  -1.9462 LP             1 S1                 0.0000
     45 ****         2.8220  -1.1591  -1.7076 LP             1 S1                 0.0000
     46 ****         2.6676  -2.7724  -1.5073 LP             1 S1                 0.0000
     47 ****         4.9130  -1.2704   4.5442 LP             1 S1                 0.0000
     48 ****         3.8767  -1.4822   2.4640 LP             1 S1                 0.0000
@<TRIPOS>BOND
    1    1    2 1     
    2    1   20 1     
    3    1   21 1     
    4    1   22 1     
    5    2    3 1     
    6    2    4 1     
    7    2   23 1     
    8    3   24 1     
    9    3   25 1     
   10    3   26 1     
   11    4    5 1     
   12    4   27 1     
   13    4   28 1     
   14    5    6 1     
   15    5   29 1     
   16    5   30 1     
   17    6   19 1     
   18    6    7 1     
   19    7    8 1     
   20    7   31 1     
   21    7   32 1     
   22    8    9 1     
   23    8   33 1     
   24    8   34 1     
   25    9   10 1     
   26   10   11 1     
   27   10   19 1     
   28   10   35 1     
   29   11   12 1     
   30   11   36 1     
   31   11   37 1     
   32   12   13 1     
   33   12   38 1     
   34   13   18 ar    
   35   13   14 ar    
   36   14   15 ar    
   37   14   39 1     
   38   15   16 ar    
   39   15   40 1     
   40   16   17 ar    
   41   16   41 1     
   42   17   18 ar    
   43   19   42 1     
   44   19   43 1     
   45    6   44 1     
   46    9   45 1     
   47    9   46 1     
   48   17   47 1     
   49   18   48 1     
@<TRIPOS>SUBSTRUCTURE
      1 S1             1
@<TRIPOS>SET
LONE_PAIRS      STATIC     ATOMS    <user>   **** ""
5 44 45 46 47 48
DONOR_HYDROGENS      STATIC     ATOMS    <user>   **** ""
1 38
ATOM$BLUE        STATIC     ATOMS    COLORGROUP SYSTEM
5 44 45 46 47 48
ATOM$RED        STATIC     ATOMS    COLORGROUP SYSTEM
1 38
