AV-unprocessed.smi:586|AV-procd|sdf|3001|dock4
  -GOLD-   2262023503D 1   1.00000     0.00000
 Structure written by MMmdl.
 49 49  0  0  0  0  0  0  0  0  1 V2000
  148.1653  141.5691  154.1441 C   0  0  0  0  0  0  0  0  0  0  0  0
  149.1976  140.4414  154.2766 C   0  0  0  0  0  0  0  0  0  0  0  0
  150.1691  140.5993  155.4645 C   0  0  0  0  0  0  0  0  0  0  0  0
  150.6789  139.3404  155.9783 N   0  0  0  0  0  0  0  0  0  0  0  0
  149.9067  138.4617  156.7439 C   0  0  0  0  0  0  0  0  0  0  0  0
  148.6001  138.8321  157.0291 N   0  0  0  0  0  0  0  0  0  0  0  0
  150.3949  137.2575  157.1723 C   0  0  0  0  0  0  0  0  0  0  0  0
  149.6259  136.3898  157.9720 N   0  0  0  0  0  0  0  0  0  0  0  0
  149.4216  136.8243  159.3669 C   0  0  0  0  0  0  0  0  0  0  0  0
  148.0003  136.5039  159.8734 C   0  0  0  0  0  0  0  0  0  0  0  0
  147.7722  137.0407  161.1687 O   0  0  0  0  0  0  0  0  0  0  0  0
  147.2262  136.1138  162.0942 C   0  0  0  0  0  0  0  0  0  0  0  0
  149.1991  135.1529  157.5773 C   0  0  0  0  0  0  0  0  0  0  0  0
  148.8744  134.3224  158.4296 O   0  0  0  0  0  0  0  0  0  0  0  0
  149.0207  134.7358  156.0760 C   0  0  0  0  0  0  0  0  0  0  0  0
  150.3205  134.7657  155.2366 C   0  0  0  0  0  0  0  0  0  0  0  0
  148.0601  135.7517  155.4036 C   0  0  0  0  0  0  0  0  0  0  0  0
  148.3495  133.3494  155.9818 C   0  0  0  0  0  0  0  0  0  0  0  0
  151.7932  136.8890  156.9089 C   0  0  0  0  0  0  0  0  0  0  0  0
  152.3597  135.8761  157.3172 O   0  0  0  0  0  0  0  0  0  0  0  0
  152.5058  137.8014  156.1365 N   0  0  0  0  0  0  0  0  0  0  0  0
  152.0132  139.0030  155.6421 C   0  0  0  0  0  0  0  0  0  0  0  0
  152.7438  139.7093  154.9470 O   0  0  0  0  0  0  0  0  0  0  0  0
  153.4638  137.5704  155.9168 H   0  0  0  0  0  0  0  0  0  0  0  0
  147.4692  141.3616  153.3313 H   0  0  0  0  0  0  0  0  0  0  0  0
  148.6436  142.5247  153.9291 H   0  0  0  0  0  0  0  0  0  0  0  0
  147.5836  141.6803  155.0597 H   0  0  0  0  0  0  0  0  0  0  0  0
  148.6670  139.4956  154.3874 H   0  0  0  0  0  0  0  0  0  0  0  0
  149.7586  140.3616  153.3450 H   0  0  0  0  0  0  0  0  0  0  0  0
  151.0061  141.2535  155.2172 H   0  0  0  0  0  0  0  0  0  0  0  0
  149.6767  141.0867  156.3064 H   0  0  0  0  0  0  0  0  0  0  0  0
  148.2102  139.7040  156.7001 H   0  0  0  0  0  0  0  0  0  0  0  0
  147.9897  138.2495  157.5840 H   0  0  0  0  0  0  0  0  0  0  0  0
  150.1522  136.3383  160.0119 H   0  0  0  0  0  0  0  0  0  0  0  0
  149.6213  137.8927  159.4673 H   0  0  0  0  0  0  0  0  0  0  0  0
  147.2631  136.9522  159.2075 H   0  0  0  0  0  0  0  0  0  0  0  0
  147.8083  135.4301  159.8644 H   0  0  0  0  0  0  0  0  0  0  0  0
  147.0384  136.6182  163.0419 H   0  0  0  0  0  0  0  0  0  0  0  0
  147.9063  135.2855  162.2917 H   0  0  0  0  0  0  0  0  0  0  0  0
  146.2774  135.7109  161.7378 H   0  0  0  0  0  0  0  0  0  0  0  0
  150.1022  134.7794  154.1683 H   0  0  0  0  0  0  0  0  0  0  0  0
  150.9400  133.8839  155.3931 H   0  0  0  0  0  0  0  0  0  0  0  0
  150.9173  135.6531  155.4473 H   0  0  0  0  0  0  0  0  0  0  0  0
  148.4408  136.7716  155.4754 H   0  0  0  0  0  0  0  0  0  0  0  0
  147.0644  135.7357  155.8496 H   0  0  0  0  0  0  0  0  0  0  0  0
  147.9236  135.5346  154.3435 H   0  0  0  0  0  0  0  0  0  0  0  0
  147.9432  133.1753  154.9847 H   0  0  0  0  0  0  0  0  0  0  0  0
  147.5249  133.2478  156.6888 H   0  0  0  0  0  0  0  0  0  0  0  0
  149.0513  132.5395  156.1707 H   0  0  0  0  0  0  0  0  0  0  0  0
  1  2  1  0  0  0  0
  1 25  1  0  0  0  0
  1 26  1  0  0  0  0
  1 27  1  0  0  0  0
  2  3  1  0  0  0  0
  2 28  1  0  0  0  0
  2 29  1  0  0  0  0
  3  4  1  0  0  0  0
  3 30  1  0  0  0  0
  3 31  1  0  0  0  0
  4 22  1  0  0  0  0
  4  5  1  0  0  0  0
  5  6  1  0  0  0  0
  5  7  2  0  0  0  0
  6 32  1  0  0  0  0
  6 33  1  0  0  0  0
  7  8  1  0  0  0  0
  7 19  1  0  0  0  0
  8  9  1  0  0  0  0
  8 13  1  0  0  0  0
  9 10  1  0  0  0  0
  9 34  1  0  0  0  0
  9 35  1  0  0  0  0
 10 11  1  0  0  0  0
 10 36  1  0  0  0  0
 10 37  1  0  0  0  0
 11 12  1  0  0  0  0
 12 38  1  0  0  0  0
 12 39  1  0  0  0  0
 12 40  1  0  0  0  0
 13 14  2  0  0  0  0
 13 15  1  0  0  0  0
 15 16  1  0  0  0  0
 15 17  1  0  0  0  0
 15 18  1  0  0  0  0
 16 41  1  0  0  0  0
 16 42  1  0  0  0  0
 16 43  1  0  0  0  0
 17 44  1  0  0  0  0
 17 45  1  0  0  0  0
 17 46  1  0  0  0  0
 18 47  1  0  0  0  0
 18 48  1  0  0  0  0
 18 49  1  0  0  0  0
 19 20  2  0  0  0  0
 19 21  1  0  0  0  0
 21 24  1  0  0  0  0
 21 22  1  0  0  0  0
 22 23  2  0  0  0  0
M  END
> <s_m_source_file>
AV-unprocessed.smi

> <i_m_source_file_index>
586

> <i_lp_mmshare_version>
43012

> <i_f3d_flags>
0

> <s_epik_input>
W0NIM11bQ0gyXVtDSDJdbjFjKFtOSDJdKWMoYyg9TylbbkhdYzE9TylOKEMoPU8pQyhbQ0gzXSkoW0NIM10pW0NIM10pW0NIMl1bQ0gyXU9bQ0gzXQ==

> <s_epik_cmdline>
J2VwaWtfcHl0aG9uJywgJy1waCcsICc3LjAnLCAnLXRuJywgJzgnLCAnLW1hJywgJzIwMCcsICctbWV0YWxfYmluZGluZycsICctaW1hZScsICc8aW5maWxlLm1hZT4nLCAnLW9tYWUnLCAnPG91dGZpbGUubWFlPic=

> <r_lp_tautomer_probability>
1

> <r_epik_Ionization_Penalty>
2.71493e-05

> <r_epik_Ionization_Penalty_Charging>
5.25815e-06

> <r_epik_Ionization_Penalty_Neutral>
2.18912e-05

> <r_epik_State_Penalty>
-0

> <r_epik_Charging_Adjusted_Penalty>
5.25815e-06

> <i_epik_Tot_Q>
0

> <i_epik_Tot_abs_Q>
0

> <r_epik_Metal_State_Penalty>
-0

> <b_epik_Metal_Only>
0

> <s_epik_Chemistry_Notes>
This compound has an imine and may undergo hydrolysis.

> <s_lp_Force_Field>
OPLS_2005

> <r_lp_Energy>
40.2025

> <b_lp_Chiralities_Consistent>
1

> <s_lp_Variant>
AV-unprocessed.smi:586-1

> <Gold.Version>
5.8.1

> <Gold.Id.Protein>
6NUR|6NUR_protein|mol2

> <Gold.PLP.Fitness>
42.0997

> <Gold.PLP.PLP>
-31.6168

> <Gold.PLP.part.hbond>
-5.1281

> <Gold.PLP.part.metal>
0.0000

> <Gold.PLP.part.buried>
-3.7726

> <Gold.PLP.part.nonpolar>
-23.2087

> <Gold.PLP.part.repulsive>
0.2078

> <Gold.PLP.ligand.clash>
0.0000

> <Gold.PLP.ligand.torsion>
2.4916

> <Gold.PLP.Chemscore.Hbond>
4.2032

> <Gold.PLP.Chemscore.CHOScore>
0.0000

> <Gold.PLP.Chemscore.Metal>
0.0000

> <Gold.Chemscore.Hbonds>
donor molecule, donor type, donor heavy atom, donor atom, acceptor molecule, acceptor atom, score
      P1  H  6896  6909       L1    14  0.85
      P1  H  6931  6943       L1    11  1.00
      P1  H  6934  6947       L1    11  0.74
      P1  H  7989  7998       L1    23  0.39
      P1  H  7997  8008       L1    23  0.86

> <Gold.PLP.Chemscore.Internal.Correction>
2.8564

> <Gold.Rescore>
     Score         DG    S(hbond)    S(metal)    S(lipo)     H(rot)  DE(clash)    DE(int)     intcor
     10.63     -14.69       2.46        0.00      54.23       2.08       0.07       3.99       ----

> <Gold.Chemscore.Fitness>
10.6324

> <Gold.Chemscore.DG>
-14.6949

> <Gold.Chemscore.ZeroCoef>
-5.4800

> <Gold.Chemscore.Hbond>
2.4570

> <Gold.Chemscore.Metal>
0.0000

> <Gold.Chemscore.Lipo>
54.2262

> <Gold.Chemscore.Internal_Hbond>
0.0000

> <Gold.Chemscore.DEClash>
0.0715

> <Gold.Chemscore.DEInternal>
3.9910

> <Gold.Chemscore.Rot>
2.0843

> <Gold.Chemscore.Internal.Correction>
   9.000000E+99

> <Gold.Chemscore.Hbonds>
donor molecule, donor type, donor heavy atom, donor atom, acceptor molecule, acceptor atom, score
      P1  H  6896  6909       L1    14  0.14
      P1  H  6931  6943       L1    11  0.84
      P1  H  6934  6947       L1    11  0.46
      P1  H  7989  7998       L1    23  0.34
      P1  H  7997  8008       L1    23  0.36
      P1  H 10752 10764       L1    20  0.01

> <Gold.Chemscore.Hbond.Weighted>
-8.2063

> <Gold.Chemscore.Metal.Weighted>
-0.0000

> <Gold.Chemscore.Lipo.Weighted>
-6.3445

> <Gold.Chemscore.Internal_Hbond.Weighted>
0.0000

> <Gold.Chemscore.DEClash.Weighted>
0.0715

> <Gold.Chemscore.DEInternal.Weighted>
3.9910

> <Gold.Chemscore.Rot.Weighted>
5.3359

> <Gold.Chemscore.Internal.Correction.Weighted>
   9.000000E+99

> <Gold.Protein.RotatedTorsions>
[ 6907 6896 6895 6894 ] final   32.01 input  -60.11 | X-H torsion
[ 7974 7965 7964 7962 ] final -162.81 input  175.53 | X-H torsion
[ 8008 7997 7996 7995 ] final  -36.73 input   59.86 | X-H torsion
[ 10167 10162 10161 10158 ] final -119.55 input  -65.29 | X-H torsion
[ 10718 10713 10712 10709 ] final   81.15 input   66.30 | X-H torsion
[ 10763 10752 10751 10750 ] final   17.49 input  -60.55 | X-H torsion
[ 11005 11000 10999 10996 ] final   18.86 input  -57.11 | X-H torsion

> <Gold.Protein.ActiveResidues>
 VAL166  LYS551  ARG553  GLY616  TRP617  ASP618  TYR619  PRO620  LYS621  CYS622 
 ASP623  PHE694  ASN695  SER759  ASP760  ASP761  ALA762  ILE779  LEU786  VAL792 
 PHE793  MET794  SER795  GLU796  ALA797  LYS798  CYS799  TRP800  GLU811  SER814 

> <Gold.Protein.RotatedAtoms>
  152.0684  134.9549  160.0574 H   0  0  0  0  0  0  0  0  0  0  0  0  # atno 6907 bound_to 6896
  152.0885  133.4184  159.4541 H   0  0  0  0  0  0  0  0  0  0  0  0  # atno 6908 bound_to 6896
  150.6836  134.2819  159.4674 H   0  0  0  0  0  0  0  0  0  0  0  0  # atno 6909 bound_to 6896
  144.7345  140.3199  143.6173 H   0  0  0  0  0  0  0  0  0  0  0  0  # atno 7974 bound_to 7965
  154.4067  140.1623  156.2421 H   0  0  0  0  0  0  0  0  0  0  0  0  # atno 8008 bound_to 7997
  155.9192  140.3422  155.6137 H   0  0  0  0  0  0  0  0  0  0  0  0  # atno 8009 bound_to 7997
  155.7242  140.0772  157.2308 H   0  0  0  0  0  0  0  0  0  0  0  0  # atno 8010 bound_to 7997
  140.0454  143.5112  152.2109 H   0  0  0  0  0  0  0  0  0  0  0  0  # atno 10167 bound_to 10162
  157.6825  130.9991  150.2184 H   0  0  0  0  0  0  0  0  0  0  0  0  # atno 10718 bound_to 10713
  153.1334  135.6745  153.9141 H   0  0  0  0  0  0  0  0  0  0  0  0  # atno 10763 bound_to 10752
  153.8620  135.3080  155.3439 H   0  0  0  0  0  0  0  0  0  0  0  0  # atno 10764 bound_to 10752
  154.7727  135.4931  153.9763 H   0  0  0  0  0  0  0  0  0  0  0  0  # atno 10765 bound_to 10752
  140.4201  134.1527  155.7672 H   0  0  0  0  0  0  0  0  0  0  0  0  # atno 11005 bound_to 11000
  145.7579  139.1815  143.2284 LP  0  0  0  0  0  0  0  0  0  0  0  0  # atno 17320 bound_to 7965
  146.1009  140.7545  142.9549 LP  0  0  0  0  0  0  0  0  0  0  0  0  # atno 17321 bound_to 7965
  139.5987  144.7575  151.3224 LP  0  0  0  0  0  0  0  0  0  0  0  0  # atno 17342 bound_to 10162
  140.7241  143.7053  150.7812 LP  0  0  0  0  0  0  0  0  0  0  0  0  # atno 17343 bound_to 10162
  156.2840  130.3737  149.7907 LP  0  0  0  0  0  0  0  0  0  0  0  0  # atno 17370 bound_to 10713
  156.5586  130.8373  151.3322 LP  0  0  0  0  0  0  0  0  0  0  0  0  # atno 17371 bound_to 10713
  141.1787  133.8459  157.1332 LP  0  0  0  0  0  0  0  0  0  0  0  0  # atno 17394 bound_to 11000
  140.0206  134.9947  157.0584 LP  0  0  0  0  0  0  0  0  0  0  0  0  # atno 17395 bound_to 11000

$$$$
