AV-unprocessed.smi:3030|AV-procd|sdf|11534|dock9
  -GOLD-   2272016483D 1   1.00000     0.00000
 Structure written by MMmdl.
 52 53  0  0  0  0  0  0  0  0  1 V2000
  145.1433  132.4072  149.7228 C   0  0  0  0  0  0  0  0  0  0  0  0
  144.4335  132.2955  151.0766 C   0  0  0  0  0  0  0  0  0  0  0  0
  144.3141  133.5900  151.7322 N   0  0  0  0  0  0  0  0  0  0  0  0
  143.0697  134.1479  152.0063 C   0  0  0  0  0  0  0  0  0  0  0  0
  142.8924  135.3650  152.5556 C   0  0  0  0  0  0  0  0  0  0  0  0
  144.0729  136.1850  152.8948 C   0  0  0  0  0  0  0  0  0  0  0  0
  143.9475  137.3031  153.3943 O   0  0  0  0  0  0  0  0  0  0  0  0
  145.4030  135.5897  152.6006 C   0  0  0  0  0  0  0  0  0  0  0  0
  146.5216  136.3803  152.9098 N   0  0  0  0  0  0  0  0  0  0  0  0
  146.7424  137.1519  153.9894 C   0  0  0  0  0  0  0  0  0  0  0  0
  145.9496  137.3466  154.9105 O   0  0  0  0  0  0  0  0  0  0  0  0
  147.9578  137.7152  153.9323 N   0  0  0  0  0  0  0  0  0  0  0  0
  148.5169  138.6297  154.9235 C   0  0  1  0  0  0  0  0  0  0  0  0
  150.0243  138.8442  154.6909 C   0  0  0  0  0  0  0  0  0  0  0  0
  150.6549  139.6351  155.8552 C   0  0  1  0  0  0  0  0  0  0  0  0
  152.1472  139.9007  155.6125 C   0  0  0  0  0  0  0  0  0  0  0  0
  149.8830  140.9439  156.1216 C   0  0  0  0  0  0  0  0  0  0  0  0
  148.3714  140.6939  156.2898 C   0  0  0  0  0  0  0  0  0  0  0  0
  147.7568  139.9844  155.0565 C   0  0  1  0  0  0  0  0  0  0  0  0
  147.7126  140.8965  153.7794 C   0  0  0  0  0  0  0  0  0  0  0  0
  146.9907  142.2350  154.0361 C   0  0  0  0  0  0  0  0  0  0  0  0
  147.0571  140.2316  152.5527 C   0  0  0  0  0  0  0  0  0  0  0  0
  145.4384  134.3537  152.0401 C   0  0  0  0  0  0  0  0  0  0  0  0
  145.2257  131.4299  149.2471 H   0  0  0  0  0  0  0  0  0  0  0  0
  146.1512  132.8071  149.8378 H   0  0  0  0  0  0  0  0  0  0  0  0
  144.5969  133.0633  149.0445 H   0  0  0  0  0  0  0  0  0  0  0  0
  143.4416  131.8626  150.9398 H   0  0  0  0  0  0  0  0  0  0  0  0
  144.9790  131.6086  151.7250 H   0  0  0  0  0  0  0  0  0  0  0  0
  142.2318  133.5171  151.7462 H   0  0  0  0  0  0  0  0  0  0  0  0
  141.9055  135.7559  152.7543 H   0  0  0  0  0  0  0  0  0  0  0  0
  147.2464  136.3734  152.2069 H   0  0  0  0  0  0  0  0  0  0  0  0
  148.5401  137.5032  153.1355 H   0  0  0  0  0  0  0  0  0  0  0  0
  148.4313  138.1106  155.8808 H   0  0  0  0  0  0  0  0  0  0  0  0
  150.5228  137.8777  154.6033 H   0  0  0  0  0  0  0  0  0  0  0  0
  150.1941  139.3587  153.7447 H   0  0  0  0  0  0  0  0  0  0  0  0
  150.5760  139.0196  156.7527 H   0  0  0  0  0  0  0  0  0  0  0  0
  152.3015  140.5103  154.7216 H   0  0  0  0  0  0  0  0  0  0  0  0
  152.6952  138.9680  155.4763 H   0  0  0  0  0  0  0  0  0  0  0  0
  152.5950  140.4253  156.4568 H   0  0  0  0  0  0  0  0  0  0  0  0
  150.2725  141.4224  157.0206 H   0  0  0  0  0  0  0  0  0  0  0  0
  150.0526  141.6496  155.3081 H   0  0  0  0  0  0  0  0  0  0  0  0
  148.2179  140.0703  157.1718 H   0  0  0  0  0  0  0  0  0  0  0  0
  147.8552  141.6238  156.5218 H   0  0  0  0  0  0  0  0  0  0  0  0
  146.7213  139.7565  155.3143 H   0  0  0  0  0  0  0  0  0  0  0  0
  148.7319  141.1490  153.4898 H   0  0  0  0  0  0  0  0  0  0  0  0
  145.9884  142.0756  154.4347 H   0  0  0  0  0  0  0  0  0  0  0  0
  146.8913  142.8146  153.1179 H   0  0  0  0  0  0  0  0  0  0  0  0
  147.5377  142.8695  154.7323 H   0  0  0  0  0  0  0  0  0  0  0  0
  146.0911  139.7930  152.8045 H   0  0  0  0  0  0  0  0  0  0  0  0
  147.6879  139.4556  152.1235 H   0  0  0  0  0  0  0  0  0  0  0  0
  146.8909  140.9521  151.7515 H   0  0  0  0  0  0  0  0  0  0  0  0
  146.3578  133.8568  151.7739 H   0  0  0  0  0  0  0  0  0  0  0  0
  1  2  1  0  0  0  0
  1 24  1  0  0  0  0
  1 25  1  0  0  0  0
  1 26  1  0  0  0  0
  2  3  1  0  0  0  0
  2 27  1  0  0  0  0
  2 28  1  0  0  0  0
  3 23  1  0  0  0  0
  3  4  1  0  0  0  0
  4  5  2  0  0  0  0
  4 29  1  0  0  0  0
  5  6  1  0  0  0  0
  5 30  1  0  0  0  0
  6  7  2  0  0  0  0
  6  8  1  0  0  0  0
  8  9  1  0  0  0  0
  8 23  2  0  0  0  0
  9 10  1  0  0  0  0
  9 31  1  0  0  0  0
 10 11  2  0  0  0  0
 10 12  1  0  0  0  0
 12 13  1  0  0  0  0
 12 32  1  0  0  0  0
 13 19  1  0  0  0  0
 13 14  1  0  0  0  0
 13 33  1  0  0  0  0
 14 15  1  0  0  0  0
 14 34  1  0  0  0  0
 14 35  1  0  0  0  0
 15 16  1  0  0  0  0
 15 17  1  0  0  0  0
 15 36  1  0  0  0  0
 16 37  1  0  0  0  0
 16 38  1  0  0  0  0
 16 39  1  0  0  0  0
 17 18  1  0  0  0  0
 17 40  1  0  0  0  0
 17 41  1  0  0  0  0
 18 19  1  0  0  0  0
 18 42  1  0  0  0  0
 18 43  1  0  0  0  0
 19 20  1  0  0  0  0
 19 44  1  0  0  0  0
 20 21  1  0  0  0  0
 20 22  1  0  0  0  0
 20 45  1  0  0  0  0
 21 46  1  0  0  0  0
 21 47  1  0  0  0  0
 21 48  1  0  0  0  0
 22 49  1  0  0  0  0
 22 50  1  0  0  0  0
 22 51  1  0  0  0  0
 23 52  1  0  0  0  0
M  END
> <s_m_source_file>
AV-unprocessed.smi

> <i_m_source_file_index>
3030

> <i_lp_mmshare_version>
43012

> <i_f3d_flags>
0

> <s_epik_input>
W0NIM11bQ0gyXW4xW2NIXVtjSF1jKD1PKWMoW2NIXTEpW05IXUMoPU8pW05IXVtDQEBIXTJbQ0gyXVtDQEBIXShbQ0gzXSlbQ0gyXVtDSDJdW0NASF0yW0NIXShbQ0gzXSlbQ0gzXQ==

> <s_epik_cmdline>
J2VwaWtfcHl0aG9uJywgJy1waCcsICc3LjAnLCAnLXRuJywgJzgnLCAnLW1hJywgJzIwMCcsICctbWV0YWxfYmluZGluZycsICctaW1hZScsICc8aW5maWxlLm1hZT4nLCAnLW9tYWUnLCAnPG91dGZpbGUubWFlPic=

> <r_lp_tautomer_probability>
1

> <r_epik_Ionization_Penalty>
0.00147933

> <r_epik_Ionization_Penalty_Charging>
0.00145753

> <r_epik_Ionization_Penalty_Neutral>
2.17987e-05

> <r_epik_State_Penalty>
0.00097457

> <r_epik_Charging_Adjusted_Penalty>
0.0024321

> <i_epik_Tot_Q>
0

> <i_epik_Tot_abs_Q>
0

> <r_epik_Metal_State_Penalty>
-0

> <b_epik_Metal_Only>
0

> <s_lp_Force_Field>
OPLS_2005

> <r_lp_Energy>
13.818

> <b_lp_Chiralities_Consistent>
1

> <s_lp_Variant>
AV-unprocessed.smi:3030-2

> <Gold.Version>
5.8.1

> <Gold.Id.Protein>
6NUR|6NUR_protein|mol2

> <Gold.PLP.Fitness>
41.8306

> <Gold.PLP.PLP>
-35.6521

> <Gold.PLP.part.hbond>
-2.0000

> <Gold.PLP.part.metal>
0.0000

> <Gold.PLP.part.buried>
-2.3281

> <Gold.PLP.part.nonpolar>
-31.3743

> <Gold.PLP.part.repulsive>
0.2198

> <Gold.PLP.ligand.clash>
0.0000

> <Gold.PLP.ligand.torsion>
0.4064

> <Gold.PLP.Chemscore.Hbond>
1.8880

> <Gold.PLP.Chemscore.CHOScore>
0.4204

> <Gold.PLP.Chemscore.Metal>
0.0000

> <Gold.Chemscore.Hbonds>
donor molecule, donor type, donor heavy atom, donor atom, acceptor molecule, acceptor atom, score
      L1  H     9    31       P1  7948  0.96
      L1  H    12    32       P1  7948  0.93
      L1  C     4    29       P1 10186  0.40

> <Gold.PLP.Chemscore.Internal.Correction>
0.0661

> <Gold.Rescore>
     Score         DG    S(hbond)    S(metal)    S(lipo)     H(rot)  DE(clash)    DE(int)     intcor
     15.86     -19.26       1.84        0.00      92.91       1.27       0.36       3.03       ----

> <Gold.Chemscore.Fitness>
15.8645

> <Gold.Chemscore.DG>
-19.2620

> <Gold.Chemscore.ZeroCoef>
-5.4800

> <Gold.Chemscore.Hbond>
1.8441

> <Gold.Chemscore.Metal>
0.0000

> <Gold.Chemscore.Lipo>
92.9067

> <Gold.Chemscore.Internal_Hbond>
0.0000

> <Gold.Chemscore.DEClash>
0.3640

> <Gold.Chemscore.DEInternal>
3.0334

> <Gold.Chemscore.Rot>
1.2685

> <Gold.Chemscore.Internal.Correction>
   9.000000E+99

> <Gold.Chemscore.Hbonds>
donor molecule, donor type, donor heavy atom, donor atom, acceptor molecule, acceptor atom, score
      L1  H     9    31       P1  7948  0.92
      L1  H    12    32       P1  7948  0.90

> <Gold.Chemscore.Hbond.Weighted>
-6.1594

> <Gold.Chemscore.Metal.Weighted>
-0.0000

> <Gold.Chemscore.Lipo.Weighted>
-10.8701

> <Gold.Chemscore.Internal_Hbond.Weighted>
0.0000

> <Gold.Chemscore.DEClash.Weighted>
0.3640

> <Gold.Chemscore.DEInternal.Weighted>
3.0334

> <Gold.Chemscore.Rot.Weighted>
3.2474

> <Gold.Chemscore.Internal.Correction.Weighted>
   9.000000E+99

> <Gold.Protein.RotatedTorsions>
[ 6907 6896 6895 6894 ] final    8.10 input  -60.11 | X-H torsion
[ 7974 7965 7964 7962 ] final  -89.44 input  175.53 | X-H torsion
[ 8008 7997 7996 7995 ] final   82.45 input   59.86 | X-H torsion
[ 10167 10162 10161 10158 ] final  -17.03 input  -65.29 | X-H torsion
[ 10718 10713 10712 10709 ] final -157.31 input   66.30 | X-H torsion
[ 10763 10752 10751 10750 ] final  131.91 input  -60.55 | X-H torsion
[ 11005 11000 10999 10996 ] final  147.36 input  -57.11 | X-H torsion

> <Gold.Protein.ActiveResidues>
 VAL166  LYS551  ARG553  GLY616  TRP617  ASP618  TYR619  PRO620  LYS621  CYS622 
 ASP623  PHE694  ASN695  SER759  ASP760  ASP761  ALA762  ILE779  LEU786  VAL792 
 PHE793  MET794  SER795  GLU796  ALA797  LYS798  CYS799  TRP800  GLU811  SER814 

> <Gold.Protein.RotatedAtoms>
  151.7006  135.0930  160.0249 H   0  0  0  0  0  0  0  0  0  0  0  0  # atno 6907 bound_to 6896
  152.3723  133.6430  159.6105 H   0  0  0  0  0  0  0  0  0  0  0  0  # atno 6908 bound_to 6896
  150.7682  133.9167  159.3427 H   0  0  0  0  0  0  0  0  0  0  0  0  # atno 6909 bound_to 6896
  145.4398  140.9558  143.2081 H   0  0  0  0  0  0  0  0  0  0  0  0  # atno 7974 bound_to 7965
  155.9107  140.3427  155.6097 H   0  0  0  0  0  0  0  0  0  0  0  0  # atno 8008 bound_to 7997
  155.7390  140.0805  157.2273 H   0  0  0  0  0  0  0  0  0  0  0  0  # atno 8009 bound_to 7997
  154.4055  140.1574  156.2582 H   0  0  0  0  0  0  0  0  0  0  0  0  # atno 8010 bound_to 7997
  140.7242  143.5056  150.9814 H   0  0  0  0  0  0  0  0  0  0  0  0  # atno 10167 bound_to 10162
  156.5386  130.8553  151.2741 H   0  0  0  0  0  0  0  0  0  0  0  0  # atno 10718 bound_to 10713
  153.7821  135.3167  155.3367 H   0  0  0  0  0  0  0  0  0  0  0  0  # atno 10763 bound_to 10752
  154.8157  135.4637  154.0641 H   0  0  0  0  0  0  0  0  0  0  0  0  # atno 10764 bound_to 10752
  153.1933  135.6911  153.8410 H   0  0  0  0  0  0  0  0  0  0  0  0  # atno 10765 bound_to 10752
  140.0869  134.9064  157.1590 H   0  0  0  0  0  0  0  0  0  0  0  0  # atno 11005 bound_to 11000
  144.8129  139.5930  143.7021 LP  0  0  0  0  0  0  0  0  0  0  0  0  # atno 17320 bound_to 7965
  146.2562  139.6308  142.9393 LP  0  0  0  0  0  0  0  0  0  0  0  0  # atno 17321 bound_to 7965
  139.8768  143.7123  152.3161 LP  0  0  0  0  0  0  0  0  0  0  0  0  # atno 17342 bound_to 10162
  139.7391  144.7564  151.0681 LP  0  0  0  0  0  0  0  0  0  0  0  0  # atno 17343 bound_to 10162
  157.7409  130.9860  150.2411 LP  0  0  0  0  0  0  0  0  0  0  0  0  # atno 17370 bound_to 10713
  156.2993  130.3756  149.7766 LP  0  0  0  0  0  0  0  0  0  0  0  0  # atno 17371 bound_to 10713
  140.3407  134.2707  155.7212 LP  0  0  0  0  0  0  0  0  0  0  0  0  # atno 17394 bound_to 11000
  141.2065  133.7830  157.0171 LP  0  0  0  0  0  0  0  0  0  0  0  0  # atno 17395 bound_to 11000

$$$$
