#       Name:                AV-unprocessed.smi:2499
#       Creating user name   scv26
#       Creation time:       Fri Mar 27 13:46:20 2020


#       File generated by GOLD software.
#

@<TRIPOS>MOLECULE
AV-unprocessed.smi:2499
    32    33     1
SMALL
NO_CHARGES


@<TRIPOS>ATOM
      1 ****        -2.2204  -1.6385   1.5514 C.3            1 S1                 0.0000
      2 ****        -1.6435  -0.6910   0.4906 C.3            1 S1                 0.0000
      3 ****        -0.2008  -0.5923   0.6892 N.am           1 S1                 0.0000
      4 ****         0.5645   0.4477   0.3266 C.2            1 S1                 0.0000
      5 ****         0.1254   1.4586  -0.2222 O.2            1 S1                 0.0000
      6 ****         1.8535   0.2368   0.6416 N.am           1 S1                 0.0000
      7 ****         2.9518   1.1026   0.4089 C.2            1 S1                 0.0000
      8 ****         2.9111   2.2967  -0.1843 N.2            1 S1                 0.0000
      9 ****         4.2264   2.7379  -0.1725 C.2            1 S1                 0.0000
     10 ****         4.9943   1.7773   0.4338 C.2            1 S1                 0.0000
     11 ****         4.1964   0.7296   0.8083 O.3            1 S1                 0.0000
     12 ****        -2.0329  -1.1427  -0.9071 C.3            1 S1                 0.0000
     13 ****        -2.2705  -0.1483  -2.0193 C.3            1 S1                 0.0000
     14 ****        -3.4309  -0.9192  -1.4337 C.3            1 S1                 0.0000
     15 ****        -3.3066  -1.6983   1.4753 H              1 S1                 0.0000
     16 ****        -1.9816  -1.2946   2.5585 H              1 S1                 0.0000
     17 ****        -1.8240  -2.6484   1.4404 H              1 S1                 0.0000
     18 ****        -2.0845   0.2929   0.6626 H              1 S1                 0.0000
     19 ****         0.2484  -1.3792   1.1342 H              1 S1                 0.0000
     20 ****         2.0745  -0.6366   1.0961 H              1 S1                 0.0000
     21 ****         4.5104   3.6915  -0.5924 H              1 S1                 0.0000
     22 ****         6.0469   1.6910   0.6597 H              1 S1                 0.0000
     23 ****        -1.5707  -2.0830  -1.2026 H              1 S1                 0.0000
     24 ****        -2.2024   0.9110  -1.7799 H              1 S1                 0.0000
     25 ****        -1.9344  -0.4227  -3.0170 H              1 S1                 0.0000
     26 ****        -3.8702  -1.7071  -2.0419 H              1 S1                 0.0000
     27 ****        -4.1293  -0.3710  -0.8045 H              1 S1                 0.0000
     28 ****        -0.8517   1.5354  -0.4206 LP             1 S1                 0.0000
     29 ****         0.7458   2.2028  -0.4696 LP             1 S1                 0.0000
     30 ****         2.1110   2.7685  -0.5548 LP             1 S1                 0.0000
     31 ****         4.4787  -0.1133   0.3502 LP             1 S1                 0.0000
     32 ****         4.2265   0.5966   1.7990 LP             1 S1                 0.0000
@<TRIPOS>BOND
    1    1    2 1     
    2    1   15 1     
    3    1   16 1     
    4    1   17 1     
    5    2    3 1     
    6    2   12 1     
    7    2   18 1     
    8    3    4 am    
    9    3   19 1     
   10    4    5 2     
   11    4    6 am    
   12    6    7 1     
   13    6   20 1     
   14    7   11 1     
   15    7    8 2     
   16    8    9 1     
   17    9   10 2     
   18    9   21 1     
   19   10   11 1     
   20   10   22 1     
   21   12   14 1     
   22   12   13 1     
   23   12   23 1     
   24   13   14 1     
   25   13   24 1     
   26   13   25 1     
   27   14   26 1     
   28   14   27 1     
   29    5   28 1     
   30    5   29 1     
   31    8   30 1     
   32   11   31 1     
   33   11   32 1     
@<TRIPOS>SUBSTRUCTURE
      1 S1             1
@<TRIPOS>SET
LONE_PAIRS      STATIC     ATOMS    <user>   **** ""
5 28 29 30 31 32
DONOR_HYDROGENS      STATIC     ATOMS    <user>   **** ""
2 19 20
ATOM$BLUE        STATIC     ATOMS    COLORGROUP SYSTEM
5 28 29 30 31 32
ATOM$RED        STATIC     ATOMS    COLORGROUP SYSTEM
2 19 20
