#       Name:                AV-unprocessed.smi:1644
#       Creating user name   scv26
#       Creation time:       Fri Mar 27 07:29:46 2020


#       File generated by GOLD software.
#

@<TRIPOS>MOLECULE
AV-unprocessed.smi:1644
    56    58     1
SMALL
NO_CHARGES


@<TRIPOS>ATOM
      1 ****        -0.8441   4.6395  -1.9414 C.3            1 S1                 0.0000
      2 ****        -1.5137   3.3757  -1.3918 C.3            1 S1                 0.0000
      3 ****        -3.0357   3.5525  -1.2016 C.3            1 S1                 0.0000
      4 ****        -3.7971   2.3373  -0.6177 C.3            1 S1                 0.0000
      5 ****        -3.3605   2.0238   0.7271 N.pl3          1 S1                -1.0000
      6 ****        -2.9460   0.7352   0.7518 C.2            1 S1                 0.0000
      7 ****        -2.4926   0.1268   1.7211 O.2            1 S1                 0.0000
      8 ****        -3.0686   0.1617  -0.4617 N.am           1 S1                 0.0000
      9 ****        -2.6653  -1.2092  -0.7883 C.3            1 S1                 0.0000
     10 ****        -1.1411  -1.3107  -1.0048 C.3            1 S1                 0.0000
     11 ****        -0.8510  -1.1143  -2.3752 O.3            1 S1                 0.0000
     12 ****        -0.5883  -2.6869  -0.5864 C.3            1 S1                 0.0000
     13 ****         0.8769  -2.7440  -0.6521 N.pl3          1 S1                 0.0000
     14 ****         1.6974  -3.3075  -1.5793 C.2            1 S1                 0.0000
     15 ****         2.9807  -3.0771  -1.1841 N.pl3          1 S1                 1.0000
     16 ****         2.9778  -2.3519   0.0103 C.ar           1 S1                 0.0000
     17 ****         4.0237  -1.8756   0.7922 C.ar           1 S1                 0.0000
     18 ****         3.6806  -1.1579   1.9608 C.ar           1 S1                 0.0000
     19 ****         4.7995  -0.6153   2.8332 C.3            1 S1                 0.0000
     20 ****         2.3229  -0.9448   2.3153 C.ar           1 S1                 0.0000
     21 ****         1.9639  -0.1719   3.5728 C.3            1 S1                 0.0000
     22 ****         1.2741  -1.4406   1.5092 C.ar           1 S1                 0.0000
     23 ****         1.6305  -2.1390   0.3584 C.ar           1 S1                 0.0000
     24 ****        -3.5496   1.0348  -1.3513 C.2            1 S1                 0.0000
     25 ****        -3.7549   0.8556  -2.5522 O.2            1 S1                 0.0000
     26 ****         0.2296   4.4909  -2.0569 H              1 S1                 0.0000
     27 ****        -0.9928   5.4868  -1.2715 H              1 S1                 0.0000
     28 ****        -1.2506   4.9068  -2.9170 H              1 S1                 0.0000
     29 ****        -1.3103   2.5485  -2.0721 H              1 S1                 0.0000
     30 ****        -1.0481   3.1144  -0.4412 H              1 S1                 0.0000
     31 ****        -3.2139   4.4158  -0.5591 H              1 S1                 0.0000
     32 ****        -3.4802   3.8097  -2.1640 H              1 S1                 0.0000
     33 ****        -4.8676   2.5440  -0.6502 H              1 S1                 0.0000
     34 ****        -2.9649  -1.8470   0.0450 H              1 S1                 0.0000
     35 ****        -3.2143  -1.5952  -1.6494 H              1 S1                 0.0000
     36 ****        -0.6294  -0.5347  -0.4347 H              1 S1                 0.0000
     37 ****        -1.3540  -1.7348  -2.8800 H              1 S1                 0.0000
     38 ****        -0.8859  -2.9330   0.4338 H              1 S1                 0.0000
     39 ****        -0.9867  -3.4763  -1.2253 H              1 S1                 0.0000
     40 ****         1.3870  -3.8358  -2.4691 H              1 S1                 0.0000
     41 ****         5.0550  -2.0418   0.5169 H              1 S1                 0.0000
     42 ****         4.7115   0.4662   2.9414 H              1 S1                 0.0000
     43 ****         5.7794  -0.8276   2.4043 H              1 S1                 0.0000
     44 ****         4.7634  -1.0673   3.8247 H              1 S1                 0.0000
     45 ****         0.8843  -0.1355   3.7237 H              1 S1                 0.0000
     46 ****         2.3257   0.8544   3.5061 H              1 S1                 0.0000
     47 ****         2.4065  -0.6406   4.4519 H              1 S1                 0.0000
     48 ****         0.2398  -1.2739   1.7747 H              1 S1                 0.0000
     49 ****         3.7960  -3.3890  -1.6962 H              1 S1                 0.0000
     50 ****        -3.3645   2.6521   1.5050 LP             1 S1                 0.0000
     51 ****        -2.4014   0.5887   2.6033 LP             1 S1                 0.0000
     52 ****        -2.2155  -0.8294   1.6263 LP             1 S1                 0.0000
     53 ****         0.1250  -1.2596  -2.5376 LP             1 S1                 0.0000
     54 ****        -1.0983  -0.1829  -2.6423 LP             1 S1                 0.0000
     55 ****        -4.1106   1.6014  -3.1154 LP             1 S1                 0.0000
     56 ****        -3.5659  -0.0358  -2.9642 LP             1 S1                 0.0000
@<TRIPOS>BOND
    1    1    2 1     
    2    1   26 1     
    3    1   27 1     
    4    1   28 1     
    5    2    3 1     
    6    2   29 1     
    7    2   30 1     
    8    3    4 1     
    9    3   31 1     
   10    3   32 1     
   11    4   24 1     
   12    4    5 1     
   13    4   33 1     
   14    5    6 1     
   15    6    7 2     
   16    6    8 am    
   17    8    9 1     
   18    8   24 am    
   19    9   10 1     
   20    9   34 1     
   21    9   35 1     
   22   10   11 1     
   23   10   12 1     
   24   10   36 1     
   25   11   37 1     
   26   12   13 1     
   27   12   38 1     
   28   12   39 1     
   29   13   23 1     
   30   13   14 1     
   31   14   15 2     
   32   14   40 1     
   33   15   16 1     
   34   15   49 1     
   35   16   23 ar    
   36   16   17 ar    
   37   17   18 ar    
   38   17   41 1     
   39   18   19 1     
   40   18   20 ar    
   41   19   42 1     
   42   19   43 1     
   43   19   44 1     
   44   20   21 1     
   45   20   22 ar    
   46   21   45 1     
   47   21   46 1     
   48   21   47 1     
   49   22   23 ar    
   50   22   48 1     
   51   24   25 2     
   52    5   50 1     
   53    7   51 1     
   54    7   52 1     
   55   11   53 1     
   56   11   54 1     
   57   25   55 1     
   58   25   56 1     
@<TRIPOS>SUBSTRUCTURE
      1 S1             1
@<TRIPOS>SET
LONE_PAIRS      STATIC     ATOMS    <user>   **** ""
7 50 51 52 53 54 55 56
DONOR_HYDROGENS      STATIC     ATOMS    <user>   **** ""
2 37 49
ATOM$BLUE        STATIC     ATOMS    COLORGROUP SYSTEM
7 50 51 52 53 54 55 56
ATOM$RED        STATIC     ATOMS    COLORGROUP SYSTEM
2 37 49
