AV-unprocessed.smi:994|AV-procd|sdf|4341|dock6
  -GOLD-   22720 2243D 1   1.00000     0.00000
 Structure written by MMmdl.
 37 38  0  0  0  0  0  0  0  0  2 V2000
  151.0932  142.1843  156.8954 O   0  0  0  0  0  0  0  0  0  0  0  0
  151.6238  141.6056  157.8444 C   0  0  0  0  0  0  0  0  0  0  0  0
  151.6397  140.2712  157.9829 N   0  0  0  0  0  0  0  0  0  0  0  0
  151.0699  139.3054  157.0443 C   0  0  2  0  0  0  0  0  0  0  0  0
  151.5479  137.8904  157.4356 C   0  0  0  0  0  0  0  0  0  0  0  0
  151.0389  136.7924  156.5323 C   0  0  0  0  0  0  0  0  0  0  0  0
  151.3532  135.4533  156.4519 C   0  0  0  0  0  0  0  0  0  0  0  0
  150.5876  134.8449  155.4538 N   0  0  0  0  0  0  0  0  0  0  0  0
  149.8424  135.8327  154.9711 C   0  0  0  0  0  0  0  0  0  0  0  0
  150.0688  137.0057  155.5680 N   0  0  0  0  0  0  0  0  0  0  0  0
  151.5534  139.6277  155.6224 C   0  0  0  0  0  0  0  0  0  0  0  0
  152.7859  139.5766  155.4177 O   0  0  0  0  0  0  0  0  0  0  0  0
  150.6900  139.9228  154.7649 O   0  5  0  0  0  0  0  0  0  0  0  0
  152.3047  142.4107  158.9587 C   0  0  0  0  0  0  0  0  0  0  0  0
  152.7756  141.4818  160.0979 C   0  0  0  0  0  0  0  0  0  0  0  0
  153.4500  142.2789  161.2267 C   0  0  0  0  0  0  0  0  0  0  0  0
  152.5190  143.3761  161.7670 C   0  0  0  0  0  0  0  0  0  0  0  0
  152.0376  144.3022  160.6389 C   0  0  0  0  0  0  0  0  0  0  0  0
  151.3641  143.5029  159.5113 C   0  0  0  0  0  0  0  0  0  0  0  0
  149.6095  137.8823  155.3652 H   0  0  0  0  0  0  0  0  0  0  0  0
  152.1139  139.8853  158.7859 H   0  0  0  0  0  0  0  0  0  0  0  0
  149.9787  139.3358  157.0691 H   0  0  0  0  0  0  0  0  0  0  0  0
  152.6382  137.8531  157.4249 H   0  0  0  0  0  0  0  0  0  0  0  0
  151.2430  137.6516  158.4559 H   0  0  0  0  0  0  0  0  0  0  0  0
  152.0616  134.8839  157.0354 H   0  0  0  0  0  0  0  0  0  0  0  0
  149.1236  135.7004  154.1760 H   0  0  0  0  0  0  0  0  0  0  0  0
  153.1830  142.9033  158.5371 H   0  0  0  0  0  0  0  0  0  0  0  0
  151.9288  140.9280  160.5065 H   0  0  0  0  0  0  0  0  0  0  0  0
  153.4728  140.7370  159.7108 H   0  0  0  0  0  0  0  0  0  0  0  0
  153.7400  141.6066  162.0347 H   0  0  0  0  0  0  0  0  0  0  0  0
  154.3706  142.7304  160.8547 H   0  0  0  0  0  0  0  0  0  0  0  0
  151.6579  142.9170  162.2545 H   0  0  0  0  0  0  0  0  0  0  0  0
  153.0338  143.9582  162.5317 H   0  0  0  0  0  0  0  0  0  0  0  0
  151.3420  145.0416  161.0364 H   0  0  0  0  0  0  0  0  0  0  0  0
  152.8844  144.8591  160.2361 H   0  0  0  0  0  0  0  0  0  0  0  0
  151.0662  144.1819  158.7109 H   0  0  0  0  0  0  0  0  0  0  0  0
  150.4455  143.0531  159.8913 H   0  0  0  0  0  0  0  0  0  0  0  0
  1  2  2  0  0  0  0
  2  3  1  0  0  0  0
  2 14  1  0  0  0  0
  3  4  1  0  0  0  0
  3 21  1  0  0  0  0
  4  5  1  0  0  0  0
  4 11  1  0  0  0  0
  4 22  1  0  0  0  0
  5 23  1  0  0  0  0
  5 24  1  0  0  0  0
  5  6  1  0  0  0  0
  6  7  2  0  0  0  0
  6 10  1  0  0  0  0
  7 25  1  0  0  0  0
  7  8  1  0  0  0  0
  8  9  2  0  0  0  0
  9 10  1  0  0  0  0
  9 26  1  0  0  0  0
 10 20  1  0  0  0  0
 11 12  2  0  0  0  0
 11 13  1  0  0  0  0
 14 19  1  0  0  0  0
 14 15  1  0  0  0  0
 14 27  1  0  0  0  0
 15 16  1  0  0  0  0
 15 28  1  0  0  0  0
 15 29  1  0  0  0  0
 16 17  1  0  0  0  0
 16 30  1  0  0  0  0
 16 31  1  0  0  0  0
 17 18  1  0  0  0  0
 17 32  1  0  0  0  0
 17 33  1  0  0  0  0
 18 19  1  0  0  0  0
 18 34  1  0  0  0  0
 18 35  1  0  0  0  0
 19 36  1  0  0  0  0
 19 37  1  0  0  0  0
M  CHG  1  13  -1
M  END
> <s_m_source_file>
AV-unprocessed.smi

> <i_m_source_file_index>
994

> <i_lp_mmshare_version>
43012

> <i_f3d_flags>
0

> <s_epik_input>
W0NIMl0xW0NIMl1bQ0gyXVtDSDJdW0NIMl1bQ0hdMUMoPU8pW05IXVtDQEBIXShDKD1PKVtPSF0pW0NIMl1jMltjSF1bbkhdW2NIXW4y

> <s_epik_cmdline>
J2VwaWtfcHl0aG9uJywgJy1waCcsICc3LjAnLCAnLXRuJywgJzgnLCAnLW1hJywgJzIwMCcsICctbWV0YWxfYmluZGluZycsICctaW1hZScsICc8aW5maWxlLm1hZT4nLCAnLW9tYWUnLCAnPG91dGZpbGUubWFlPic=

> <r_lp_tautomer_probability>
0.5

> <r_epik_Ionization_Penalty>
0.540742

> <r_epik_Ionization_Penalty_Charging>
0.540742

> <r_epik_Ionization_Penalty_Neutral>
4.77468e-08

> <r_epik_State_Penalty>
0.78427

> <r_epik_Charging_Adjusted_Penalty>
1.32501

> <i_epik_Tot_Q>
-1

> <i_epik_Tot_abs_Q>
1

> <r_epik_Metal_State_Penalty>
0.663709

> <b_epik_Metal_Only>
0

> <s_lp_Force_Field>
OPLS_2005

> <r_lp_Energy>
10.7007

> <b_lp_Chiralities_Consistent>
1

> <s_lp_Variant>
AV-unprocessed.smi:994-3

> <Gold.Version>
5.8.1

> <Gold.Id.Protein>
6NUR|6NUR_protein|mol2

> <Gold.PLP.Fitness>
43.2815

> <Gold.PLP.PLP>
-34.0053

> <Gold.PLP.part.hbond>
-2.0000

> <Gold.PLP.part.metal>
0.0000

> <Gold.PLP.part.buried>
-5.9569

> <Gold.PLP.part.nonpolar>
-26.1583

> <Gold.PLP.part.repulsive>
0.3386

> <Gold.PLP.ligand.clash>
2.2041

> <Gold.PLP.ligand.torsion>
0.2880

> <Gold.PLP.Chemscore.Hbond>
3.0000

> <Gold.PLP.Chemscore.CHOScore>
1.0000

> <Gold.PLP.Chemscore.Metal>
0.0000

> <Gold.Chemscore.Hbonds>
donor molecule, donor type, donor heavy atom, donor atom, acceptor molecule, acceptor atom, score
      P1  H  7989  7998       L1    13  1.00
      P1  H  7997  8009       L1    12  2.00
      L1  C     9    26       P1  7948  1.00

> <Gold.PLP.Chemscore.Internal.Correction>
0.0563

> <Gold.Rescore>
     Score         DG    S(hbond)    S(metal)    S(lipo)     H(rot)  DE(clash)    DE(int)     intcor
     14.61     -14.75       2.00        0.00      80.39       2.66       0.01       0.13       ----

> <Gold.Chemscore.Fitness>
14.6101

> <Gold.Chemscore.DG>
-14.7485

> <Gold.Chemscore.ZeroCoef>
-5.4800

> <Gold.Chemscore.Hbond>
1.9962

> <Gold.Chemscore.Metal>
0.0000

> <Gold.Chemscore.Lipo>
80.3937

> <Gold.Chemscore.Internal_Hbond>
0.0000

> <Gold.Chemscore.DEClash>
0.0086

> <Gold.Chemscore.DEInternal>
0.1298

> <Gold.Chemscore.Rot>
2.6581

> <Gold.Chemscore.Internal.Correction>
   9.000000E+99

> <Gold.Chemscore.Hbonds>
donor molecule, donor type, donor heavy atom, donor atom, acceptor molecule, acceptor atom, score
      P1  H  7989  7998       L1    13  0.45
      P1  H  7997  8009       L1    12  1.00

> <Gold.Chemscore.Hbond.Weighted>
-6.6673

> <Gold.Chemscore.Metal.Weighted>
-0.0000

> <Gold.Chemscore.Lipo.Weighted>
-9.4061

> <Gold.Chemscore.Internal_Hbond.Weighted>
0.0000

> <Gold.Chemscore.DEClash.Weighted>
0.0086

> <Gold.Chemscore.DEInternal.Weighted>
0.1298

> <Gold.Chemscore.Rot.Weighted>
6.8048

> <Gold.Chemscore.Internal.Correction.Weighted>
   9.000000E+99

> <Gold.Protein.RotatedTorsions>
[ 6907 6896 6895 6894 ] final  142.40 input  -60.11 | X-H torsion
[ 7974 7965 7964 7962 ] final   37.77 input  175.53 | X-H torsion
[ 8008 7997 7996 7995 ] final -144.45 input   59.86 | X-H torsion
[ 10167 10162 10161 10158 ] final  107.44 input  -65.29 | X-H torsion
[ 10718 10713 10712 10709 ] final -148.28 input   66.30 | X-H torsion
[ 10763 10752 10751 10750 ] final   99.19 input  -60.55 | X-H torsion
[ 11005 11000 10999 10996 ] final    0.86 input  -57.11 | X-H torsion

> <Gold.Protein.ActiveResidues>
 VAL166  LYS551  ARG553  GLY616  TRP617  ASP618  TYR619  PRO620  LYS621  CYS622 
 ASP623  PHE694  ASN695  SER759  ASP760  ASP761  ALA762  ILE779  LEU786  VAL792 
 PHE793  MET794  SER795  GLU796  ALA797  LYS798  CYS799  TRP800  GLU811  SER814 

> <Gold.Protein.RotatedAtoms>
  152.2191  133.4970  159.5152 H   0  0  0  0  0  0  0  0  0  0  0  0  # atno 6907 bound_to 6896
  150.7008  134.1366  159.4098 H   0  0  0  0  0  0  0  0  0  0  0  0  # atno 6908 bound_to 6896
  151.9286  135.0266  160.0578 H   0  0  0  0  0  0  0  0  0  0  0  0  # atno 6909 bound_to 6896
  146.1113  139.5854  142.9350 H   0  0  0  0  0  0  0  0  0  0  0  0  # atno 7974 bound_to 7965
  155.5271  140.0596  157.2896 H   0  0  0  0  0  0  0  0  0  0  0  0  # atno 8008 bound_to 7997
  154.4497  140.1942  156.0502 H   0  0  0  0  0  0  0  0  0  0  0  0  # atno 8009 bound_to 7997
  156.0678  140.3264  155.7543 H   0  0  0  0  0  0  0  0  0  0  0  0  # atno 8010 bound_to 7997
  139.6927  144.7105  151.1321 H   0  0  0  0  0  0  0  0  0  0  0  0  # atno 10167 bound_to 10162
  156.4183  130.8016  151.2237 H   0  0  0  0  0  0  0  0  0  0  0  0  # atno 10718 bound_to 10713
  153.2984  135.4122  155.1230 H   0  0  0  0  0  0  0  0  0  0  0  0  # atno 10763 bound_to 10752
  154.8542  135.3535  154.5885 H   0  0  0  0  0  0  0  0  0  0  0  0  # atno 10764 bound_to 10752
  153.6310  135.7061  153.5334 H   0  0  0  0  0  0  0  0  0  0  0  0  # atno 10765 bound_to 10752
  140.6218  133.9654  155.8229 H   0  0  0  0  0  0  0  0  0  0  0  0  # atno 11005 bound_to 11000
  145.5658  141.0399  143.2201 LP  0  0  0  0  0  0  0  0  0  0  0  0  # atno 17320 bound_to 7965
  144.7514  139.7185  143.7271 LP  0  0  0  0  0  0  0  0  0  0  0  0  # atno 17321 bound_to 7965
  140.7687  143.5536  150.9177 LP  0  0  0  0  0  0  0  0  0  0  0  0  # atno 17342 bound_to 10162
  139.9214  143.6601  152.3096 LP  0  0  0  0  0  0  0  0  0  0  0  0  # atno 17343 bound_to 10162
  157.7508  131.0236  150.3841 LP  0  0  0  0  0  0  0  0  0  0  0  0  # atno 17370 bound_to 10713
  156.4153  130.3942  149.6863 LP  0  0  0  0  0  0  0  0  0  0  0  0  # atno 17371 bound_to 10713
  141.0737  134.0167  157.3489 LP  0  0  0  0  0  0  0  0  0  0  0  0  # atno 17394 bound_to 11000
  139.9150  135.0195  156.7846 LP  0  0  0  0  0  0  0  0  0  0  0  0  # atno 17395 bound_to 11000

$$$$
