AV-unprocessed.smi:2931|AV-procd|sdf|11249|dock9
  -GOLD-   2272016143D 1   1.00000     0.00000
 Structure written by MMmdl.
 43 44  0  0  0  0  0  0  0  0  3 V2000
  145.6531  130.1926  151.8039 C   0  0  0  0  0  0  0  0  0  0  0  0
  145.2441  131.6129  151.8470 N   0  3  2  0  0  0  0  0  0  0  0  0
  144.6536  132.0709  150.5644 C   0  0  0  0  0  0  0  0  0  0  0  0
  144.1254  133.5104  150.6835 C   0  0  0  0  0  0  0  0  0  0  0  0
  145.2270  134.4662  151.1619 C   0  0  0  0  0  0  0  0  0  0  0  0
  145.8426  133.9507  152.4752 C   0  0  2  0  0  0  0  0  0  0  0  0
  146.9443  134.8103  152.8982 N   0  0  0  0  0  0  0  0  0  0  0  0
  147.0020  135.4655  154.0662 C   0  0  0  0  0  0  0  0  0  0  0  0
  146.1291  135.4057  154.9322 O   0  0  0  0  0  0  0  0  0  0  0  0
  148.1268  136.1868  154.1800 N   0  0  0  0  0  0  0  0  0  0  0  0
  148.4849  137.0191  155.3269 C   0  0  0  0  0  0  0  0  0  0  0  0
  149.7849  137.8151  155.0996 C   0  0  0  0  0  0  0  0  0  0  0  0
  149.5728  139.3134  154.9628 C   0  0  0  0  0  0  0  0  0  0  0  0
  148.5746  139.8169  154.0995 C   0  0  0  0  0  0  0  0  0  0  0  0
  148.3843  141.2105  154.0062 C   0  0  0  0  0  0  0  0  0  0  0  0
  149.1568  142.0454  154.7350 N   0  3  0  0  0  0  0  0  0  0  0  0
  150.1253  141.6060  155.5683 C   0  0  0  0  0  0  0  0  0  0  0  0
  150.3598  140.2225  155.7048 C   0  0  0  0  0  0  0  0  0  0  0  0
  146.3405  132.5031  152.3045 C   0  0  0  0  0  0  0  0  0  0  0  0
  146.4493  130.0367  151.0750 H   0  0  0  0  0  0  0  0  0  0  0  0
  144.8098  129.5566  151.5322 H   0  0  0  0  0  0  0  0  0  0  0  0
  146.0137  129.8663  152.7799 H   0  0  0  0  0  0  0  0  0  0  0  0
  145.4031  132.0090  149.7737 H   0  0  0  0  0  0  0  0  0  0  0  0
  143.8367  131.4067  150.2802 H   0  0  0  0  0  0  0  0  0  0  0  0
  143.7341  133.8452  149.7224 H   0  0  0  0  0  0  0  0  0  0  0  0
  143.2895  133.5368  151.3838 H   0  0  0  0  0  0  0  0  0  0  0  0
  145.9985  134.5481  150.3948 H   0  0  0  0  0  0  0  0  0  0  0  0
  144.8160  135.4673  151.2991 H   0  0  0  0  0  0  0  0  0  0  0  0
  145.0716  133.9502  153.2487 H   0  0  0  0  0  0  0  0  0  0  0  0
  147.7095  134.9264  152.2495 H   0  0  0  0  0  0  0  0  0  0  0  0
  148.7803  136.1732  153.4103 H   0  0  0  0  0  0  0  0  0  0  0  0
  147.6635  137.7135  155.5056 H   0  0  0  0  0  0  0  0  0  0  0  0
  148.5670  136.4129  156.2308 H   0  0  0  0  0  0  0  0  0  0  0  0
  150.4796  137.6231  155.9184 H   0  0  0  0  0  0  0  0  0  0  0  0
  150.2784  137.4539  154.1964 H   0  0  0  0  0  0  0  0  0  0  0  0
  147.9550  139.1442  153.5243 H   0  0  0  0  0  0  0  0  0  0  0  0
  147.6414  141.6783  153.3767 H   0  0  0  0  0  0  0  0  0  0  0  0
  150.6783  142.3685  156.0971 H   0  0  0  0  0  0  0  0  0  0  0  0
  151.1300  139.8667  156.3735 H   0  0  0  0  0  0  0  0  0  0  0  0
  146.7297  132.1361  153.2553 H   0  0  0  0  0  0  0  0  0  0  0  0
  147.1629  132.4641  151.5878 H   0  0  0  0  0  0  0  0  0  0  0  0
  144.5112  131.6785  152.5393 H   0  0  0  0  0  0  0  0  0  0  0  0
  149.0027  143.0508  154.6514 H   0  0  0  0  0  0  0  0  0  0  0  0
  1  2  1  0  0  0  0
  1 20  1  0  0  0  0
  1 21  1  0  0  0  0
  1 22  1  0  0  0  0
  2 19  1  0  0  0  0
  2  3  1  0  0  0  0
  2 42  1  0  0  0  0
  3  4  1  0  0  0  0
  3 23  1  0  0  0  0
  3 24  1  0  0  0  0
  4  5  1  0  0  0  0
  4 25  1  0  0  0  0
  4 26  1  0  0  0  0
  5  6  1  0  0  0  0
  5 27  1  0  0  0  0
  5 28  1  0  0  0  0
  6  7  1  0  0  0  0
  6 19  1  0  0  0  0
  6 29  1  0  0  0  0
  7  8  1  0  0  0  0
  7 30  1  0  0  0  0
  8  9  2  0  0  0  0
  8 10  1  0  0  0  0
 10 11  1  0  0  0  0
 10 31  1  0  0  0  0
 11 12  1  0  0  0  0
 11 32  1  0  0  0  0
 11 33  1  0  0  0  0
 12 13  1  0  0  0  0
 12 34  1  0  0  0  0
 12 35  1  0  0  0  0
 13 18  1  0  0  0  0
 13 14  2  0  0  0  0
 14 15  1  0  0  0  0
 14 36  1  0  0  0  0
 15 16  2  0  0  0  0
 15 37  1  0  0  0  0
 16 17  1  0  0  0  0
 16 43  1  0  0  0  0
 17 18  2  0  0  0  0
 17 38  1  0  0  0  0
 18 39  1  0  0  0  0
 19 40  1  0  0  0  0
 19 41  1  0  0  0  0
M  CHG  1   2   1
M  CHG  1  16   1
M  END
> <s_m_source_file>
AV-unprocessed.smi

> <i_m_source_file_index>
2931

> <i_lp_mmshare_version>
43012

> <i_f3d_flags>
0

> <s_epik_input>
W0NIM11OMVtDSDJdW0NIMl1bQ0gyXVtDQEhdKFtDSDJdMSlbTkhdQyg9TylbTkhdW0NIMl1bQ0gyXWMyW2NIXVtjSF1uW2NIXVtjSF0y

> <s_epik_cmdline>
J2VwaWtfcHl0aG9uJywgJy1waCcsICc3LjAnLCAnLXRuJywgJzgnLCAnLW1hJywgJzIwMCcsICctbWV0YWxfYmluZGluZycsICctaW1hZScsICc8aW5maWxlLm1hZT4nLCAnLW9tYWUnLCAnPG91dGZpbGUubWFlPic=

> <r_epik_Ionization_Penalty>
1.43754

> <r_epik_Ionization_Penalty_Charging>
1.4375

> <r_epik_Ionization_Penalty_Neutral>
3.7629e-05

> <r_epik_State_Penalty>
1.52008

> <r_epik_Charging_Adjusted_Penalty>
2.95758

> <i_epik_Tot_Q>
2

> <i_epik_Tot_abs_Q>
2

> <r_epik_Metal_State_Penalty>
1.57105

> <b_epik_Metal_Only>
0

> <s_lp_Force_Field>
OPLS_2005

> <r_lp_Energy>
22.8727

> <b_lp_Chiralities_Consistent>
1

> <s_lp_Variant>
AV-unprocessed.smi:2931-8

> <Gold.Version>
5.8.1

> <Gold.Id.Protein>
6NUR|6NUR_protein|mol2

> <Gold.PLP.Fitness>
40.9162

> <Gold.PLP.PLP>
-30.8172

> <Gold.PLP.part.hbond>
-2.6532

> <Gold.PLP.part.metal>
0.0000

> <Gold.PLP.part.buried>
-3.9850

> <Gold.PLP.part.nonpolar>
-24.6858

> <Gold.PLP.part.repulsive>
0.2909

> <Gold.PLP.ligand.clash>
0.0000

> <Gold.PLP.ligand.torsion>
0.4911

> <Gold.PLP.Chemscore.Hbond>
3.6884

> <Gold.PLP.Chemscore.CHOScore>
0.0000

> <Gold.PLP.Chemscore.Metal>
0.0000

> <Gold.Chemscore.Hbonds>
donor molecule, donor type, donor heavy atom, donor atom, acceptor molecule, acceptor atom, score
      L1  H     7    30       P1  7948  0.77
      L1  H    10    31       P1  7948  0.94
      L1  H    16    43       P1  8028  1.82

> <Gold.PLP.Chemscore.Internal.Correction>
0.0161

> <Gold.Rescore>
     Score         DG    S(hbond)    S(metal)    S(lipo)     H(rot)  DE(clash)    DE(int)     intcor
     18.84     -19.33       2.82        0.00      73.78       1.65       0.00       0.49       ----

> <Gold.Chemscore.Fitness>
18.8354

> <Gold.Chemscore.DG>
-19.3297

> <Gold.Chemscore.ZeroCoef>
-5.4800

> <Gold.Chemscore.Hbond>
2.8240

> <Gold.Chemscore.Metal>
0.0000

> <Gold.Chemscore.Lipo>
73.7811

> <Gold.Chemscore.Internal_Hbond>
0.0000

> <Gold.Chemscore.DEClash>
0.0000

> <Gold.Chemscore.DEInternal>
0.4943

> <Gold.Chemscore.Rot>
1.6464

> <Gold.Chemscore.Internal.Correction>
   9.000000E+99

> <Gold.Chemscore.Hbonds>
donor molecule, donor type, donor heavy atom, donor atom, acceptor molecule, acceptor atom, score
      L1  H     7    30       P1  7948  0.69
      L1  H    10    31       P1  7948  0.87
      L1  H    16    43       P1  8028  0.88

> <Gold.Chemscore.Hbond.Weighted>
-9.4321

> <Gold.Chemscore.Metal.Weighted>
-0.0000

> <Gold.Chemscore.Lipo.Weighted>
-8.6324

> <Gold.Chemscore.Internal_Hbond.Weighted>
0.0000

> <Gold.Chemscore.DEClash.Weighted>
0.0000

> <Gold.Chemscore.DEInternal.Weighted>
0.4943

> <Gold.Chemscore.Rot.Weighted>
4.2148

> <Gold.Chemscore.Internal.Correction.Weighted>
   9.000000E+99

> <Gold.Protein.RotatedTorsions>
[ 6907 6896 6895 6894 ] final   96.59 input  -60.11 | X-H torsion
[ 7974 7965 7964 7962 ] final   10.19 input  175.53 | X-H torsion
[ 8008 7997 7996 7995 ] final  -10.50 input   59.86 | X-H torsion
[ 10167 10162 10161 10158 ] final  177.25 input  -65.29 | X-H torsion
[ 10718 10713 10712 10709 ] final    4.17 input   66.30 | X-H torsion
[ 10763 10752 10751 10750 ] final    4.76 input  -60.55 | X-H torsion
[ 11005 11000 10999 10996 ] final  -48.53 input  -57.11 | X-H torsion

> <Gold.Protein.ActiveResidues>
 VAL166  LYS551  ARG553  GLY616  TRP617  ASP618  TYR619  PRO620  LYS621  CYS622 
 ASP623  PHE694  ASN695  SER759  ASP760  ASP761  ALA762  ILE779  LEU786  VAL792 
 PHE793  MET794  SER795  GLU796  ALA797  LYS798  CYS799  TRP800  GLU811  SER814 

> <Gold.Protein.RotatedAtoms>
  152.5433  134.0863  159.8256 H   0  0  0  0  0  0  0  0  0  0  0  0  # atno 6907 bound_to 6896
  151.0958  133.5274  159.2620 H   0  0  0  0  0  0  0  0  0  0  0  0  # atno 6908 bound_to 6896
  151.2048  135.0466  159.8941 H   0  0  0  0  0  0  0  0  0  0  0  0  # atno 6909 bound_to 6896
  146.2392  139.9671  142.8451 H   0  0  0  0  0  0  0  0  0  0  0  0  # atno 7974 bound_to 7965
  154.5549  140.2327  155.8426 H   0  0  0  0  0  0  0  0  0  0  0  0  # atno 8008 bound_to 7997
  156.1979  140.3060  155.9426 H   0  0  0  0  0  0  0  0  0  0  0  0  # atno 8009 bound_to 7997
  155.2999  140.0430  157.3019 H   0  0  0  0  0  0  0  0  0  0  0  0  # atno 8010 bound_to 7997
  139.5246  144.2821  152.0538 H   0  0  0  0  0  0  0  0  0  0  0  0  # atno 10167 bound_to 10162
  156.8887  130.5679  149.5650 H   0  0  0  0  0  0  0  0  0  0  0  0  # atno 10718 bound_to 10713
  153.2674  135.6929  153.7515 H   0  0  0  0  0  0  0  0  0  0  0  0  # atno 10763 bound_to 10752
  153.6551  135.3370  155.3112 H   0  0  0  0  0  0  0  0  0  0  0  0  # atno 10764 bound_to 10752
  154.8452  135.4464  154.1686 H   0  0  0  0  0  0  0  0  0  0  0  0  # atno 10765 bound_to 10752
  141.0706  133.6680  156.3455 H   0  0  0  0  0  0  0  0  0  0  0  0  # atno 11005 bound_to 11000
  145.1716  140.9723  143.4318 LP  0  0  0  0  0  0  0  0  0  0  0  0  # atno 17320 bound_to 7965
  145.0023  139.3586  143.6161 LP  0  0  0  0  0  0  0  0  0  0  0  0  # atno 17321 bound_to 7965
  140.2275  144.4402  150.6314 LP  0  0  0  0  0  0  0  0  0  0  0  0  # atno 17342 bound_to 10162
  140.6377  143.2198  151.6358 LP  0  0  0  0  0  0  0  0  0  0  0  0  # atno 17343 bound_to 10162
  156.0640  130.5687  150.9251 LP  0  0  0  0  0  0  0  0  0  0  0  0  # atno 17370 bound_to 10713
  157.6097  131.0937  150.8817 LP  0  0  0  0  0  0  0  0  0  0  0  0  # atno 17371 bound_to 10713
  140.5681  134.5868  157.5451 LP  0  0  0  0  0  0  0  0  0  0  0  0  # atno 17394 bound_to 11000
  139.9520  134.7601  156.0427 LP  0  0  0  0  0  0  0  0  0  0  0  0  # atno 17395 bound_to 11000

$$$$
