#       Name:                AV-unprocessed.smi:2729
#       Creating user name   scv26
#       Creation time:       Fri Mar 27 14:57:03 2020


#       File generated by GOLD software.
#

@<TRIPOS>MOLECULE
AV-unprocessed.smi:2729
    36    37     1
SMALL
NO_CHARGES


@<TRIPOS>ATOM
      1 ****        -2.5751   1.3265  -0.9068 C.3            1 S1                 0.0000
      2 ****        -1.9594  -0.0863  -0.8293 C.3            1 S1                 0.0000
      3 ****        -0.4952  -0.0074  -0.7326 N.am           1 S1                 0.0000
      4 ****         0.2483   0.5510   0.2362 C.2            1 S1                 0.0000
      5 ****        -0.2199   1.1163   1.2236 O.2            1 S1                 0.0000
      6 ****         1.5583   0.3841  -0.0121 N.am           1 S1                 0.0000
      7 ****         2.6683   0.8326   0.7528 C.ar           1 S1                 0.0000
      8 ****         2.6205   1.9094   1.6711 C.ar           1 S1                 0.0000
      9 ****         3.7967   2.2713   2.3553 C.ar           1 S1                 0.0000
     10 ****         4.9775   1.5504   2.0917 C.ar           1 S1                 0.0000
     11 ****         5.0408   0.5311   1.2093 N.ar           1 S1                 0.0000
     12 ****         3.9092   0.1901   0.5567 C.ar           1 S1                 0.0000
     13 ****        -2.5509  -0.9053   0.3489 C.3            1 S1                 0.0000
     14 ****        -2.2155  -2.3892   0.1583 C.3            1 S1                 0.0000
     15 ****        -2.2044  -2.6608  -1.6513 S.o2           1 S1                 0.0000
     16 ****        -0.8949  -3.2039  -2.0435 O.2            1 S1                 0.0000
     17 ****        -3.4528  -3.3218  -2.0608 O.2            1 S1                 0.0000
     18 ****        -2.2896  -0.8853  -2.1063 C.3            1 S1                 0.0000
     19 ****        -3.6533   1.2798  -1.0629 H              1 S1                 0.0000
     20 ****        -2.1494   1.8983  -1.7319 H              1 S1                 0.0000
     21 ****        -2.4116   1.8943   0.0090 H              1 S1                 0.0000
     22 ****         0.0099  -0.4494  -1.4869 H              1 S1                 0.0000
     23 ****         1.7886  -0.1794  -0.8176 H              1 S1                 0.0000
     24 ****         1.7176   2.4709   1.8528 H              1 S1                 0.0000
     25 ****         3.7946   3.0874   3.0627 H              1 S1                 0.0000
     26 ****         5.8970   1.8036   2.5985 H              1 S1                 0.0000
     27 ****         3.9979  -0.6277  -0.1436 H              1 S1                 0.0000
     28 ****        -2.2296  -0.5473   1.3267 H              1 S1                 0.0000
     29 ****        -3.6368  -0.8018   0.3338 H              1 S1                 0.0000
     30 ****        -1.2201  -2.6140   0.5419 H              1 S1                 0.0000
     31 ****        -2.9338  -3.0543   0.6373 H              1 S1                 0.0000
     32 ****        -3.3100  -0.6874  -2.4366 H              1 S1                 0.0000
     33 ****        -1.6216  -0.6769  -2.9428 H              1 S1                 0.0000
     34 ****        -1.2111   1.1801   1.3401 LP             1 S1                 0.0000
     35 ****         0.3907   1.5120   1.9096 LP             1 S1                 0.0000
     36 ****         5.8984   0.0441   1.0441 LP             1 S1                 0.0000
@<TRIPOS>BOND
    1    1    2 1     
    2    1   19 1     
    3    1   20 1     
    4    1   21 1     
    5    2   18 1     
    6    2    3 1     
    7    2   13 1     
    8    3    4 am    
    9    3   22 1     
   10    4    5 2     
   11    4    6 am    
   12    6    7 1     
   13    6   23 1     
   14    7   12 ar    
   15    7    8 ar    
   16    8    9 ar    
   17    8   24 1     
   18    9   10 ar    
   19    9   25 1     
   20   10   11 ar    
   21   10   26 1     
   22   11   12 ar    
   23   12   27 1     
   24   13   14 1     
   25   13   28 1     
   26   13   29 1     
   27   14   15 1     
   28   14   30 1     
   29   14   31 1     
   30   15   16 2     
   31   15   17 2     
   32   15   18 1     
   33   18   32 1     
   34   18   33 1     
   35    5   34 1     
   36    5   35 1     
   37   11   36 1     
@<TRIPOS>SUBSTRUCTURE
      1 S1             1
@<TRIPOS>SET
LONE_PAIRS      STATIC     ATOMS    <user>   **** ""
5 34 35 36 16 17
DONOR_HYDROGENS      STATIC     ATOMS    <user>   **** ""
2 22 23
ATOM$BLUE        STATIC     ATOMS    COLORGROUP SYSTEM
5 34 35 36 16 17
ATOM$RED        STATIC     ATOMS    COLORGROUP SYSTEM
2 22 23
