#       Name:                AV-unprocessed.smi:3292
#       Creating user name   scv26
#       Creation time:       Fri Mar 27 18:55:39 2020


#       File generated by GOLD software.
#

@<TRIPOS>MOLECULE
AV-unprocessed.smi:3292
    43    44     1
SMALL
NO_CHARGES


@<TRIPOS>ATOM
      1 ****        -2.4226  -2.6299   2.6521 C.3            1 S1                 0.0000
      2 ****        -2.0943  -1.5254   1.6384 C.3            1 S1                 0.0000
      3 ****        -2.6325  -1.8790   0.2345 C.3            1 S1                 0.0000
      4 ****        -2.5268  -0.7683  -0.7185 N.pl3          1 S1                 0.0000
      5 ****        -3.2507   0.3964  -0.7194 C.2            1 S1                 0.0000
      6 ****        -2.8013   1.1354  -1.7833 C.2            1 S1                 0.0000
      7 ****        -1.8303   0.3872  -2.3925 N.pl3          1 S1                 1.0000
      8 ****        -1.6691  -0.7727  -1.7473 C.2            1 S1                 0.0000
      9 ****        -0.6459  -1.3216   1.6151 N.am           1 S1                 0.0000
     10 ****        -0.0266  -0.1439   1.4484 C.2            1 S1                 0.0000
     11 ****        -0.6133   0.9260   1.2842 O.2            1 S1                 0.0000
     12 ****         1.3071  -0.2762   1.4543 N.am           1 S1                 0.0000
     13 ****         2.2606   0.8066   1.2322 C.3            1 S1                 0.0000
     14 ****         2.7285   0.8613  -0.2347 C.3            1 S1                 0.0000
     15 ****         3.7315   1.9598  -0.5198 C.3            1 S1                 0.0000
     16 ****         3.6555   2.0670  -2.0400 C.3            1 S1                 0.0000
     17 ****         2.3121   1.7420  -2.3850 O.3            1 S1                 0.0000
     18 ****         1.6389   1.1917  -1.2572 C.3            1 S1                 0.0000
     19 ****        -3.4990  -2.7860   2.7271 H              1 S1                 0.0000
     20 ****        -2.0596  -2.3713   3.6475 H              1 S1                 0.0000
     21 ****        -1.9682  -3.5797   2.3676 H              1 S1                 0.0000
     22 ****        -2.5856  -0.6147   1.9865 H              1 S1                 0.0000
     23 ****        -2.1111  -2.7457  -0.1753 H              1 S1                 0.0000
     24 ****        -3.6887  -2.1457   0.2920 H              1 S1                 0.0000
     25 ****        -4.0045   0.6115   0.0239 H              1 S1                 0.0000
     26 ****        -3.0921   2.1117  -2.1425 H              1 S1                 0.0000
     27 ****        -0.9728  -1.5520  -2.0012 H              1 S1                 0.0000
     28 ****        -0.0720  -2.1428   1.7419 H              1 S1                 0.0000
     29 ****         1.6936  -1.1971   1.6028 H              1 S1                 0.0000
     30 ****         1.8395   1.7659   1.5386 H              1 S1                 0.0000
     31 ****         3.1191   0.6315   1.8811 H              1 S1                 0.0000
     32 ****         3.1811  -0.0947  -0.5045 H              1 S1                 0.0000
     33 ****         3.4113   2.8976  -0.0630 H              1 S1                 0.0000
     34 ****         4.7349   1.7299  -0.1606 H              1 S1                 0.0000
     35 ****         3.9335   3.0567  -2.4029 H              1 S1                 0.0000
     36 ****         4.3188   1.3370  -2.5061 H              1 S1                 0.0000
     37 ****         1.0542   0.3159  -1.5369 H              1 S1                 0.0000
     38 ****         0.9543   1.9457  -0.8665 H              1 S1                 0.0000
     39 ****        -1.3065   0.6699  -3.2115 H              1 S1                 0.0000
     40 ****        -1.6129   0.9510   1.2694 LP             1 S1                 0.0000
     41 ****        -0.0903   1.7700   1.1656 LP             1 S1                 0.0000
     42 ****         2.3137   1.0732  -3.1285 LP             1 S1                 0.0000
     43 ****         1.8370   2.5701  -2.6826 LP             1 S1                 0.0000
@<TRIPOS>BOND
    1    1    2 1     
    2    1   19 1     
    3    1   20 1     
    4    1   21 1     
    5    2    3 1     
    6    2    9 1     
    7    2   22 1     
    8    3    4 1     
    9    3   23 1     
   10    3   24 1     
   11    4    8 1     
   12    4    5 1     
   13    5    6 2     
   14    5   25 1     
   15    6    7 1     
   16    6   26 1     
   17    7    8 2     
   18    7   39 1     
   19    8   27 1     
   20    9   10 am    
   21    9   28 1     
   22   10   11 2     
   23   10   12 am    
   24   12   13 1     
   25   12   29 1     
   26   13   14 1     
   27   13   30 1     
   28   13   31 1     
   29   14   18 1     
   30   14   15 1     
   31   14   32 1     
   32   15   16 1     
   33   15   33 1     
   34   15   34 1     
   35   16   17 1     
   36   16   35 1     
   37   16   36 1     
   38   17   18 1     
   39   18   37 1     
   40   18   38 1     
   41   11   40 1     
   42   11   41 1     
   43   17   42 1     
   44   17   43 1     
@<TRIPOS>SUBSTRUCTURE
      1 S1             1
@<TRIPOS>SET
LONE_PAIRS      STATIC     ATOMS    <user>   **** ""
4 40 41 42 43
DONOR_HYDROGENS      STATIC     ATOMS    <user>   **** ""
3 39 28 29
ATOM$BLUE        STATIC     ATOMS    COLORGROUP SYSTEM
4 40 41 42 43
ATOM$RED        STATIC     ATOMS    COLORGROUP SYSTEM
3 39 28 29
