AV-unprocessed.smi:3159|AV-procd|sdf|12049|dock3
  -GOLD-   2272017473D 1   1.00000     0.00000
 Structure written by MMmdl.
 35 36  0  0  0  0  0  0  0  0  1 V2000
  153.9312  141.7115  160.5403 C   0  0  0  0  0  0  0  0  0  0  0  0
  152.9924  142.3585  159.5653 C   0  0  0  0  0  0  0  0  0  0  0  0
  152.2915  141.7482  158.4846 C   0  0  0  0  0  0  0  0  0  0  0  0
  151.5951  142.7963  157.9472 C   0  0  0  0  0  0  0  0  0  0  0  0
  150.7497  142.8056  156.8824 N   0  0  0  0  0  0  0  0  0  0  0  0
  150.2901  141.7657  156.1649 C   0  0  0  0  0  0  0  0  0  0  0  0
  150.5788  140.5840  156.3548 O   0  0  0  0  0  0  0  0  0  0  0  0
  149.4623  142.1779  155.1937 N   0  0  0  0  0  0  0  0  0  0  0  0
  148.7839  141.3120  154.2340 C   0  0  0  0  0  0  0  0  0  0  0  0
  147.2560  141.5033  154.2681 C   0  0  2  0  0  0  0  0  0  0  0  0
  146.8054  142.8947  153.8727 C   0  0  0  0  0  0  0  0  0  0  0  0
  145.3836  142.9389  154.4257 C   0  0  0  0  0  0  0  0  0  0  0  0
  145.3807  142.0867  155.5678 O   0  0  0  0  0  0  0  0  0  0  0  0
  146.6124  141.3764  155.6501 C   0  0  0  0  0  0  0  0  0  0  0  0
  151.8761  143.9344  158.6701 N   0  0  0  0  0  0  0  0  0  0  0  0
  151.3855  145.2866  158.4874 C   0  0  0  0  0  0  0  0  0  0  0  0
  152.7415  143.6588  159.6697 N   0  0  0  0  0  0  0  0  0  0  0  0
  154.0596  140.6516  160.3196 H   0  0  0  0  0  0  0  0  0  0  0  0
  153.5558  141.7946  161.5605 H   0  0  0  0  0  0  0  0  0  0  0  0
  154.9160  142.1784  160.5070 H   0  0  0  0  0  0  0  0  0  0  0  0
  152.3118  140.7144  158.1743 H   0  0  0  0  0  0  0  0  0  0  0  0
  150.4200  143.7179  156.6042 H   0  0  0  0  0  0  0  0  0  0  0  0
  149.2844  143.1683  155.1122 H   0  0  0  0  0  0  0  0  0  0  0  0
  149.1703  141.4689  153.2253 H   0  0  0  0  0  0  0  0  0  0  0  0
  149.0258  140.2811  154.4935 H   0  0  0  0  0  0  0  0  0  0  0  0
  146.7851  140.7849  153.5946 H   0  0  0  0  0  0  0  0  0  0  0  0
  147.4202  143.6487  154.3667 H   0  0  0  0  0  0  0  0  0  0  0  0
  146.8473  143.0709  152.7976 H   0  0  0  0  0  0  0  0  0  0  0  0
  145.0696  143.9510  154.6823 H   0  0  0  0  0  0  0  0  0  0  0  0
  144.6782  142.5404  153.6954 H   0  0  0  0  0  0  0  0  0  0  0  0
  146.4537  140.3391  155.9455 H   0  0  0  0  0  0  0  0  0  0  0  0
  147.2331  141.8532  156.4102 H   0  0  0  0  0  0  0  0  0  0  0  0
  150.2971  145.2773  158.4235 H   0  0  0  0  0  0  0  0  0  0  0  0
  151.7942  145.7016  157.5660 H   0  0  0  0  0  0  0  0  0  0  0  0
  151.6831  145.9197  159.3243 H   0  0  0  0  0  0  0  0  0  0  0  0
  1  2  1  0  0  0  0
  1 18  1  0  0  0  0
  1 19  1  0  0  0  0
  1 20  1  0  0  0  0
  2 17  2  0  0  0  0
  2  3  1  0  0  0  0
  3  4  2  0  0  0  0
  3 21  1  0  0  0  0
  4  5  1  0  0  0  0
  4 15  1  0  0  0  0
  5  6  1  0  0  0  0
  5 22  1  0  0  0  0
  6  7  2  0  0  0  0
  6  8  1  0  0  0  0
  8  9  1  0  0  0  0
  8 23  1  0  0  0  0
  9 10  1  0  0  0  0
  9 24  1  0  0  0  0
  9 25  1  0  0  0  0
 10 14  1  0  0  0  0
 10 11  1  0  0  0  0
 10 26  1  0  0  0  0
 11 12  1  0  0  0  0
 11 27  1  0  0  0  0
 11 28  1  0  0  0  0
 12 13  1  0  0  0  0
 12 29  1  0  0  0  0
 12 30  1  0  0  0  0
 13 14  1  0  0  0  0
 14 31  1  0  0  0  0
 14 32  1  0  0  0  0
 15 16  1  0  0  0  0
 15 17  1  0  0  0  0
 16 33  1  0  0  0  0
 16 34  1  0  0  0  0
 16 35  1  0  0  0  0
M  END
> <s_m_source_file>
AV-unprocessed.smi

> <i_m_source_file_index>
3159

> <i_lp_mmshare_version>
43012

> <i_f3d_flags>
0

> <s_epik_input>
W0NIM11jMVtjSF1jKG4objEpW0NIM10pW05IXUMoPU8pW05IXVtDSDJdW0NAQEhdMltDSDJdW0NIMl1PW0NIMl0y

> <s_epik_cmdline>
J2VwaWtfcHl0aG9uJywgJy1waCcsICc3LjAnLCAnLXRuJywgJzgnLCAnLW1hJywgJzIwMCcsICctbWV0YWxfYmluZGluZycsICctaW1hZScsICc8aW5maWxlLm1hZT4nLCAnLW9tYWUnLCAnPG91dGZpbGUubWFlPic=

> <r_lp_tautomer_probability>
1

> <r_epik_Ionization_Penalty>
9.40319e-05

> <r_epik_Ionization_Penalty_Charging>
0

> <r_epik_Ionization_Penalty_Neutral>
9.40319e-05

> <r_epik_State_Penalty>
-0

> <r_epik_Charging_Adjusted_Penalty>
0

> <i_epik_Tot_Q>
0

> <i_epik_Tot_abs_Q>
0

> <r_epik_Metal_State_Penalty>
-0

> <b_epik_Metal_Only>
0

> <s_lp_Force_Field>
OPLS_2005

> <r_lp_Energy>
20.0318

> <b_lp_Chiralities_Consistent>
1

> <s_lp_Variant>
AV-unprocessed.smi:3159-1

> <Gold.Version>
5.8.1

> <Gold.Id.Protein>
6NUR|6NUR_protein|mol2

> <Gold.PLP.Fitness>
43.8621

> <Gold.PLP.PLP>
-38.2089

> <Gold.PLP.part.hbond>
-2.0000

> <Gold.PLP.part.metal>
0.0000

> <Gold.PLP.part.buried>
-5.2256

> <Gold.PLP.part.nonpolar>
-30.5215

> <Gold.PLP.part.repulsive>
0.3825

> <Gold.PLP.ligand.clash>
0.0000

> <Gold.PLP.ligand.torsion>
0.0323

> <Gold.PLP.Chemscore.Hbond>
1.9040

> <Gold.PLP.Chemscore.CHOScore>
0.0000

> <Gold.PLP.Chemscore.Metal>
0.0000

> <Gold.Chemscore.Hbonds>
donor molecule, donor type, donor heavy atom, donor atom, acceptor molecule, acceptor atom, score
      L1  H     5    22       P1  8028  0.86
      L1  H     8    23       P1  8028  1.00

> <Gold.PLP.Chemscore.Internal.Correction>
0.0057

> <Gold.Rescore>
     Score         DG    S(hbond)    S(metal)    S(lipo)     H(rot)  DE(clash)    DE(int)     intcor
     15.84     -17.09       1.94        0.00      71.06       1.25       0.09       1.15       ----

> <Gold.Chemscore.Fitness>
15.8402

> <Gold.Chemscore.DG>
-17.0860

> <Gold.Chemscore.ZeroCoef>
-5.4800

> <Gold.Chemscore.Hbond>
1.9419

> <Gold.Chemscore.Metal>
0.0000

> <Gold.Chemscore.Lipo>
71.0650

> <Gold.Chemscore.Internal_Hbond>
0.0000

> <Gold.Chemscore.DEClash>
0.0937

> <Gold.Chemscore.DEInternal>
1.1522

> <Gold.Chemscore.Rot>
1.2478

> <Gold.Chemscore.Internal.Correction>
   9.000000E+99

> <Gold.Chemscore.Hbonds>
donor molecule, donor type, donor heavy atom, donor atom, acceptor molecule, acceptor atom, score
      L1  H     5    22       P1  8028  0.80
      L1  H     8    23       P1  8028  0.99

> <Gold.Chemscore.Hbond.Weighted>
-6.4859

> <Gold.Chemscore.Metal.Weighted>
-0.0000

> <Gold.Chemscore.Lipo.Weighted>
-8.3146

> <Gold.Chemscore.Internal_Hbond.Weighted>
0.0000

> <Gold.Chemscore.DEClash.Weighted>
0.0937

> <Gold.Chemscore.DEInternal.Weighted>
1.1522

> <Gold.Chemscore.Rot.Weighted>
3.1944

> <Gold.Chemscore.Internal.Correction.Weighted>
   9.000000E+99

> <Gold.Protein.RotatedTorsions>
[ 6907 6896 6895 6894 ] final  -72.19 input  -60.11 | X-H torsion
[ 7974 7965 7964 7962 ] final   54.99 input  175.53 | X-H torsion
[ 8008 7997 7996 7995 ] final -111.88 input   59.86 | X-H torsion
[ 10167 10162 10161 10158 ] final  106.06 input  -65.29 | X-H torsion
[ 10718 10713 10712 10709 ] final  123.77 input   66.30 | X-H torsion
[ 10763 10752 10751 10750 ] final  126.28 input  -60.55 | X-H torsion
[ 11005 11000 10999 10996 ] final   75.16 input  -57.11 | X-H torsion

> <Gold.Protein.ActiveResidues>
 VAL166  LYS551  ARG553  GLY616  TRP617  ASP618  TYR619  PRO620  LYS621  CYS622 
 ASP623  PHE694  ASN695  SER759  ASP760  ASP761  ALA762  ILE779  LEU786  VAL792 
 PHE793  MET794  SER795  GLU796  ALA797  LYS798  CYS799  TRP800  GLU811  SER814 

> <Gold.Protein.RotatedAtoms>
  150.7180  134.5198  159.5647 H   0  0  0  0  0  0  0  0  0  0  0  0  # atno 6907 bound_to 6896
  152.2756  134.7882  160.0415 H   0  0  0  0  0  0  0  0  0  0  0  0  # atno 6908 bound_to 6896
  151.8547  133.3411  159.3721 H   0  0  0  0  0  0  0  0  0  0  0  0  # atno 6909 bound_to 6896
  145.9551  139.4007  143.0282 H   0  0  0  0  0  0  0  0  0  0  0  0  # atno 7974 bound_to 7965
  154.9965  140.0394  157.2342 H   0  0  0  0  0  0  0  0  0  0  0  0  # atno 8008 bound_to 7997
  154.7581  140.2779  155.6214 H   0  0  0  0  0  0  0  0  0  0  0  0  # atno 8009 bound_to 7997
  156.2898  140.2634  156.2353 H   0  0  0  0  0  0  0  0  0  0  0  0  # atno 8010 bound_to 7997
  139.7041  144.7089  151.1137 H   0  0  0  0  0  0  0  0  0  0  0  0  # atno 10167 bound_to 10162
  157.5638  131.1088  150.8491 H   0  0  0  0  0  0  0  0  0  0  0  0  # atno 10718 bound_to 10713
  153.6908  135.3299  155.3201 H   0  0  0  0  0  0  0  0  0  0  0  0  # atno 10763 bound_to 10752
  154.8440  135.4431  154.1510 H   0  0  0  0  0  0  0  0  0  0  0  0  # atno 10764 bound_to 10752
  153.2551  135.6985  153.7715 H   0  0  0  0  0  0  0  0  0  0  0  0  # atno 10765 bound_to 10752
  139.9357  134.7494  156.1236 H   0  0  0  0  0  0  0  0  0  0  0  0  # atno 11005 bound_to 11000
  145.8117  140.9722  143.0945 LP  0  0  0  0  0  0  0  0  0  0  0  0  # atno 17320 bound_to 7965
  144.6803  139.9930  143.7484 LP  0  0  0  0  0  0  0  0  0  0  0  0  # atno 17321 bound_to 7965
  140.7717  143.5383  150.9342 LP  0  0  0  0  0  0  0  0  0  0  0  0  # atno 17342 bound_to 10162
  139.9066  143.6771  152.3122 LP  0  0  0  0  0  0  0  0  0  0  0  0  # atno 17343 bound_to 10162
  156.8981  130.5237  149.5283 LP  0  0  0  0  0  0  0  0  0  0  0  0  # atno 17370 bound_to 10713
  156.0688  130.5725  150.9342 LP  0  0  0  0  0  0  0  0  0  0  0  0  # atno 17371 bound_to 10713
  141.0969  133.6692  156.2665 LP  0  0  0  0  0  0  0  0  0  0  0  0  # atno 17394 bound_to 11000
  140.6083  134.5484  157.5529 LP  0  0  0  0  0  0  0  0  0  0  0  0  # atno 17395 bound_to 11000

$$$$
