AV-unprocessed.smi:226|AV-procd|sdf|1725|dock3
  -GOLD-   2262020203D 1   1.00000     0.00000
 Structure written by MMmdl.
 54 58  0  0  0  0  0  0  0  0  1 V2000
  151.2009  142.8003  156.4005 O   0  0  0  0  0  0  0  0  0  0  0  0
  151.4088  141.9363  157.2539 C   0  0  0  0  0  0  0  0  0  0  0  0
  152.0625  142.1746  158.4000 N   0  0  0  0  0  0  0  0  0  0  0  0
  152.5894  143.4359  158.8080 C   0  0  0  0  0  0  0  0  0  0  0  0
  152.8637  143.6417  160.2820 C   0  0  0  0  0  0  0  0  0  0  0  0
  151.6944  144.3322  159.6357 C   0  0  0  0  0  0  0  0  0  0  0  0
  150.9223  140.4901  157.0471 C   0  0  2  0  0  0  0  0  0  0  0  0
  152.0684  139.4769  157.2124 C   0  0  0  0  0  0  0  0  0  0  0  0
  152.6405  139.3135  155.8054 C   0  0  0  0  0  0  0  0  0  0  0  0
  151.4073  139.4485  154.9127 C   0  0  0  0  0  0  0  0  0  0  0  0
  150.4594  140.2508  155.6799 N   0  0  0  0  0  0  0  0  0  0  0  0
  149.2567  140.6437  155.1744 C   0  0  0  0  0  0  0  0  0  0  0  0
  148.9884  140.3425  153.8760 N   0  0  0  0  0  0  0  0  0  0  0  0
  147.8303  140.6978  153.3152 C   0  0  0  0  0  0  0  0  0  0  0  0
  146.8089  141.3563  153.8614 N   0  0  0  0  0  0  0  0  0  0  0  0
  147.0625  141.6672  155.1640 C   0  0  0  0  0  0  0  0  0  0  0  0
  148.2435  141.3469  155.8971 C   0  0  0  0  0  0  0  0  0  0  0  0
  148.1121  141.8139  157.2014 N   0  0  0  0  0  0  0  0  0  0  0  0
  146.9338  142.3715  157.2357 C   0  0  0  0  0  0  0  0  0  0  0  0
  146.2460  142.3545  156.0453 N   0  0  0  0  0  0  0  0  0  0  0  0
  144.9229  142.8551  155.8093 C   0  0  0  0  0  0  0  0  0  0  0  0
  144.6648  143.9311  154.7508 C   0  0  0  0  0  0  0  0  0  0  0  0
  143.5848  144.5747  155.6483 C   0  0  0  0  0  0  0  0  0  0  0  0
  143.6759  146.1024  155.7846 C   0  0  0  0  0  0  0  0  0  0  0  0
  143.2797  146.7508  154.5930 O   0  0  0  0  0  0  0  0  0  0  0  0
  142.1109  144.2343  155.3330 C   0  0  0  0  0  0  0  0  0  0  0  0
  141.6906  144.6902  154.0629 O   0  0  0  0  0  0  0  0  0  0  0  0
  144.2353  143.7898  156.8100 C   0  0  0  0  0  0  0  0  0  0  0  0
  152.1858  141.4031  159.0397 H   0  0  0  0  0  0  0  0  0  0  0  0
  153.2665  143.9416  158.1208 H   0  0  0  0  0  0  0  0  0  0  0  0
  152.6491  142.8181  160.9603 H   0  0  0  0  0  0  0  0  0  0  0  0
  153.7224  144.2537  160.5509 H   0  0  0  0  0  0  0  0  0  0  0  0
  151.7714  145.4050  159.4719 H   0  0  0  0  0  0  0  0  0  0  0  0
  150.6980  143.9693  159.8816 H   0  0  0  0  0  0  0  0  0  0  0  0
  150.1380  140.2540  157.7671 H   0  0  0  0  0  0  0  0  0  0  0  0
  152.8243  139.7859  157.9361 H   0  0  0  0  0  0  0  0  0  0  0  0
  151.6646  138.5225  157.5535 H   0  0  0  0  0  0  0  0  0  0  0  0
  153.3411  140.1231  155.5963 H   0  0  0  0  0  0  0  0  0  0  0  0
  153.1658  138.3686  155.6639 H   0  0  0  0  0  0  0  0  0  0  0  0
  151.6619  139.9142  153.9597 H   0  0  0  0  0  0  0  0  0  0  0  0
  150.9694  138.4696  154.7127 H   0  0  0  0  0  0  0  0  0  0  0  0
  147.7053  140.4152  152.2802 H   0  0  0  0  0  0  0  0  0  0  0  0
  146.5367  142.8177  158.1359 H   0  0  0  0  0  0  0  0  0  0  0  0
  144.3063  141.9761  155.6181 H   0  0  0  0  0  0  0  0  0  0  0  0
  145.5310  144.5778  154.6005 H   0  0  0  0  0  0  0  0  0  0  0  0
  144.2987  143.5449  153.7990 H   0  0  0  0  0  0  0  0  0  0  0  0
  143.0575  146.4641  156.6067 H   0  0  0  0  0  0  0  0  0  0  0  0
  144.6969  146.4141  156.0074 H   0  0  0  0  0  0  0  0  0  0  0  0
  143.6926  147.6006  154.5632 H   0  0  0  0  0  0  0  0  0  0  0  0
  141.9486  143.1564  155.3662 H   0  0  0  0  0  0  0  0  0  0  0  0
  141.4413  144.6734  156.0732 H   0  0  0  0  0  0  0  0  0  0  0  0
  141.8537  144.0079  153.4295 H   0  0  0  0  0  0  0  0  0  0  0  0
  143.5320  143.2914  157.4777 H   0  0  0  0  0  0  0  0  0  0  0  0
  144.9499  144.3879  157.3780 H   0  0  0  0  0  0  0  0  0  0  0  0
  1  2  2  0  0  0  0
  2  3  1  0  0  0  0
  2  7  1  0  0  0  0
  3  4  1  0  0  0  0
  3 29  1  0  0  0  0
  4  6  1  0  0  0  0
  4  5  1  0  0  0  0
  4 30  1  0  0  0  0
  5  6  1  0  0  0  0
  5 31  1  0  0  0  0
  5 32  1  0  0  0  0
  6 33  1  0  0  0  0
  6 34  1  0  0  0  0
  7 11  1  0  0  0  0
  7  8  1  0  0  0  0
  7 35  1  0  0  0  0
  8  9  1  0  0  0  0
  8 36  1  0  0  0  0
  8 37  1  0  0  0  0
  9 10  1  0  0  0  0
  9 38  1  0  0  0  0
  9 39  1  0  0  0  0
 10 11  1  0  0  0  0
 10 40  1  0  0  0  0
 10 41  1  0  0  0  0
 11 12  1  0  0  0  0
 12 17  1  0  0  0  0
 12 13  2  0  0  0  0
 13 14  1  0  0  0  0
 14 15  2  0  0  0  0
 14 42  1  0  0  0  0
 15 16  1  0  0  0  0
 16 20  1  0  0  0  0
 16 17  2  0  0  0  0
 17 18  1  0  0  0  0
 18 19  2  0  0  0  0
 19 20  1  0  0  0  0
 19 43  1  0  0  0  0
 20 21  1  0  0  0  0
 21 28  1  0  0  0  0
 21 22  1  0  0  0  0
 21 44  1  0  0  0  0
 22 23  1  0  0  0  0
 22 45  1  0  0  0  0
 22 46  1  0  0  0  0
 23 24  1  0  0  0  0
 23 26  1  0  0  0  0
 23 28  1  0  0  0  0
 24 25  1  0  0  0  0
 24 47  1  0  0  0  0
 24 48  1  0  0  0  0
 25 49  1  0  0  0  0
 26 27  1  0  0  0  0
 26 50  1  0  0  0  0
 26 51  1  0  0  0  0
 27 52  1  0  0  0  0
 28 53  1  0  0  0  0
 28 54  1  0  0  0  0
M  END
> <s_m_source_file>
AV-unprocessed.smi

> <i_m_source_file_index>
226

> <i_lp_mmshare_version>
43012

> <i_f3d_flags>
0

> <s_epik_input>
W0NIMl0xW0NIMl1bQ0hdMVtOSF1DKD1PKVtDQEBIXTJbQ0gyXVtDSDJdW0NIMl1OMmMobltjSF1uMyljKGMzNCluW2NIXW40W0NIXShbQ0gyXTUpW0NIMl1DNShbQ0gyXVtPSF0pW0NIMl1bT0hd

> <s_epik_cmdline>
J2VwaWtfcHl0aG9uJywgJy1waCcsICc3LjAnLCAnLXRuJywgJzgnLCAnLW1hJywgJzIwMCcsICctbWV0YWxfYmluZGluZycsICctaW1hZScsICc8aW5maWxlLm1hZT4nLCAnLW9tYWUnLCAnPG91dGZpbGUubWFlPic=

> <r_lp_tautomer_probability>
1

> <r_epik_Ionization_Penalty>
0.000818715

> <r_epik_Ionization_Penalty_Charging>
0

> <r_epik_Ionization_Penalty_Neutral>
0.000818715

> <r_epik_State_Penalty>
0.000426447

> <r_epik_Charging_Adjusted_Penalty>
0.000426447

> <i_epik_Tot_Q>
0

> <i_epik_Tot_abs_Q>
0

> <r_epik_Metal_State_Penalty>
-0

> <b_epik_Metal_Only>
0

> <s_lp_Force_Field>
OPLS_2005

> <r_lp_Energy>
61.6174

> <b_lp_Chiralities_Consistent>
1

> <s_lp_Variant>
AV-unprocessed.smi:226-1

> <Gold.Version>
5.8.1

> <Gold.Id.Protein>
6NUR|6NUR_protein|mol2

> <Gold.PLP.Fitness>
50.4737

> <Gold.PLP.PLP>
-46.1422

> <Gold.PLP.part.hbond>
-3.8463

> <Gold.PLP.part.metal>
0.0000

> <Gold.PLP.part.buried>
-6.0836

> <Gold.PLP.part.nonpolar>
-39.4312

> <Gold.PLP.part.repulsive>
2.8796

> <Gold.PLP.ligand.clash>
0.0000

> <Gold.PLP.ligand.torsion>
0.7879

> <Gold.PLP.Chemscore.Hbond>
1.0000

> <Gold.PLP.Chemscore.CHOScore>
0.7755

> <Gold.PLP.Chemscore.Metal>
0.0000

> <Gold.Chemscore.Hbonds>
donor molecule, donor type, donor heavy atom, donor atom, acceptor molecule, acceptor atom, score
      L1  H    27    52       P1 10174  0.75
      L1  C    14    42       P1  7957  0.73

> <Gold.PLP.Chemscore.Internal.Correction>
0.5807

> <Gold.Rescore>
     Score         DG    S(hbond)    S(metal)    S(lipo)     H(rot)  DE(clash)    DE(int)     intcor
      8.30      -9.28       1.00        0.00      81.11       3.52       0.08       0.90       ----

> <Gold.Chemscore.Fitness>
8.2967

> <Gold.Chemscore.DG>
-9.2764

> <Gold.Chemscore.ZeroCoef>
-5.4800

> <Gold.Chemscore.Hbond>
0.9967

> <Gold.Chemscore.Metal>
0.0000

> <Gold.Chemscore.Lipo>
81.1121

> <Gold.Chemscore.Internal_Hbond>
0.0000

> <Gold.Chemscore.DEClash>
0.0770

> <Gold.Chemscore.DEInternal>
0.9028

> <Gold.Chemscore.Rot>
3.5244

> <Gold.Chemscore.Internal.Correction>
   9.000000E+99

> <Gold.Chemscore.Hbonds>
donor molecule, donor type, donor heavy atom, donor atom, acceptor molecule, acceptor atom, score
      L1  H    27    52       P1 10174  0.75

> <Gold.Chemscore.Hbond.Weighted>
-3.3288

> <Gold.Chemscore.Metal.Weighted>
-0.0000

> <Gold.Chemscore.Lipo.Weighted>
-9.4901

> <Gold.Chemscore.Internal_Hbond.Weighted>
0.0000

> <Gold.Chemscore.DEClash.Weighted>
0.0770

> <Gold.Chemscore.DEInternal.Weighted>
0.9028

> <Gold.Chemscore.Rot.Weighted>
9.0225

> <Gold.Chemscore.Internal.Correction.Weighted>
   9.000000E+99

> <Gold.Protein.RotatedTorsions>
[ 6907 6896 6895 6894 ] final   67.39 input  -60.11 | X-H torsion
[ 7974 7965 7964 7962 ] final  137.05 input  175.53 | X-H torsion
[ 8008 7997 7996 7995 ] final -179.92 input   59.86 | X-H torsion
[ 10167 10162 10161 10158 ] final -154.13 input  -65.29 | X-H torsion
[ 10718 10713 10712 10709 ] final  172.25 input   66.30 | X-H torsion
[ 10763 10752 10751 10750 ] final   51.93 input  -60.55 | X-H torsion
[ 11005 11000 10999 10996 ] final    1.90 input  -57.11 | X-H torsion

> <Gold.Protein.ActiveResidues>
 VAL166  LYS551  ARG553  GLY616  TRP617  ASP618  TYR619  PRO620  LYS621  CYS622 
 ASP623  PHE694  ASN695  SER759  ASP760  ASP761  ALA762  ILE779  LEU786  VAL792 
 PHE793  MET794  SER795  GLU796  ALA797  LYS798  CYS799  TRP800  GLU811  SER814 

> <Gold.Protein.RotatedAtoms>
  152.4549  134.5314  159.9811 H   0  0  0  0  0  0  0  0  0  0  0  0  # atno 6907 bound_to 6896
  151.5377  133.3432  159.2937 H   0  0  0  0  0  0  0  0  0  0  0  0  # atno 6908 bound_to 6896
  150.8490  134.7839  159.7056 H   0  0  0  0  0  0  0  0  0  0  0  0  # atno 6909 bound_to 6896
  144.9505  139.4824  143.5528 H   0  0  0  0  0  0  0  0  0  0  0  0  # atno 7974 bound_to 7965
  156.0361  140.1293  157.0206 H   0  0  0  0  0  0  0  0  0  0  0  0  # atno 8008 bound_to 7997
  154.4370  140.1040  156.6239 H   0  0  0  0  0  0  0  0  0  0  0  0  # atno 8009 bound_to 7997
  155.5736  140.3467  155.4524 H   0  0  0  0  0  0  0  0  0  0  0  0  # atno 8010 bound_to 7997
  139.7039  143.9218  152.2440 H   0  0  0  0  0  0  0  0  0  0  0  0  # atno 10167 bound_to 10162
  156.9817  131.0121  151.2880 H   0  0  0  0  0  0  0  0  0  0  0  0  # atno 10718 bound_to 10713
  152.9787  135.5829  154.4496 H   0  0  0  0  0  0  0  0  0  0  0  0  # atno 10763 bound_to 10752
  154.4087  135.2769  155.2053 H   0  0  0  0  0  0  0  0  0  0  0  0  # atno 10764 bound_to 10752
  154.3852  135.6137  153.5867 H   0  0  0  0  0  0  0  0  0  0  0  0  # atno 10765 bound_to 10752
  140.6103  133.9755  155.8174 H   0  0  0  0  0  0  0  0  0  0  0  0  # atno 11005 bound_to 11000
  146.3319  139.8587  142.8860 LP  0  0  0  0  0  0  0  0  0  0  0  0  # atno 17320 bound_to 7965
  145.2852  141.0150  143.3695 LP  0  0  0  0  0  0  0  0  0  0  0  0  # atno 17321 bound_to 7965
  139.9068  144.6879  150.8605 LP  0  0  0  0  0  0  0  0  0  0  0  0  # atno 17342 bound_to 10162
  140.7716  143.3472  151.2086 LP  0  0  0  0  0  0  0  0  0  0  0  0  # atno 17343 bound_to 10162
  157.5522  130.8189  149.8159 LP  0  0  0  0  0  0  0  0  0  0  0  0  # atno 17370 bound_to 10713
  156.0242  130.3785  150.1872 LP  0  0  0  0  0  0  0  0  0  0  0  0  # atno 17371 bound_to 10713
  141.0813  134.0059  157.3382 LP  0  0  0  0  0  0  0  0  0  0  0  0  # atno 17394 bound_to 11000
  139.9195  135.0199  156.8010 LP  0  0  0  0  0  0  0  0  0  0  0  0  # atno 17395 bound_to 11000

$$$$
