#       Name:                AV-unprocessed.smi:1419
#       Creating user name   scv26
#       Creation time:       Fri Mar 27 05:42:14 2020


#       File generated by GOLD software.
#

@<TRIPOS>MOLECULE
AV-unprocessed.smi:1419
    46    47     1
SMALL
NO_CHARGES


@<TRIPOS>ATOM
      1 ****        -2.5955  -1.0586  -1.6407 C.3            1 S1                 0.0000
      2 ****        -1.9134  -0.1529  -0.6029 C.3            1 S1                 0.0000
      3 ****        -1.9870  -0.7182   0.8324 C.3            1 S1                 0.0000
      4 ****        -3.3624  -0.8906   1.3073 N.pl3          1 S1                 0.0000
      5 ****        -4.0762  -2.0582   1.3975 C.2            1 S1                 0.0000
      6 ****        -5.3082  -1.7247   1.8986 C.2            1 S1                 0.0000
      7 ****        -5.2932  -0.3696   2.0951 N.pl3          1 S1                 1.0000
      8 ****        -4.1081   0.1353   1.7371 C.2            1 S1                 0.0000
      9 ****        -0.5217   0.0561  -0.9902 N.am           1 S1                 0.0000
     10 ****         0.2418   1.1010  -0.6259 C.2            1 S1                 0.0000
     11 ****        -0.1920   2.0144   0.0775 O.2            1 S1                 0.0000
     12 ****         1.5117   1.0659  -1.0999 N.am           1 S1                 0.0000
     13 ****         2.1620  -0.0512  -1.7987 C.3            1 S1                 0.0000
     14 ****         3.2181  -0.6803  -0.8661 C.3            1 S1                 0.0000
     15 ****         2.6206  -1.4593   0.3197 C.3            1 S1                 0.0000
     16 ****         4.1318   0.3282  -0.4224 O.3            1 S1                 0.0000
     17 ****         3.5402   1.4811   0.1832 C.3            1 S1                 0.0000
     18 ****         4.6641   2.4654   0.5239 C.3            1 S1                 0.0000
     19 ****         2.5030   2.0940  -0.7781 C.3            1 S1                 0.0000
     20 ****        -3.6613  -1.1659  -1.4389 H              1 S1                 0.0000
     21 ****        -2.1550  -2.0561  -1.6470 H              1 S1                 0.0000
     22 ****        -2.4975  -0.6458  -2.6455 H              1 S1                 0.0000
     23 ****        -2.4237   0.8120  -0.6271 H              1 S1                 0.0000
     24 ****        -1.4883  -1.6869   0.8894 H              1 S1                 0.0000
     25 ****        -1.4775  -0.0604   1.5383 H              1 S1                 0.0000
     26 ****        -3.6659  -3.0137   1.1040 H              1 S1                 0.0000
     27 ****        -6.1714  -2.3339   2.1248 H              1 S1                 0.0000
     28 ****        -3.8117   1.1683   1.7844 H              1 S1                 0.0000
     29 ****        -0.1009  -0.6505  -1.5762 H              1 S1                 0.0000
     30 ****         1.4740  -0.8180  -2.1547 H              1 S1                 0.0000
     31 ****         2.6495   0.3337  -2.6957 H              1 S1                 0.0000
     32 ****         3.8036  -1.3888  -1.4527 H              1 S1                 0.0000
     33 ****         1.9909  -2.2762  -0.0330 H              1 S1                 0.0000
     34 ****         2.0069  -0.8315   0.9649 H              1 S1                 0.0000
     35 ****         3.4100  -1.8931   0.9338 H              1 S1                 0.0000
     36 ****         3.0497   1.1918   1.1132 H              1 S1                 0.0000
     37 ****         4.2696   3.3624   1.0017 H              1 S1                 0.0000
     38 ****         5.2047   2.7732  -0.3717 H              1 S1                 0.0000
     39 ****         5.3828   2.0137   1.2080 H              1 S1                 0.0000
     40 ****         2.9870   2.4325  -1.6955 H              1 S1                 0.0000
     41 ****         2.0560   2.9829  -0.3308 H              1 S1                 0.0000
     42 ****        -6.0653   0.1744   2.4597 H              1 S1                 0.0000
     43 ****        -1.1397   1.9933   0.3960 LP             1 S1                 0.0000
     44 ****         0.4035   2.7770   0.3300 LP             1 S1                 0.0000
     45 ****         4.6592   0.6344  -1.2149 LP             1 S1                 0.0000
     46 ****         4.7471  -0.0883   0.2468 LP             1 S1                 0.0000
@<TRIPOS>BOND
    1    1    2 1     
    2    1   20 1     
    3    1   21 1     
    4    1   22 1     
    5    2    3 1     
    6    2    9 1     
    7    2   23 1     
    8    3    4 1     
    9    3   24 1     
   10    3   25 1     
   11    4    8 1     
   12    4    5 1     
   13    5    6 2     
   14    5   26 1     
   15    6    7 1     
   16    6   27 1     
   17    7    8 2     
   18    7   42 1     
   19    8   28 1     
   20    9   10 am    
   21    9   29 1     
   22   10   11 2     
   23   10   12 am    
   24   12   19 1     
   25   12   13 1     
   26   13   14 1     
   27   13   30 1     
   28   13   31 1     
   29   14   15 1     
   30   14   16 1     
   31   14   32 1     
   32   15   33 1     
   33   15   34 1     
   34   15   35 1     
   35   16   17 1     
   36   17   18 1     
   37   17   19 1     
   38   17   36 1     
   39   18   37 1     
   40   18   38 1     
   41   18   39 1     
   42   19   40 1     
   43   19   41 1     
   44   11   43 1     
   45   11   44 1     
   46   16   45 1     
   47   16   46 1     
@<TRIPOS>SUBSTRUCTURE
      1 S1             1
@<TRIPOS>SET
LONE_PAIRS      STATIC     ATOMS    <user>   **** ""
4 43 44 45 46
DONOR_HYDROGENS      STATIC     ATOMS    <user>   **** ""
2 42 29
ATOM$BLUE        STATIC     ATOMS    COLORGROUP SYSTEM
4 43 44 45 46
ATOM$RED        STATIC     ATOMS    COLORGROUP SYSTEM
2 42 29
