#       Name:                AV-unprocessed.smi:1587
#       Creating user name   scv26
#       Creation time:       Fri Mar 27 07:02:22 2020


#       File generated by GOLD software.
#

@<TRIPOS>MOLECULE
AV-unprocessed.smi:1587
    42    43     1
SMALL
NO_CHARGES


@<TRIPOS>ATOM
      1 ****        -0.5211   1.3448   1.3640 O.2            1 S1                 0.0000
      2 ****        -1.3465   0.5316   0.9473 C.2            1 S1                 0.0000
      3 ****        -1.0275  -0.7136   0.5651 N.am           1 S1                 0.0000
      4 ****         0.3163  -1.2783   0.5922 C.3            1 S1                 0.0000
      5 ****         1.1461  -0.8140  -0.6197 C.3            1 S1                 0.0000
      6 ****         2.5314  -1.2797  -0.6319 N.3            1 S1                 0.0000
      7 ****         2.6376  -2.7244  -0.8257 C.3            1 S1                 0.0000
      8 ****         4.1029  -3.1928  -0.8686 C.3            1 S1                 0.0000
      9 ****         4.8030  -2.4886  -1.8890 O.3            1 S1                 0.0000
     10 ****         4.7636  -1.0773  -1.7057 C.3            1 S1                 0.0000
     11 ****         3.3000  -0.6046  -1.6726 C.3            1 S1                 0.0000
     12 ****        -2.6654   0.7590   0.8154 N.am           1 S1                 0.0000
     13 ****        -3.3838   1.9511   1.0998 C.ar           1 S1                 0.0000
     14 ****        -4.7790   1.8745   0.8872 C.ar           1 S1                 0.0000
     15 ****        -5.5814   3.0045   1.1382 C.ar           1 S1                 0.0000
     16 ****        -4.9673   4.1840   1.5957 C.ar           1 S1                 0.0000
     17 ****        -3.5725   4.1763   1.7804 C.ar           1 S1                 0.0000
     18 ****        -2.8015   3.0945   1.5404 N.ar           1 S1                 0.0000
     19 ****        -1.7669  -1.3158   0.2343 H              1 S1                 0.0000
     20 ****         0.8164  -1.0088   1.5241 H              1 S1                 0.0000
     21 ****         0.2102  -2.3625   0.5966 H              1 S1                 0.0000
     22 ****         0.6478  -1.1166  -1.5421 H              1 S1                 0.0000
     23 ****         1.1477   0.2770  -0.6262 H              1 S1                 0.0000
     24 ****         2.1287  -3.2539  -0.0211 H              1 S1                 0.0000
     25 ****         2.1405  -3.0112  -1.7537 H              1 S1                 0.0000
     26 ****         4.5885  -3.0283   0.0945 H              1 S1                 0.0000
     27 ****         4.1534  -4.2621  -1.0744 H              1 S1                 0.0000
     28 ****         5.2779  -0.8080  -0.7817 H              1 S1                 0.0000
     29 ****         5.3002  -0.5962  -2.5233 H              1 S1                 0.0000
     30 ****         2.8419  -0.7843  -2.6465 H              1 S1                 0.0000
     31 ****         3.2752   0.4737  -1.5114 H              1 S1                 0.0000
     32 ****        -3.2205  -0.0096   0.4697 H              1 S1                 0.0000
     33 ****        -5.2351   0.9602   0.5359 H              1 S1                 0.0000
     34 ****        -6.6493   2.9663   0.9823 H              1 S1                 0.0000
     35 ****        -5.5488   5.0710   1.7995 H              1 S1                 0.0000
     36 ****        -3.0619   5.0616   2.1294 H              1 S1                 0.0000
     37 ****         0.4433   1.0889   1.4308 LP             1 S1                 0.0000
     38 ****        -0.8152   2.2612   1.6357 LP             1 S1                 0.0000
     39 ****         2.9059  -1.0569   0.2682 LP             1 S1                 0.0000
     40 ****         4.3886  -2.7086  -2.7721 LP             1 S1                 0.0000
     41 ****         5.7579  -2.7855  -1.8856 LP             1 S1                 0.0000
     42 ****        -1.8130   3.1355   1.6857 LP             1 S1                 0.0000
@<TRIPOS>BOND
    1    1    2 2     
    2    2    3 am    
    3    2   12 am    
    4    3    4 1     
    5    3   19 1     
    6    4    5 1     
    7    4   20 1     
    8    4   21 1     
    9    5    6 1     
   10    5   22 1     
   11    5   23 1     
   12    6   11 1     
   13    6    7 1     
   14    7    8 1     
   15    7   24 1     
   16    7   25 1     
   17    8    9 1     
   18    8   26 1     
   19    8   27 1     
   20    9   10 1     
   21   10   11 1     
   22   10   28 1     
   23   10   29 1     
   24   11   30 1     
   25   11   31 1     
   26   12   13 1     
   27   12   32 1     
   28   13   18 ar    
   29   13   14 ar    
   30   14   15 ar    
   31   14   33 1     
   32   15   16 ar    
   33   15   34 1     
   34   16   17 ar    
   35   16   35 1     
   36   17   18 ar    
   37   17   36 1     
   38    1   37 1     
   39    1   38 1     
   40    6   39 1     
   41    9   40 1     
   42    9   41 1     
   43   18   42 1     
@<TRIPOS>SUBSTRUCTURE
      1 S1             1
@<TRIPOS>SET
LONE_PAIRS      STATIC     ATOMS    <user>   **** ""
6 37 38 39 40 41 42
DONOR_HYDROGENS      STATIC     ATOMS    <user>   **** ""
2 19 32
ATOM$BLUE        STATIC     ATOMS    COLORGROUP SYSTEM
6 37 38 39 40 41 42
ATOM$RED        STATIC     ATOMS    COLORGROUP SYSTEM
2 19 32
