#       Name:                AV-unprocessed.smi:1871
#       Creating user name   scv26
#       Creation time:       Fri Mar 27 09:32:02 2020


#       File generated by GOLD software.
#

@<TRIPOS>MOLECULE
AV-unprocessed.smi:1871
    47    49     1
SMALL
NO_CHARGES


@<TRIPOS>ATOM
      1 ****        -3.4103  -0.2895  -1.5426 O.3            1 S1                 0.0000
      2 ****        -2.4378  -0.7063  -0.6073 C.3            1 S1                 0.0000
      3 ****        -1.9359   0.4068   0.2576 C.2            1 S1                 0.0000
      4 ****        -2.1548   1.7388   0.0624 N.pl3          1 S1                 1.0000
      5 ****        -1.5234   2.4761   1.0641 C.ar           1 S1                 0.0000
      6 ****        -1.4609   3.8484   1.2846 C.ar           1 S1                 0.0000
      7 ****        -0.7255   4.2754   2.4099 C.ar           1 S1                 0.0000
      8 ****        -0.0892   3.3519   3.2648 C.ar           1 S1                 0.0000
      9 ****        -0.1591   1.9628   3.0301 C.ar           1 S1                 0.0000
     10 ****        -0.8873   1.5498   1.9147 C.ar           1 S1                 0.0000
     11 ****        -1.1628   0.2879   1.3767 N.pl3          1 S1                 0.0000
     12 ****        -0.6137  -0.9065   2.0380 C.3            1 S1                 0.0000
     13 ****         0.8727  -1.1436   1.7010 C.3            1 S1                 0.0000
     14 ****         1.3379  -2.2150   2.4952 O.3            1 S1                 0.0000
     15 ****         1.0941  -1.3849   0.2145 C.ar           1 S1                 0.0000
     16 ****         0.8261  -2.6454  -0.3608 C.ar           1 S1                 0.0000
     17 ****         1.0087  -2.8479  -1.7421 C.ar           1 S1                 0.0000
     18 ****         1.4666  -1.8010  -2.5672 C.ar           1 S1                 0.0000
     19 ****         1.6070  -2.0572  -3.9123 O.3            1 S1                 0.0000
     20 ****         2.5381  -1.3719  -4.6280 C.3            1 S1                 0.0000
     21 ****         2.9839  -2.1387  -5.6523 F              1 S1                 0.0000
     22 ****         1.9939  -0.2514  -5.1631 F              1 S1                 0.0000
     23 ****         1.7245  -0.5344  -1.9900 C.ar           1 S1                 0.0000
     24 ****         1.5426  -0.3311  -0.6088 C.ar           1 S1                 0.0000
     25 ****        -3.6758  -1.0391  -2.0539 H              1 S1                 0.0000
     26 ****        -2.8680  -1.4876   0.0196 H              1 S1                 0.0000
     27 ****        -1.5989  -1.1448  -1.1471 H              1 S1                 0.0000
     28 ****        -1.9477   4.5569   0.6304 H              1 S1                 0.0000
     29 ****        -0.6483   5.3320   2.6219 H              1 S1                 0.0000
     30 ****         0.4643   3.7161   4.1183 H              1 S1                 0.0000
     31 ****         0.3327   1.2634   3.6900 H              1 S1                 0.0000
     32 ****        -0.7554  -0.7903   3.1135 H              1 S1                 0.0000
     33 ****        -1.2155  -1.7664   1.7427 H              1 S1                 0.0000
     34 ****         1.4538  -0.2699   1.9978 H              1 S1                 0.0000
     35 ****         2.2673  -2.3130   2.3530 H              1 S1                 0.0000
     36 ****         0.4698  -3.4601   0.2527 H              1 S1                 0.0000
     37 ****         0.7953  -3.8156  -2.1722 H              1 S1                 0.0000
     38 ****         3.3987  -1.1015  -4.0156 H              1 S1                 0.0000
     39 ****         2.0548   0.2948  -2.5977 H              1 S1                 0.0000
     40 ****         1.7368   0.6435  -0.1851 H              1 S1                 0.0000
     41 ****        -2.7003   2.1092  -0.7054 H              1 S1                 0.0000
     42 ****        -3.0222   0.4087  -2.1442 LP             1 S1                 0.0000
     43 ****        -4.2014   0.0876  -1.0612 LP             1 S1                 0.0000
     44 ****         0.8663  -3.0574   2.2346 LP             1 S1                 0.0000
     45 ****         1.1632  -2.0200   3.4603 LP             1 S1                 0.0000
     46 ****         0.7205  -1.8753  -4.3378 LP             1 S1                 0.0000
     47 ****         1.8270  -3.0285  -4.0026 LP             1 S1                 0.0000
@<TRIPOS>BOND
    1    1    2 1     
    2    1   25 1     
    3    2    3 1     
    4    2   26 1     
    5    2   27 1     
    6    3   11 1     
    7    3    4 2     
    8    4    5 1     
    9    4   41 1     
   10    5   10 ar    
   11    5    6 ar    
   12    6    7 ar    
   13    6   28 1     
   14    7    8 ar    
   15    7   29 1     
   16    8    9 ar    
   17    8   30 1     
   18    9   10 ar    
   19    9   31 1     
   20   10   11 1     
   21   11   12 1     
   22   12   13 1     
   23   12   32 1     
   24   12   33 1     
   25   13   14 1     
   26   13   15 1     
   27   13   34 1     
   28   14   35 1     
   29   15   24 ar    
   30   15   16 ar    
   31   16   17 ar    
   32   16   36 1     
   33   17   18 ar    
   34   17   37 1     
   35   18   19 1     
   36   18   23 ar    
   37   19   20 1     
   38   20   21 1     
   39   20   22 1     
   40   20   38 1     
   41   23   24 ar    
   42   23   39 1     
   43   24   40 1     
   44    1   42 1     
   45    1   43 1     
   46   14   44 1     
   47   14   45 1     
   48   19   46 1     
   49   19   47 1     
@<TRIPOS>SUBSTRUCTURE
      1 S1             1
@<TRIPOS>SET
LONE_PAIRS      STATIC     ATOMS    <user>   **** ""
6 42 43 44 45 46 47
DONOR_HYDROGENS      STATIC     ATOMS    <user>   **** ""
3 25 41 35
ATOM$BLUE        STATIC     ATOMS    COLORGROUP SYSTEM
6 42 43 44 45 46 47
ATOM$RED        STATIC     ATOMS    COLORGROUP SYSTEM
3 25 41 35
