AV-unprocessed.smi:2391|AV-procd|sdf|9482|dock7
  -GOLD-   2272013113D 1   1.00000     0.00000
 Structure written by MMmdl.
 35 36  0  0  0  0  0  0  0  0  1 V2000
  146.2838  136.7468  155.3582 O   0  0  0  0  0  0  0  0  0  0  0  0
  147.0925  136.6205  154.4387 C   0  0  0  0  0  0  0  0  0  0  0  0
  147.8805  137.5983  153.9588 N   0  0  0  0  0  0  0  0  0  0  0  0
  147.9528  138.9513  154.3827 C   0  0  0  0  0  0  0  0  0  0  0  0
  149.2173  139.5618  154.2408 C   0  0  0  0  0  0  0  0  0  0  0  0
  149.3590  140.9020  154.6389 C   0  0  0  0  0  0  0  0  0  0  0  0
  148.2204  141.5438  155.1552 C   0  0  0  0  0  0  0  0  0  0  0  0
  147.0286  140.9198  155.2741 N   0  0  0  0  0  0  0  0  0  0  0  0
  146.9009  139.6442  154.8926 N   0  0  0  0  0  0  0  0  0  0  0  0
  147.2952  135.4703  153.7795 N   0  0  0  0  0  0  0  0  0  0  0  0
  146.6236  134.1956  154.0436 C   0  0  1  0  0  0  0  0  0  0  0  0
  145.5123  133.9635  152.9867 C   0  0  0  0  0  0  0  0  0  0  0  0
  145.9554  134.2062  151.5380 C   0  0  0  0  0  0  0  0  0  0  0  0
  144.6519  134.3412  150.7508 C   0  0  0  0  0  0  0  0  0  0  0  0
  143.6309  134.9263  151.7346 C   0  0  0  0  0  0  0  0  0  0  0  0
  144.2867  134.8782  153.1218 C   0  0  0  0  0  0  0  0  0  0  0  0
  147.6895  133.0770  154.0876 C   0  0  0  0  0  0  0  0  0  0  0  0
  148.5640  133.3259  155.0636 F   0  0  0  0  0  0  0  0  0  0  0  0
  147.1324  131.8925  154.3353 F   0  0  0  0  0  0  0  0  0  0  0  0
  148.3493  133.0115  152.9305 F   0  0  0  0  0  0  0  0  0  0  0  0
  148.4982  137.3470  153.2013 H   0  0  0  0  0  0  0  0  0  0  0  0
  150.0595  139.0192  153.8366 H   0  0  0  0  0  0  0  0  0  0  0  0
  150.3035  141.4182  154.5514 H   0  0  0  0  0  0  0  0  0  0  0  0
  148.2643  142.5733  155.4781 H   0  0  0  0  0  0  0  0  0  0  0  0
  147.9820  135.4663  153.0398 H   0  0  0  0  0  0  0  0  0  0  0  0
  146.1517  134.2300  155.0273 H   0  0  0  0  0  0  0  0  0  0  0  0
  145.1688  132.9301  153.0568 H   0  0  0  0  0  0  0  0  0  0  0  0
  146.5201  135.1375  151.4722 H   0  0  0  0  0  0  0  0  0  0  0  0
  146.5877  133.4075  151.1490 H   0  0  0  0  0  0  0  0  0  0  0  0
  144.7727  134.9585  149.8602 H   0  0  0  0  0  0  0  0  0  0  0  0
  144.3190  133.3553  150.4239 H   0  0  0  0  0  0  0  0  0  0  0  0
  143.3698  135.9518  151.4708 H   0  0  0  0  0  0  0  0  0  0  0  0
  142.7103  134.3416  151.7163 H   0  0  0  0  0  0  0  0  0  0  0  0
  143.5913  134.5271  153.8846 H   0  0  0  0  0  0  0  0  0  0  0  0
  144.6023  135.8838  153.4034 H   0  0  0  0  0  0  0  0  0  0  0  0
  1  2  2  0  0  0  0
  2  3  1  0  0  0  0
  2 10  1  0  0  0  0
  3  4  1  0  0  0  0
  3 21  1  0  0  0  0
  4  9  1  0  0  0  0
  4  5  2  0  0  0  0
  5  6  1  0  0  0  0
  5 22  1  0  0  0  0
  6  7  2  0  0  0  0
  6 23  1  0  0  0  0
  7  8  1  0  0  0  0
  7 24  1  0  0  0  0
  8  9  2  0  0  0  0
 10 11  1  0  0  0  0
 10 25  1  0  0  0  0
 11 12  1  0  0  0  0
 11 17  1  0  0  0  0
 11 26  1  0  0  0  0
 12 16  1  0  0  0  0
 12 13  1  0  0  0  0
 12 27  1  0  0  0  0
 13 14  1  0  0  0  0
 13 28  1  0  0  0  0
 13 29  1  0  0  0  0
 14 15  1  0  0  0  0
 14 30  1  0  0  0  0
 14 31  1  0  0  0  0
 15 16  1  0  0  0  0
 15 32  1  0  0  0  0
 15 33  1  0  0  0  0
 16 34  1  0  0  0  0
 16 35  1  0  0  0  0
 17 18  1  0  0  0  0
 17 19  1  0  0  0  0
 17 20  1  0  0  0  0
M  END
> <s_m_source_file>
AV-unprocessed.smi

> <i_m_source_file_index>
2391

> <i_lp_mmshare_version>
43012

> <i_f3d_flags>
0

> <s_epik_input>
W0NIMl0xW0NIMl1bQ0gyXVtDSDJdW0NIXTFbQ0BIXShDKEYpKEYpRilbTkhdQyg9TylbTkhdYzJbY0hdW2NIXVtjSF1ubjI=

> <s_epik_cmdline>
J2VwaWtfcHl0aG9uJywgJy1waCcsICc3LjAnLCAnLXRuJywgJzgnLCAnLW1hJywgJzIwMCcsICctbWV0YWxfYmluZGluZycsICctaW1hZScsICc8aW5maWxlLm1hZT4nLCAnLW9tYWUnLCAnPG91dGZpbGUubWFlPic=

> <r_lp_tautomer_probability>
1

> <r_epik_Ionization_Penalty>
0.00359591

> <r_epik_Ionization_Penalty_Charging>
0

> <r_epik_Ionization_Penalty_Neutral>
0.00359591

> <r_epik_State_Penalty>
0.0123658

> <r_epik_Charging_Adjusted_Penalty>
0.0123658

> <i_epik_Tot_Q>
0

> <i_epik_Tot_abs_Q>
0

> <r_epik_Metal_State_Penalty>
0.0410426

> <b_epik_Metal_Only>
0

> <s_lp_Force_Field>
OPLS_2005

> <r_lp_Energy>
31.4034

> <b_lp_Chiralities_Consistent>
1

> <s_lp_Variant>
AV-unprocessed.smi:2391-2

> <Gold.Version>
5.8.1

> <Gold.Id.Protein>
6NUR|6NUR_protein|mol2

> <Gold.PLP.Fitness>
34.0052

> <Gold.PLP.PLP>
-25.8177

> <Gold.PLP.part.hbond>
-1.9898

> <Gold.PLP.part.metal>
0.0000

> <Gold.PLP.part.buried>
-1.0412

> <Gold.PLP.part.nonpolar>
-22.8615

> <Gold.PLP.part.repulsive>
0.1328

> <Gold.PLP.ligand.clash>
0.0000

> <Gold.PLP.ligand.torsion>
0.5588

> <Gold.PLP.Chemscore.Hbond>
2.0000

> <Gold.PLP.Chemscore.CHOScore>
1.0000

> <Gold.PLP.Chemscore.Metal>
0.0000

> <Gold.Chemscore.Hbonds>
donor molecule, donor type, donor heavy atom, donor atom, acceptor molecule, acceptor atom, score
      L1  H     3    21       P1  7948  1.00
      L1  H    10    25       P1  7948  1.00
      L1  C     7    24       P1  8028  1.00

> <Gold.PLP.Chemscore.Internal.Correction>
0.3051

> <Gold.Rescore>
     Score         DG    S(hbond)    S(metal)    S(lipo)     H(rot)  DE(clash)    DE(int)     intcor
     12.48     -14.10       1.94        0.00      47.49       1.33       0.00       1.62       ----

> <Gold.Chemscore.Fitness>
12.4799

> <Gold.Chemscore.DG>
-14.1030

> <Gold.Chemscore.ZeroCoef>
-5.4800

> <Gold.Chemscore.Hbond>
1.9379

> <Gold.Chemscore.Metal>
0.0000

> <Gold.Chemscore.Lipo>
47.4868

> <Gold.Chemscore.Internal_Hbond>
0.0000

> <Gold.Chemscore.DEClash>
0.0038

> <Gold.Chemscore.DEInternal>
1.6192

> <Gold.Chemscore.Rot>
1.3304

> <Gold.Chemscore.Internal.Correction>
   9.000000E+99

> <Gold.Chemscore.Hbonds>
donor molecule, donor type, donor heavy atom, donor atom, acceptor molecule, acceptor atom, score
      L1  H     3    21       P1  7948  0.95
      L1  H    10    25       P1  7948  0.98

> <Gold.Chemscore.Hbond.Weighted>
-6.4727

> <Gold.Chemscore.Metal.Weighted>
-0.0000

> <Gold.Chemscore.Lipo.Weighted>
-5.5560

> <Gold.Chemscore.Internal_Hbond.Weighted>
0.0000

> <Gold.Chemscore.DEClash.Weighted>
0.0038

> <Gold.Chemscore.DEInternal.Weighted>
1.6192

> <Gold.Chemscore.Rot.Weighted>
3.4057

> <Gold.Chemscore.Internal.Correction.Weighted>
   9.000000E+99

> <Gold.Protein.RotatedTorsions>
[ 6907 6896 6895 6894 ] final -112.93 input  -60.11 | X-H torsion
[ 7974 7965 7964 7962 ] final  -42.77 input  175.53 | X-H torsion
[ 8008 7997 7996 7995 ] final  -80.24 input   59.86 | X-H torsion
[ 10167 10162 10161 10158 ] final -106.12 input  -65.29 | X-H torsion
[ 10718 10713 10712 10709 ] final -159.84 input   66.30 | X-H torsion
[ 10763 10752 10751 10750 ] final   -2.47 input  -60.55 | X-H torsion
[ 11005 11000 10999 10996 ] final -143.01 input  -57.11 | X-H torsion

> <Gold.Protein.ActiveResidues>
 VAL166  LYS551  ARG553  GLY616  TRP617  ASP618  TYR619  PRO620  LYS621  CYS622 
 ASP623  PHE694  ASN695  SER759  ASP760  ASP761  ALA762  ILE779  LEU786  VAL792 
 PHE793  MET794  SER795  GLU796  ALA797  LYS798  CYS799  TRP800  GLU811  SER814 

> <Gold.Protein.RotatedAtoms>
  150.7793  133.9019  159.3343 H   0  0  0  0  0  0  0  0  0  0  0  0  # atno 6907 bound_to 6896
  151.6885  135.0948  160.0239 H   0  0  0  0  0  0  0  0  0  0  0  0  # atno 6908 bound_to 6896
  152.3839  133.6545  159.6218 H   0  0  0  0  0  0  0  0  0  0  0  0  # atno 6909 bound_to 6896
  146.0083  140.6994  142.9236 H   0  0  0  0  0  0  0  0  0  0  0  0  # atno 7974 bound_to 7965
  154.5863  140.0666  156.9176 H   0  0  0  0  0  0  0  0  0  0  0  0  # atno 8008 bound_to 7997
  155.2373  140.3342  155.4278 H   0  0  0  0  0  0  0  0  0  0  0  0  # atno 8009 bound_to 7997
  156.2225  140.1805  156.7427 H   0  0  0  0  0  0  0  0  0  0  0  0  # atno 8010 bound_to 7997
  140.1912  143.3890  152.1205 H   0  0  0  0  0  0  0  0  0  0  0  0  # atno 10167 bound_to 10162
  156.5737  130.8699  151.2845 H   0  0  0  0  0  0  0  0  0  0  0  0  # atno 10718 bound_to 10713
  153.3585  135.6989  153.6731 H   0  0  0  0  0  0  0  0  0  0  0  0  # atno 10763 bound_to 10752
  153.5430  135.3569  155.2727 H   0  0  0  0  0  0  0  0  0  0  0  0  # atno 10764 bound_to 10752
  154.8664  135.4208  154.2836 H   0  0  0  0  0  0  0  0  0  0  0  0  # atno 10765 bound_to 10752
  140.8168  134.2679  157.4917 H   0  0  0  0  0  0  0  0  0  0  0  0  # atno 11005 bound_to 11000
  144.6944  140.3354  143.7208 LP  0  0  0  0  0  0  0  0  0  0  0  0  # atno 17320 bound_to 7965
  145.7381  139.1756  143.2392 LP  0  0  0  0  0  0  0  0  0  0  0  0  # atno 17321 bound_to 7965
  139.5255  144.7097  151.5246 LP  0  0  0  0  0  0  0  0  0  0  0  0  # atno 17342 bound_to 10162
  140.6454  143.8804  150.6732 LP  0  0  0  0  0  0  0  0  0  0  0  0  # atno 17343 bound_to 10162
  157.7342  130.9743  150.2018 LP  0  0  0  0  0  0  0  0  0  0  0  0  # atno 17370 bound_to 10713
  156.2692  130.3720  149.8049 LP  0  0  0  0  0  0  0  0  0  0  0  0  # atno 17371 bound_to 10713
  139.8710  134.9513  156.4082 LP  0  0  0  0  0  0  0  0  0  0  0  0  # atno 17394 bound_to 11000
  140.9141  133.7691  155.9826 LP  0  0  0  0  0  0  0  0  0  0  0  0  # atno 17395 bound_to 11000

$$$$
