AV-unprocessed.smi:3029|AV-procd|sdf|11530|dock10
  -GOLD-   2272016473D 1   1.00000     0.00000
 Structure written by MMmdl.
 41 42  0  0  0  0  0  0  0  0  3 V2000
  150.9521  139.9100  154.4776 O   0  0  0  0  0  0  0  0  0  0  0  0
  151.4031  139.4180  155.5121 C   0  0  0  0  0  0  0  0  0  0  0  0
  152.3941  138.3374  155.4871 C   0  0  0  0  0  0  0  0  0  0  0  0
  152.8766  137.7920  156.6208 C   0  0  0  0  0  0  0  0  0  0  0  0
  152.4240  138.2648  157.9146 C   0  0  0  0  0  0  0  0  0  0  0  0
  152.9228  137.6755  159.1376 N   0  3  0  0  0  0  0  0  0  0  0  0
  152.1384  137.0950  159.8821 O   0  0  0  0  0  0  0  0  0  0  0  0
  154.1185  137.7744  159.3932 O   0  5  0  0  0  0  0  0  0  0  0  0
  151.5188  139.2627  157.9351 C   0  0  0  0  0  0  0  0  0  0  0  0
  151.0104  139.8369  156.7540 N   0  0  0  0  0  0  0  0  0  0  0  0
  150.0013  140.8947  156.9179 C   0  0  0  0  0  0  0  0  0  0  0  0
  150.6443  142.2545  157.2459 C   0  0  0  0  0  0  0  0  0  0  0  0
  151.3081  142.2033  158.5404 N   0  0  0  0  0  0  0  0  0  0  0  0
  152.5346  142.9938  158.5689 C   0  0  1  0  0  0  0  0  0  0  0  0
  152.2304  144.3834  157.9696 C   0  0  0  0  0  0  0  0  0  0  0  0
  151.3907  145.2670  158.9092 C   0  0  0  0  0  0  0  0  0  0  0  0
  152.0307  145.3787  160.2991 C   0  0  0  0  0  0  0  0  0  0  0  0
  152.2665  143.9910  160.9134 C   0  0  0  0  0  0  0  0  0  0  0  0
  153.1393  143.1059  159.9976 C   0  0  1  0  0  0  0  0  0  0  0  0
  153.5176  141.7601  160.6578 C   0  0  0  0  0  0  0  0  0  0  0  0
  152.5208  140.8777  160.5898 F   0  0  0  0  0  0  0  0  0  0  0  0
  154.5977  141.2475  160.0686 F   0  0  0  0  0  0  0  0  0  0  0  0
  153.8094  141.9622  161.9427 F   0  0  0  0  0  0  0  0  0  0  0  0
  152.7443  137.9696  154.5339 H   0  0  0  0  0  0  0  0  0  0  0  0
  153.6046  136.9970  156.5507 H   0  0  0  0  0  0  0  0  0  0  0  0
  151.1119  139.6813  158.8445 H   0  0  0  0  0  0  0  0  0  0  0  0
  149.4393  140.9855  155.9873 H   0  0  0  0  0  0  0  0  0  0  0  0
  149.2517  140.6384  157.6686 H   0  0  0  0  0  0  0  0  0  0  0  0
  151.3463  142.5386  156.4626 H   0  0  0  0  0  0  0  0  0  0  0  0
  149.8735  143.0253  157.2798 H   0  0  0  0  0  0  0  0  0  0  0  0
  150.6728  142.5326  159.2534 H   0  0  0  0  0  0  0  0  0  0  0  0
  153.2722  142.5219  157.9178 H   0  0  0  0  0  0  0  0  0  0  0  0
  153.1743  144.8907  157.7664 H   0  0  0  0  0  0  0  0  0  0  0  0
  151.7322  144.2834  157.0042 H   0  0  0  0  0  0  0  0  0  0  0  0
  151.2717  146.2601  158.4753 H   0  0  0  0  0  0  0  0  0  0  0  0
  150.3859  144.8530  159.0043 H   0  0  0  0  0  0  0  0  0  0  0  0
  152.9787  145.9128  160.2243 H   0  0  0  0  0  0  0  0  0  0  0  0
  151.3930  145.9719  160.9550 H   0  0  0  0  0  0  0  0  0  0  0  0
  152.7425  144.1073  161.8872 H   0  0  0  0  0  0  0  0  0  0  0  0
  151.3086  143.5031  161.0979 H   0  0  0  0  0  0  0  0  0  0  0  0
  154.0829  143.6399  159.8722 H   0  0  0  0  0  0  0  0  0  0  0  0
  1  2  2  0  0  0  0
  2 10  1  0  0  0  0
  2  3  1  0  0  0  0
  3  4  2  0  0  0  0
  3 24  1  0  0  0  0
  4  5  1  0  0  0  0
  4 25  1  0  0  0  0
  5  6  1  0  0  0  0
  5  9  2  0  0  0  0
  6  7  2  0  0  0  0
  6  8  1  0  0  0  0
  9 10  1  0  0  0  0
  9 26  1  0  0  0  0
 10 11  1  0  0  0  0
 11 12  1  0  0  0  0
 11 27  1  0  0  0  0
 11 28  1  0  0  0  0
 12 13  1  0  0  0  0
 12 29  1  0  0  0  0
 12 30  1  0  0  0  0
 13 14  1  0  0  0  0
 13 31  1  0  0  0  0
 14 19  1  0  0  0  0
 14 15  1  0  0  0  0
 14 32  1  0  0  0  0
 15 16  1  0  0  0  0
 15 33  1  0  0  0  0
 15 34  1  0  0  0  0
 16 17  1  0  0  0  0
 16 35  1  0  0  0  0
 16 36  1  0  0  0  0
 17 18  1  0  0  0  0
 17 37  1  0  0  0  0
 17 38  1  0  0  0  0
 18 19  1  0  0  0  0
 18 39  1  0  0  0  0
 18 40  1  0  0  0  0
 19 20  1  0  0  0  0
 19 41  1  0  0  0  0
 20 21  1  0  0  0  0
 20 22  1  0  0  0  0
 20 23  1  0  0  0  0
M  CHG  1   6   1
M  CHG  1   8  -1
M  END
> <s_m_source_file>
AV-unprocessed.smi

> <i_m_source_file_index>
3029

> <i_lp_mmshare_version>
43012

> <i_f3d_flags>
0

> <s_epik_input>
Tz1jMVtjSF1bY0hdYyhbTitdKD1PKVtPLV0pW2NIXW4xW0NIMl1bQ0gyXVtOSF1bQ0BASF0yW0NIMl1bQ0gyXVtDSDJdW0NIMl1bQ0BIXTJDKEYpKEYpRg==

> <s_epik_cmdline>
J2VwaWtfcHl0aG9uJywgJy1waCcsICc3LjAnLCAnLXRuJywgJzgnLCAnLW1hJywgJzIwMCcsICctbWV0YWxfYmluZGluZycsICctaW1hZScsICc8aW5maWxlLm1hZT4nLCAnLW9tYWUnLCAnPG91dGZpbGUubWFlPic=

> <r_lp_tautomer_probability>
1

> <r_epik_Ionization_Penalty>
1.65565

> <r_epik_Ionization_Penalty_Charging>
3.32684e-10

> <r_epik_Ionization_Penalty_Neutral>
1.65565

> <r_epik_State_Penalty>
1.75811

> <r_epik_Charging_Adjusted_Penalty>
1.75811

> <i_epik_Tot_Q>
0

> <i_epik_Tot_abs_Q>
2

> <r_epik_Metal_State_Penalty>
1.75811

> <b_epik_Metal_Only>
0

> <s_lp_Force_Field>
OPLS_2005

> <r_lp_Energy>
39.0204

> <b_lp_Chiralities_Consistent>
1

> <s_lp_Variant>
AV-unprocessed.smi:3029-6

> <Gold.Version>
5.8.1

> <Gold.Id.Protein>
6NUR|6NUR_protein|mol2

> <Gold.PLP.Fitness>
53.4603

> <Gold.PLP.PLP>
-51.8848

> <Gold.PLP.part.hbond>
-1.9166

> <Gold.PLP.part.metal>
0.0000

> <Gold.PLP.part.buried>
-6.6412

> <Gold.PLP.part.nonpolar>
-44.2871

> <Gold.PLP.part.repulsive>
0.0969

> <Gold.PLP.ligand.clash>
0.0431

> <Gold.PLP.ligand.torsion>
2.1450

> <Gold.PLP.Chemscore.Hbond>
1.9263

> <Gold.PLP.Chemscore.CHOScore>
0.0000

> <Gold.PLP.Chemscore.Metal>
0.0000

> <Gold.Chemscore.Hbonds>
donor molecule, donor type, donor heavy atom, donor atom, acceptor molecule, acceptor atom, score
      P1  H  6896  6909       L1     7  1.00
      P1  H  7989  7998       L1     1  0.99

> <Gold.PLP.Chemscore.Internal.Correction>
0.1298

> <Gold.Rescore>
     Score         DG    S(hbond)    S(metal)    S(lipo)     H(rot)  DE(clash)    DE(int)     intcor
     16.55     -21.06       1.98        0.00     117.40       1.86       0.05       4.47       ----

> <Gold.Chemscore.Fitness>
16.5455

> <Gold.Chemscore.DG>
-21.0588

> <Gold.Chemscore.ZeroCoef>
-5.4800

> <Gold.Chemscore.Hbond>
1.9762

> <Gold.Chemscore.Metal>
0.0000

> <Gold.Chemscore.Lipo>
117.4002

> <Gold.Chemscore.Internal_Hbond>
0.0000

> <Gold.Chemscore.DEClash>
0.0476

> <Gold.Chemscore.DEInternal>
4.4657

> <Gold.Chemscore.Rot>
1.8584

> <Gold.Chemscore.Internal.Correction>
   9.000000E+99

> <Gold.Chemscore.Hbonds>
donor molecule, donor type, donor heavy atom, donor atom, acceptor molecule, acceptor atom, score
      P1  H  6896  6909       L1     7  0.97
      P1  H  7989  7998       L1     1  0.92

> <Gold.Chemscore.Hbond.Weighted>
-6.6005

> <Gold.Chemscore.Metal.Weighted>
-0.0000

> <Gold.Chemscore.Lipo.Weighted>
-13.7358

> <Gold.Chemscore.Internal_Hbond.Weighted>
0.0000

> <Gold.Chemscore.DEClash.Weighted>
0.0476

> <Gold.Chemscore.DEInternal.Weighted>
4.4657

> <Gold.Chemscore.Rot.Weighted>
4.7576

> <Gold.Chemscore.Internal.Correction.Weighted>
   9.000000E+99

> <Gold.Protein.RotatedTorsions>
[ 6907 6896 6895 6894 ] final  129.76 input  -60.11 | X-H torsion
[ 7974 7965 7964 7962 ] final  171.38 input  175.53 | X-H torsion
[ 8008 7997 7996 7995 ] final   42.74 input   59.86 | X-H torsion
[ 10167 10162 10161 10158 ] final -116.52 input  -65.29 | X-H torsion
[ 10718 10713 10712 10709 ] final  -91.62 input   66.30 | X-H torsion
[ 10763 10752 10751 10750 ] final   43.58 input  -60.55 | X-H torsion
[ 11005 11000 10999 10996 ] final -169.25 input  -57.11 | X-H torsion

> <Gold.Protein.ActiveResidues>
 VAL166  LYS551  ARG553  GLY616  TRP617  ASP618  TYR619  PRO620  LYS621  CYS622 
 ASP623  PHE694  ASN695  SER759  ASP760  ASP761  ALA762  ILE779  LEU786  VAL792 
 PHE793  MET794  SER795  GLU796  ALA797  LYS798  CYS799  TRP800  GLU811  SER814 

> <Gold.Protein.RotatedAtoms>
  152.3593  133.6276  159.6002 H   0  0  0  0  0  0  0  0  0  0  0  0  # atno 6907 bound_to 6896
  150.7590  133.9450  159.3476 H   0  0  0  0  0  0  0  0  0  0  0  0  # atno 6908 bound_to 6896
  151.7290  135.0879  160.0348 H   0  0  0  0  0  0  0  0  0  0  0  0  # atno 6909 bound_to 6896
  144.7296  139.9342  143.6426 H   0  0  0  0  0  0  0  0  0  0  0  0  # atno 7974 bound_to 7965
  155.2911  140.3379  155.4252 H   0  0  0  0  0  0  0  0  0  0  0  0  # atno 8008 bound_to 7997
  156.2045  140.1746  156.7868 H   0  0  0  0  0  0  0  0  0  0  0  0  # atno 8009 bound_to 7997
  154.5603  140.0688  156.8792 H   0  0  0  0  0  0  0  0  0  0  0  0  # atno 8010 bound_to 7997
  140.0783  143.4812  152.1940 H   0  0  0  0  0  0  0  0  0  0  0  0  # atno 10167 bound_to 10162
  155.9995  130.4955  150.5501 H   0  0  0  0  0  0  0  0  0  0  0  0  # atno 10718 bound_to 10713
  152.9858  135.6097  154.3134 H   0  0  0  0  0  0  0  0  0  0  0  0  # atno 10763 bound_to 10752
  154.2848  135.2776  155.2683 H   0  0  0  0  0  0  0  0  0  0  0  0  # atno 10764 bound_to 10752
  154.5005  135.5868  153.6584 H   0  0  0  0  0  0  0  0  0  0  0  0  # atno 10765 bound_to 10752
  140.5329  134.5598  157.5079 H   0  0  0  0  0  0  0  0  0  0  0  0  # atno 11005 bound_to 11000
  146.0834  139.3822  143.0450 LP  0  0  0  0  0  0  0  0  0  0  0  0  # atno 17320 bound_to 7965
  145.7810  140.9856  143.1099 LP  0  0  0  0  0  0  0  0  0  0  0  0  # atno 17321 bound_to 7965
  139.5795  144.7503  151.3678 LP  0  0  0  0  0  0  0  0  0  0  0  0  # atno 17342 bound_to 10162
  140.7091  143.7438  150.7534 LP  0  0  0  0  0  0  0  0  0  0  0  0  # atno 17343 bound_to 10162
  157.3426  131.0719  151.1776 LP  0  0  0  0  0  0  0  0  0  0  0  0  # atno 17370 bound_to 10713
  157.2620  130.6663  149.5979 LP  0  0  0  0  0  0  0  0  0  0  0  0  # atno 17371 bound_to 10713
  139.9545  134.7560  156.0374 LP  0  0  0  0  0  0  0  0  0  0  0  0  # atno 17394 bound_to 11000
  141.1271  133.6596  156.3366 LP  0  0  0  0  0  0  0  0  0  0  0  0  # atno 17395 bound_to 11000

$$$$
