AV-unprocessed.smi:1767|AV-procd|sdf|7140|dock3
  -GOLD-   22720 8383D 1   1.00000     0.00000
 Structure written by MMmdl.
 32 34  0  0  0  0  0  0  0  0  1 V2000
  153.2667  139.8205  158.3485 O   0  0  0  0  0  0  0  0  0  0  0  0
  152.4691  140.9546  158.6202 C   0  0  1  0  0  0  0  0  0  0  0  0
  150.9907  140.5674  158.4180 C   0  0  0  0  0  0  0  0  0  0  0  0
  150.6069  140.5777  157.0177 N   0  0  0  0  0  0  0  0  0  0  0  0
  151.3236  140.1037  155.9807 C   0  0  0  0  0  0  0  0  0  0  0  0
  150.7928  140.2223  154.7673 N   0  0  0  0  0  0  0  0  0  0  0  0
  149.5893  140.8457  155.0488 C   0  0  0  0  0  0  0  0  0  0  0  0
  148.5490  141.2618  154.1874 C   0  0  0  0  0  0  0  0  0  0  0  0
  147.3991  141.8913  154.7080 C   0  0  0  0  0  0  0  0  0  0  0  0
  147.2712  142.1132  156.0945 C   0  0  0  0  0  0  0  0  0  0  0  0
  148.2936  141.7056  156.9726 C   0  0  0  0  0  0  0  0  0  0  0  0
  149.4404  141.0795  156.4494 C   0  0  0  0  0  0  0  0  0  0  0  0
  152.7323  141.5249  160.0074 C   0  0  0  0  0  0  0  0  0  0  0  0
  153.6196  140.8637  160.8838 C   0  0  0  0  0  0  0  0  0  0  0  0
  153.8927  141.4006  162.1567 C   0  0  0  0  0  0  0  0  0  0  0  0
  153.2793  142.6017  162.5613 C   0  0  0  0  0  0  0  0  0  0  0  0
  153.5437  143.1194  163.7842 F   0  0  0  0  0  0  0  0  0  0  0  0
  152.3919  143.2652  161.6924 C   0  0  0  0  0  0  0  0  0  0  0  0
  152.1190  142.7290  160.4192 C   0  0  0  0  0  0  0  0  0  0  0  0
  153.1013  139.1721  159.0162 H   0  0  0  0  0  0  0  0  0  0  0  0
  152.7423  141.7053  157.8773 H   0  0  0  0  0  0  0  0  0  0  0  0
  150.8114  139.5625  158.8033 H   0  0  0  0  0  0  0  0  0  0  0  0
  150.3310  141.2353  158.9737 H   0  0  0  0  0  0  0  0  0  0  0  0
  152.2930  139.6495  156.1254 H   0  0  0  0  0  0  0  0  0  0  0  0
  148.6364  141.0976  153.1236 H   0  0  0  0  0  0  0  0  0  0  0  0
  146.6110  142.2060  154.0395 H   0  0  0  0  0  0  0  0  0  0  0  0
  146.3878  142.5975  156.4842 H   0  0  0  0  0  0  0  0  0  0  0  0
  148.1995  141.8774  158.0344 H   0  0  0  0  0  0  0  0  0  0  0  0
  154.1036  139.9476  160.5781 H   0  0  0  0  0  0  0  0  0  0  0  0
  154.5759  140.8926  162.8212 H   0  0  0  0  0  0  0  0  0  0  0  0
  151.9234  144.1880  162.0009 H   0  0  0  0  0  0  0  0  0  0  0  0
  151.4444  143.2510  159.7562 H   0  0  0  0  0  0  0  0  0  0  0  0
  1  2  1  0  0  0  0
  1 20  1  0  0  0  0
  2  3  1  0  0  0  0
  2 13  1  0  0  0  0
  2 21  1  0  0  0  0
  3  4  1  0  0  0  0
  3 22  1  0  0  0  0
  3 23  1  0  0  0  0
  4 12  1  0  0  0  0
  4  5  1  0  0  0  0
  5  6  2  0  0  0  0
  5 24  1  0  0  0  0
  6  7  1  0  0  0  0
  7 12  2  0  0  0  0
  7  8  1  0  0  0  0
  8  9  2  0  0  0  0
  8 25  1  0  0  0  0
  9 10  1  0  0  0  0
  9 26  1  0  0  0  0
 10 11  2  0  0  0  0
 10 27  1  0  0  0  0
 11 12  1  0  0  0  0
 11 28  1  0  0  0  0
 13 19  1  0  0  0  0
 13 14  2  0  0  0  0
 14 15  1  0  0  0  0
 14 29  1  0  0  0  0
 15 16  2  0  0  0  0
 15 30  1  0  0  0  0
 16 17  1  0  0  0  0
 16 18  1  0  0  0  0
 18 19  2  0  0  0  0
 18 31  1  0  0  0  0
 19 32  1  0  0  0  0
M  END
> <s_m_source_file>
AV-unprocessed.smi

> <i_m_source_file_index>
1767

> <i_lp_mmshare_version>
43012

> <i_f3d_flags>
0

> <s_epik_input>
W2NIXTFbY0hdYyhGKVtjSF1bY0hdYzFbQ0BIXShbT0hdKVtDSDJdbihbY0hdbjIpYyhjMjMpW2NIXVtjSF1bY0hdW2NIXTM=

> <s_epik_cmdline>
J2VwaWtfcHl0aG9uJywgJy1waCcsICc3LjAnLCAnLXRuJywgJzgnLCAnLW1hJywgJzIwMCcsICctbWV0YWxfYmluZGluZycsICctaW1hZScsICc8aW5maWxlLm1hZT4nLCAnLW9tYWUnLCAnPG91dGZpbGUubWFlPic=

> <r_epik_Ionization_Penalty>
0.0696514

> <r_epik_Ionization_Penalty_Charging>
0

> <r_epik_Ionization_Penalty_Neutral>
0.0696514

> <r_epik_State_Penalty>
0.0610247

> <r_epik_Charging_Adjusted_Penalty>
0.0610247

> <i_epik_Tot_Q>
0

> <i_epik_Tot_abs_Q>
0

> <r_epik_Metal_State_Penalty>
6.42746e-05

> <b_epik_Metal_Only>
0

> <s_lp_Force_Field>
OPLS_2005

> <r_lp_Energy>
11.9243

> <b_lp_Chiralities_Consistent>
1

> <s_lp_Variant>
AV-unprocessed.smi:1767-2

> <Gold.Version>
5.8.1

> <Gold.Id.Protein>
6NUR|6NUR_protein|mol2

> <Gold.PLP.Fitness>
52.1875

> <Gold.PLP.PLP>
-47.1584

> <Gold.PLP.part.hbond>
-2.0000

> <Gold.PLP.part.metal>
0.0000

> <Gold.PLP.part.buried>
-3.6833

> <Gold.PLP.part.nonpolar>
-40.0387

> <Gold.PLP.part.repulsive>
0.0910

> <Gold.PLP.ligand.clash>
0.0000

> <Gold.PLP.ligand.torsion>
0.4981

> <Gold.PLP.Chemscore.Hbond>
2.0000

> <Gold.PLP.Chemscore.CHOScore>
0.0000

> <Gold.PLP.Chemscore.Metal>
0.0000

> <Gold.Chemscore.Hbonds>
donor molecule, donor type, donor heavy atom, donor atom, acceptor molecule, acceptor atom, score
      P1  H  7989  7998       L1     6  1.00
      P1  H  7997  8008       L1     1  1.00

> <Gold.PLP.Chemscore.Internal.Correction>
0.0254

> <Gold.Rescore>
     Score         DG    S(hbond)    S(metal)    S(lipo)     H(rot)  DE(clash)    DE(int)     intcor
     18.84     -19.30       1.87        0.00     106.55       1.91       0.01       0.45       ----

> <Gold.Chemscore.Fitness>
18.8449

> <Gold.Chemscore.DG>
-19.3041

> <Gold.Chemscore.ZeroCoef>
-5.4800

> <Gold.Chemscore.Hbond>
1.8719

> <Gold.Chemscore.Metal>
0.0000

> <Gold.Chemscore.Lipo>
106.5459

> <Gold.Chemscore.Internal_Hbond>
0.0000

> <Gold.Chemscore.DEClash>
0.0073

> <Gold.Chemscore.DEInternal>
0.4519

> <Gold.Chemscore.Rot>
1.9116

> <Gold.Chemscore.Internal.Correction>
   9.000000E+99

> <Gold.Chemscore.Hbonds>
donor molecule, donor type, donor heavy atom, donor atom, acceptor molecule, acceptor atom, score
      P1  H  7989  7998       L1     6  0.89
      P1  H  7997  8008       L1     1  0.80

> <Gold.Chemscore.Hbond.Weighted>
-6.2520

> <Gold.Chemscore.Metal.Weighted>
-0.0000

> <Gold.Chemscore.Lipo.Weighted>
-12.4659

> <Gold.Chemscore.Internal_Hbond.Weighted>
0.0000

> <Gold.Chemscore.DEClash.Weighted>
0.0073

> <Gold.Chemscore.DEInternal.Weighted>
0.4519

> <Gold.Chemscore.Rot.Weighted>
4.8937

> <Gold.Chemscore.Internal.Correction.Weighted>
   9.000000E+99

> <Gold.Protein.RotatedTorsions>
[ 6907 6896 6895 6894 ] final  -80.54 input  -60.11 | X-H torsion
[ 7974 7965 7964 7962 ] final -154.91 input  175.53 | X-H torsion
[ 8008 7997 7996 7995 ] final  -73.10 input   59.86 | X-H torsion
[ 10167 10162 10161 10158 ] final  135.95 input  -65.29 | X-H torsion
[ 10718 10713 10712 10709 ] final   -7.70 input   66.30 | X-H torsion
[ 10763 10752 10751 10750 ] final  -16.00 input  -60.55 | X-H torsion
[ 11005 11000 10999 10996 ] final  -94.65 input  -57.11 | X-H torsion

> <Gold.Protein.ActiveResidues>
 VAL166  LYS551  ARG553  GLY616  TRP617  ASP618  TYR619  PRO620  LYS621  CYS622 
 ASP623  PHE694  ASN695  SER759  ASP760  ASP761  ALA762  ILE779  LEU786  VAL792 
 PHE793  MET794  SER795  GLU796  ALA797  LYS798  CYS799  TRP800  GLU811  SER814 

> <Gold.Protein.RotatedAtoms>
  150.6927  134.3953  159.5094 H   0  0  0  0  0  0  0  0  0  0  0  0  # atno 6907 bound_to 6896
  152.1735  134.8811  160.0541 H   0  0  0  0  0  0  0  0  0  0  0  0  # atno 6908 bound_to 6896
  151.9828  133.3729  159.4151 H   0  0  0  0  0  0  0  0  0  0  0  0  # atno 6909 bound_to 6896
  144.7666  140.4323  143.5937 H   0  0  0  0  0  0  0  0  0  0  0  0  # atno 7974 bound_to 7965
  154.5220  140.0785  156.8189 H   0  0  0  0  0  0  0  0  0  0  0  0  # atno 8008 bound_to 7997
  155.3556  140.3415  155.4222 H   0  0  0  0  0  0  0  0  0  0  0  0  # atno 8009 bound_to 7997
  156.1691  140.1614  156.8466 H   0  0  0  0  0  0  0  0  0  0  0  0  # atno 8010 bound_to 7997
  139.5198  144.6490  151.5357 H   0  0  0  0  0  0  0  0  0  0  0  0  # atno 10167 bound_to 10162
  156.7134  130.5129  149.5886 H   0  0  0  0  0  0  0  0  0  0  0  0  # atno 10718 bound_to 10713
  153.5519  135.7011  153.5587 H   0  0  0  0  0  0  0  0  0  0  0  0  # atno 10763 bound_to 10752
  153.3508  135.3996  155.1644 H   0  0  0  0  0  0  0  0  0  0  0  0  # atno 10764 bound_to 10752
  154.8660  135.3765  154.5030 H   0  0  0  0  0  0  0  0  0  0  0  0  # atno 10765 bound_to 10752
  141.1464  133.7970  157.0326 H   0  0  0  0  0  0  0  0  0  0  0  0  # atno 11005 bound_to 11000
  145.6451  139.1556  143.2893 LP  0  0  0  0  0  0  0  0  0  0  0  0  # atno 17320 bound_to 7965
  146.1778  140.6545  142.9203 LP  0  0  0  0  0  0  0  0  0  0  0  0  # atno 17321 bound_to 7965
  140.6287  143.9119  150.6586 LP  0  0  0  0  0  0  0  0  0  0  0  0  # atno 17342 bound_to 10162
  140.2416  143.3660  152.1482 LP  0  0  0  0  0  0  0  0  0  0  0  0  # atno 17343 bound_to 10162
  156.1645  130.6396  151.0760 LP  0  0  0  0  0  0  0  0  0  0  0  0  # atno 17370 bound_to 10713
  157.6927  131.0804  150.7061 LP  0  0  0  0  0  0  0  0  0  0  0  0  # atno 17371 bound_to 10713
  140.0744  134.9684  157.1521 LP  0  0  0  0  0  0  0  0  0  0  0  0  # atno 17394 bound_to 11000
  140.3665  134.2437  155.7182 LP  0  0  0  0  0  0  0  0  0  0  0  0  # atno 17395 bound_to 11000

$$$$
