AV-unprocessed.smi:2107|AV-procd|sdf|8602|dock1
  -GOLD-   2272011343D 1   1.00000     0.00000
 Structure written by MMmdl.
 45 46  0  0  0  0  0  0  0  0  2 V2000
  144.3883  134.4010  163.0927 C   0  0  0  0  0  0  0  0  0  0  0  0
  145.0563  134.9110  161.8072 C   0  0  0  0  0  0  0  0  0  0  0  0
  146.5076  135.1287  161.9699 N   0  0  0  0  0  0  0  0  0  0  0  0
  147.3115  133.9923  162.4650 C   0  0  0  0  0  0  0  0  0  0  0  0
  147.9768  133.1897  161.3370 C   0  0  0  0  0  0  0  0  0  0  0  0
  147.2677  136.5855  161.3757 S   0  0  0  0  0  0  0  0  0  0  0  0
  146.1776  137.5643  161.2417 O   0  0  0  0  0  0  0  0  0  0  0  0
  148.3529  136.9052  162.3199 O   0  0  0  0  0  0  0  0  0  0  0  0
  147.7599  136.0333  159.9234 N   0  5  0  0  0  0  0  0  0  0  0  0
  148.9539  136.5439  159.2647 C   0  0  0  0  0  0  0  0  0  0  0  0
  148.9939  136.1415  157.7840 C   0  0  0  0  0  0  0  0  0  0  0  0
  148.3423  134.9417  157.4064 C   0  0  0  0  0  0  0  0  0  0  0  0
  148.3526  134.5334  156.0609 C   0  0  0  0  0  0  0  0  0  0  0  0
  149.0205  135.3409  155.1271 C   0  0  0  0  0  0  0  0  0  0  0  0
  149.6489  136.4851  155.4595 N   0  0  0  0  0  0  0  0  0  0  0  0
  149.6505  136.8922  156.7550 C   0  0  0  0  0  0  0  0  0  0  0  0
  150.3353  138.1022  157.0028 N   0  0  0  0  0  0  0  0  0  0  0  0
  151.3349  138.0101  158.0614 C   0  0  0  0  0  0  0  0  0  0  0  0
  151.9596  139.3907  158.3290 C   0  0  0  0  0  0  0  0  0  0  0  0
  152.4888  139.9217  157.1177 O   0  0  0  0  0  0  0  0  0  0  0  0
  151.4809  140.0924  156.1254 C   0  0  0  0  0  0  0  0  0  0  0  0
  150.8496  138.7301  155.7917 C   0  0  0  0  0  0  0  0  0  0  0  0
  143.3083  134.3339  162.9638 H   0  0  0  0  0  0  0  0  0  0  0  0
  144.5806  135.0617  163.9363 H   0  0  0  0  0  0  0  0  0  0  0  0
  144.7455  133.4065  163.3600 H   0  0  0  0  0  0  0  0  0  0  0  0
  144.8952  134.1942  161.0021 H   0  0  0  0  0  0  0  0  0  0  0  0
  144.5799  135.8358  161.4807 H   0  0  0  0  0  0  0  0  0  0  0  0
  148.0798  134.3567  163.1464 H   0  0  0  0  0  0  0  0  0  0  0  0
  146.6684  133.3378  163.0534 H   0  0  0  0  0  0  0  0  0  0  0  0
  148.6285  132.4190  161.7482 H   0  0  0  0  0  0  0  0  0  0  0  0
  148.5868  133.8306  160.7038 H   0  0  0  0  0  0  0  0  0  0  0  0
  147.2443  132.6910  160.7029 H   0  0  0  0  0  0  0  0  0  0  0  0
  149.0051  137.6321  159.3133 H   0  0  0  0  0  0  0  0  0  0  0  0
  149.8670  136.1975  159.7479 H   0  0  0  0  0  0  0  0  0  0  0  0
  147.8309  134.3201  158.1296 H   0  0  0  0  0  0  0  0  0  0  0  0
  147.8614  133.6218  155.7550 H   0  0  0  0  0  0  0  0  0  0  0  0
  149.0510  135.0620  154.0845 H   0  0  0  0  0  0  0  0  0  0  0  0
  150.8708  137.6255  158.9704 H   0  0  0  0  0  0  0  0  0  0  0  0
  152.1170  137.3063  157.7744 H   0  0  0  0  0  0  0  0  0  0  0  0
  151.2275  140.0803  158.7487 H   0  0  0  0  0  0  0  0  0  0  0  0
  152.7638  139.3018  159.0591 H   0  0  0  0  0  0  0  0  0  0  0  0
  150.7262  140.7986  156.4736 H   0  0  0  0  0  0  0  0  0  0  0  0
  151.9318  140.5253  155.2326 H   0  0  0  0  0  0  0  0  0  0  0  0
  151.5949  138.0829  155.3274 H   0  0  0  0  0  0  0  0  0  0  0  0
  150.0396  138.8591  155.0730 H   0  0  0  0  0  0  0  0  0  0  0  0
  1  2  1  0  0  0  0
  1 23  1  0  0  0  0
  1 24  1  0  0  0  0
  1 25  1  0  0  0  0
  2  3  1  0  0  0  0
  2 26  1  0  0  0  0
  2 27  1  0  0  0  0
  3  4  1  0  0  0  0
  3  6  1  0  0  0  0
  4  5  1  0  0  0  0
  4 28  1  0  0  0  0
  4 29  1  0  0  0  0
  5 30  1  0  0  0  0
  5 31  1  0  0  0  0
  5 32  1  0  0  0  0
  6  7  2  0  0  0  0
  6  8  2  0  0  0  0
  6  9  1  0  0  0  0
  9 10  1  0  0  0  0
 10 11  1  0  0  0  0
 10 33  1  0  0  0  0
 10 34  1  0  0  0  0
 11 16  1  0  0  0  0
 11 12  2  0  0  0  0
 12 13  1  0  0  0  0
 12 35  1  0  0  0  0
 13 14  2  0  0  0  0
 13 36  1  0  0  0  0
 14 15  1  0  0  0  0
 14 37  1  0  0  0  0
 15 16  2  0  0  0  0
 16 17  1  0  0  0  0
 17 22  1  0  0  0  0
 17 18  1  0  0  0  0
 18 19  1  0  0  0  0
 18 38  1  0  0  0  0
 18 39  1  0  0  0  0
 19 20  1  0  0  0  0
 19 40  1  0  0  0  0
 19 41  1  0  0  0  0
 20 21  1  0  0  0  0
 21 22  1  0  0  0  0
 21 42  1  0  0  0  0
 21 43  1  0  0  0  0
 22 44  1  0  0  0  0
 22 45  1  0  0  0  0
M  CHG  1   9  -1
M  END
> <s_m_source_file>
AV-unprocessed.smi

> <i_m_source_file_index>
2107

> <i_lp_mmshare_version>
43012

> <i_f3d_flags>
0

> <s_epik_input>
W0NIM11bQ0gyXU4oW0NIMl1bQ0gzXSlTKD1PKSg9TylbTkhdW0NIMl1jMVtjSF1bY0hdW2NIXW5jMU4yW0NIMl1bQ0gyXU9bQ0gyXVtDSDJdMg==

> <s_epik_cmdline>
J2VwaWtfcHl0aG9uJywgJy1waCcsICc3LjAnLCAnLXRuJywgJzgnLCAnLW1hJywgJzIwMCcsICctbWV0YWxfYmluZGluZycsICctaW1hZScsICc8aW5maWxlLm1hZT4nLCAnLW9tYWUnLCAnPG91dGZpbGUubWFlPic=

> <r_lp_tautomer_probability>
1

> <r_epik_Ionization_Penalty>
2.49252

> <r_epik_Ionization_Penalty_Charging>
2.41478

> <r_epik_Ionization_Penalty_Neutral>
0.0777344

> <r_epik_State_Penalty>
2.68884

> <r_epik_Charging_Adjusted_Penalty>
5.10362

> <i_epik_Tot_Q>
-1

> <i_epik_Tot_abs_Q>
1

> <r_epik_Metal_State_Penalty>
0.584574

> <b_epik_Metal_Only>
0

> <s_lp_Force_Field>
OPLS_2005

> <r_lp_Energy>
22.2252

> <b_lp_Chiralities_Consistent>
1

> <s_lp_Variant>
AV-unprocessed.smi:2107-3

> <Gold.Version>
5.8.1

> <Gold.Id.Protein>
6NUR|6NUR_protein|mol2

> <Gold.PLP.Fitness>
40.9983

> <Gold.PLP.PLP>
-30.7055

> <Gold.PLP.part.hbond>
-3.0000

> <Gold.PLP.part.metal>
0.0000

> <Gold.PLP.part.buried>
-5.4992

> <Gold.PLP.part.nonpolar>
-21.8034

> <Gold.PLP.part.repulsive>
0.1050

> <Gold.PLP.ligand.clash>
0.0000

> <Gold.PLP.ligand.torsion>
2.5647

> <Gold.PLP.Chemscore.Hbond>
3.0000

> <Gold.PLP.Chemscore.CHOScore>
0.9966

> <Gold.PLP.Chemscore.Metal>
0.0000

> <Gold.Chemscore.Hbonds>
donor molecule, donor type, donor heavy atom, donor atom, acceptor molecule, acceptor atom, score
      P1  H  6931  6943       L1     8  1.00
      P1  H  6934  6947       L1     7  0.95
      P1  H  7997  8008       L1    20  1.00
      L1  C    14    37       P1  7948  1.00

> <Gold.PLP.Chemscore.Internal.Correction>
3.4323

> <Gold.Rescore>
     Score         DG    S(hbond)    S(metal)    S(lipo)     H(rot)  DE(clash)    DE(int)     intcor
     14.11     -16.75       2.41        0.00      63.79       1.66       0.00       2.64       ----

> <Gold.Chemscore.Fitness>
14.1126

> <Gold.Chemscore.DG>
-16.7479

> <Gold.Chemscore.ZeroCoef>
-5.4800

> <Gold.Chemscore.Hbond>
2.4146

> <Gold.Chemscore.Metal>
0.0000

> <Gold.Chemscore.Lipo>
63.7909

> <Gold.Chemscore.Internal_Hbond>
0.0000

> <Gold.Chemscore.DEClash>
0.0000

> <Gold.Chemscore.DEInternal>
2.6353

> <Gold.Chemscore.Rot>
1.6642

> <Gold.Chemscore.Internal.Correction>
   9.000000E+99

> <Gold.Chemscore.Hbonds>
donor molecule, donor type, donor heavy atom, donor atom, acceptor molecule, acceptor atom, score
      P1  H  6931  6943       L1     8  0.74
      P1  H  6934  6947       L1     7  0.21
      P1  H  7997  8008       L1    20  0.95

> <Gold.Chemscore.Hbond.Weighted>
-8.0648

> <Gold.Chemscore.Metal.Weighted>
-0.0000

> <Gold.Chemscore.Lipo.Weighted>
-7.4635

> <Gold.Chemscore.Internal_Hbond.Weighted>
0.0000

> <Gold.Chemscore.DEClash.Weighted>
0.0000

> <Gold.Chemscore.DEInternal.Weighted>
2.6353

> <Gold.Chemscore.Rot.Weighted>
4.2604

> <Gold.Chemscore.Internal.Correction.Weighted>
   9.000000E+99

> <Gold.Protein.RotatedTorsions>
[ 6907 6896 6895 6894 ] final    0.65 input  -60.11 | X-H torsion
[ 7974 7965 7964 7962 ] final  -72.77 input  175.53 | X-H torsion
[ 8008 7997 7996 7995 ] final  -69.85 input   59.86 | X-H torsion
[ 10167 10162 10161 10158 ] final  -68.61 input  -65.29 | X-H torsion
[ 10718 10713 10712 10709 ] final -175.46 input   66.30 | X-H torsion
[ 10763 10752 10751 10750 ] final  -75.56 input  -60.55 | X-H torsion
[ 11005 11000 10999 10996 ] final  136.75 input  -57.11 | X-H torsion

> <Gold.Protein.ActiveResidues>
 VAL166  LYS551  ARG553  GLY616  TRP617  ASP618  TYR619  PRO620  LYS621  CYS622 
 ASP623  PHE694  ASN695  SER759  ASP760  ASP761  ALA762  ILE779  LEU786  VAL792 
 PHE793  MET794  SER795  GLU796  ALA797  LYS798  CYS799  TRP800  GLU811  SER814 

> <Gold.Protein.RotatedAtoms>
  151.5799  135.1059  160.0014 H   0  0  0  0  0  0  0  0  0  0  0  0  # atno 6907 bound_to 6896
  152.4359  133.7356  159.6622 H   0  0  0  0  0  0  0  0  0  0  0  0  # atno 6908 bound_to 6896
  150.8257  133.8106  159.3143 H   0  0  0  0  0  0  0  0  0  0  0  0  # atno 6909 bound_to 6896
  145.6609  140.9253  143.0934 H   0  0  0  0  0  0  0  0  0  0  0  0  # atno 7974 bound_to 7965
  154.4968  140.0845  156.7714 H   0  0  0  0  0  0  0  0  0  0  0  0  # atno 8008 bound_to 7997
  155.4096  140.3441  155.4244 H   0  0  0  0  0  0  0  0  0  0  0  0  # atno 8009 bound_to 7997
  156.1405  140.1528  156.8916 H   0  0  0  0  0  0  0  0  0  0  0  0  # atno 8010 bound_to 7997
  140.5494  143.2312  151.6940 H   0  0  0  0  0  0  0  0  0  0  0  0  # atno 10167 bound_to 10162
  156.8002  130.9549  151.3119 H   0  0  0  0  0  0  0  0  0  0  0  0  # atno 10718 bound_to 10713
  154.4882  135.5827  153.6439 H   0  0  0  0  0  0  0  0  0  0  0  0  # atno 10763 bound_to 10752
  152.9858  135.6106  154.3159 H   0  0  0  0  0  0  0  0  0  0  0  0  # atno 10764 bound_to 10752
  154.3057  135.2846  155.2569 H   0  0  0  0  0  0  0  0  0  0  0  0  # atno 10765 bound_to 10752
  140.0067  134.9456  157.0191 H   0  0  0  0  0  0  0  0  0  0  0  0  # atno 11005 bound_to 11000
  144.7089  139.8447  143.7421 LP  0  0  0  0  0  0  0  0  0  0  0  0  # atno 17320 bound_to 7965
  146.1126  139.4133  143.0278 LP  0  0  0  0  0  0  0  0  0  0  0  0  # atno 17321 bound_to 7965
  139.5021  144.3843  152.0345 LP  0  0  0  0  0  0  0  0  0  0  0  0  # atno 17342 bound_to 10162
  140.2958  144.3702  150.6075 LP  0  0  0  0  0  0  0  0  0  0  0  0  # atno 17343 bound_to 10162
  157.6557  130.8923  149.9725 LP  0  0  0  0  0  0  0  0  0  0  0  0  # atno 17370 bound_to 10713
  156.1106  130.3650  150.0056 LP  0  0  0  0  0  0  0  0  0  0  0  0  # atno 17371 bound_to 10713
  140.4628  134.1467  155.7193 LP  0  0  0  0  0  0  0  0  0  0  0  0  # atno 17394 bound_to 11000
  141.1682  133.8661  157.1651 LP  0  0  0  0  0  0  0  0  0  0  0  0  # atno 17395 bound_to 11000

$$$$
