AV-unprocessed.smi:2636|AV-procd|sdf|10257|dock10
  -GOLD-   2272014263D 1   1.00000     0.00000
 Structure written by MMmdl.
 36 37  0  0  0  0  0  0  0  0  1 V2000
  145.9084  143.0663  153.5860 C   0  0  0  0  0  0  0  0  0  0  0  0
  146.4997  141.9549  154.4372 C   0  0  0  0  0  0  0  0  0  0  0  0
  147.6459  141.3105  154.0989 C   0  0  0  0  0  0  0  0  0  0  0  0
  148.2046  140.2961  154.8588 N   0  0  0  0  0  0  0  0  0  0  0  0
  149.4000  139.5781  154.4541 C   0  0  0  0  0  0  0  0  0  0  0  0
  150.5004  140.4182  154.5909 O   0  0  0  0  0  0  0  0  0  0  0  0
  151.2814  140.1347  155.7396 C   0  0  0  0  0  0  0  0  0  0  0  0
  151.2323  141.2962  156.7074 C   0  0  0  0  0  0  0  0  0  0  0  0
  152.0519  141.4323  157.7656 C   0  0  0  0  0  0  0  0  0  0  0  0
  152.0528  142.5381  158.7402 C   0  0  0  0  0  0  0  0  0  0  0  0
  152.4637  142.3704  160.0839 C   0  0  0  0  0  0  0  0  0  0  0  0
  152.4494  143.4591  160.9779 C   0  0  0  0  0  0  0  0  0  0  0  0
  152.0251  144.7273  160.5402 C   0  0  0  0  0  0  0  0  0  0  0  0
  151.6148  144.9051  159.2061 C   0  0  0  0  0  0  0  0  0  0  0  0
  151.6295  143.8159  158.3133 C   0  0  0  0  0  0  0  0  0  0  0  0
  147.5617  139.8669  156.0387 C   0  0  0  0  0  0  0  0  0  0  0  0
  147.9919  138.9565  156.7472 O   0  0  0  0  0  0  0  0  0  0  0  0
  146.3865  140.5308  156.3872 N   0  0  0  0  0  0  0  0  0  0  0  0
  145.7929  141.5687  155.6628 C   0  0  0  0  0  0  0  0  0  0  0  0
  144.7523  142.0782  156.0751 O   0  0  0  0  0  0  0  0  0  0  0  0
  145.9220  140.2340  157.2330 H   0  0  0  0  0  0  0  0  0  0  0  0
  146.5243  143.2761  152.7111 H   0  0  0  0  0  0  0  0  0  0  0  0
  145.8249  143.9870  154.1646 H   0  0  0  0  0  0  0  0  0  0  0  0
  144.9133  142.7895  153.2363 H   0  0  0  0  0  0  0  0  0  0  0  0
  148.1519  141.6022  153.1895 H   0  0  0  0  0  0  0  0  0  0  0  0
  149.5198  138.7001  155.0917 H   0  0  0  0  0  0  0  0  0  0  0  0
  149.2800  139.2359  153.4231 H   0  0  0  0  0  0  0  0  0  0  0  0
  150.9209  139.2275  156.2278 H   0  0  0  0  0  0  0  0  0  0  0  0
  152.3210  139.9661  155.4553 H   0  0  0  0  0  0  0  0  0  0  0  0
  150.4761  142.0357  156.4946 H   0  0  0  0  0  0  0  0  0  0  0  0
  152.7911  140.6621  157.9327 H   0  0  0  0  0  0  0  0  0  0  0  0
  152.7943  141.4111  160.4506 H   0  0  0  0  0  0  0  0  0  0  0  0
  152.7652  143.3200  162.0013 H   0  0  0  0  0  0  0  0  0  0  0  0
  152.0146  145.5616  161.2261 H   0  0  0  0  0  0  0  0  0  0  0  0
  151.2890  145.8771  158.8663 H   0  0  0  0  0  0  0  0  0  0  0  0
  151.3125  143.9687  157.2919 H   0  0  0  0  0  0  0  0  0  0  0  0
  1  2  1  0  0  0  0
  1 22  1  0  0  0  0
  1 23  1  0  0  0  0
  1 24  1  0  0  0  0
  2 19  1  0  0  0  0
  2  3  2  0  0  0  0
  3  4  1  0  0  0  0
  3 25  1  0  0  0  0
  4  5  1  0  0  0  0
  4 16  1  0  0  0  0
  5  6  1  0  0  0  0
  5 26  1  0  0  0  0
  5 27  1  0  0  0  0
  6  7  1  0  0  0  0
  7  8  1  0  0  0  0
  7 28  1  0  0  0  0
  7 29  1  0  0  0  0
  8  9  2  0  0  0  0
  8 30  1  0  0  0  0
  9 10  1  0  0  0  0
  9 31  1  0  0  0  0
 10 15  1  0  0  0  0
 10 11  2  0  0  0  0
 11 12  1  0  0  0  0
 11 32  1  0  0  0  0
 12 13  2  0  0  0  0
 12 33  1  0  0  0  0
 13 14  1  0  0  0  0
 13 34  1  0  0  0  0
 14 15  2  0  0  0  0
 14 35  1  0  0  0  0
 15 36  1  0  0  0  0
 16 17  2  0  0  0  0
 16 18  1  0  0  0  0
 18 21  1  0  0  0  0
 18 19  1  0  0  0  0
 19 20  2  0  0  0  0
M  END
> <s_m_source_file>
AV-unprocessed.smi

> <i_m_source_file_index>
2636

> <i_lp_mmshare_version>
43012

> <i_f3d_flags>
0

> <s_epik_input>
Tz1jMVtuSF1jKD1PKW4oW2NIXWMxW0NIM10pW0NIMl1PW0NIMl0vW0NIXT1bQ0hdL2MyW2NIXVtjSF1bY0hdW2NIXVtjSF0y

> <s_epik_cmdline>
J2VwaWtfcHl0aG9uJywgJy1waCcsICc3LjAnLCAnLXRuJywgJzgnLCAnLW1hJywgJzIwMCcsICctbWV0YWxfYmluZGluZycsICctaW1hZScsICc8aW5maWxlLm1hZT4nLCAnLW9tYWUnLCAnPG91dGZpbGUubWFlPic=

> <r_lp_tautomer_probability>
0.999537

> <r_epik_Ionization_Penalty>
0.00179702

> <r_epik_Ionization_Penalty_Charging>
0.00179702

> <r_epik_Ionization_Penalty_Neutral>
9.83266e-13

> <r_epik_State_Penalty>
0.00121868

> <r_epik_Charging_Adjusted_Penalty>
0.0030157

> <i_epik_Tot_Q>
0

> <i_epik_Tot_abs_Q>
0

> <r_epik_Metal_State_Penalty>
0.826903

> <b_epik_Metal_Only>
0

> <s_epik_Chemistry_Notes>
This compound contains an acetal/aminal-like group ( X-CH(R)-Y where X, Y are N, S, or O) that may be acid/base labile, releasing an aldehyde.

> <s_lp_Force_Field>
OPLS_2005

> <r_lp_Energy>
1.95272

> <b_lp_Chiralities_Consistent>
1

> <s_lp_Variant>
AV-unprocessed.smi:2636-1

> <Gold.Version>
5.8.1

> <Gold.Id.Protein>
6NUR|6NUR_protein|mol2

> <Gold.PLP.Fitness>
46.2552

> <Gold.PLP.PLP>
-43.0251

> <Gold.PLP.part.hbond>
-1.0000

> <Gold.PLP.part.metal>
0.0000

> <Gold.PLP.part.buried>
-6.4942

> <Gold.PLP.part.nonpolar>
-35.5741

> <Gold.PLP.part.repulsive>
0.2384

> <Gold.PLP.ligand.clash>
0.0000

> <Gold.PLP.ligand.torsion>
1.0226

> <Gold.PLP.Chemscore.Hbond>
1.0000

> <Gold.PLP.Chemscore.CHOScore>
0.7534

> <Gold.PLP.Chemscore.Metal>
0.0000

> <Gold.Chemscore.Hbonds>
donor molecule, donor type, donor heavy atom, donor atom, acceptor molecule, acceptor atom, score
      P1  H  7989  7998       L1     6  1.00

> <Gold.PLP.Chemscore.Internal.Correction>
0.0152

> <Gold.Rescore>
     Score         DG    S(hbond)    S(metal)    S(lipo)     H(rot)  DE(clash)    DE(int)     intcor
     15.42     -16.63       0.92        0.00     111.10       1.92       0.22       0.98       ----

> <Gold.Chemscore.Fitness>
15.4232

> <Gold.Chemscore.DG>
-16.6257

> <Gold.Chemscore.ZeroCoef>
-5.4800

> <Gold.Chemscore.Hbond>
0.9180

> <Gold.Chemscore.Metal>
0.0000

> <Gold.Chemscore.Lipo>
111.1020

> <Gold.Chemscore.Internal_Hbond>
0.0000

> <Gold.Chemscore.DEClash>
0.2250

> <Gold.Chemscore.DEInternal>
0.9774

> <Gold.Chemscore.Rot>
1.9216

> <Gold.Chemscore.Internal.Correction>
   9.000000E+99

> <Gold.Chemscore.Hbonds>
donor molecule, donor type, donor heavy atom, donor atom, acceptor molecule, acceptor atom, score
      P1  H  7989  7998       L1     6  0.38

> <Gold.Chemscore.Hbond.Weighted>
-3.0660

> <Gold.Chemscore.Metal.Weighted>
-0.0000

> <Gold.Chemscore.Lipo.Weighted>
-12.9989

> <Gold.Chemscore.Internal_Hbond.Weighted>
0.0000

> <Gold.Chemscore.DEClash.Weighted>
0.2250

> <Gold.Chemscore.DEInternal.Weighted>
0.9774

> <Gold.Chemscore.Rot.Weighted>
4.9193

> <Gold.Chemscore.Internal.Correction.Weighted>
   9.000000E+99

> <Gold.Protein.RotatedTorsions>
[ 6907 6896 6895 6894 ] final  161.69 input  -60.11 | X-H torsion
[ 7974 7965 7964 7962 ] final -169.29 input  175.53 | X-H torsion
[ 8008 7997 7996 7995 ] final -176.20 input   59.86 | X-H torsion
[ 10167 10162 10161 10158 ] final  -53.49 input  -65.29 | X-H torsion
[ 10718 10713 10712 10709 ] final   17.42 input   66.30 | X-H torsion
[ 10763 10752 10751 10750 ] final  -77.47 input  -60.55 | X-H torsion
[ 11005 11000 10999 10996 ] final -153.40 input  -57.11 | X-H torsion

> <Gold.Protein.ActiveResidues>
 VAL166  LYS551  ARG553  GLY616  TRP617  ASP618  TYR619  PRO620  LYS621  CYS622 
 ASP623  PHE694  ASN695  SER759  ASP760  ASP761  ALA762  ILE779  LEU786  VAL792 
 PHE793  MET794  SER795  GLU796  ALA797  LYS798  CYS799  TRP800  GLU811  SER814 

> <Gold.Protein.RotatedAtoms>
  151.9518  133.3668  159.4002 H   0  0  0  0  0  0  0  0  0  0  0  0  # atno 6907 bound_to 6896
  150.6979  134.4332  159.5267 H   0  0  0  0  0  0  0  0  0  0  0  0  # atno 6908 bound_to 6896
  152.2006  134.8591  160.0559 H   0  0  0  0  0  0  0  0  0  0  0  0  # atno 6909 bound_to 6896
  144.7188  140.2243  143.6312 H   0  0  0  0  0  0  0  0  0  0  0  0  # atno 7974 bound_to 7965
  155.9919  140.1202  157.0630 H   0  0  0  0  0  0  0  0  0  0  0  0  # atno 8008 bound_to 7997
  154.4214  140.1124  156.5645 H   0  0  0  0  0  0  0  0  0  0  0  0  # atno 8009 bound_to 7997
  155.6331  140.3473  155.4692 H   0  0  0  0  0  0  0  0  0  0  0  0  # atno 8010 bound_to 7997
  140.6482  143.2549  151.4799 H   0  0  0  0  0  0  0  0  0  0  0  0  # atno 10167 bound_to 10162
  157.0818  130.6391  149.5828 H   0  0  0  0  0  0  0  0  0  0  0  0  # atno 10718 bound_to 10713
  154.5133  135.5763  153.6622 H   0  0  0  0  0  0  0  0  0  0  0  0  # atno 10763 bound_to 10752
  152.9901  135.6164  154.2850 H   0  0  0  0  0  0  0  0  0  0  0  0  # atno 10764 bound_to 10752
  154.2766  135.2852  155.2695 H   0  0  0  0  0  0  0  0  0  0  0  0  # atno 10765 bound_to 10752
  140.7086  134.3858  157.5201 H   0  0  0  0  0  0  0  0  0  0  0  0  # atno 11005 bound_to 11000
  145.8471  139.2157  143.1793 LP  0  0  0  0  0  0  0  0  0  0  0  0  # atno 17320 bound_to 7965
  146.0294  140.8272  142.9883 LP  0  0  0  0  0  0  0  0  0  0  0  0  # atno 17321 bound_to 7965
  139.5694  144.1964  152.1814 LP  0  0  0  0  0  0  0  0  0  0  0  0  # atno 17342 bound_to 10162
  140.1255  144.5335  150.6835 LP  0  0  0  0  0  0  0  0  0  0  0  0  # atno 17343 bound_to 10162
  155.9921  130.4978  150.7328 LP  0  0  0  0  0  0  0  0  0  0  0  0  # atno 17370 bound_to 10713
  157.4794  131.0901  151.0554 LP  0  0  0  0  0  0  0  0  0  0  0  0  # atno 17371 bound_to 10713
  139.8877  134.8874  156.2511 LP  0  0  0  0  0  0  0  0  0  0  0  0  # atno 17394 bound_to 11000
  141.0104  133.7099  156.1102 LP  0  0  0  0  0  0  0  0  0  0  0  0  # atno 17395 bound_to 11000

$$$$
