AV-unprocessed.smi:1033|AV-procd|sdf|4509|dock9
  -GOLD-   22720 2513D 1   1.00000     0.00000
 Structure written by MMmdl.
 57 59  0  0  0  0  0  0  0  0  3 V2000
  153.5230  141.9485  160.6012 C   0  0  0  0  0  0  0  0  0  0  0  0
  152.6563  141.7515  159.3698 C   0  0  0  0  0  0  0  0  0  0  0  0
  152.4299  140.4411  158.8916 C   0  0  0  0  0  0  0  0  0  0  0  0
  151.6297  140.2148  157.7504 C   0  0  0  0  0  0  0  0  0  0  0  0
  151.2776  139.0346  157.1185 N   0  0  0  0  0  0  0  0  0  0  0  0
  150.5192  139.4797  156.1211 C   0  0  0  0  0  0  0  0  0  0  0  0
  150.3333  140.8109  156.0340 N   0  0  0  0  0  0  0  0  0  0  0  0
  149.5462  141.5203  155.0406 C   0  0  0  0  0  0  0  0  0  0  0  0
  148.0919  141.0152  154.9692 C   0  0  1  0  0  0  0  0  0  0  0  0
  147.2334  141.9653  155.5717 O   0  0  0  0  0  0  0  0  0  0  0  0
  147.6349  140.7973  153.5129 C   0  0  0  0  0  0  0  0  0  0  0  0
  146.9035  139.5170  153.3279 N   0  3  2  0  0  0  0  0  0  0  0  0
  147.4685  138.3868  154.1080 C   0  0  0  0  0  0  0  0  0  0  0  0
  146.6065  137.1206  153.9515 C   0  0  0  0  0  0  0  0  0  0  0  0
  146.4414  136.7518  152.5214 N   0  3  1  0  0  0  0  0  0  0  0  0
  145.6657  135.5007  152.3178 C   0  0  0  0  0  0  0  0  0  0  0  0
  145.2923  135.2632  150.8412 C   0  0  1  0  0  0  0  0  0  0  0  0
  145.2247  133.7685  150.5025 C   0  0  0  0  0  0  0  0  0  0  0  0
  144.0219  135.8295  150.5926 O   0  0  0  0  0  0  0  0  0  0  0  0
  145.8909  137.8860  151.7385 C   0  0  0  0  0  0  0  0  0  0  0  0
  146.7549  139.1493  151.8987 C   0  0  0  0  0  0  0  0  0  0  0  0
  151.0573  141.3445  157.0954 C   0  0  0  0  0  0  0  0  0  0  0  0
  151.2763  142.6531  157.5610 C   0  0  0  0  0  0  0  0  0  0  0  0
  152.0787  142.8613  158.7023 C   0  0  0  0  0  0  0  0  0  0  0  0
  152.3087  144.2784  159.1973 C   0  0  0  0  0  0  0  0  0  0  0  0
  153.8397  140.9941  161.0228 H   0  0  0  0  0  0  0  0  0  0  0  0
  152.9749  142.4884  161.3735 H   0  0  0  0  0  0  0  0  0  0  0  0
  154.4184  142.5169  160.3492 H   0  0  0  0  0  0  0  0  0  0  0  0
  152.8700  139.5954  159.3996 H   0  0  0  0  0  0  0  0  0  0  0  0
  150.0695  138.7976  155.4143 H   0  0  0  0  0  0  0  0  0  0  0  0
  149.5733  142.5861  155.2717 H   0  0  0  0  0  0  0  0  0  0  0  0
  150.0332  141.4011  154.0717 H   0  0  0  0  0  0  0  0  0  0  0  0
  148.0211  140.0857  155.5337 H   0  0  0  0  0  0  0  0  0  0  0  0
  147.7297  142.7521  155.7447 H   0  0  0  0  0  0  0  0  0  0  0  0
  146.9884  141.6300  153.2306 H   0  0  0  0  0  0  0  0  0  0  0  0
  148.4872  140.8313  152.8326 H   0  0  0  0  0  0  0  0  0  0  0  0
  148.4882  138.1871  153.7744 H   0  0  0  0  0  0  0  0  0  0  0  0
  147.5283  138.6457  155.1644 H   0  0  0  0  0  0  0  0  0  0  0  0
  147.0731  136.3052  154.5031 H   0  0  0  0  0  0  0  0  0  0  0  0
  145.6251  137.2835  154.4003 H   0  0  0  0  0  0  0  0  0  0  0  0
  146.2346  134.6560  152.7097 H   0  0  0  0  0  0  0  0  0  0  0  0
  144.7447  135.5414  152.9021 H   0  0  0  0  0  0  0  0  0  0  0  0
  146.0156  135.7331  150.1757 H   0  0  0  0  0  0  0  0  0  0  0  0
  146.1902  133.2878  150.6623 H   0  0  0  0  0  0  0  0  0  0  0  0
  144.9496  133.6124  149.4589 H   0  0  0  0  0  0  0  0  0  0  0  0
  144.4902  133.2513  151.1211 H   0  0  0  0  0  0  0  0  0  0  0  0
  144.1423  136.7031  150.2506 H   0  0  0  0  0  0  0  0  0  0  0  0
  145.8428  137.6158  150.6828 H   0  0  0  0  0  0  0  0  0  0  0  0
  144.8682  138.0883  152.0614 H   0  0  0  0  0  0  0  0  0  0  0  0
  146.2917  139.9718  151.3518 H   0  0  0  0  0  0  0  0  0  0  0  0
  147.7411  138.9901  151.4589 H   0  0  0  0  0  0  0  0  0  0  0  0
  150.8287  143.4898  157.0454 H   0  0  0  0  0  0  0  0  0  0  0  0
  151.8295  145.0103  158.5465 H   0  0  0  0  0  0  0  0  0  0  0  0
  153.3745  144.5057  159.2270 H   0  0  0  0  0  0  0  0  0  0  0  0
  151.8995  144.4032  160.2000 H   0  0  0  0  0  0  0  0  0  0  0  0
  147.3636  136.5709  152.1493 H   0  0  0  0  0  0  0  0  0  0  0  0
  145.9688  139.6819  153.6759 H   0  0  0  0  0  0  0  0  0  0  0  0
  1  2  1  0  0  0  0
  1 26  1  0  0  0  0
  1 27  1  0  0  0  0
  1 28  1  0  0  0  0
  2 24  1  0  0  0  0
  2  3  2  0  0  0  0
  3  4  1  0  0  0  0
  3 29  1  0  0  0  0
  4 22  2  0  0  0  0
  4  5  1  0  0  0  0
  5  6  2  0  0  0  0
  6  7  1  0  0  0  0
  6 30  1  0  0  0  0
  7  8  1  0  0  0  0
  7 22  1  0  0  0  0
  8  9  1  0  0  0  0
  8 31  1  0  0  0  0
  8 32  1  0  0  0  0
  9 10  1  0  0  0  0
  9 11  1  0  0  0  0
  9 33  1  0  0  0  0
 10 34  1  0  0  0  0
 11 12  1  0  0  0  0
 11 35  1  0  0  0  0
 11 36  1  0  0  0  0
 12 21  1  0  0  0  0
 12 13  1  0  0  0  0
 12 57  1  0  0  0  0
 13 14  1  0  0  0  0
 13 37  1  0  0  0  0
 13 38  1  0  0  0  0
 14 15  1  0  0  0  0
 14 39  1  0  0  0  0
 14 40  1  0  0  0  0
 15 16  1  0  0  0  0
 15 20  1  0  0  0  0
 15 56  1  0  0  0  0
 16 17  1  0  0  0  0
 16 41  1  0  0  0  0
 16 42  1  0  0  0  0
 17 18  1  0  0  0  0
 17 19  1  0  0  0  0
 17 43  1  0  0  0  0
 18 44  1  0  0  0  0
 18 45  1  0  0  0  0
 18 46  1  0  0  0  0
 19 47  1  0  0  0  0
 20 21  1  0  0  0  0
 20 48  1  0  0  0  0
 20 49  1  0  0  0  0
 21 50  1  0  0  0  0
 21 51  1  0  0  0  0
 22 23  1  0  0  0  0
 23 24  2  0  0  0  0
 23 52  1  0  0  0  0
 24 25  1  0  0  0  0
 25 53  1  0  0  0  0
 25 54  1  0  0  0  0
 25 55  1  0  0  0  0
M  CHG  1  12   1
M  CHG  1  15   1
M  END
> <s_m_source_file>
AV-unprocessed.smi

> <i_m_source_file_index>
1033

> <i_lp_mmshare_version>
43012

> <i_f3d_flags>
0

> <s_epik_input>
W0NIM11jKFtjSF0xKWMoW0NIM10pW2NIXWMoYzEyKW4oW2NIXW4yKVtDSDJdW0NASF0oW09IXSlbQ0gyXU4zW0NIMl1bQ0gyXU4oW0NIMl1bQ0gyXTMpW0NIMl1bQ0BIXShbQ0gzXSlbT0hd

> <s_epik_cmdline>
J2VwaWtfcHl0aG9uJywgJy1waCcsICc3LjAnLCAnLXRuJywgJzgnLCAnLW1hJywgJzIwMCcsICctbWV0YWxfYmluZGluZycsICctaW1hZScsICc8aW5maWxlLm1hZT4nLCAnLW9tYWUnLCAnPG91dGZpbGUubWFlPic=

> <r_epik_Ionization_Penalty>
3.16016

> <r_epik_Ionization_Penalty_Charging>
3.07679

> <r_epik_Ionization_Penalty_Neutral>
0.083365

> <r_epik_State_Penalty>
2.09701

> <r_epik_Charging_Adjusted_Penalty>
5.1738

> <i_epik_Tot_Q>
2

> <i_epik_Tot_abs_Q>
2

> <r_epik_Metal_State_Penalty>
2.02534

> <b_epik_Metal_Only>
0

> <s_lp_Force_Field>
OPLS_2005

> <r_lp_Energy>
27.8385

> <b_lp_Chiralities_Consistent>
1

> <s_lp_Variant>
AV-unprocessed.smi:1033-20

> <Gold.Version>
5.8.1

> <Gold.Id.Protein>
6NUR|6NUR_protein|mol2

> <Gold.PLP.Fitness>
58.9191

> <Gold.PLP.PLP>
-50.4993

> <Gold.PLP.part.hbond>
-3.0000

> <Gold.PLP.part.metal>
0.0000

> <Gold.PLP.part.buried>
-0.8655

> <Gold.PLP.part.nonpolar>
-47.7106

> <Gold.PLP.part.repulsive>
0.0340

> <Gold.PLP.ligand.clash>
0.0000

> <Gold.PLP.ligand.torsion>
1.9585

> <Gold.PLP.Chemscore.Hbond>
4.0000

> <Gold.PLP.Chemscore.CHOScore>
0.0000

> <Gold.PLP.Chemscore.Metal>
0.0000

> <Gold.Chemscore.Hbonds>
donor molecule, donor type, donor heavy atom, donor atom, acceptor molecule, acceptor atom, score
      L1  H    10    34       P1  8028  0.42
      L1  H    15    56       P1  7948  2.00
      L1  H    19    47       P1 10171  1.00

> <Gold.PLP.Chemscore.Internal.Correction>
0.3366

> <Gold.Rescore>
     Score         DG    S(hbond)    S(metal)    S(lipo)     H(rot)  DE(clash)    DE(int)     intcor
     18.68     -22.51       2.73        0.00     136.35       3.14       0.95       2.87       ----

> <Gold.Chemscore.Fitness>
18.6800

> <Gold.Chemscore.DG>
-22.5063

> <Gold.Chemscore.ZeroCoef>
-5.4800

> <Gold.Chemscore.Hbond>
2.7266

> <Gold.Chemscore.Metal>
0.0000

> <Gold.Chemscore.Lipo>
136.3459

> <Gold.Chemscore.Internal_Hbond>
0.0000

> <Gold.Chemscore.DEClash>
0.9516

> <Gold.Chemscore.DEInternal>
2.8746

> <Gold.Chemscore.Rot>
3.1380

> <Gold.Chemscore.Internal.Correction>
   9.000000E+99

> <Gold.Chemscore.Hbonds>
donor molecule, donor type, donor heavy atom, donor atom, acceptor molecule, acceptor atom, score
      L1  H    10    34       P1  8028  0.26
      L1  H    15    56       P1  7948  1.00
      L1  H    19    47       P1 10171  0.99

> <Gold.Chemscore.Hbond.Weighted>
-9.1070

> <Gold.Chemscore.Metal.Weighted>
-0.0000

> <Gold.Chemscore.Lipo.Weighted>
-15.9525

> <Gold.Chemscore.Internal_Hbond.Weighted>
0.0000

> <Gold.Chemscore.DEClash.Weighted>
0.9516

> <Gold.Chemscore.DEInternal.Weighted>
2.8746

> <Gold.Chemscore.Rot.Weighted>
8.0332

> <Gold.Chemscore.Internal.Correction.Weighted>
   9.000000E+99

> <Gold.Protein.RotatedTorsions>
[ 6907 6896 6895 6894 ] final -110.17 input  -60.11 | X-H torsion
[ 7974 7965 7964 7962 ] final -171.76 input  175.53 | X-H torsion
[ 8008 7997 7996 7995 ] final   57.82 input   59.86 | X-H torsion
[ 10167 10162 10161 10158 ] final  -45.38 input  -65.29 | X-H torsion
[ 10718 10713 10712 10709 ] final  -96.55 input   66.30 | X-H torsion
[ 10763 10752 10751 10750 ] final  -86.63 input  -60.55 | X-H torsion
[ 11005 11000 10999 10996 ] final   42.03 input  -57.11 | X-H torsion

> <Gold.Protein.ActiveResidues>
 VAL166  LYS551  ARG553  GLY616  TRP617  ASP618  TYR619  PRO620  LYS621  CYS622 
 ASP623  PHE694  ASN695  SER759  ASP760  ASP761  ALA762  ILE779  LEU786  VAL792 
 PHE793  MET794  SER795  GLU796  ALA797  LYS798  CYS799  TRP800  GLU811  SER814 

> <Gold.Protein.RotatedAtoms>
  150.7608  133.9421  159.3459 H   0  0  0  0  0  0  0  0  0  0  0  0  # atno 6907 bound_to 6896
  151.7330  135.0869  160.0312 H   0  0  0  0  0  0  0  0  0  0  0  0  # atno 6908 bound_to 6896
  152.3577  133.6220  159.6028 H   0  0  0  0  0  0  0  0  0  0  0  0  # atno 6909 bound_to 6896
  144.7153  140.1874  143.6352 H   0  0  0  0  0  0  0  0  0  0  0  0  # atno 7974 bound_to 7965
  155.5400  140.3484  155.4444 H   0  0  0  0  0  0  0  0  0  0  0  0  # atno 8008 bound_to 7997
  156.0658  140.1351  156.9914 H   0  0  0  0  0  0  0  0  0  0  0  0  # atno 8009 bound_to 7997
  154.4502  140.0976  156.6570 H   0  0  0  0  0  0  0  0  0  0  0  0  # atno 8010 bound_to 7997
  140.6860  143.2882  151.3630 H   0  0  0  0  0  0  0  0  0  0  0  0  # atno 10167 bound_to 10162
  156.0064  130.5156  150.6243 H   0  0  0  0  0  0  0  0  0  0  0  0  # atno 10718 bound_to 10713
  154.6246  135.5442  153.7613 H   0  0  0  0  0  0  0  0  0  0  0  0  # atno 10763 bound_to 10752
  153.0255  135.6421  154.1390 H   0  0  0  0  0  0  0  0  0  0  0  0  # atno 10764 bound_to 10752
  154.1323  135.2913  155.3162 H   0  0  0  0  0  0  0  0  0  0  0  0  # atno 10765 bound_to 10752
  140.1777  134.4142  155.8218 H   0  0  0  0  0  0  0  0  0  0  0  0  # atno 11005 bound_to 11000
  145.8800  139.2318  143.1611 LP  0  0  0  0  0  0  0  0  0  0  0  0  # atno 17320 bound_to 7965
  146.0004  140.8525  143.0021 LP  0  0  0  0  0  0  0  0  0  0  0  0  # atno 17321 bound_to 7965
  139.6219  144.0889  152.2399 LP  0  0  0  0  0  0  0  0  0  0  0  0  # atno 17342 bound_to 10162
  140.0336  144.6061  150.7467 LP  0  0  0  0  0  0  0  0  0  0  0  0  # atno 17343 bound_to 10162
  157.4052  131.0816  151.1271 LP  0  0  0  0  0  0  0  0  0  0  0  0  # atno 17370 bound_to 10713
  157.1920  130.6356  149.5708 LP  0  0  0  0  0  0  0  0  0  0  0  0  # atno 17371 bound_to 10713
  141.2221  133.6986  156.7876 LP  0  0  0  0  0  0  0  0  0  0  0  0  # atno 17394 bound_to 11000
  140.2303  134.8691  157.3469 LP  0  0  0  0  0  0  0  0  0  0  0  0  # atno 17395 bound_to 11000

$$$$
