#       Name:                AV-unprocessed.smi:2943
#       Creating user name   scv26
#       Creation time:       Fri Mar 27 16:16:15 2020


#       File generated by GOLD software.
#

@<TRIPOS>MOLECULE
AV-unprocessed.smi:2943
    40    42     1
SMALL
NO_CHARGES


@<TRIPOS>ATOM
      1 ****        -3.2036   2.1102   0.7866 C.3            1 S1                 0.0000
      2 ****        -2.0530   1.1478   0.7611 C.2            1 S1                 0.0000
      3 ****        -0.7156   1.4745   0.7351 C.2            1 S1                 0.0000
      4 ****        -0.0972   2.8390   0.7196 C.3            1 S1                 0.0000
      5 ****         0.0569   0.3106   0.7315 N.pl3          1 S1                 0.0000
      6 ****         1.5116   0.2453   0.7164 C.3            1 S1                 0.0000
      7 ****         2.0678   0.1859  -0.7151 C.3            1 S1                 0.0000
      8 ****         3.5895   0.0905  -0.7860 C.3            1 S1                 0.0000
      9 ****         3.7870  -0.5150  -2.1570 C.3            1 S1                 0.0000
     10 ****         2.6239  -1.5007  -2.2373 C.3            1 S1                 0.0000
     11 ****         1.5953  -0.9686  -1.4051 O.3            1 S1                 0.0000
     12 ****        -0.7949  -0.7821   0.7331 C.ar           1 S1                 0.0000
     13 ****        -0.4744  -2.1044   0.7200 N.pl3          1 S1                 1.0000
     14 ****        -1.4863  -2.9786   0.7188 C.ar           1 S1                 0.0000
     15 ****        -2.7722  -2.5987   0.7322 N.ar           1 S1                 0.0000
     16 ****        -3.1271  -1.2903   0.7466 C.ar           1 S1                 0.0000
     17 ****        -4.4898  -1.0024   0.7553 N.pl3          1 S1                 0.0000
     18 ****        -2.1218  -0.2881   0.7484 C.ar           1 S1                 0.0000
     19 ****        -2.9411   3.0386   1.2939 H              1 S1                 0.0000
     20 ****        -4.0614   1.6947   1.3140 H              1 S1                 0.0000
     21 ****        -3.5247   2.3636  -0.2238 H              1 S1                 0.0000
     22 ****        -0.8148   3.5982   0.4094 H              1 S1                 0.0000
     23 ****         0.7411   2.8887   0.0248 H              1 S1                 0.0000
     24 ****         0.2675   3.1086   1.7109 H              1 S1                 0.0000
     25 ****         1.9168   1.1067   1.2477 H              1 S1                 0.0000
     26 ****         1.8272  -0.6327   1.2811 H              1 S1                 0.0000
     27 ****         1.7425   1.0608  -1.2802 H              1 S1                 0.0000
     28 ****         4.0823   1.0561  -0.6686 H              1 S1                 0.0000
     29 ****         3.9718  -0.5865  -0.0208 H              1 S1                 0.0000
     30 ****         3.6810   0.2545  -2.9230 H              1 S1                 0.0000
     31 ****         4.7602  -0.9905  -2.2824 H              1 S1                 0.0000
     32 ****         2.2740  -1.6437  -3.2598 H              1 S1                 0.0000
     33 ****         2.9190  -2.4732  -1.8417 H              1 S1                 0.0000
     34 ****        -1.2260  -4.0268   0.7046 H              1 S1                 0.0000
     35 ****        -5.1848  -1.7351   0.7511 H              1 S1                 0.0000
     36 ****        -4.8269  -0.0505   0.7786 H              1 S1                 0.0000
     37 ****         0.5002  -2.4051   0.7031 H              1 S1                 0.0000
     38 ****         0.8100  -0.7169  -1.9707 LP             1 S1                 0.0000
     39 ****         1.3181  -1.6610  -0.7390 LP             1 S1                 0.0000
     40 ****        -3.4872  -3.2978   0.7316 LP             1 S1                 0.0000
@<TRIPOS>BOND
    1    1    2 1     
    2    1   19 1     
    3    1   20 1     
    4    1   21 1     
    5    2   18 1     
    6    2    3 2     
    7    3    4 1     
    8    3    5 1     
    9    4   22 1     
   10    4   23 1     
   11    4   24 1     
   12    5    6 1     
   13    5   12 1     
   14    6    7 1     
   15    6   25 1     
   16    6   26 1     
   17    7   11 1     
   18    7    8 1     
   19    7   27 1     
   20    8    9 1     
   21    8   28 1     
   22    8   29 1     
   23    9   10 1     
   24    9   30 1     
   25    9   31 1     
   26   10   11 1     
   27   10   32 1     
   28   10   33 1     
   29   12   18 ar    
   30   12   13 ar    
   31   13   14 ar    
   32   13   37 1     
   33   14   15 ar    
   34   14   34 1     
   35   15   16 ar    
   36   16   17 1     
   37   16   18 ar    
   38   17   35 1     
   39   17   36 1     
   40   11   38 1     
   41   11   39 1     
   42   15   40 1     
@<TRIPOS>SUBSTRUCTURE
      1 S1             1
@<TRIPOS>SET
LONE_PAIRS      STATIC     ATOMS    <user>   **** ""
3 38 39 40
DONOR_HYDROGENS      STATIC     ATOMS    <user>   **** ""
3 37 35 36
ATOM$BLUE        STATIC     ATOMS    COLORGROUP SYSTEM
3 38 39 40
ATOM$RED        STATIC     ATOMS    COLORGROUP SYSTEM
3 37 35 36
