AV-unprocessed.smi:670|AV-procd|sdf|3271|dock2
  -GOLD-   22720 0223D 1   1.00000     0.00000
 Structure written by MMmdl.
 45 46  0  0  0  0  0  0  0  0  1 V2000
  153.3925  141.9836  160.7557 C   0  0  0  0  0  0  0  0  0  0  0  0
  152.9552  143.3280  160.1536 C   0  0  2  0  0  0  0  0  0  0  0  0
  151.9602  144.0726  161.0664 C   0  0  0  0  0  0  0  0  0  0  0  0
  151.5569  145.4293  160.4659 C   0  0  0  0  0  0  0  0  0  0  0  0
  150.9899  145.2693  159.0462 C   0  0  0  0  0  0  0  0  0  0  0  0
  151.9716  144.5177  158.1304 C   0  0  0  0  0  0  0  0  0  0  0  0
  152.3795  143.1585  158.7308 C   0  0  2  0  0  0  0  0  0  0  0  0
  151.2321  142.3255  158.8169 O   0  0  0  0  0  0  0  0  0  0  0  0
  150.5626  142.0957  157.5889 C   0  0  0  0  0  0  0  0  0  0  0  0
  150.3422  140.5852  157.4240 C   0  0  0  0  0  0  0  0  0  0  0  0
  149.4279  140.3008  156.3217 N   0  0  0  0  0  0  0  0  0  0  0  0
  149.7893  140.1647  155.0359 C   0  0  0  0  0  0  0  0  0  0  0  0
  150.9597  140.2266  154.6550 O   0  0  0  0  0  0  0  0  0  0  0  0
  148.6438  139.9242  154.0409 C   0  0  0  0  0  0  0  0  0  0  0  0
  147.4397  140.7208  154.3208 N   0  0  0  0  0  0  0  0  0  0  0  0
  146.3090  139.9604  154.5784 N   0  0  0  0  0  0  0  0  0  0  0  0
  145.1829  140.5408  154.8223 C   0  0  0  0  0  0  0  0  0  0  0  0
  144.0879  139.7498  155.0702 O   0  0  0  0  0  0  0  0  0  0  0  0
  145.0715  141.9830  154.8366 C   0  0  0  0  0  0  0  0  0  0  0  0
  146.1794  142.7156  154.5894 C   0  0  0  0  0  0  0  0  0  0  0  0
  147.4729  142.0893  154.3105 C   0  0  0  0  0  0  0  0  0  0  0  0
  148.4970  142.7333  154.0864 O   0  0  0  0  0  0  0  0  0  0  0  0
  143.7517  139.5115  154.2202 H   0  0  0  0  0  0  0  0  0  0  0  0
  152.5505  141.2986  160.8549 H   0  0  0  0  0  0  0  0  0  0  0  0
  153.8285  142.1188  161.7458 H   0  0  0  0  0  0  0  0  0  0  0  0
  154.1407  141.4980  160.1291 H   0  0  0  0  0  0  0  0  0  0  0  0
  153.8510  143.9456  160.0741 H   0  0  0  0  0  0  0  0  0  0  0  0
  151.0697  143.4616  161.2230 H   0  0  0  0  0  0  0  0  0  0  0  0
  152.4016  144.2269  162.0515 H   0  0  0  0  0  0  0  0  0  0  0  0
  150.8210  145.9149  161.1076 H   0  0  0  0  0  0  0  0  0  0  0  0
  152.4254  146.0885  160.4387 H   0  0  0  0  0  0  0  0  0  0  0  0
  150.0439  144.7281  159.0911 H   0  0  0  0  0  0  0  0  0  0  0  0
  150.7637  146.2487  158.6239 H   0  0  0  0  0  0  0  0  0  0  0  0
  151.5283  144.3800  157.1441 H   0  0  0  0  0  0  0  0  0  0  0  0
  152.8635  145.1274  157.9808 H   0  0  0  0  0  0  0  0  0  0  0  0
  153.1421  142.6953  158.1014 H   0  0  0  0  0  0  0  0  0  0  0  0
  149.6039  142.6152  157.5791 H   0  0  0  0  0  0  0  0  0  0  0  0
  151.1566  142.4825  156.7593 H   0  0  0  0  0  0  0  0  0  0  0  0
  151.2966  140.0753  157.2822 H   0  0  0  0  0  0  0  0  0  0  0  0
  149.9086  140.1771  158.3370 H   0  0  0  0  0  0  0  0  0  0  0  0
  148.4466  140.2324  156.5489 H   0  0  0  0  0  0  0  0  0  0  0  0
  149.0119  140.1460  153.0374 H   0  0  0  0  0  0  0  0  0  0  0  0
  148.3981  138.8605  154.0332 H   0  0  0  0  0  0  0  0  0  0  0  0
  144.1222  142.4550  155.0416 H   0  0  0  0  0  0  0  0  0  0  0  0
  146.1113  143.7936  154.5968 H   0  0  0  0  0  0  0  0  0  0  0  0
  1  2  1  0  0  0  0
  1 24  1  0  0  0  0
  1 25  1  0  0  0  0
  1 26  1  0  0  0  0
  2  7  1  0  0  0  0
  2  3  1  0  0  0  0
  2 27  1  0  0  0  0
  3  4  1  0  0  0  0
  3 28  1  0  0  0  0
  3 29  1  0  0  0  0
  4  5  1  0  0  0  0
  4 30  1  0  0  0  0
  4 31  1  0  0  0  0
  5  6  1  0  0  0  0
  5 32  1  0  0  0  0
  5 33  1  0  0  0  0
  6  7  1  0  0  0  0
  6 34  1  0  0  0  0
  6 35  1  0  0  0  0
  7  8  1  0  0  0  0
  7 36  1  0  0  0  0
  8  9  1  0  0  0  0
  9 10  1  0  0  0  0
  9 37  1  0  0  0  0
  9 38  1  0  0  0  0
 10 11  1  0  0  0  0
 10 39  1  0  0  0  0
 10 40  1  0  0  0  0
 11 12  1  0  0  0  0
 11 41  1  0  0  0  0
 12 13  2  0  0  0  0
 12 14  1  0  0  0  0
 14 42  1  0  0  0  0
 14 43  1  0  0  0  0
 14 15  1  0  0  0  0
 15 16  1  0  0  0  0
 15 21  1  0  0  0  0
 16 17  2  0  0  0  0
 17 18  1  0  0  0  0
 17 19  1  0  0  0  0
 18 23  1  0  0  0  0
 19 44  1  0  0  0  0
 19 20  2  0  0  0  0
 20 45  1  0  0  0  0
 20 21  1  0  0  0  0
 21 22  2  0  0  0  0
M  END
> <s_m_source_file>
AV-unprocessed.smi

> <i_m_source_file_index>
670

> <i_lp_mmshare_version>
43012

> <i_f3d_flags>
0

> <s_epik_input>
W0NIM11bQ0BASF0xW0NIMl1bQ0gyXVtDSDJdW0NIMl1bQ0BIXTFPW0NIMl1bQ0gyXVtOSF1DKD1PKVtDSDJdbjJbbkhdYyg9TylbY0hdW2NIXWMyPU8=

> <s_epik_cmdline>
J2VwaWtfcHl0aG9uJywgJy1waCcsICc3LjAnLCAnLXRuJywgJzgnLCAnLW1hJywgJzIwMCcsICctbWV0YWxfYmluZGluZycsICctaW1hZScsICc8aW5maWxlLm1hZT4nLCAnLW9tYWUnLCAnPG91dGZpbGUubWFlPic=

> <r_lp_tautomer_probability>
0.9996

> <r_epik_Ionization_Penalty>
2.12726

> <r_epik_Ionization_Penalty_Charging>
3.83395e-08

> <r_epik_Ionization_Penalty_Neutral>
2.12726

> <r_epik_State_Penalty>
1.70432

> <r_epik_Charging_Adjusted_Penalty>
1.70432

> <i_epik_Tot_Q>
0

> <i_epik_Tot_abs_Q>
0

> <r_epik_Metal_State_Penalty>
1.70432

> <b_epik_Metal_Only>
0

> <s_lp_Force_Field>
OPLS_2005

> <r_lp_Energy>
20.0493

> <b_lp_Chiralities_Consistent>
1

> <s_lp_Variant>
AV-unprocessed.smi:670-7

> <Gold.Version>
5.8.1

> <Gold.Id.Protein>
6NUR|6NUR_protein|mol2

> <Gold.PLP.Fitness>
50.6755

> <Gold.PLP.PLP>
-43.7859

> <Gold.PLP.part.hbond>
-4.0000

> <Gold.PLP.part.metal>
0.0000

> <Gold.PLP.part.buried>
-1.6743

> <Gold.PLP.part.nonpolar>
-41.5107

> <Gold.PLP.part.repulsive>
4.4660

> <Gold.PLP.ligand.clash>
0.0000

> <Gold.PLP.ligand.torsion>
0.8515

> <Gold.PLP.Chemscore.Hbond>
2.8000

> <Gold.PLP.Chemscore.CHOScore>
0.0000

> <Gold.PLP.Chemscore.Metal>
0.0000

> <Gold.Chemscore.Hbonds>
donor molecule, donor type, donor heavy atom, donor atom, acceptor molecule, acceptor atom, score
      L1  H    18    23       P1 10175  0.66
      P1  H  7989  7998       L1    13  0.88
      P1  H  8011  8017       L1    22  0.02
      P1  H  8022  8030       L1    22  0.88

> <Gold.PLP.Chemscore.Internal.Correction>
0.1925

> <Gold.Rescore>
     Score         DG    S(hbond)    S(metal)    S(lipo)     H(rot)  DE(clash)    DE(int)     intcor
     14.58     -18.07       2.31        0.00     109.36       3.09       2.64       0.85       ----

> <Gold.Chemscore.Fitness>
14.5800

> <Gold.Chemscore.DG>
-18.0668

> <Gold.Chemscore.ZeroCoef>
-5.4800

> <Gold.Chemscore.Hbond>
2.3062

> <Gold.Chemscore.Metal>
0.0000

> <Gold.Chemscore.Lipo>
109.3573

> <Gold.Chemscore.Internal_Hbond>
0.0000

> <Gold.Chemscore.DEClash>
2.6369

> <Gold.Chemscore.DEInternal>
0.8500

> <Gold.Chemscore.Rot>
3.0901

> <Gold.Chemscore.Internal.Correction>
   9.000000E+99

> <Gold.Chemscore.Hbonds>
donor molecule, donor type, donor heavy atom, donor atom, acceptor molecule, acceptor atom, score
      L1  H    18    23       P1 10175  0.65
      P1  H  7989  7998       L1    13  0.86
      P1  H  8011  8017       L1    22  0.04
      P1  H  8022  8030       L1    22  0.83

> <Gold.Chemscore.Hbond.Weighted>
-7.7026

> <Gold.Chemscore.Metal.Weighted>
-0.0000

> <Gold.Chemscore.Lipo.Weighted>
-12.7948

> <Gold.Chemscore.Internal_Hbond.Weighted>
0.0000

> <Gold.Chemscore.DEClash.Weighted>
2.6369

> <Gold.Chemscore.DEInternal.Weighted>
0.8500

> <Gold.Chemscore.Rot.Weighted>
7.9106

> <Gold.Chemscore.Internal.Correction.Weighted>
   9.000000E+99

> <Gold.Protein.RotatedTorsions>
[ 6907 6896 6895 6894 ] final   19.84 input  -60.11 | X-H torsion
[ 7974 7965 7964 7962 ] final  -68.13 input  175.53 | X-H torsion
[ 8008 7997 7996 7995 ] final   -6.78 input   59.86 | X-H torsion
[ 10167 10162 10161 10158 ] final  104.37 input  -65.29 | X-H torsion
[ 10718 10713 10712 10709 ] final -173.17 input   66.30 | X-H torsion
[ 10763 10752 10751 10750 ] final   70.68 input  -60.55 | X-H torsion
[ 11005 11000 10999 10996 ] final  -29.28 input  -57.11 | X-H torsion

> <Gold.Protein.ActiveResidues>
 VAL166  LYS551  ARG553  GLY616  TRP617  ASP618  TYR619  PRO620  LYS621  CYS622 
 ASP623  PHE694  ASN695  SER759  ASP760  ASP761  ALA762  ILE779  LEU786  VAL792 
 PHE793  MET794  SER795  GLU796  ALA797  LYS798  CYS799  TRP800  GLU811  SER814 

> <Gold.Protein.RotatedAtoms>
  151.8871  135.0431  160.0494 H   0  0  0  0  0  0  0  0  0  0  0  0  # atno 6907 bound_to 6896
  152.2466  133.5175  159.5309 H   0  0  0  0  0  0  0  0  0  0  0  0  # atno 6908 bound_to 6896
  150.7070  134.0933  159.3982 H   0  0  0  0  0  0  0  0  0  0  0  0  # atno 6909 bound_to 6896
  145.7204  140.9041  143.0633 H   0  0  0  0  0  0  0  0  0  0  0  0  # atno 7974 bound_to 7965
  154.5903  140.2424  155.7930 H   0  0  0  0  0  0  0  0  0  0  0  0  # atno 8008 bound_to 7997
  156.2242  140.2988  155.9981 H   0  0  0  0  0  0  0  0  0  0  0  0  # atno 8009 bound_to 7997
  155.2386  140.0406  157.2962 H   0  0  0  0  0  0  0  0  0  0  0  0  # atno 8010 bound_to 7997
  139.7183  144.7063  151.0914 H   0  0  0  0  0  0  0  0  0  0  0  0  # atno 10167 bound_to 10162
  156.7663  130.9432  151.3119 H   0  0  0  0  0  0  0  0  0  0  0  0  # atno 10718 bound_to 10713
  153.0355  135.5165  154.7478 H   0  0  0  0  0  0  0  0  0  0  0  0  # atno 10763 bound_to 10752
  154.6458  135.2918  155.0050 H   0  0  0  0  0  0  0  0  0  0  0  0  # atno 10764 bound_to 10752
  154.0952  135.6644  153.4911 H   0  0  0  0  0  0  0  0  0  0  0  0  # atno 10765 bound_to 10752
  140.9282  133.7355  156.0898 H   0  0  0  0  0  0  0  0  0  0  0  0  # atno 11005 bound_to 11000
  144.6918  139.9195  143.7467 LP  0  0  0  0  0  0  0  0  0  0  0  0  # atno 17320 bound_to 7965
  146.0630  139.3623  143.0569 LP  0  0  0  0  0  0  0  0  0  0  0  0  # atno 17321 bound_to 7965
  140.7748  143.5200  150.9548 LP  0  0  0  0  0  0  0  0  0  0  0  0  # atno 17342 bound_to 10162
  139.8886  143.6981  152.3148 LP  0  0  0  0  0  0  0  0  0  0  0  0  # atno 17343 bound_to 10162
  157.6711  130.9052  150.0043 LP  0  0  0  0  0  0  0  0  0  0  0  0  # atno 17370 bound_to 10713
  156.1306  130.3643  149.9737 LP  0  0  0  0  0  0  0  0  0  0  0  0  # atno 17371 bound_to 10713
  140.7898  134.3631  157.5467 LP  0  0  0  0  0  0  0  0  0  0  0  0  # atno 17394 bound_to 11000
  139.8790  134.9133  156.3080 LP  0  0  0  0  0  0  0  0  0  0  0  0  # atno 17395 bound_to 11000

$$$$
