AV-unprocessed.smi:1968|AV-procd|sdf|7956|dock2
  -GOLD-   2272010123D 1   1.00000     0.00000
 Structure written by MMmdl.
 42 43  0  0  0  0  0  0  0  0  1 V2000
  145.3122  144.2942  153.0386 C   0  0  0  0  0  0  0  0  0  0  0  0
  145.3144  143.6191  154.4122 C   0  0  0  0  0  0  0  0  0  0  0  0
  144.8336  144.2382  155.3615 O   0  0  0  0  0  0  0  0  0  0  0  0
  145.8422  142.3777  154.5394 N   0  0  0  0  0  0  0  0  0  0  0  0
  146.5044  141.6220  153.4690 C   0  0  0  0  0  0  0  0  0  0  0  0
  148.0150  141.5744  153.7586 C   0  0  0  0  0  0  0  0  0  0  0  0
  148.3019  140.9749  155.1556 C   0  0  0  0  0  0  0  0  0  0  0  0
  149.7123  141.1234  155.5010 N   0  0  0  0  0  0  0  0  0  0  0  0
  150.2907  140.6639  156.6209 C   0  0  0  0  0  0  0  0  0  0  0  0
  149.6775  140.0432  157.4906 O   0  0  0  0  0  0  0  0  0  0  0  0
  151.7956  140.9372  156.7577 C   0  0  0  0  0  0  0  0  0  0  0  0
  152.1740  141.4904  158.0690 N   0  0  0  0  0  0  0  0  0  0  0  0
  151.6949  142.7773  158.3846 C   0  0  0  0  0  0  0  0  0  0  0  0
  151.9615  143.3927  159.5527 C   0  0  0  0  0  0  0  0  0  0  0  0
  151.4827  144.8071  159.8416 C   0  0  0  0  0  0  0  0  0  0  0  0
  150.1521  144.8796  159.8006 F   0  0  0  0  0  0  0  0  0  0  0  0
  151.8879  145.2195  161.0434 F   0  0  0  0  0  0  0  0  0  0  0  0
  151.9718  145.6455  158.9290 F   0  0  0  0  0  0  0  0  0  0  0  0
  152.8089  142.6723  160.4824 C   0  0  0  0  0  0  0  0  0  0  0  0
  153.2857  141.4461  160.1912 C   0  0  0  0  0  0  0  0  0  0  0  0
  152.9715  140.7823  158.9239 C   0  0  0  0  0  0  0  0  0  0  0  0
  153.3993  139.6612  158.6477 O   0  0  0  0  0  0  0  0  0  0  0  0
  147.4321  141.6400  156.2447 C   0  0  0  0  0  0  0  0  0  0  0  0
  145.9502  141.6889  155.8305 C   0  0  0  0  0  0  0  0  0  0  0  0
  146.3271  144.3903  152.6518 H   0  0  0  0  0  0  0  0  0  0  0  0
  144.8858  145.2959  153.1032 H   0  0  0  0  0  0  0  0  0  0  0  0
  144.7135  143.7228  152.3291 H   0  0  0  0  0  0  0  0  0  0  0  0
  146.0999  140.6091  153.4424 H   0  0  0  0  0  0  0  0  0  0  0  0
  146.3294  142.0288  152.4741 H   0  0  0  0  0  0  0  0  0  0  0  0
  148.5195  140.9921  152.9868 H   0  0  0  0  0  0  0  0  0  0  0  0
  148.4219  142.5851  153.6984 H   0  0  0  0  0  0  0  0  0  0  0  0
  148.0502  139.9126  155.1339 H   0  0  0  0  0  0  0  0  0  0  0  0
  150.2916  141.6190  154.8389 H   0  0  0  0  0  0  0  0  0  0  0  0
  152.3290  140.0042  156.5693 H   0  0  0  0  0  0  0  0  0  0  0  0
  152.1131  141.6115  155.9597 H   0  0  0  0  0  0  0  0  0  0  0  0
  151.1022  143.2381  157.6074 H   0  0  0  0  0  0  0  0  0  0  0  0
  153.0639  143.1227  161.4305 H   0  0  0  0  0  0  0  0  0  0  0  0
  153.9138  140.9384  160.9086 H   0  0  0  0  0  0  0  0  0  0  0  0
  147.5366  141.1025  157.1880 H   0  0  0  0  0  0  0  0  0  0  0  0
  147.7821  142.6573  156.4286 H   0  0  0  0  0  0  0  0  0  0  0  0
  145.3606  142.1658  156.6147 H   0  0  0  0  0  0  0  0  0  0  0  0
  145.5532  140.6772  155.7359 H   0  0  0  0  0  0  0  0  0  0  0  0
  1  2  1  0  0  0  0
  1 25  1  0  0  0  0
  1 26  1  0  0  0  0
  1 27  1  0  0  0  0
  2  3  2  0  0  0  0
  2  4  1  0  0  0  0
  4 24  1  0  0  0  0
  4  5  1  0  0  0  0
  5  6  1  0  0  0  0
  5 28  1  0  0  0  0
  5 29  1  0  0  0  0
  6  7  1  0  0  0  0
  6 30  1  0  0  0  0
  6 31  1  0  0  0  0
  7  8  1  0  0  0  0
  7 23  1  0  0  0  0
  7 32  1  0  0  0  0
  8  9  1  0  0  0  0
  8 33  1  0  0  0  0
  9 10  2  0  0  0  0
  9 11  1  0  0  0  0
 11 12  1  0  0  0  0
 11 34  1  0  0  0  0
 11 35  1  0  0  0  0
 12 21  1  0  0  0  0
 12 13  1  0  0  0  0
 13 14  2  0  0  0  0
 13 36  1  0  0  0  0
 14 15  1  0  0  0  0
 14 19  1  0  0  0  0
 15 16  1  0  0  0  0
 15 17  1  0  0  0  0
 15 18  1  0  0  0  0
 19 20  2  0  0  0  0
 19 37  1  0  0  0  0
 20 21  1  0  0  0  0
 20 38  1  0  0  0  0
 21 22  2  0  0  0  0
 23 24  1  0  0  0  0
 23 39  1  0  0  0  0
 23 40  1  0  0  0  0
 24 41  1  0  0  0  0
 24 42  1  0  0  0  0
M  END
> <s_m_source_file>
AV-unprocessed.smi

> <i_m_source_file_index>
1968

> <i_lp_mmshare_version>
43012

> <i_f3d_flags>
0

> <s_epik_input>
W0NIM11DKD1PKU4xW0NIMl1bQ0gyXVtDSF0oW0NIMl1bQ0gyXTEpW05IXUMoPU8pW0NIMl1uMltjSF1jKEMoRikoRilGKVtjSF1bY0hdYzI9Tw==

> <s_epik_cmdline>
J2VwaWtfcHl0aG9uJywgJy1waCcsICc3LjAnLCAnLXRuJywgJzgnLCAnLW1hJywgJzIwMCcsICctbWV0YWxfYmluZGluZycsICctaW1hZScsICc8aW5maWxlLm1hZT4nLCAnLW9tYWUnLCAnPG91dGZpbGUubWFlPic=

> <r_lp_tautomer_probability>
1

> <r_epik_Ionization_Penalty>
1.143e-06

> <r_epik_Ionization_Penalty_Charging>
1.89481e-08

> <r_epik_Ionization_Penalty_Neutral>
1.12405e-06

> <r_epik_State_Penalty>
-0

> <r_epik_Charging_Adjusted_Penalty>
1.89481e-08

> <i_epik_Tot_Q>
0

> <i_epik_Tot_abs_Q>
0

> <r_epik_Metal_State_Penalty>
-0

> <b_epik_Metal_Only>
0

> <s_lp_Force_Field>
OPLS_2005

> <r_lp_Energy>
33.7668

> <b_lp_Chiralities_Consistent>
1

> <s_lp_Variant>
AV-unprocessed.smi:1968-1

> <Gold.Version>
5.8.1

> <Gold.Id.Protein>
6NUR|6NUR_protein|mol2

> <Gold.PLP.Fitness>
51.3915

> <Gold.PLP.PLP>
-48.6961

> <Gold.PLP.part.hbond>
-1.0000

> <Gold.PLP.part.metal>
0.0000

> <Gold.PLP.part.buried>
-3.3494

> <Gold.PLP.part.nonpolar>
-42.5975

> <Gold.PLP.part.repulsive>
0.2670

> <Gold.PLP.ligand.clash>
0.0000

> <Gold.PLP.ligand.torsion>
0.1814

> <Gold.PLP.Chemscore.Hbond>
1.0000

> <Gold.PLP.Chemscore.CHOScore>
0.0000

> <Gold.PLP.Chemscore.Metal>
0.0000

> <Gold.Chemscore.Hbonds>
donor molecule, donor type, donor heavy atom, donor atom, acceptor molecule, acceptor atom, score
      P1  H  7997  8008       L1    22  0.99

> <Gold.PLP.Chemscore.Internal.Correction>
0.0582

> <Gold.Rescore>
     Score         DG    S(hbond)    S(metal)    S(lipo)     H(rot)  DE(clash)    DE(int)     intcor
     12.51     -14.87       0.90        0.00      90.63       1.64       1.09       1.27       ----

> <Gold.Chemscore.Fitness>
12.5092

> <Gold.Chemscore.DG>
-14.8679

> <Gold.Chemscore.ZeroCoef>
-5.4800

> <Gold.Chemscore.Hbond>
0.8956

> <Gold.Chemscore.Metal>
0.0000

> <Gold.Chemscore.Lipo>
90.6325

> <Gold.Chemscore.Internal_Hbond>
0.0000

> <Gold.Chemscore.DEClash>
1.0873

> <Gold.Chemscore.DEInternal>
1.2715

> <Gold.Chemscore.Rot>
1.6435

> <Gold.Chemscore.Internal.Correction>
   9.000000E+99

> <Gold.Chemscore.Hbonds>
donor molecule, donor type, donor heavy atom, donor atom, acceptor molecule, acceptor atom, score
      P1  H  7997  8008       L1    22  0.37

> <Gold.Chemscore.Hbond.Weighted>
-2.9913

> <Gold.Chemscore.Metal.Weighted>
-0.0000

> <Gold.Chemscore.Lipo.Weighted>
-10.6040

> <Gold.Chemscore.Internal_Hbond.Weighted>
0.0000

> <Gold.Chemscore.DEClash.Weighted>
1.0873

> <Gold.Chemscore.DEInternal.Weighted>
1.2715

> <Gold.Chemscore.Rot.Weighted>
4.2074

> <Gold.Chemscore.Internal.Correction.Weighted>
   9.000000E+99

> <Gold.Protein.RotatedTorsions>
[ 6907 6896 6895 6894 ] final  115.13 input  -60.11 | X-H torsion
[ 7974 7965 7964 7962 ] final  -41.55 input  175.53 | X-H torsion
[ 8008 7997 7996 7995 ] final  -90.84 input   59.86 | X-H torsion
[ 10167 10162 10161 10158 ] final  -80.63 input  -65.29 | X-H torsion
[ 10718 10713 10712 10709 ] final   44.57 input   66.30 | X-H torsion
[ 10763 10752 10751 10750 ] final -133.54 input  -60.55 | X-H torsion
[ 11005 11000 10999 10996 ] final  170.56 input  -57.11 | X-H torsion

> <Gold.Protein.ActiveResidues>
 VAL166  LYS551  ARG553  GLY616  TRP617  ASP618  TYR619  PRO620  LYS621  CYS622 
 ASP623  PHE694  ASN695  SER759  ASP760  ASP761  ALA762  ILE779  LEU786  VAL792 
 PHE793  MET794  SER795  GLU796  ALA797  LYS798  CYS799  TRP800  GLU811  SER814 

> <Gold.Protein.RotatedAtoms>
  152.4760  133.8140  159.7018 H   0  0  0  0  0  0  0  0  0  0  0  0  # atno 6907 bound_to 6896
  150.8778  133.7405  159.2948 H   0  0  0  0  0  0  0  0  0  0  0  0  # atno 6908 bound_to 6896
  151.4919  135.1061  159.9858 H   0  0  0  0  0  0  0  0  0  0  0  0  # atno 6909 bound_to 6896
  146.0200  140.6861  142.9183 H   0  0  0  0  0  0  0  0  0  0  0  0  # atno 7974 bound_to 7965
  154.7034  140.0526  157.0480 H   0  0  0  0  0  0  0  0  0  0  0  0  # atno 8008 bound_to 7997
  155.0653  140.3194  155.4628 H   0  0  0  0  0  0  0  0  0  0  0  0  # atno 8009 bound_to 7997
  156.2767  140.2091  156.5780 H   0  0  0  0  0  0  0  0  0  0  0  0  # atno 8010 bound_to 7997
  140.4486  143.2490  151.8522 H   0  0  0  0  0  0  0  0  0  0  0  0  # atno 10167 bound_to 10162
  157.4282  130.8009  149.7578 H   0  0  0  0  0  0  0  0  0  0  0  0  # atno 10718 bound_to 10713
  154.8731  135.3763  154.4589 H   0  0  0  0  0  0  0  0  0  0  0  0  # atno 10763 bound_to 10752
  153.5259  135.7028  153.5713 H   0  0  0  0  0  0  0  0  0  0  0  0  # atno 10764 bound_to 10752
  153.3939  135.3965  155.1907 H   0  0  0  0  0  0  0  0  0  0  0  0  # atno 10765 bound_to 10752
  140.3096  134.7528  157.3981 H   0  0  0  0  0  0  0  0  0  0  0  0  # atno 11005 bound_to 11000
  144.6986  140.3549  143.7175 LP  0  0  0  0  0  0  0  0  0  0  0  0  # atno 17320 bound_to 7965
  145.7208  139.1709  143.2486 LP  0  0  0  0  0  0  0  0  0  0  0  0  # atno 17321 bound_to 7965
  139.4795  144.5146  151.8885 LP  0  0  0  0  0  0  0  0  0  0  0  0  # atno 17342 bound_to 10162
  140.4234  144.2213  150.5887 LP  0  0  0  0  0  0  0  0  0  0  0  0  # atno 17343 bound_to 10162
  155.9904  130.3945  150.3031 LP  0  0  0  0  0  0  0  0  0  0  0  0  # atno 17370 bound_to 10713
  157.1185  131.0240  151.3019 LP  0  0  0  0  0  0  0  0  0  0  0  0  # atno 17371 bound_to 10713
  140.1036  134.5439  155.8330 LP  0  0  0  0  0  0  0  0  0  0  0  0  # atno 17394 bound_to 11000
  141.2111  133.6702  156.6557 LP  0  0  0  0  0  0  0  0  0  0  0  0  # atno 17395 bound_to 11000

$$$$
