#       Name:                AV-unprocessed.smi:87
#       Creating user name   scv26
#       Creation time:       Thu Mar 26 17:22:19 2020


#       File generated by GOLD software.
#

@<TRIPOS>MOLECULE
AV-unprocessed.smi:87
    66    68     1
SMALL
NO_CHARGES


@<TRIPOS>ATOM
      1 ****        -3.5959   1.1053   2.3964 C.3            1 S1                 0.0000
      2 ****        -3.3997  -0.4130   2.2745 C.3            1 S1                 0.0000
      3 ****        -3.7044  -0.9859   0.8697 C.3            1 S1                 0.0000
      4 ****        -5.2177  -0.9322   0.5551 C.3            1 S1                 0.0000
      5 ****        -5.5641  -1.1978  -0.9176 C.3            1 S1                 0.0000
      6 ****        -3.1693  -2.4341   0.7220 C.3            1 S1                 0.0000
      7 ****        -1.7095  -2.5453   0.7970 N.pl3          1 S1                 0.0000
      8 ****        -1.0892  -3.0703   2.0129 C.3            1 S1                 0.0000
      9 ****         0.0020  -4.1103   1.7170 C.3            1 S1                 0.0000
     10 ****         0.6095  -4.6482   2.9426 C.1            1 S1                 0.0000
     11 ****         1.0878  -5.0713   3.9072 N.1            1 S1                 0.0000
     12 ****        -0.9628  -1.9107  -0.1483 C.ar           1 S1                 0.0000
     13 ****        -1.4112  -1.9363  -1.4315 N.ar           1 S1                 0.0000
     14 ****        -0.7272  -1.3303  -2.4052 C.ar           1 S1                 0.0000
     15 ****         0.4155  -0.6489  -2.3208 N.ar           1 S1                 0.0000
     16 ****         0.8710  -0.6085  -1.0366 C.ar           1 S1                 0.0000
     17 ****         0.2521  -1.2030   0.1014 C.ar           1 S1                 0.0000
     18 ****         1.0087  -0.9255   1.2358 N.2            1 S1                 0.0000
     19 ****         2.0149  -0.2225   0.7947 C.2            1 S1                 0.0000
     20 ****         2.0104   0.0148  -0.5593 N.pl3          1 S1                 0.0000
     21 ****         2.9995   0.7688  -1.3112 C.3            1 S1                 0.0000
     22 ****         2.8218   2.2978  -1.1652 C.3            1 S1                 0.0000
     23 ****         1.4804   2.6128  -1.4912 O.3            1 S1                 0.0000
     24 ****         3.7261   3.1358  -2.1011 C.3            1 S1                 0.0000
     25 ****         5.2315   2.8280  -2.0203 C.3            1 S1                 0.0000
     26 ****         5.7326   3.8053  -0.9828 C.3            1 S1                 0.0000
     27 ****         4.8887   5.0267  -1.3084 C.3            1 S1                 0.0000
     28 ****         3.6208   4.4992  -1.6787 O.3            1 S1                 0.0000
     29 ****        -3.2755   1.4545   3.3782 H              1 S1                 0.0000
     30 ****        -4.6385   1.3966   2.2766 H              1 S1                 0.0000
     31 ****        -3.0075   1.6391   1.6496 H              1 S1                 0.0000
     32 ****        -2.3618  -0.6142   2.5352 H              1 S1                 0.0000
     33 ****        -4.0017  -0.9260   3.0252 H              1 S1                 0.0000
     34 ****        -3.1983  -0.3536   0.1393 H              1 S1                 0.0000
     35 ****        -5.7543  -1.6370   1.1914 H              1 S1                 0.0000
     36 ****        -5.6135   0.0517   0.8011 H              1 S1                 0.0000
     37 ****        -6.6302  -1.0524  -1.0925 H              1 S1                 0.0000
     38 ****        -5.3250  -2.2171  -1.2183 H              1 S1                 0.0000
     39 ****        -5.0259  -0.5164  -1.5770 H              1 S1                 0.0000
     40 ****        -3.6226  -3.0632   1.4886 H              1 S1                 0.0000
     41 ****        -3.4880  -2.8685  -0.2243 H              1 S1                 0.0000
     42 ****        -0.6876  -2.2539   2.6115 H              1 S1                 0.0000
     43 ****        -1.8535  -3.5382   2.6337 H              1 S1                 0.0000
     44 ****        -0.4155  -4.9474   1.1574 H              1 S1                 0.0000
     45 ****         0.8060  -3.6903   1.1140 H              1 S1                 0.0000
     46 ****        -1.1580  -1.4013  -3.3930 H              1 S1                 0.0000
     47 ****         2.7900   0.1487   1.4493 H              1 S1                 0.0000
     48 ****         3.9802   0.4547  -0.9561 H              1 S1                 0.0000
     49 ****         2.9384   0.4771  -2.3603 H              1 S1                 0.0000
     50 ****         3.0001   2.5799  -0.1267 H              1 S1                 0.0000
     51 ****         1.3216   2.3612  -2.3883 H              1 S1                 0.0000
     52 ****         3.3901   3.0364  -3.1345 H              1 S1                 0.0000
     53 ****         5.4831   1.7955  -1.7874 H              1 S1                 0.0000
     54 ****         5.6969   3.0591  -2.9796 H              1 S1                 0.0000
     55 ****         5.5088   3.4425   0.0211 H              1 S1                 0.0000
     56 ****         6.8038   3.9957  -1.0521 H              1 S1                 0.0000
     57 ****         4.8067   5.7192  -0.4704 H              1 S1                 0.0000
     58 ****         5.3085   5.5662  -2.1584 H              1 S1                 0.0000
     59 ****         1.5013  -5.4370   4.7410 LP             1 S1                 0.0000
     60 ****        -2.2624  -2.4141  -1.6486 LP             1 S1                 0.0000
     61 ****         0.8782  -0.2229  -3.0983 LP             1 S1                 0.0000
     62 ****         0.8226  -1.2030   2.1783 LP             1 S1                 0.0000
     63 ****         1.3297   3.5957  -1.3851 LP             1 S1                 0.0000
     64 ****         0.8603   2.1133  -0.8863 LP             1 S1                 0.0000
     65 ****         3.0051   4.5497  -0.8924 LP             1 S1                 0.0000
     66 ****         3.2481   5.0446  -2.4294 LP             1 S1                 0.0000
@<TRIPOS>BOND
    1    1    2 1     
    2    1   29 1     
    3    1   30 1     
    4    1   31 1     
    5    2    3 1     
    6    2   32 1     
    7    2   33 1     
    8    3    4 1     
    9    3    6 1     
   10    3   34 1     
   11    4    5 1     
   12    4   35 1     
   13    4   36 1     
   14    5   37 1     
   15    5   38 1     
   16    5   39 1     
   17    6    7 1     
   18    6   40 1     
   19    6   41 1     
   20    7    8 1     
   21    7   12 1     
   22    8    9 1     
   23    8   42 1     
   24    8   43 1     
   25    9   10 1     
   26    9   44 1     
   27    9   45 1     
   28   10   11 3     
   29   12   17 ar    
   30   12   13 ar    
   31   13   14 ar    
   32   14   15 ar    
   33   14   46 1     
   34   15   16 ar    
   35   16   20 1     
   36   16   17 ar    
   37   17   18 1     
   38   18   19 2     
   39   19   20 1     
   40   19   47 1     
   41   20   21 1     
   42   21   22 1     
   43   21   48 1     
   44   21   49 1     
   45   22   23 1     
   46   22   24 1     
   47   22   50 1     
   48   23   51 1     
   49   24   28 1     
   50   24   25 1     
   51   24   52 1     
   52   25   26 1     
   53   25   53 1     
   54   25   54 1     
   55   26   27 1     
   56   26   55 1     
   57   26   56 1     
   58   27   28 1     
   59   27   57 1     
   60   27   58 1     
   61   11   59 1     
   62   13   60 1     
   63   15   61 1     
   64   18   62 1     
   65   23   63 1     
   66   23   64 1     
   67   28   65 1     
   68   28   66 1     
@<TRIPOS>SUBSTRUCTURE
      1 S1             1
@<TRIPOS>SET
LONE_PAIRS      STATIC     ATOMS    <user>   **** ""
8 59 60 61 62 63 64 65 66
DONOR_HYDROGENS      STATIC     ATOMS    <user>   **** ""
1 51
ATOM$BLUE        STATIC     ATOMS    COLORGROUP SYSTEM
8 59 60 61 62 63 64 65 66
ATOM$RED        STATIC     ATOMS    COLORGROUP SYSTEM
1 51
