AV-unprocessed.smi:1422|AV-procd|sdf|5792|dock6
  -GOLD-   22720 5443D 1   1.00000     0.00000
 Structure written by MMmdl.
 31 32  0  0  0  0  0  0  0  0  1 V2000
  144.4535  131.9470  150.4048 C   0  0  0  0  0  0  0  0  0  0  0  0
  144.7365  133.2757  151.0174 C   0  0  0  0  0  0  0  0  0  0  0  0
  145.8336  134.0903  151.0062 C   0  0  0  0  0  0  0  0  0  0  0  0
  145.4182  135.1967  151.7939 C   0  0  0  0  0  0  0  0  0  0  0  0
  146.2924  136.2874  152.0334 N   0  0  0  0  0  0  0  0  0  0  0  0
  145.9958  137.4638  152.6117 C   0  0  0  0  0  0  0  0  0  0  0  0
  144.8835  137.7885  153.0282 O   0  0  0  0  0  0  0  0  0  0  0  0
  147.0743  138.2580  152.6787 N   0  0  0  0  0  0  0  0  0  0  0  0
  147.1013  139.6050  153.2405 C   0  0  0  0  0  0  0  0  0  0  0  0
  148.2123  139.7622  154.2953 C   0  0  2  0  0  0  0  0  0  0  0  0
  148.4970  141.2004  154.6760 C   0  0  0  0  0  0  0  0  0  0  0  0
  149.8679  141.0849  155.3357 C   0  0  0  0  0  0  0  0  0  0  0  0
  150.5263  140.0074  154.6761 O   0  0  0  0  0  0  0  0  0  0  0  0
  149.6029  139.3013  153.8525 C   0  0  0  0  0  0  0  0  0  0  0  0
  144.1792  135.0699  152.2435 N   0  0  0  0  0  0  0  0  0  0  0  0
  143.7362  133.8376  151.7489 O   0  0  0  0  0  0  0  0  0  0  0  0
  145.2018  131.6978  149.6523 H   0  0  0  0  0  0  0  0  0  0  0  0
  143.4757  131.9419  149.9230 H   0  0  0  0  0  0  0  0  0  0  0  0
  144.4619  131.1636  151.1629 H   0  0  0  0  0  0  0  0  0  0  0  0
  146.7793  133.9187  150.5140 H   0  0  0  0  0  0  0  0  0  0  0  0
  147.2473  136.1562  151.7346 H   0  0  0  0  0  0  0  0  0  0  0  0
  147.9456  137.9053  152.3105 H   0  0  0  0  0  0  0  0  0  0  0  0
  147.2055  140.3550  152.4544 H   0  0  0  0  0  0  0  0  0  0  0  0
  146.1320  139.7866  153.7056 H   0  0  0  0  0  0  0  0  0  0  0  0
  147.9337  139.2172  155.1990 H   0  0  0  0  0  0  0  0  0  0  0  0
  148.5634  141.8254  153.7839 H   0  0  0  0  0  0  0  0  0  0  0  0
  147.7425  141.6279  155.3370 H   0  0  0  0  0  0  0  0  0  0  0  0
  150.4437  142.0079  155.2659 H   0  0  0  0  0  0  0  0  0  0  0  0
  149.7616  140.8307  156.3910 H   0  0  0  0  0  0  0  0  0  0  0  0
  149.7346  138.2228  153.9430 H   0  0  0  0  0  0  0  0  0  0  0  0
  149.7898  139.5785  152.8143 H   0  0  0  0  0  0  0  0  0  0  0  0
  1  2  1  0  0  0  0
  1 17  1  0  0  0  0
  1 18  1  0  0  0  0
  1 19  1  0  0  0  0
  2 16  1  0  0  0  0
  2  3  2  0  0  0  0
  3  4  1  0  0  0  0
  3 20  1  0  0  0  0
  4  5  1  0  0  0  0
  4 15  2  0  0  0  0
  5  6  1  0  0  0  0
  5 21  1  0  0  0  0
  6  7  2  0  0  0  0
  6  8  1  0  0  0  0
  8  9  1  0  0  0  0
  8 22  1  0  0  0  0
  9 10  1  0  0  0  0
  9 23  1  0  0  0  0
  9 24  1  0  0  0  0
 10 14  1  0  0  0  0
 10 11  1  0  0  0  0
 10 25  1  0  0  0  0
 11 12  1  0  0  0  0
 11 26  1  0  0  0  0
 11 27  1  0  0  0  0
 12 13  1  0  0  0  0
 12 28  1  0  0  0  0
 12 29  1  0  0  0  0
 13 14  1  0  0  0  0
 14 30  1  0  0  0  0
 14 31  1  0  0  0  0
 15 16  1  0  0  0  0
M  END
> <s_m_source_file>
AV-unprocessed.smi

> <i_m_source_file_index>
1422

> <i_lp_mmshare_version>
43012

> <i_f3d_flags>
0

> <s_epik_input>
W0NIM11jMVtjSF1jKG5vMSlbTkhdQyg9TylbTkhdW0NIMl1bQ0BASF0yW0NIMl1bQ0gyXU9bQ0gyXTI=

> <s_epik_cmdline>
J2VwaWtfcHl0aG9uJywgJy1waCcsICc3LjAnLCAnLXRuJywgJzgnLCAnLW1hJywgJzIwMCcsICctbWV0YWxfYmluZGluZycsICctaW1hZScsICc8aW5maWxlLm1hZT4nLCAnLW9tYWUnLCAnPG91dGZpbGUubWFlPic=

> <r_lp_tautomer_probability>
1

> <r_epik_Ionization_Penalty>
2.27275e-05

> <r_epik_Ionization_Penalty_Charging>
0

> <r_epik_Ionization_Penalty_Neutral>
2.27275e-05

> <r_epik_State_Penalty>
-0

> <r_epik_Charging_Adjusted_Penalty>
0

> <i_epik_Tot_Q>
0

> <i_epik_Tot_abs_Q>
0

> <r_epik_Metal_State_Penalty>
-0

> <b_epik_Metal_Only>
0

> <s_lp_Force_Field>
OPLS_2005

> <r_lp_Energy>
16.1313

> <b_lp_Chiralities_Consistent>
1

> <s_lp_Variant>
AV-unprocessed.smi:1422-1

> <Gold.Version>
5.8.1

> <Gold.Id.Protein>
6NUR|6NUR_protein|mol2

> <Gold.PLP.Fitness>
34.1467

> <Gold.PLP.PLP>
-25.7213

> <Gold.PLP.part.hbond>
-3.0000

> <Gold.PLP.part.metal>
0.0000

> <Gold.PLP.part.buried>
-2.7708

> <Gold.PLP.part.nonpolar>
-22.5805

> <Gold.PLP.part.repulsive>
2.0860

> <Gold.PLP.ligand.clash>
0.0000

> <Gold.PLP.ligand.torsion>
0.1101

> <Gold.PLP.Chemscore.Hbond>
2.8800

> <Gold.PLP.Chemscore.CHOScore>
0.0000

> <Gold.PLP.Chemscore.Metal>
0.0000

> <Gold.Chemscore.Hbonds>
donor molecule, donor type, donor heavy atom, donor atom, acceptor molecule, acceptor atom, score
      L1  H     5    21       P1  7948  1.00
      L1  H     8    22       P1  7948  0.90
      P1  H  7989  7998       L1    13  1.00

> <Gold.PLP.Chemscore.Internal.Correction>
0.0055

> <Gold.Rescore>
     Score         DG    S(hbond)    S(metal)    S(lipo)     H(rot)  DE(clash)    DE(int)     intcor
     14.86     -17.82       2.77        0.00      54.78       1.30       1.65       1.32       ----

> <Gold.Chemscore.Fitness>
14.8605

> <Gold.Chemscore.DG>
-17.8237

> <Gold.Chemscore.ZeroCoef>
-5.4800

> <Gold.Chemscore.Hbond>
2.7707

> <Gold.Chemscore.Metal>
0.0000

> <Gold.Chemscore.Lipo>
54.7757

> <Gold.Chemscore.Internal_Hbond>
0.0000

> <Gold.Chemscore.DEClash>
1.6475

> <Gold.Chemscore.DEInternal>
1.3157

> <Gold.Chemscore.Rot>
1.2965

> <Gold.Chemscore.Internal.Correction>
   9.000000E+99

> <Gold.Chemscore.Hbonds>
donor molecule, donor type, donor heavy atom, donor atom, acceptor molecule, acceptor atom, score
      L1  H     5    21       P1  7948  0.99
      L1  H     8    22       P1  7948  0.86
      P1  H  7989  7998       L1    13  0.18

> <Gold.Chemscore.Hbond.Weighted>
-9.2541

> <Gold.Chemscore.Metal.Weighted>
-0.0000

> <Gold.Chemscore.Lipo.Weighted>
-6.4088

> <Gold.Chemscore.Internal_Hbond.Weighted>
0.0000

> <Gold.Chemscore.DEClash.Weighted>
1.6475

> <Gold.Chemscore.DEInternal.Weighted>
1.3157

> <Gold.Chemscore.Rot.Weighted>
3.3192

> <Gold.Chemscore.Internal.Correction.Weighted>
   9.000000E+99

> <Gold.Protein.RotatedTorsions>
[ 6907 6896 6895 6894 ] final  120.33 input  -60.11 | X-H torsion
[ 7974 7965 7964 7962 ] final  169.27 input  175.53 | X-H torsion
[ 8008 7997 7996 7995 ] final  140.76 input   59.86 | X-H torsion
[ 10167 10162 10161 10158 ] final  139.65 input  -65.29 | X-H torsion
[ 10718 10713 10712 10709 ] final  105.47 input   66.30 | X-H torsion
[ 10763 10752 10751 10750 ] final  -73.05 input  -60.55 | X-H torsion
[ 11005 11000 10999 10996 ] final   -5.43 input  -57.11 | X-H torsion

> <Gold.Protein.ActiveResidues>
 VAL166  LYS551  ARG553  GLY616  TRP617  ASP618  TYR619  PRO620  LYS621  CYS622 
 ASP623  PHE694  ASN695  SER759  ASP760  ASP761  ALA762  ILE779  LEU786  VAL792 
 PHE793  MET794  SER795  GLU796  ALA797  LYS798  CYS799  TRP800  GLU811  SER814 

> <Gold.Protein.RotatedAtoms>
  152.4406  133.7441  159.6657 H   0  0  0  0  0  0  0  0  0  0  0  0  # atno 6907 bound_to 6896
  150.8296  133.8102  159.3110 H   0  0  0  0  0  0  0  0  0  0  0  0  # atno 6908 bound_to 6896
  151.5760  135.1063  160.0058 H   0  0  0  0  0  0  0  0  0  0  0  0  # atno 6909 bound_to 6896
  144.7360  139.9030  143.6410 H   0  0  0  0  0  0  0  0  0  0  0  0  # atno 7974 bound_to 7965
  156.2975  140.2333  156.4455 H   0  0  0  0  0  0  0  0  0  0  0  0  # atno 8008 bound_to 7997
  154.8148  140.0441  157.1389 H   0  0  0  0  0  0  0  0  0  0  0  0  # atno 8009 bound_to 7997
  154.9382  140.3026  155.5137 H   0  0  0  0  0  0  0  0  0  0  0  0  # atno 8010 bound_to 7997
  139.5072  144.6282  151.5884 H   0  0  0  0  0  0  0  0  0  0  0  0  # atno 10167 bound_to 10162
  157.6704  131.0828  150.5861 H   0  0  0  0  0  0  0  0  0  0  0  0  # atno 10718 bound_to 10713
  154.4541  135.5910  153.6211 H   0  0  0  0  0  0  0  0  0  0  0  0  # atno 10763 bound_to 10752
  152.9816  135.6028  154.3568 H   0  0  0  0  0  0  0  0  0  0  0  0  # atno 10764 bound_to 10752
  154.3432  135.2841  155.2390 H   0  0  0  0  0  0  0  0  0  0  0  0  # atno 10765 bound_to 10752
  140.6910  133.9071  155.8618 H   0  0  0  0  0  0  0  0  0  0  0  0  # atno 11005 bound_to 11000
  146.1057  139.4057  143.0319 LP  0  0  0  0  0  0  0  0  0  0  0  0  # atno 17320 bound_to 7965
  145.7515  140.9971  143.1248 LP  0  0  0  0  0  0  0  0  0  0  0  0  # atno 17321 bound_to 7965
  140.6006  143.9617  150.6383 LP  0  0  0  0  0  0  0  0  0  0  0  0  # atno 17342 bound_to 10162
  140.2827  143.3378  152.1136 LP  0  0  0  0  0  0  0  0  0  0  0  0  # atno 17343 bound_to 10162
  156.6161  130.4393  149.5840 LP  0  0  0  0  0  0  0  0  0  0  0  0  # atno 17370 bound_to 10713
  156.2392  130.6841  151.1539 LP  0  0  0  0  0  0  0  0  0  0  0  0  # atno 17371 bound_to 10713
  141.0241  134.0848  157.4088 LP  0  0  0  0  0  0  0  0  0  0  0  0  # atno 17394 bound_to 11000
  139.8923  135.0124  156.6840 LP  0  0  0  0  0  0  0  0  0  0  0  0  # atno 17395 bound_to 11000

$$$$
