AV-unprocessed.smi:2381|AV-procd|sdf|9457|dock5
  -GOLD-   2272013 83D 1   1.00000     0.00000
 Structure written by MMmdl.
 30 31  0  0  0  0  0  0  0  0  1 V2000
  153.3594  140.9886  160.3016 C   0  0  0  0  0  0  0  0  0  0  0  0
  152.7695  142.2000  159.6102 C   0  0  0  0  0  0  0  0  0  0  0  0
  153.0878  143.5035  160.0368 C   0  0  0  0  0  0  0  0  0  0  0  0
  152.5064  144.5866  159.3524 C   0  0  0  0  0  0  0  0  0  0  0  0
  151.6615  144.4351  158.3111 N   0  0  0  0  0  0  0  0  0  0  0  0
  151.3465  143.1843  157.8910 C   0  0  0  0  0  0  0  0  0  0  0  0
  150.4657  142.9140  156.8097 N   0  0  0  0  0  0  0  0  0  0  0  0
  150.3849  141.7988  156.0624 C   0  0  0  0  0  0  0  0  0  0  0  0
  151.0732  140.7886  156.2127 O   0  0  0  0  0  0  0  0  0  0  0  0
  149.4459  141.9174  155.1124 N   0  0  0  0  0  0  0  0  0  0  0  0
  149.1181  140.8910  154.1311 C   0  0  0  0  0  0  0  0  0  0  0  0
  147.6787  140.8999  153.6512 C   0  0  0  0  0  0  0  0  0  0  0  0
  146.6228  140.0639  154.3359 C   0  0  0  0  0  0  0  0  0  0  0  0
  147.0972  139.6945  152.9508 C   0  0  0  0  0  0  0  0  0  0  0  0
  151.8868  142.0413  158.5228 C   0  0  0  0  0  0  0  0  0  0  0  0
  154.0400  141.2809  161.1018 H   0  0  0  0  0  0  0  0  0  0  0  0
  153.9141  140.3788  159.5880 H   0  0  0  0  0  0  0  0  0  0  0  0
  152.5668  140.3775  160.7337 H   0  0  0  0  0  0  0  0  0  0  0  0
  153.7590  143.6745  160.8657 H   0  0  0  0  0  0  0  0  0  0  0  0
  152.7252  145.6016  159.6490 H   0  0  0  0  0  0  0  0  0  0  0  0
  149.8290  143.6599  156.5720 H   0  0  0  0  0  0  0  0  0  0  0  0
  148.9254  142.7805  155.0593 H   0  0  0  0  0  0  0  0  0  0  0  0
  149.7748  140.9930  153.2655 H   0  0  0  0  0  0  0  0  0  0  0  0
  149.3437  139.9188  154.5704 H   0  0  0  0  0  0  0  0  0  0  0  0
  147.3516  141.8626  153.2625 H   0  0  0  0  0  0  0  0  0  0  0  0
  146.9351  139.4258  155.1603 H   0  0  0  0  0  0  0  0  0  0  0  0
  145.6269  140.4920  154.4296 H   0  0  0  0  0  0  0  0  0  0  0  0
  146.4173  139.8763  152.1208 H   0  0  0  0  0  0  0  0  0  0  0  0
  147.7245  138.8105  152.8549 H   0  0  0  0  0  0  0  0  0  0  0  0
  151.6282  141.0499  158.1790 H   0  0  0  0  0  0  0  0  0  0  0  0
  1  2  1  0  0  0  0
  1 16  1  0  0  0  0
  1 17  1  0  0  0  0
  1 18  1  0  0  0  0
  2 15  1  0  0  0  0
  2  3  2  0  0  0  0
  3  4  1  0  0  0  0
  3 19  1  0  0  0  0
  4  5  2  0  0  0  0
  4 20  1  0  0  0  0
  5  6  1  0  0  0  0
  6  7  1  0  0  0  0
  6 15  2  0  0  0  0
  7  8  1  0  0  0  0
  7 21  1  0  0  0  0
  8  9  2  0  0  0  0
  8 10  1  0  0  0  0
 10 11  1  0  0  0  0
 10 22  1  0  0  0  0
 11 12  1  0  0  0  0
 11 23  1  0  0  0  0
 11 24  1  0  0  0  0
 12 14  1  0  0  0  0
 12 13  1  0  0  0  0
 12 25  1  0  0  0  0
 13 14  1  0  0  0  0
 13 26  1  0  0  0  0
 13 27  1  0  0  0  0
 14 28  1  0  0  0  0
 14 29  1  0  0  0  0
 15 30  1  0  0  0  0
M  END
> <s_m_source_file>
AV-unprocessed.smi

> <i_m_source_file_index>
2381

> <i_lp_mmshare_version>
43012

> <i_f3d_flags>
0

> <s_epik_input>
W0NIM11jMVtjSF1bY0hdbmMoW2NIXTEpW05IXUMoPU8pW05IXVtDSDJdW0NIXTJbQ0gyXVtDSDJdMg==

> <s_epik_cmdline>
J2VwaWtfcHl0aG9uJywgJy1waCcsICc3LjAnLCAnLXRuJywgJzgnLCAnLW1hJywgJzIwMCcsICctbWV0YWxfYmluZGluZycsICctaW1hZScsICc8aW5maWxlLm1hZT4nLCAnLW9tYWUnLCAnPG91dGZpbGUubWFlPic=

> <r_lp_tautomer_probability>
1

> <r_epik_Ionization_Penalty>
9.40607e-05

> <r_epik_Ionization_Penalty_Charging>
0

> <r_epik_Ionization_Penalty_Neutral>
9.40607e-05

> <r_epik_State_Penalty>
-0

> <r_epik_Charging_Adjusted_Penalty>
0

> <i_epik_Tot_Q>
0

> <i_epik_Tot_abs_Q>
0

> <r_epik_Metal_State_Penalty>
-0

> <b_epik_Metal_Only>
0

> <s_lp_Force_Field>
OPLS_2005

> <r_lp_Energy>
14.347

> <b_lp_Chiralities_Consistent>
1

> <s_lp_Variant>
AV-unprocessed.smi:2381-1

> <Gold.Version>
5.8.1

> <Gold.Id.Protein>
6NUR|6NUR_protein|mol2

> <Gold.PLP.Fitness>
39.3557

> <Gold.PLP.PLP>
-34.2140

> <Gold.PLP.part.hbond>
-2.0000

> <Gold.PLP.part.metal>
0.0000

> <Gold.PLP.part.buried>
-2.8381

> <Gold.PLP.part.nonpolar>
-28.8305

> <Gold.PLP.part.repulsive>
0.3700

> <Gold.PLP.ligand.clash>
0.0000

> <Gold.PLP.ligand.torsion>
0.5650

> <Gold.PLP.Chemscore.Hbond>
1.9120

> <Gold.PLP.Chemscore.CHOScore>
0.0000

> <Gold.PLP.Chemscore.Metal>
0.0000

> <Gold.Chemscore.Hbonds>
donor molecule, donor type, donor heavy atom, donor atom, acceptor molecule, acceptor atom, score
      L1  H     7    21       P1  8028  1.00
      L1  H    10    22       P1  8028  0.91

> <Gold.PLP.Chemscore.Internal.Correction>
0.5357

> <Gold.Rescore>
     Score         DG    S(hbond)    S(metal)    S(lipo)     H(rot)  DE(clash)    DE(int)     intcor
     16.57     -18.62       1.95        0.00      82.76       1.20       0.04       2.01       ----

> <Gold.Chemscore.Fitness>
16.5749

> <Gold.Chemscore.DG>
-18.6243

> <Gold.Chemscore.ZeroCoef>
-5.4800

> <Gold.Chemscore.Hbond>
1.9533

> <Gold.Chemscore.Metal>
0.0000

> <Gold.Chemscore.Lipo>
82.7565

> <Gold.Chemscore.Internal_Hbond>
0.0000

> <Gold.Chemscore.DEClash>
0.0377

> <Gold.Chemscore.DEInternal>
2.0117

> <Gold.Chemscore.Rot>
1.1962

> <Gold.Chemscore.Internal.Correction>
   9.000000E+99

> <Gold.Chemscore.Hbonds>
donor molecule, donor type, donor heavy atom, donor atom, acceptor molecule, acceptor atom, score
      L1  H     7    21       P1  8028  1.00
      L1  H    10    22       P1  8028  0.83

> <Gold.Chemscore.Hbond.Weighted>
-6.5240

> <Gold.Chemscore.Metal.Weighted>
-0.0000

> <Gold.Chemscore.Lipo.Weighted>
-9.6825

> <Gold.Chemscore.Internal_Hbond.Weighted>
0.0000

> <Gold.Chemscore.DEClash.Weighted>
0.0377

> <Gold.Chemscore.DEInternal.Weighted>
2.0117

> <Gold.Chemscore.Rot.Weighted>
3.0622

> <Gold.Chemscore.Internal.Correction.Weighted>
   9.000000E+99

> <Gold.Protein.RotatedTorsions>
[ 6907 6896 6895 6894 ] final   18.76 input  -60.11 | X-H torsion
[ 7974 7965 7964 7962 ] final -131.85 input  175.53 | X-H torsion
[ 8008 7997 7996 7995 ] final   36.03 input   59.86 | X-H torsion
[ 10167 10162 10161 10158 ] final   42.68 input  -65.29 | X-H torsion
[ 10718 10713 10712 10709 ] final  -21.13 input   66.30 | X-H torsion
[ 10763 10752 10751 10750 ] final   65.93 input  -60.55 | X-H torsion
[ 11005 11000 10999 10996 ] final   25.61 input  -57.11 | X-H torsion

> <Gold.Protein.ActiveResidues>
 VAL166  LYS551  ARG553  GLY616  TRP617  ASP618  TYR619  PRO620  LYS621  CYS622 
 ASP623  PHE694  ASN695  SER759  ASP760  ASP761  ALA762  ILE779  LEU786  VAL792 
 PHE793  MET794  SER795  GLU796  ALA797  LYS798  CYS799  TRP800  GLU811  SER814 

> <Gold.Protein.RotatedAtoms>
  151.8703  135.0492  160.0478 H   0  0  0  0  0  0  0  0  0  0  0  0  # atno 6907 bound_to 6896
  152.2594  133.5279  159.5381 H   0  0  0  0  0  0  0  0  0  0  0  0  # atno 6908 bound_to 6896
  150.7111  134.0767  159.3926 H   0  0  0  0  0  0  0  0  0  0  0  0  # atno 6909 bound_to 6896
  144.9341  140.7163  143.4887 H   0  0  0  0  0  0  0  0  0  0  0  0  # atno 7974 bound_to 7965
  155.1807  140.3299  155.4375 H   0  0  0  0  0  0  0  0  0  0  0  0  # atno 8008 bound_to 7997
  156.2477  140.1927  156.6856 H   0  0  0  0  0  0  0  0  0  0  0  0  # atno 8009 bound_to 7997
  154.6273  140.0587  156.9675 H   0  0  0  0  0  0  0  0  0  0  0  0  # atno 8010 bound_to 7997
  140.3520  144.2338  150.6145 H   0  0  0  0  0  0  0  0  0  0  0  0  # atno 10167 bound_to 10162
  156.5224  130.4635  149.6590 H   0  0  0  0  0  0  0  0  0  0  0  0  # atno 10718 bound_to 10713
  153.0118  135.5339  154.6745 H   0  0  0  0  0  0  0  0  0  0  0  0  # atno 10763 bound_to 10752
  154.5921  135.2860  155.0627 H   0  0  0  0  0  0  0  0  0  0  0  0  # atno 10764 bound_to 10752
  154.1716  135.6531  153.5063 H   0  0  0  0  0  0  0  0  0  0  0  0  # atno 10765 bound_to 10752
  140.3459  134.2281  155.7685 H   0  0  0  0  0  0  0  0  0  0  0  0  # atno 11005 bound_to 11000
  145.3095  139.1823  143.4646 LP  0  0  0  0  0  0  0  0  0  0  0  0  # atno 17320 bound_to 7965
  146.3259  140.3098  142.8626 LP  0  0  0  0  0  0  0  0  0  0  0  0  # atno 17321 bound_to 7965
  140.5210  143.2266  151.8389 LP  0  0  0  0  0  0  0  0  0  0  0  0  # atno 17342 bound_to 10162
  139.4825  144.4837  151.9274 LP  0  0  0  0  0  0  0  0  0  0  0  0  # atno 17343 bound_to 10162
  156.3137  130.7243  151.2141 LP  0  0  0  0  0  0  0  0  0  0  0  0  # atno 17370 bound_to 10713
  157.7435  131.0474  150.4944 LP  0  0  0  0  0  0  0  0  0  0  0  0  # atno 17371 bound_to 10713
  141.2025  133.7934  157.0385 LP  0  0  0  0  0  0  0  0  0  0  0  0  # atno 17394 bound_to 11000
  140.0742  134.9685  157.1518 LP  0  0  0  0  0  0  0  0  0  0  0  0  # atno 17395 bound_to 11000

$$$$
