AV-unprocessed.smi:220|AV-procd|sdf|1682|dock4
  -GOLD-   2262020113D 1   1.00000     0.00000
 Structure written by MMmdl.
 51 55  0  0  0  0  0  0  0  0  1 V2000
  143.9656  137.4435  161.4657 N   0  0  0  0  0  0  0  0  0  0  0  0
  145.2655  137.2189  161.6712 C   0  0  0  0  0  0  0  0  0  0  0  0
  145.9684  137.9936  162.3180 O   0  0  0  0  0  0  0  0  0  0  0  0
  145.8461  135.9278  161.0725 C   0  0  2  0  0  0  0  0  0  0  0  0
  145.8635  134.7706  162.0931 C   0  0  1  0  0  0  0  0  0  0  0  0
  144.6765  133.7952  162.0259 C   0  0  0  0  0  0  0  0  0  0  0  0
  145.3047  132.4100  162.1897 C   0  0  0  0  0  0  0  0  0  0  0  0
  146.6475  132.5226  161.4670 C   0  0  0  0  0  0  0  0  0  0  0  0
  147.1192  133.9521  161.7676 C   0  0  1  0  0  0  0  0  0  0  0  0
  147.7945  134.7008  160.6146 C   0  0  0  0  0  0  0  0  0  0  0  0
  147.2498  136.0473  160.6779 N   0  0  0  0  0  0  0  0  0  0  0  0
  147.5496  136.8228  159.6112 C   0  0  0  0  0  0  0  0  0  0  0  0
  146.5023  137.3010  158.8965 N   0  0  0  0  0  0  0  0  0  0  0  0
  146.7185  138.0730  157.8277 C   0  0  0  0  0  0  0  0  0  0  0  0
  147.8806  138.4839  157.3163 N   0  0  0  0  0  0  0  0  0  0  0  0
  148.9366  138.0149  158.0414 C   0  0  0  0  0  0  0  0  0  0  0  0
  148.8631  137.1853  159.1959 C   0  0  0  0  0  0  0  0  0  0  0  0
  150.1435  136.9189  159.6667 N   0  0  0  0  0  0  0  0  0  0  0  0
  150.9278  137.5440  158.8321 C   0  0  0  0  0  0  0  0  0  0  0  0
  150.2867  138.2367  157.8300 N   0  0  0  0  0  0  0  0  0  0  0  0
  150.9095  139.0162  156.7710 C   0  0  0  0  0  0  0  0  0  0  0  0
  150.7012  138.4294  155.3603 C   0  0  0  0  0  0  0  0  0  0  0  0
  149.5848  139.1873  154.6207 C   0  0  0  0  0  0  0  0  0  0  0  0
  149.3102  138.6022  153.3642 O   0  0  0  0  0  0  0  0  0  0  0  0
  151.9736  138.2082  154.5297 C   0  0  0  0  0  0  0  0  0  0  0  0
  151.6220  136.8371  154.2498 O   0  0  0  0  0  0  0  0  0  0  0  0
  150.6108  136.8996  155.2777 C   0  0  0  0  0  0  0  0  0  0  0  0
  143.5363  138.2766  161.8414 H   0  0  0  0  0  0  0  0  0  0  0  0
  143.4159  136.7805  160.9391 H   0  0  0  0  0  0  0  0  0  0  0  0
  145.2525  135.6413  160.2048 H   0  0  0  0  0  0  0  0  0  0  0  0
  145.9649  135.1500  163.1122 H   0  0  0  0  0  0  0  0  0  0  0  0
  143.9234  134.0037  162.7864 H   0  0  0  0  0  0  0  0  0  0  0  0
  144.1844  133.8486  161.0542 H   0  0  0  0  0  0  0  0  0  0  0  0
  145.4718  132.2030  163.2476 H   0  0  0  0  0  0  0  0  0  0  0  0
  144.6769  131.6141  161.7883 H   0  0  0  0  0  0  0  0  0  0  0  0
  147.3641  131.7692  161.7944 H   0  0  0  0  0  0  0  0  0  0  0  0
  146.4881  132.3841  160.3971 H   0  0  0  0  0  0  0  0  0  0  0  0
  147.7692  133.9526  162.6441 H   0  0  0  0  0  0  0  0  0  0  0  0
  148.8792  134.7103  160.7282 H   0  0  0  0  0  0  0  0  0  0  0  0
  147.5626  134.2439  159.6511 H   0  0  0  0  0  0  0  0  0  0  0  0
  145.8335  138.4093  157.3080 H   0  0  0  0  0  0  0  0  0  0  0  0
  152.0029  137.5168  158.9289 H   0  0  0  0  0  0  0  0  0  0  0  0
  150.5039  140.0272  156.8266 H   0  0  0  0  0  0  0  0  0  0  0  0
  151.9723  139.1188  156.9931 H   0  0  0  0  0  0  0  0  0  0  0  0
  148.6656  139.2246  155.2055 H   0  0  0  0  0  0  0  0  0  0  0  0
  149.8746  140.2244  154.4480 H   0  0  0  0  0  0  0  0  0  0  0  0
  149.4821  139.2423  152.6905 H   0  0  0  0  0  0  0  0  0  0  0  0
  152.0303  138.8206  153.6290 H   0  0  0  0  0  0  0  0  0  0  0  0
  152.8994  138.2723  155.1031 H   0  0  0  0  0  0  0  0  0  0  0  0
  150.9266  136.3873  156.1879 H   0  0  0  0  0  0  0  0  0  0  0  0
  149.6438  136.5265  154.9383 H   0  0  0  0  0  0  0  0  0  0  0  0
  1  2  1  0  0  0  0
  1 28  1  0  0  0  0
  1 29  1  0  0  0  0
  2  3  2  0  0  0  0
  2  4  1  0  0  0  0
  4 11  1  0  0  0  0
  4  5  1  0  0  0  0
  4 30  1  0  0  0  0
  5  9  1  0  0  0  0
  5  6  1  0  0  0  0
  5 31  1  0  0  0  0
  6  7  1  0  0  0  0
  6 32  1  0  0  0  0
  6 33  1  0  0  0  0
  7  8  1  0  0  0  0
  7 34  1  0  0  0  0
  7 35  1  0  0  0  0
  8  9  1  0  0  0  0
  8 36  1  0  0  0  0
  8 37  1  0  0  0  0
  9 10  1  0  0  0  0
  9 38  1  0  0  0  0
 10 11  1  0  0  0  0
 10 39  1  0  0  0  0
 10 40  1  0  0  0  0
 11 12  1  0  0  0  0
 12 17  1  0  0  0  0
 12 13  2  0  0  0  0
 13 14  1  0  0  0  0
 14 15  2  0  0  0  0
 14 41  1  0  0  0  0
 15 16  1  0  0  0  0
 16 20  1  0  0  0  0
 16 17  2  0  0  0  0
 17 18  1  0  0  0  0
 18 19  2  0  0  0  0
 19 20  1  0  0  0  0
 19 42  1  0  0  0  0
 20 21  1  0  0  0  0
 21 22  1  0  0  0  0
 21 43  1  0  0  0  0
 21 44  1  0  0  0  0
 22 27  1  0  0  0  0
 22 23  1  0  0  0  0
 22 25  1  0  0  0  0
 23 24  1  0  0  0  0
 23 45  1  0  0  0  0
 23 46  1  0  0  0  0
 24 47  1  0  0  0  0
 25 26  1  0  0  0  0
 25 48  1  0  0  0  0
 25 49  1  0  0  0  0
 26 27  1  0  0  0  0
 27 50  1  0  0  0  0
 27 51  1  0  0  0  0
M  END
> <s_m_source_file>
AV-unprocessed.smi

> <i_m_source_file_index>
220

> <i_lp_mmshare_version>
43012

> <i_f3d_flags>
0

> <s_epik_input>
W0NIMl0xW0NIMl1bQ0gyXVtDQEhdKFtDQEhdMTIpW0NIMl1OKFtDQEBIXTJDKD1PKVtOSDJdKWMobltjSF1uMyljKGMzNCluW2NIXW40W0NIMl1DNShbQ0gyXVtPSF0pW0NIMl1PW0NIMl01

> <s_epik_cmdline>
J2VwaWtfcHl0aG9uJywgJy1waCcsICc3LjAnLCAnLXRuJywgJzgnLCAnLW1hJywgJzIwMCcsICctbWV0YWxfYmluZGluZycsICctaW1hZScsICc8aW5maWxlLm1hZT4nLCAnLW9tYWUnLCAnPG91dGZpbGUubWFlPic=

> <r_lp_tautomer_probability>
1

> <r_epik_Ionization_Penalty>
0.00118987

> <r_epik_Ionization_Penalty_Charging>
0

> <r_epik_Ionization_Penalty_Neutral>
0.00118987

> <r_epik_State_Penalty>
0.000654261

> <r_epik_Charging_Adjusted_Penalty>
0.000654261

> <i_epik_Tot_Q>
0

> <i_epik_Tot_abs_Q>
0

> <r_epik_Metal_State_Penalty>
-0

> <b_epik_Metal_Only>
0

> <s_lp_Force_Field>
OPLS_2005

> <r_lp_Energy>
61.293

> <b_lp_Chiralities_Consistent>
1

> <s_lp_Variant>
AV-unprocessed.smi:220-1

> <Gold.Version>
5.8.1

> <Gold.Id.Protein>
6NUR|6NUR_protein|mol2

> <Gold.PLP.Fitness>
46.8962

> <Gold.PLP.PLP>
-39.7305

> <Gold.PLP.part.hbond>
-5.3644

> <Gold.PLP.part.metal>
0.0000

> <Gold.PLP.part.buried>
-8.0842

> <Gold.PLP.part.nonpolar>
-28.9685

> <Gold.PLP.part.repulsive>
0.4791

> <Gold.PLP.ligand.clash>
0.0000

> <Gold.PLP.ligand.torsion>
1.7311

> <Gold.PLP.Chemscore.Hbond>
3.4000

> <Gold.PLP.Chemscore.CHOScore>
0.0000

> <Gold.PLP.Chemscore.Metal>
0.0000

> <Gold.Chemscore.Hbonds>
donor molecule, donor type, donor heavy atom, donor atom, acceptor molecule, acceptor atom, score
      L1  H    24    47       P1  7957  1.00
      P1  H  6896  6909       L1    18  0.84
      P1  H  6934  6947       L1     3  0.44
      P1  H 10752 10765       L1    26  1.00

> <Gold.PLP.Chemscore.Internal.Correction>
0.4280

> <Gold.Rescore>
     Score         DG    S(hbond)    S(metal)    S(lipo)     H(rot)  DE(clash)    DE(int)     intcor
     13.31     -17.03       3.13        0.00      80.83       3.27       0.01       3.70       ----

> <Gold.Chemscore.Fitness>
13.3147

> <Gold.Chemscore.DG>
-17.0268

> <Gold.Chemscore.ZeroCoef>
-5.4800

> <Gold.Chemscore.Hbond>
3.1324

> <Gold.Chemscore.Metal>
0.0000

> <Gold.Chemscore.Lipo>
80.8272

> <Gold.Chemscore.Internal_Hbond>
0.0000

> <Gold.Chemscore.DEClash>
0.0106

> <Gold.Chemscore.DEInternal>
3.7015

> <Gold.Chemscore.Rot>
3.2703

> <Gold.Chemscore.Internal.Correction>
   9.000000E+99

> <Gold.Chemscore.Hbonds>
donor molecule, donor type, donor heavy atom, donor atom, acceptor molecule, acceptor atom, score
      L1  H    24    47       P1  7957  0.99
      P1  H  6896  6909       L1    18  0.25
      P1  H  6934  6947       L1     3  0.28
      P1  H 10752 10765       L1    26  0.91

> <Gold.Chemscore.Hbond.Weighted>
-10.4621

> <Gold.Chemscore.Metal.Weighted>
-0.0000

> <Gold.Chemscore.Lipo.Weighted>
-9.4568

> <Gold.Chemscore.Internal_Hbond.Weighted>
0.0000

> <Gold.Chemscore.DEClash.Weighted>
0.0106

> <Gold.Chemscore.DEInternal.Weighted>
3.7015

> <Gold.Chemscore.Rot.Weighted>
8.3721

> <Gold.Chemscore.Internal.Correction.Weighted>
   9.000000E+99

> <Gold.Protein.RotatedTorsions>
[ 6907 6896 6895 6894 ] final   95.61 input  -60.11 | X-H torsion
[ 7974 7965 7964 7962 ] final  -42.65 input  175.53 | X-H torsion
[ 8008 7997 7996 7995 ] final -146.91 input   59.86 | X-H torsion
[ 10167 10162 10161 10158 ] final  124.15 input  -65.29 | X-H torsion
[ 10718 10713 10712 10709 ] final   64.22 input   66.30 | X-H torsion
[ 10763 10752 10751 10750 ] final  165.72 input  -60.55 | X-H torsion
[ 11005 11000 10999 10996 ] final   48.00 input  -57.11 | X-H torsion

> <Gold.Protein.ActiveResidues>
 VAL166  LYS551  ARG553  GLY616  TRP617  ASP618  TYR619  PRO620  LYS621  CYS622 
 ASP623  PHE694  ASN695  SER759  ASP760  ASP761  ALA762  ILE779  LEU786  VAL792 
 PHE793  MET794  SER795  GLU796  ALA797  LYS798  CYS799  TRP800  GLU811  SER814 

> <Gold.Protein.RotatedAtoms>
  152.5442  134.1013  159.8318 H   0  0  0  0  0  0  0  0  0  0  0  0  # atno 6907 bound_to 6896
  151.1091  133.5179  159.2614 H   0  0  0  0  0  0  0  0  0  0  0  0  # atno 6908 bound_to 6896
  151.1905  135.0409  159.8885 H   0  0  0  0  0  0  0  0  0  0  0  0  # atno 6909 bound_to 6896
  146.0095  140.6981  142.9231 H   0  0  0  0  0  0  0  0  0  0  0  0  # atno 7974 bound_to 7965
  155.5670  140.0630  157.2815 H   0  0  0  0  0  0  0  0  0  0  0  0  # atno 8008 bound_to 7997
  154.4372  140.1875  156.0886 H   0  0  0  0  0  0  0  0  0  0  0  0  # atno 8009 bound_to 7997
  156.0404  140.3296  155.7242 H   0  0  0  0  0  0  0  0  0  0  0  0  # atno 8010 bound_to 7997
  139.5758  144.6962  151.3657 H   0  0  0  0  0  0  0  0  0  0  0  0  # atno 10167 bound_to 10162
  157.6025  130.9148  149.9818 H   0  0  0  0  0  0  0  0  0  0  0  0  # atno 10718 bound_to 10713
  154.3282  135.2755  155.2485 H   0  0  0  0  0  0  0  0  0  0  0  0  # atno 10763 bound_to 10752
  154.4808  135.5859  153.6392 H   0  0  0  0  0  0  0  0  0  0  0  0  # atno 10764 bound_to 10752
  152.9869  135.6111  154.3473 H   0  0  0  0  0  0  0  0  0  0  0  0  # atno 10765 bound_to 10752
  140.1229  134.4806  155.8583 H   0  0  0  0  0  0  0  0  0  0  0  0  # atno 11005 bound_to 11000
  144.6948  140.3374  143.7205 LP  0  0  0  0  0  0  0  0  0  0  0  0  # atno 17320 bound_to 7965
  145.7364  139.1751  143.2401 LP  0  0  0  0  0  0  0  0  0  0  0  0  # atno 17321 bound_to 7965
  140.7040  143.7559  150.7451 LP  0  0  0  0  0  0  0  0  0  0  0  0  # atno 17342 bound_to 10162
  140.1079  143.4727  152.2387 LP  0  0  0  0  0  0  0  0  0  0  0  0  # atno 17343 bound_to 10162
  156.1102  130.3650  150.0062 LP  0  0  0  0  0  0  0  0  0  0  0  0  # atno 17370 bound_to 10713
  156.8162  130.9342  151.3642 LP  0  0  0  0  0  0  0  0  0  0  0  0  # atno 17371 bound_to 10713
  141.2155  133.6767  156.6923 LP  0  0  0  0  0  0  0  0  0  0  0  0  # atno 17394 bound_to 11000
  140.2941  134.8216  157.4042 LP  0  0  0  0  0  0  0  0  0  0  0  0  # atno 17395 bound_to 11000

$$$$
