AV-unprocessed.smi:1701|AV-procd|sdf|6839|dock3
  -GOLD-   22720 8 13D 1   1.00000     0.00000
 Structure written by MMmdl.
 54 56  0  0  0  0  0  0  0  0  4 V2000
  152.5141  143.6797  162.1321 C   0  0  0  0  0  0  0  0  0  0  0  0
  153.0825  142.8381  160.9820 C   0  0  0  0  0  0  0  0  0  0  0  0
  152.2851  142.9598  159.7624 N   0  0  0  0  0  0  0  0  0  0  0  0
  151.8978  144.2898  159.2993 C   0  0  0  0  0  0  0  0  0  0  0  0
  152.6094  144.6787  157.9972 C   0  0  0  0  0  0  0  0  0  0  0  0
  151.8279  141.8047  159.0867 C   0  0  0  0  0  0  0  0  0  0  0  0
  150.9421  141.8478  157.9824 C   0  0  0  0  0  0  0  0  0  0  0  0
  150.5280  140.6493  157.3672 C   0  0  0  0  0  0  0  0  0  0  0  0
  150.9923  139.4089  157.8510 C   0  0  0  0  0  0  0  0  0  0  0  0
  150.5207  138.2421  157.1857 N   0  0  0  0  0  0  0  0  0  0  0  0
  150.4178  136.9567  157.6081 C   0  0  0  0  0  0  0  0  0  0  0  0
  150.8224  136.6526  158.7273 O   0  0  0  0  0  0  0  0  0  0  0  0
  149.8668  136.0166  156.7810 N   0  5  0  0  0  0  0  0  0  0  0  0
  149.1884  136.1985  155.4896 C   0  0  2  0  0  0  0  0  0  0  0  0
  147.9630  137.1254  155.6086 C   0  0  0  0  0  0  0  0  0  0  0  0
  146.9159  136.5535  154.6338 C   0  0  0  0  0  0  0  0  0  0  0  0
  147.5368  135.3505  154.0457 N   0  3  2  0  0  0  0  0  0  0  0  0
  146.6311  134.2678  153.6027 C   0  0  0  0  0  0  0  0  0  0  0  0
  147.4592  133.1604  152.9193 C   0  0  0  0  0  0  0  0  0  0  0  0
  148.6157  132.6710  153.8155 C   0  0  0  0  0  0  0  0  0  0  0  0
  149.4732  133.8512  154.3145 C   0  0  0  0  0  0  0  0  0  0  0  0
  148.5595  134.8892  154.9984 C   0  0  1  0  0  0  0  0  0  0  0  0
  151.8800  139.4174  158.9537 C   0  0  0  0  0  0  0  0  0  0  0  0
  152.2527  140.5897  159.5113 N   0  3  0  0  0  0  0  0  0  0  0  0
  153.1344  143.5836  163.0234 H   0  0  0  0  0  0  0  0  0  0  0  0
  151.5046  143.3631  162.3956 H   0  0  0  0  0  0  0  0  0  0  0  0
  152.4755  144.7368  161.8686 H   0  0  0  0  0  0  0  0  0  0  0  0
  154.0985  143.1696  160.7649 H   0  0  0  0  0  0  0  0  0  0  0  0
  153.1737  141.7943  161.2829 H   0  0  0  0  0  0  0  0  0  0  0  0
  150.8163  144.3632  159.1860 H   0  0  0  0  0  0  0  0  0  0  0  0
  152.1560  145.0143  160.0721 H   0  0  0  0  0  0  0  0  0  0  0  0
  152.3108  145.6776  157.6786 H   0  0  0  0  0  0  0  0  0  0  0  0
  152.3698  143.9872  157.1890 H   0  0  0  0  0  0  0  0  0  0  0  0
  153.6923  144.6823  158.1243 H   0  0  0  0  0  0  0  0  0  0  0  0
  150.5757  142.7827  157.5869 H   0  0  0  0  0  0  0  0  0  0  0  0
  149.8529  140.6864  156.5247 H   0  0  0  0  0  0  0  0  0  0  0  0
  150.1851  138.3999  156.2472 H   0  0  0  0  0  0  0  0  0  0  0  0
  149.8523  136.5835  154.7132 H   0  0  0  0  0  0  0  0  0  0  0  0
  147.5543  137.1165  156.6208 H   0  0  0  0  0  0  0  0  0  0  0  0
  148.2207  138.1582  155.3721 H   0  0  0  0  0  0  0  0  0  0  0  0
  146.0043  136.2894  155.1730 H   0  0  0  0  0  0  0  0  0  0  0  0
  146.6494  137.2629  153.8496 H   0  0  0  0  0  0  0  0  0  0  0  0
  146.0869  133.8662  154.4589 H   0  0  0  0  0  0  0  0  0  0  0  0
  145.8921  134.6691  152.9083 H   0  0  0  0  0  0  0  0  0  0  0  0
  146.8140  132.3229  152.6519 H   0  0  0  0  0  0  0  0  0  0  0  0
  147.8692  133.5437  151.9841 H   0  0  0  0  0  0  0  0  0  0  0  0
  148.2071  132.1322  154.6713 H   0  0  0  0  0  0  0  0  0  0  0  0
  149.2375  131.9596  153.2714 H   0  0  0  0  0  0  0  0  0  0  0  0
  150.2325  133.4854  155.0079 H   0  0  0  0  0  0  0  0  0  0  0  0
  150.0060  134.2936  153.4703 H   0  0  0  0  0  0  0  0  0  0  0  0
  148.0466  134.4107  155.8367 H   0  0  0  0  0  0  0  0  0  0  0  0
  152.3117  138.5485  159.4246 H   0  0  0  0  0  0  0  0  0  0  0  0
  148.0451  135.6679  153.2329 H   0  0  0  0  0  0  0  0  0  0  0  0
  152.8914  140.5556  160.3058 H   0  0  0  0  0  0  0  0  0  0  0  0
  1  2  1  0  0  0  0
  1 25  1  0  0  0  0
  1 26  1  0  0  0  0
  1 27  1  0  0  0  0
  2  3  1  0  0  0  0
  2 28  1  0  0  0  0
  2 29  1  0  0  0  0
  3  4  1  0  0  0  0
  3  6  1  0  0  0  0
  4  5  1  0  0  0  0
  4 30  1  0  0  0  0
  4 31  1  0  0  0  0
  5 32  1  0  0  0  0
  5 33  1  0  0  0  0
  5 34  1  0  0  0  0
  6 24  1  0  0  0  0
  6  7  2  0  0  0  0
  7  8  1  0  0  0  0
  7 35  1  0  0  0  0
  8  9  2  0  0  0  0
  8 36  1  0  0  0  0
  9 10  1  0  0  0  0
  9 23  1  0  0  0  0
 10 11  1  0  0  0  0
 10 37  1  0  0  0  0
 11 12  2  0  0  0  0
 11 13  1  0  0  0  0
 13 14  1  0  0  0  0
 14 22  1  0  0  0  0
 14 15  1  0  0  0  0
 14 38  1  0  0  0  0
 15 16  1  0  0  0  0
 15 39  1  0  0  0  0
 15 40  1  0  0  0  0
 16 17  1  0  0  0  0
 16 41  1  0  0  0  0
 16 42  1  0  0  0  0
 17 22  1  0  0  0  0
 17 18  1  0  0  0  0
 17 53  1  0  0  0  0
 18 19  1  0  0  0  0
 18 43  1  0  0  0  0
 18 44  1  0  0  0  0
 19 20  1  0  0  0  0
 19 45  1  0  0  0  0
 19 46  1  0  0  0  0
 20 21  1  0  0  0  0
 20 47  1  0  0  0  0
 20 48  1  0  0  0  0
 21 22  1  0  0  0  0
 21 49  1  0  0  0  0
 21 50  1  0  0  0  0
 22 51  1  0  0  0  0
 23 24  2  0  0  0  0
 23 52  1  0  0  0  0
 24 54  1  0  0  0  0
M  CHG  1  13  -1
M  CHG  1  17   1
M  CHG  1  24   1
M  END
> <s_m_source_file>
AV-unprocessed.smi

> <i_m_source_file_index>
1701

> <i_lp_mmshare_version>
43012

> <i_f3d_flags>
0

> <s_epik_input>
W0NIM11bQ0gyXU4oW0NIMl1bQ0gzXSljMVtjSF1bY0hdYyhbY0hdbjEpW05IXUMoPU8pW05IXVtDQEhdKFtDSDJdW0NIMl0yKVtDQEBIXShOMjMpW0NIMl1bQ0gyXVtDSDJdW0NIMl0z

> <s_epik_cmdline>
J2VwaWtfcHl0aG9uJywgJy1waCcsICc3LjAnLCAnLXRuJywgJzgnLCAnLW1hJywgJzIwMCcsICctbWV0YWxfYmluZGluZycsICctaW1hZScsICc8aW5maWxlLm1hZT4nLCAnLW9tYWUnLCAnPG91dGZpbGUubWFlPic=

> <r_lp_tautomer_probability>
0.999994

> <r_epik_Ionization_Penalty>
7.37095

> <r_epik_Ionization_Penalty_Charging>
7.37095

> <r_epik_Ionization_Penalty_Neutral>
3.78969e-06

> <r_epik_State_Penalty>
6.83842

> <r_epik_Charging_Adjusted_Penalty>
14.2094

> <i_epik_Tot_Q>
1

> <i_epik_Tot_abs_Q>
3

> <r_epik_Metal_State_Penalty>
2.78552

> <b_epik_Metal_Only>
1

> <s_lp_Force_Field>
OPLS_2005

> <r_lp_Energy>
47.8926

> <b_lp_Chiralities_Consistent>
1

> <s_lp_Variant>
AV-unprocessed.smi:1701-19

> <Gold.Version>
5.8.1

> <Gold.Id.Protein>
6NUR|6NUR_protein|mol2

> <Gold.PLP.Fitness>
52.8645

> <Gold.PLP.PLP>
-45.1950

> <Gold.PLP.part.hbond>
-2.0000

> <Gold.PLP.part.metal>
0.0000

> <Gold.PLP.part.buried>
-5.7360

> <Gold.PLP.part.nonpolar>
-37.5525

> <Gold.PLP.part.repulsive>
0.1420

> <Gold.PLP.ligand.clash>
0.0000

> <Gold.PLP.ligand.torsion>
0.3775

> <Gold.PLP.Chemscore.Hbond>
2.7200

> <Gold.PLP.Chemscore.CHOScore>
0.0000

> <Gold.PLP.Chemscore.Metal>
0.0000

> <Gold.Chemscore.Hbonds>
donor molecule, donor type, donor heavy atom, donor atom, acceptor molecule, acceptor atom, score
      L1  H    17    53       P1  7948  2.00
      P1  H  6896  6909       L1    12  0.83

> <Gold.PLP.Chemscore.Internal.Correction>
0.2644

> <Gold.Rescore>
     Score         DG    S(hbond)    S(metal)    S(lipo)     H(rot)  DE(clash)    DE(int)     intcor
     18.61     -20.09       1.74        0.00     103.16       1.28       0.02       1.46       ----

> <Gold.Chemscore.Fitness>
18.6090

> <Gold.Chemscore.DG>
-20.0890

> <Gold.Chemscore.ZeroCoef>
-5.4800

> <Gold.Chemscore.Hbond>
1.7441

> <Gold.Chemscore.Metal>
0.0000

> <Gold.Chemscore.Lipo>
103.1648

> <Gold.Chemscore.Internal_Hbond>
0.0000

> <Gold.Chemscore.DEClash>
0.0164

> <Gold.Chemscore.DEInternal>
1.4637

> <Gold.Chemscore.Rot>
1.2838

> <Gold.Chemscore.Internal.Correction>
   9.000000E+99

> <Gold.Chemscore.Hbonds>
donor molecule, donor type, donor heavy atom, donor atom, acceptor molecule, acceptor atom, score
      L1  H    17    53       P1  7948  1.00
      P1  H  6896  6909       L1    12  0.78

> <Gold.Chemscore.Hbond.Weighted>
-5.8253

> <Gold.Chemscore.Metal.Weighted>
-0.0000

> <Gold.Chemscore.Lipo.Weighted>
-12.0703

> <Gold.Chemscore.Internal_Hbond.Weighted>
0.0000

> <Gold.Chemscore.DEClash.Weighted>
0.0164

> <Gold.Chemscore.DEInternal.Weighted>
1.4637

> <Gold.Chemscore.Rot.Weighted>
3.2865

> <Gold.Chemscore.Internal.Correction.Weighted>
   9.000000E+99

> <Gold.Protein.RotatedTorsions>
[ 6907 6896 6895 6894 ] final   73.15 input  -60.11 | X-H torsion
[ 7974 7965 7964 7962 ] final   -2.98 input  175.53 | X-H torsion
[ 8008 7997 7996 7995 ] final -121.12 input   59.86 | X-H torsion
[ 10167 10162 10161 10158 ] final  -66.80 input  -65.29 | X-H torsion
[ 10718 10713 10712 10709 ] final  -98.79 input   66.30 | X-H torsion
[ 10763 10752 10751 10750 ] final  -28.90 input  -60.55 | X-H torsion
[ 11005 11000 10999 10996 ] final  136.97 input  -57.11 | X-H torsion

> <Gold.Protein.ActiveResidues>
 VAL166  LYS551  ARG553  GLY616  TRP617  ASP618  TYR619  PRO620  LYS621  CYS622 
 ASP623  PHE694  ASN695  SER759  ASP760  ASP761  ALA762  ILE779  LEU786  VAL792 
 PHE793  MET794  SER795  GLU796  ALA797  LYS798  CYS799  TRP800  GLU811  SER814 

> <Gold.Protein.RotatedAtoms>
  152.4907  134.4465  159.9560 H   0  0  0  0  0  0  0  0  0  0  0  0  # atno 6907 bound_to 6896
  151.4453  133.3626  159.2795 H   0  0  0  0  0  0  0  0  0  0  0  0  # atno 6908 bound_to 6896
  150.9059  134.8498  159.7452 H   0  0  0  0  0  0  0  0  0  0  0  0  # atno 6909 bound_to 6896
  146.2396  140.1652  142.8332 H   0  0  0  0  0  0  0  0  0  0  0  0  # atno 7974 bound_to 7965
  155.1429  140.0402  157.2803 H   0  0  0  0  0  0  0  0  0  0  0  0  # atno 8008 bound_to 7997
  154.6460  140.2558  155.7241 H   0  0  0  0  0  0  0  0  0  0  0  0  # atno 8009 bound_to 7997
  156.2555  140.2846  156.0874 H   0  0  0  0  0  0  0  0  0  0  0  0  # atno 8010 bound_to 7997
  140.5630  143.2313  151.6689 H   0  0  0  0  0  0  0  0  0  0  0  0  # atno 10167 bound_to 10162
  156.0117  130.5254  150.6575 H   0  0  0  0  0  0  0  0  0  0  0  0  # atno 10718 bound_to 10713
  153.7559  135.6923  153.4936 H   0  0  0  0  0  0  0  0  0  0  0  0  # atno 10763 bound_to 10752
  153.1971  135.4450  155.0220 H   0  0  0  0  0  0  0  0  0  0  0  0  # atno 10764 bound_to 10752
  154.8171  135.3404  154.7077 H   0  0  0  0  0  0  0  0  0  0  0  0  # atno 10765 bound_to 10752
  140.0082  134.9450  157.0221 H   0  0  0  0  0  0  0  0  0  0  0  0  # atno 11005 bound_to 11000
  145.0057  140.8670  143.5255 LP  0  0  0  0  0  0  0  0  0  0  0  0  # atno 17320 bound_to 7965
  145.1678  139.2422  143.5358 LP  0  0  0  0  0  0  0  0  0  0  0  0  # atno 17321 bound_to 7965
  139.5079  144.3629  152.0545 LP  0  0  0  0  0  0  0  0  0  0  0  0  # atno 17342 bound_to 10162
  140.2757  144.3915  150.6136 LP  0  0  0  0  0  0  0  0  0  0  0  0  # atno 17343 bound_to 10162
  157.4324  131.0851  151.1025 LP  0  0  0  0  0  0  0  0  0  0  0  0  # atno 17370 bound_to 10713
  157.1594  130.6219  149.5606 LP  0  0  0  0  0  0  0  0  0  0  0  0  # atno 17371 bound_to 10713
  140.4602  134.1492  155.7190 LP  0  0  0  0  0  0  0  0  0  0  0  0  # atno 17394 bound_to 11000
  141.1692  133.8642  157.1622 LP  0  0  0  0  0  0  0  0  0  0  0  0  # atno 17395 bound_to 11000

$$$$
