AV-unprocessed.smi:1362|AV-procd|sdf|5558|dock4
  -GOLD-   22720 5153D 1   1.00000     0.00000
 Structure written by MMmdl.
 39 39  0  0  0  0  0  0  0  0  1 V2000
  147.0829  140.8584  152.9563 C   0  0  0  0  0  0  0  0  0  0  0  0
  147.8785  140.7518  154.2400 C   0  0  0  0  0  0  0  0  0  0  0  0
  147.3773  140.9402  155.4164 N   0  0  0  0  0  0  0  0  0  0  0  0
  148.2152  140.8159  156.5333 C   0  0  0  0  0  0  0  0  0  0  0  0
  147.5541  141.0558  157.8800 C   0  0  0  0  0  0  0  0  0  0  0  0
  149.5375  140.5006  156.4047 C   0  0  0  0  0  0  0  0  0  0  0  0
  150.4753  140.3623  157.6032 C   0  0  0  0  0  0  0  0  0  0  0  0
  150.7343  141.6435  158.3996 C   0  0  0  0  0  0  0  0  0  0  0  0
  149.8006  142.2548  158.9196 O   0  0  0  0  0  0  0  0  0  0  0  0
  152.0157  142.0299  158.4946 N   0  0  0  0  0  0  0  0  0  0  0  0
  152.5064  143.1791  159.2540 C   0  0  2  0  0  0  0  0  0  0  0  0
  152.5098  142.8222  160.7524 C   0  0  0  0  0  0  0  0  0  0  0  0
  151.6586  144.4358  158.9222 C   0  0  0  0  0  0  0  0  0  0  0  0
  151.9671  144.9936  157.5184 C   0  0  0  0  0  0  0  0  0  0  0  0
  151.8301  145.5537  159.9666 C   0  0  0  0  0  0  0  0  0  0  0  0
  150.0989  140.2869  155.0567 C   0  0  0  0  0  0  0  0  0  0  0  0
  151.2735  140.0037  154.8260 O   0  0  0  0  0  0  0  0  0  0  0  0
  149.2192  140.4271  154.0400 N   0  0  0  0  0  0  0  0  0  0  0  0
  149.5554  140.2919  153.0975 H   0  0  0  0  0  0  0  0  0  0  0  0
  146.6781  141.8651  152.8491 H   0  0  0  0  0  0  0  0  0  0  0  0
  146.2514  140.1535  152.9705 H   0  0  0  0  0  0  0  0  0  0  0  0
  147.6985  140.6432  152.0816 H   0  0  0  0  0  0  0  0  0  0  0  0
  147.5815  140.1502  158.4857 H   0  0  0  0  0  0  0  0  0  0  0  0
  146.5098  141.3473  157.7624 H   0  0  0  0  0  0  0  0  0  0  0  0
  148.0610  141.8536  158.4230 H   0  0  0  0  0  0  0  0  0  0  0  0
  150.0598  139.6117  158.2764 H   0  0  0  0  0  0  0  0  0  0  0  0
  151.4383  139.9543  157.2946 H   0  0  0  0  0  0  0  0  0  0  0  0
  152.7120  141.4664  158.0287 H   0  0  0  0  0  0  0  0  0  0  0  0
  153.5353  143.3839  158.9516 H   0  0  0  0  0  0  0  0  0  0  0  0
  152.9855  143.5982  161.3514 H   0  0  0  0  0  0  0  0  0  0  0  0
  153.0640  141.9014  160.9368 H   0  0  0  0  0  0  0  0  0  0  0  0
  151.4966  142.6795  161.1294 H   0  0  0  0  0  0  0  0  0  0  0  0
  150.6070  144.1450  158.9286 H   0  0  0  0  0  0  0  0  0  0  0  0
  153.0190  145.2653  157.4237 H   0  0  0  0  0  0  0  0  0  0  0  0
  151.3750  145.8859  157.3122 H   0  0  0  0  0  0  0  0  0  0  0  0
  151.7377  144.2740  156.7324 H   0  0  0  0  0  0  0  0  0  0  0  0
  152.8751  145.8499  160.0629 H   0  0  0  0  0  0  0  0  0  0  0  0
  151.4749  145.2485  160.9504 H   0  0  0  0  0  0  0  0  0  0  0  0
  151.2597  146.4404  159.6888 H   0  0  0  0  0  0  0  0  0  0  0  0
  1  2  1  0  0  0  0
  1 20  1  0  0  0  0
  1 21  1  0  0  0  0
  1 22  1  0  0  0  0
  2 18  1  0  0  0  0
  2  3  2  0  0  0  0
  3  4  1  0  0  0  0
  4  5  1  0  0  0  0
  4  6  2  0  0  0  0
  5 23  1  0  0  0  0
  5 24  1  0  0  0  0
  5 25  1  0  0  0  0
  6  7  1  0  0  0  0
  6 16  1  0  0  0  0
  7  8  1  0  0  0  0
  7 26  1  0  0  0  0
  7 27  1  0  0  0  0
  8  9  2  0  0  0  0
  8 10  1  0  0  0  0
 10 11  1  0  0  0  0
 10 28  1  0  0  0  0
 11 12  1  0  0  0  0
 11 13  1  0  0  0  0
 11 29  1  0  0  0  0
 12 30  1  0  0  0  0
 12 31  1  0  0  0  0
 12 32  1  0  0  0  0
 13 14  1  0  0  0  0
 13 15  1  0  0  0  0
 13 33  1  0  0  0  0
 14 34  1  0  0  0  0
 14 35  1  0  0  0  0
 14 36  1  0  0  0  0
 15 37  1  0  0  0  0
 15 38  1  0  0  0  0
 15 39  1  0  0  0  0
 16 17  2  0  0  0  0
 16 18  1  0  0  0  0
 18 19  1  0  0  0  0
M  END
> <s_m_source_file>
AV-unprocessed.smi

> <i_m_source_file_index>
1362

> <i_lp_mmshare_version>
43012

> <i_f3d_flags>
0

> <s_epik_input>
W0NIM11jMW5jKFtDSDNdKWMoYyg9TylbbkhdMSlbQ0gyXUMoPU8pW05IXVtDQEhdKFtDSDNdKVtDSF0oW0NIM10pW0NIM10=

> <s_epik_cmdline>
J2VwaWtfcHl0aG9uJywgJy1waCcsICc3LjAnLCAnLXRuJywgJzgnLCAnLW1hJywgJzIwMCcsICctbWV0YWxfYmluZGluZycsICctaW1hZScsICc8aW5maWxlLm1hZT4nLCAnLW9tYWUnLCAnPG91dGZpbGUubWFlPic=

> <r_lp_tautomer_probability>
0.839158

> <r_epik_Ionization_Penalty>
0.000388977

> <r_epik_Ionization_Penalty_Charging>
0.000356458

> <r_epik_Ionization_Penalty_Neutral>
3.25191e-05

> <r_epik_State_Penalty>
0.0469868

> <r_epik_Charging_Adjusted_Penalty>
0.0473433

> <i_epik_Tot_Q>
0

> <i_epik_Tot_abs_Q>
0

> <r_epik_Metal_State_Penalty>
0.223288

> <b_epik_Metal_Only>
0

> <s_lp_Force_Field>
OPLS_2005

> <r_lp_Energy>
7.29912

> <b_lp_Chiralities_Consistent>
1

> <s_lp_Variant>
AV-unprocessed.smi:1362-1

> <Gold.Version>
5.8.1

> <Gold.Id.Protein>
6NUR|6NUR_protein|mol2

> <Gold.PLP.Fitness>
40.3575

> <Gold.PLP.PLP>
-35.2335

> <Gold.PLP.part.hbond>
-3.0000

> <Gold.PLP.part.metal>
0.0000

> <Gold.PLP.part.buried>
-5.7705

> <Gold.PLP.part.nonpolar>
-27.2988

> <Gold.PLP.part.repulsive>
0.4386

> <Gold.PLP.ligand.clash>
0.0000

> <Gold.PLP.ligand.torsion>
0.4564

> <Gold.PLP.Chemscore.Hbond>
2.0000

> <Gold.PLP.Chemscore.CHOScore>
0.0000

> <Gold.PLP.Chemscore.Metal>
0.0000

> <Gold.Chemscore.Hbonds>
donor molecule, donor type, donor heavy atom, donor atom, acceptor molecule, acceptor atom, score
      L1  H    18    19       P1  7957  1.00
      P1  H  7989  7998       L1    17  1.00

> <Gold.PLP.Chemscore.Internal.Correction>
0.0369

> <Gold.Rescore>
     Score         DG    S(hbond)    S(metal)    S(lipo)     H(rot)  DE(clash)    DE(int)     intcor
     13.78     -17.20       1.89        0.00      83.16       1.69       1.40       2.02       ----

> <Gold.Chemscore.Fitness>
13.7848

> <Gold.Chemscore.DG>
-17.2013

> <Gold.Chemscore.ZeroCoef>
-5.4800

> <Gold.Chemscore.Hbond>
1.8929

> <Gold.Chemscore.Metal>
0.0000

> <Gold.Chemscore.Lipo>
83.1582

> <Gold.Chemscore.Internal_Hbond>
0.0000

> <Gold.Chemscore.DEClash>
1.4013

> <Gold.Chemscore.DEInternal>
2.0151

> <Gold.Chemscore.Rot>
1.6916

> <Gold.Chemscore.Internal.Correction>
   9.000000E+99

> <Gold.Chemscore.Hbonds>
donor molecule, donor type, donor heavy atom, donor atom, acceptor molecule, acceptor atom, score
      L1  H    18    19       P1  7957  0.99
      P1  H  7989  7998       L1    17  0.50

> <Gold.Chemscore.Hbond.Weighted>
-6.3223

> <Gold.Chemscore.Metal.Weighted>
-0.0000

> <Gold.Chemscore.Lipo.Weighted>
-9.7295

> <Gold.Chemscore.Internal_Hbond.Weighted>
0.0000

> <Gold.Chemscore.DEClash.Weighted>
1.4013

> <Gold.Chemscore.DEInternal.Weighted>
2.0151

> <Gold.Chemscore.Rot.Weighted>
4.3305

> <Gold.Chemscore.Internal.Correction.Weighted>
   9.000000E+99

> <Gold.Protein.RotatedTorsions>
[ 6907 6896 6895 6894 ] final  -24.51 input  -60.11 | X-H torsion
[ 7974 7965 7964 7962 ] final  156.85 input  175.53 | X-H torsion
[ 8008 7997 7996 7995 ] final  -37.14 input   59.86 | X-H torsion
[ 10167 10162 10161 10158 ] final  112.86 input  -65.29 | X-H torsion
[ 10718 10713 10712 10709 ] final   31.39 input   66.30 | X-H torsion
[ 10763 10752 10751 10750 ] final -131.43 input  -60.55 | X-H torsion
[ 11005 11000 10999 10996 ] final -120.16 input  -57.11 | X-H torsion

> <Gold.Protein.ActiveResidues>
 VAL166  LYS551  ARG553  GLY616  TRP617  ASP618  TYR619  PRO620  LYS621  CYS622 
 ASP623  PHE694  ASN695  SER759  ASP760  ASP761  ALA762  ILE779  LEU786  VAL792 
 PHE793  MET794  SER795  GLU796  ALA797  LYS798  CYS799  TRP800  GLU811  SER814 

> <Gold.Protein.RotatedAtoms>
  151.1885  135.0392  159.8822 H   0  0  0  0  0  0  0  0  0  0  0  0  # atno 6907 bound_to 6896
  152.5441  134.0983  159.8317 H   0  0  0  0  0  0  0  0  0  0  0  0  # atno 6908 bound_to 6896
  151.1108  133.5127  159.2638 H   0  0  0  0  0  0  0  0  0  0  0  0  # atno 6909 bound_to 6896
  144.7938  139.7260  143.6210 H   0  0  0  0  0  0  0  0  0  0  0  0  # atno 7974 bound_to 7965
  154.4059  140.1612  156.2489 H   0  0  0  0  0  0  0  0  0  0  0  0  # atno 8008 bound_to 7997
  155.9136  140.3426  155.6095 H   0  0  0  0  0  0  0  0  0  0  0  0  # atno 8009 bound_to 7997
  155.7306  140.0780  157.2281 H   0  0  0  0  0  0  0  0  0  0  0  0  # atno 8010 bound_to 7997
  139.6504  144.7128  151.2060 H   0  0  0  0  0  0  0  0  0  0  0  0  # atno 10167 bound_to 10162
  157.2718  130.7212  149.6508 H   0  0  0  0  0  0  0  0  0  0  0  0  # atno 10718 bound_to 10713
  154.8751  135.3830  154.4244 H   0  0  0  0  0  0  0  0  0  0  0  0  # atno 10763 bound_to 10752
  153.4945  135.7030  153.5871 H   0  0  0  0  0  0  0  0  0  0  0  0  # atno 10764 bound_to 10752
  153.4230  135.3897  155.2090 H   0  0  0  0  0  0  0  0  0  0  0  0  # atno 10765 bound_to 10752
  141.0164  134.0189  157.3344 H   0  0  0  0  0  0  0  0  0  0  0  0  # atno 11005 bound_to 11000
  146.2200  139.5618  142.9625 LP  0  0  0  0  0  0  0  0  0  0  0  0  # atno 17320 bound_to 7965
  145.5725  141.0392  143.2166 LP  0  0  0  0  0  0  0  0  0  0  0  0  # atno 17321 bound_to 7965
  140.7535  143.6160  150.8559 LP  0  0  0  0  0  0  0  0  0  0  0  0  # atno 17342 bound_to 10162
  139.9807  143.5954  152.2943 LP  0  0  0  0  0  0  0  0  0  0  0  0  # atno 17343 bound_to 10162
  155.9663  130.4365  150.5137 LP  0  0  0  0  0  0  0  0  0  0  0  0  # atno 17370 bound_to 10713
  157.3063  131.0655  151.2033 LP  0  0  0  0  0  0  0  0  0  0  0  0  # atno 17371 bound_to 10713
  139.9119  135.0191  156.7728 LP  0  0  0  0  0  0  0  0  0  0  0  0  # atno 17394 bound_to 11000
  140.6648  133.9613  155.7824 LP  0  0  0  0  0  0  0  0  0  0  0  0  # atno 17395 bound_to 11000

$$$$
