#       Name:                AV-unprocessed.smi:2969
#       Creating user name   scv26
#       Creation time:       Fri Mar 27 16:24:02 2020


#       File generated by GOLD software.
#

@<TRIPOS>MOLECULE
AV-unprocessed.smi:2969
    48    48     1
SMALL
NO_CHARGES


@<TRIPOS>ATOM
      1 ****        -3.6457  -1.8798   2.2191 C.3            1 S1                 0.0000
      2 ****        -2.7881  -2.5459   1.1350 C.3            1 S1                 0.0000
      3 ****        -2.7728  -1.7973  -0.2149 C.3            1 S1                 0.0000
      4 ****        -2.1894  -0.4395  -0.1164 N.am           1 S1                 0.0000
      5 ****        -0.7748  -0.3017  -0.1031 C.2            1 S1                 0.0000
      6 ****         0.0144  -1.4391  -0.1936 N.pl3          1 S1                 0.0000
      7 ****        -0.2128   0.9312   0.0077 C.2            1 S1                 0.0000
      8 ****         1.1798   1.1284   0.0138 N.am           1 S1                 0.0000
      9 ****         1.8122   1.3853  -1.2903 C.3            1 S1                 0.0000
     10 ****         2.6712   0.2002  -1.7773 C.3            1 S1                 0.0000
     11 ****         3.2204   0.4446  -3.0645 O.3            1 S1                 0.0000
     12 ****         4.3613   1.2888  -3.0552 C.3            1 S1                 0.0000
     13 ****         1.9031   1.1985   1.1643 C.2            1 S1                 0.0000
     14 ****         3.1087   1.4577   1.1528 O.2            1 S1                 0.0000
     15 ****         1.2327   0.9372   2.5304 C.3            1 S1                 0.0000
     16 ****         0.3141   1.8690   2.7812 F              1 S1                 0.0000
     17 ****         0.6712  -0.2714   2.5487 F              1 S1                 0.0000
     18 ****         2.1522   0.9846   3.4962 F              1 S1                 0.0000
     19 ****        -1.0874   2.1074   0.0697 C.2            1 S1                 0.0000
     20 ****        -0.5996   3.2360   0.1352 O.2            1 S1                 0.0000
     21 ****        -2.4298   1.8985   0.0509 N.pl3          1 S1                -1.0000
     22 ****        -2.9990   0.6622  -0.0341 C.2            1 S1                 0.0000
     23 ****        -4.2220   0.5164  -0.0345 O.2            1 S1                 0.0000
     24 ****        -3.6720  -2.4908   3.1213 H              1 S1                 0.0000
     25 ****        -4.6725  -1.7422   1.8794 H              1 S1                 0.0000
     26 ****        -3.2489  -0.9031   2.4968 H              1 S1                 0.0000
     27 ****        -1.7715  -2.6655   1.5097 H              1 S1                 0.0000
     28 ****        -3.1636  -3.5556   0.9667 H              1 S1                 0.0000
     29 ****        -2.2202  -2.3834  -0.9496 H              1 S1                 0.0000
     30 ****        -3.7845  -1.7792  -0.6221 H              1 S1                 0.0000
     31 ****        -0.3853  -2.3633  -0.2687 H              1 S1                 0.0000
     32 ****         1.0225  -1.3830  -0.2144 H              1 S1                 0.0000
     33 ****         1.0461   1.5935  -2.0394 H              1 S1                 0.0000
     34 ****         2.4052   2.2982  -1.2244 H              1 S1                 0.0000
     35 ****         3.4602  -0.0513  -1.0672 H              1 S1                 0.0000
     36 ****         2.0433  -0.6856  -1.8644 H              1 S1                 0.0000
     37 ****         4.7458   1.3885  -4.0701 H              1 S1                 0.0000
     38 ****         5.1568   0.8705  -2.4373 H              1 S1                 0.0000
     39 ****         4.1265   2.2891  -2.6922 H              1 S1                 0.0000
     40 ****         2.5164   0.8738  -3.6303 LP             1 S1                 0.0000
     41 ****         3.4819  -0.4329  -3.4664 LP             1 S1                 0.0000
     42 ****         3.5765   1.6221   0.2844 LP             1 S1                 0.0000
     43 ****         3.6185   1.5036   2.0119 LP             1 S1                 0.0000
     44 ****         0.3936   3.3516   0.1462 LP             1 S1                 0.0000
     45 ****        -1.1967   4.0371   0.1775 LP             1 S1                 0.0000
     46 ****        -3.0331   2.6944   0.1022 LP             1 S1                 0.0000
     47 ****        -4.6162  -0.4006  -0.0945 LP             1 S1                 0.0000
     48 ****        -4.8208   1.3151   0.0253 LP             1 S1                 0.0000
@<TRIPOS>BOND
    1    1    2 1     
    2    1   24 1     
    3    1   25 1     
    4    1   26 1     
    5    2    3 1     
    6    2   27 1     
    7    2   28 1     
    8    3    4 1     
    9    3   29 1     
   10    3   30 1     
   11    4   22 am    
   12    4    5 1     
   13    5    6 1     
   14    5    7 2     
   15    6   31 1     
   16    6   32 1     
   17    7    8 1     
   18    7   19 1     
   19    8    9 1     
   20    8   13 am    
   21    9   10 1     
   22    9   33 1     
   23    9   34 1     
   24   10   11 1     
   25   10   35 1     
   26   10   36 1     
   27   11   12 1     
   28   12   37 1     
   29   12   38 1     
   30   12   39 1     
   31   13   14 2     
   32   13   15 1     
   33   15   16 1     
   34   15   17 1     
   35   15   18 1     
   36   19   20 2     
   37   19   21 1     
   38   21   22 1     
   39   22   23 2     
   40   11   40 1     
   41   11   41 1     
   42   14   42 1     
   43   14   43 1     
   44   20   44 1     
   45   20   45 1     
   46   21   46 1     
   47   23   47 1     
   48   23   48 1     
@<TRIPOS>SUBSTRUCTURE
      1 S1             1
@<TRIPOS>SET
LONE_PAIRS      STATIC     ATOMS    <user>   **** ""
9 40 41 42 43 44 45 46 47 48
DONOR_HYDROGENS      STATIC     ATOMS    <user>   **** ""
2 31 32
ATOM$BLUE        STATIC     ATOMS    COLORGROUP SYSTEM
9 40 41 42 43 44 45 46 47 48
ATOM$RED        STATIC     ATOMS    COLORGROUP SYSTEM
2 31 32
