AV-unprocessed.smi:1550|AV-procd|sdf|6228|dock4
  -GOLD-   22720 6403D 1   1.00000     0.00000
 Structure written by MMmdl.
 42 43  0  0  0  0  0  0  0  0  2 V2000
  149.8553  139.8213  154.7464 C   0  0  0  0  0  0  0  0  0  0  0  0
  149.2583  139.7830  156.1610 C   0  0  2  0  0  0  0  0  0  0  0  0
  150.2283  140.3259  157.0526 O   0  0  0  0  0  0  0  0  0  0  0  0
  150.7653  141.5883  156.6734 C   0  0  0  0  0  0  0  0  0  0  0  0
  151.0243  142.4145  157.9397 C   0  0  2  0  0  0  0  0  0  0  0  0
  151.5175  143.8365  157.6074 C   0  0  0  0  0  0  0  0  0  0  0  0
  151.8507  144.6050  158.8913 C   0  0  0  0  0  0  0  0  0  0  0  0
  152.8254  143.7868  159.7448 C   0  0  0  0  0  0  0  0  0  0  0  0
  152.2776  142.3682  159.9658 C   0  0  0  0  0  0  0  0  0  0  0  0
  152.0241  141.7483  158.7089 O   0  0  0  0  0  0  0  0  0  0  0  0
  148.8971  138.3484  156.5790 C   0  0  0  0  0  0  0  0  0  0  0  0
  148.5359  137.5436  155.7209 O   0  0  0  0  0  0  0  0  0  0  0  0
  149.0425  138.0789  157.8914 N   0  0  0  0  0  0  0  0  0  0  0  0
  148.8130  136.8867  158.6004 C   0  0  0  0  0  0  0  0  0  0  0  0
  148.2017  136.8019  159.8148 C   0  0  0  0  0  0  0  0  0  0  0  0
  147.9984  135.5312  160.4992 C   0  0  0  0  0  0  0  0  0  0  0  0
  147.3865  135.4080  161.8836 C   0  0  0  0  0  0  0  0  0  0  0  0
  148.0869  136.1007  162.7820 F   0  0  0  0  0  0  0  0  0  0  0  0
  146.1310  135.8565  161.8926 F   0  0  0  0  0  0  0  0  0  0  0  0
  147.3742  134.1307  162.2618 F   0  0  0  0  0  0  0  0  0  0  0  0
  148.5206  134.4655  159.7926 C   0  0  0  0  0  0  0  0  0  0  0  0
  149.1314  134.4613  158.5876 N   0  5  0  0  0  0  0  0  0  0  0  0
  149.3045  135.6538  157.9506 C   0  0  0  0  0  0  0  0  0  0  0  0
  149.8576  135.7220  156.8522 O   0  0  0  0  0  0  0  0  0  0  0  0
  149.1661  139.3980  154.0146 H   0  0  0  0  0  0  0  0  0  0  0  0
  150.7914  139.2644  154.6890 H   0  0  0  0  0  0  0  0  0  0  0  0
  150.0657  140.8474  154.4445 H   0  0  0  0  0  0  0  0  0  0  0  0
  148.3647  140.4108  156.1696 H   0  0  0  0  0  0  0  0  0  0  0  0
  151.6876  141.4609  156.1047 H   0  0  0  0  0  0  0  0  0  0  0  0
  150.0587  142.1203  156.0354 H   0  0  0  0  0  0  0  0  0  0  0  0
  150.0991  142.4792  158.5153 H   0  0  0  0  0  0  0  0  0  0  0  0
  152.4040  143.7810  156.9743 H   0  0  0  0  0  0  0  0  0  0  0  0
  150.7607  144.3769  157.0376 H   0  0  0  0  0  0  0  0  0  0  0  0
  152.2775  145.5798  158.6536 H   0  0  0  0  0  0  0  0  0  0  0  0
  150.9356  144.7904  159.4552 H   0  0  0  0  0  0  0  0  0  0  0  0
  153.7928  143.7287  159.2441 H   0  0  0  0  0  0  0  0  0  0  0  0
  152.9961  144.2804  160.7018 H   0  0  0  0  0  0  0  0  0  0  0  0
  153.0025  141.7675  160.5154 H   0  0  0  0  0  0  0  0  0  0  0  0
  151.3650  142.3910  160.5633 H   0  0  0  0  0  0  0  0  0  0  0  0
  149.4008  138.8324  158.4602 H   0  0  0  0  0  0  0  0  0  0  0  0
  147.8505  137.6830  160.3245 H   0  0  0  0  0  0  0  0  0  0  0  0
  148.4353  133.4649  160.2677 H   0  0  0  0  0  0  0  0  0  0  0  0
  1  2  1  0  0  0  0
  1 25  1  0  0  0  0
  1 26  1  0  0  0  0
  1 27  1  0  0  0  0
  2  3  1  0  0  0  0
  2 11  1  0  0  0  0
  2 28  1  0  0  0  0
  3  4  1  0  0  0  0
  4  5  1  0  0  0  0
  4 29  1  0  0  0  0
  4 30  1  0  0  0  0
  5 10  1  0  0  0  0
  5  6  1  0  0  0  0
  5 31  1  0  0  0  0
  6  7  1  0  0  0  0
  6 32  1  0  0  0  0
  6 33  1  0  0  0  0
  7  8  1  0  0  0  0
  7 34  1  0  0  0  0
  7 35  1  0  0  0  0
  8  9  1  0  0  0  0
  8 36  1  0  0  0  0
  8 37  1  0  0  0  0
  9 10  1  0  0  0  0
  9 38  1  0  0  0  0
  9 39  1  0  0  0  0
 11 12  2  0  0  0  0
 11 13  1  0  0  0  0
 13 14  1  0  0  0  0
 13 40  1  0  0  0  0
 14 23  1  0  0  0  0
 14 15  2  0  0  0  0
 15 16  1  0  0  0  0
 15 41  1  0  0  0  0
 16 17  1  0  0  0  0
 16 21  2  0  0  0  0
 17 18  1  0  0  0  0
 17 19  1  0  0  0  0
 17 20  1  0  0  0  0
 21 22  1  0  0  0  0
 21 42  1  0  0  0  0
 22 23  1  0  0  0  0
 23 24  2  0  0  0  0
M  CHG  1  22  -1
M  END
> <s_m_source_file>
AV-unprocessed.smi

> <i_m_source_file_index>
1550

> <i_lp_mmshare_version>
43012

> <i_f3d_flags>
0

> <s_epik_input>
TzFbQ0gyXVtDSDJdW0NIMl1bQ0gyXVtDQEhdMVtDSDJdT1tDQEBIXShbQ0gzXSlDKD1PKVtOSF1jMltjSF1jKEMoRikoRilGKVtjSF1bbkhdYzI9Tw==

> <s_epik_cmdline>
J2VwaWtfcHl0aG9uJywgJy1waCcsICc3LjAnLCAnLXRuJywgJzgnLCAnLW1hJywgJzIwMCcsICctbWV0YWxfYmluZGluZycsICctaW1hZScsICc8aW5maWxlLm1hZT4nLCAnLW9tYWUnLCAnPG91dGZpbGUubWFlPic=

> <r_epik_Ionization_Penalty>
2.54933

> <r_epik_Ionization_Penalty_Charging>
0.0583423

> <r_epik_Ionization_Penalty_Neutral>
2.49099

> <r_epik_State_Penalty>
2.65532

> <r_epik_Charging_Adjusted_Penalty>
2.71366

> <i_epik_Tot_Q>
-1

> <i_epik_Tot_abs_Q>
1

> <r_epik_Metal_State_Penalty>
0.516364

> <b_epik_Metal_Only>
0

> <s_lp_Force_Field>
OPLS_2005

> <r_lp_Energy>
27.7019

> <b_lp_Chiralities_Consistent>
1

> <s_lp_Variant>
AV-unprocessed.smi:1550-5

> <Gold.Version>
5.8.1

> <Gold.Id.Protein>
6NUR|6NUR_protein|mol2

> <Gold.PLP.Fitness>
47.5665

> <Gold.PLP.PLP>
-44.4178

> <Gold.PLP.part.hbond>
-1.0000

> <Gold.PLP.part.metal>
0.0000

> <Gold.PLP.part.buried>
-4.9406

> <Gold.PLP.part.nonpolar>
-39.5664

> <Gold.PLP.part.repulsive>
0.1582

> <Gold.PLP.ligand.clash>
0.2608

> <Gold.PLP.ligand.torsion>
1.3893

> <Gold.PLP.Chemscore.Hbond>
2.0000

> <Gold.PLP.Chemscore.CHOScore>
0.0000

> <Gold.PLP.Chemscore.Metal>
0.0000

> <Gold.Chemscore.Hbonds>
donor molecule, donor type, donor heavy atom, donor atom, acceptor molecule, acceptor atom, score
      P1  H  6896  6907       L1    22  1.00

> <Gold.PLP.Chemscore.Internal.Correction>
0.1881

> <Gold.Rescore>
     Score         DG    S(hbond)    S(metal)    S(lipo)     H(rot)  DE(clash)    DE(int)     intcor
     10.19     -13.93       0.37        0.00     101.56       1.82       0.20       3.53       ----

> <Gold.Chemscore.Fitness>
10.1927

> <Gold.Chemscore.DG>
-13.9317

> <Gold.Chemscore.ZeroCoef>
-5.4800

> <Gold.Chemscore.Hbond>
0.3704

> <Gold.Chemscore.Metal>
0.0000

> <Gold.Chemscore.Lipo>
101.5642

> <Gold.Chemscore.Internal_Hbond>
0.0000

> <Gold.Chemscore.DEClash>
0.2046

> <Gold.Chemscore.DEInternal>
3.5344

> <Gold.Chemscore.Rot>
1.8236

> <Gold.Chemscore.Internal.Correction>
   9.000000E+99

> <Gold.Chemscore.Hbonds>
donor molecule, donor type, donor heavy atom, donor atom, acceptor molecule, acceptor atom, score
      P1  H  6896  6907       L1    22  0.01

> <Gold.Chemscore.Hbond.Weighted>
-1.2370

> <Gold.Chemscore.Metal.Weighted>
-0.0000

> <Gold.Chemscore.Lipo.Weighted>
-11.8830

> <Gold.Chemscore.Internal_Hbond.Weighted>
0.0000

> <Gold.Chemscore.DEClash.Weighted>
0.2046

> <Gold.Chemscore.DEInternal.Weighted>
3.5344

> <Gold.Chemscore.Rot.Weighted>
4.6684

> <Gold.Chemscore.Internal.Correction.Weighted>
   9.000000E+99

> <Gold.Protein.RotatedTorsions>
[ 6907 6896 6895 6894 ] final -101.07 input  -60.11 | X-H torsion
[ 7974 7965 7964 7962 ] final -111.13 input  175.53 | X-H torsion
[ 8008 7997 7996 7995 ] final  -81.07 input   59.86 | X-H torsion
[ 10167 10162 10161 10158 ] final   -3.53 input  -65.29 | X-H torsion
[ 10718 10713 10712 10709 ] final -158.78 input   66.30 | X-H torsion
[ 10763 10752 10751 10750 ] final  115.45 input  -60.55 | X-H torsion
[ 11005 11000 10999 10996 ] final -123.51 input  -57.11 | X-H torsion

> <Gold.Protein.ActiveResidues>
 VAL166  LYS551  ARG553  GLY616  TRP617  ASP618  TYR619  PRO620  LYS621  CYS622 
 ASP623  PHE694  ASN695  SER759  ASP760  ASP761  ALA762  ILE779  LEU786  VAL792 
 PHE793  MET794  SER795  GLU796  ALA797  LYS798  CYS799  TRP800  GLU811  SER814 

> <Gold.Protein.RotatedAtoms>
  150.7140  134.0790  159.3891 H   0  0  0  0  0  0  0  0  0  0  0  0  # atno 6907 bound_to 6896
  151.8774  135.0464  160.0494 H   0  0  0  0  0  0  0  0  0  0  0  0  # atno 6908 bound_to 6896
  152.2595  133.5249  159.5410 H   0  0  0  0  0  0  0  0  0  0  0  0  # atno 6909 bound_to 6896
  145.1598  140.8873  143.3597 H   0  0  0  0  0  0  0  0  0  0  0  0  # atno 7974 bound_to 7965
  154.5946  140.0653  156.9285 H   0  0  0  0  0  0  0  0  0  0  0  0  # atno 8008 bound_to 7997
  155.2236  140.3332  155.4294 H   0  0  0  0  0  0  0  0  0  0  0  0  # atno 8009 bound_to 7997
  156.2278  140.1827  156.7302 H   0  0  0  0  0  0  0  0  0  0  0  0  # atno 8010 bound_to 7997
  140.6893  143.6529  150.8334 H   0  0  0  0  0  0  0  0  0  0  0  0  # atno 10167 bound_to 10162
  156.5589  130.8638  151.2803 H   0  0  0  0  0  0  0  0  0  0  0  0  # atno 10718 bound_to 10713
  153.5224  135.3595  155.2638 H   0  0  0  0  0  0  0  0  0  0  0  0  # atno 10763 bound_to 10752
  154.8734  135.4049  154.3244 H   0  0  0  0  0  0  0  0  0  0  0  0  # atno 10764 bound_to 10752
  153.3917  135.7072  153.6557 H   0  0  0  0  0  0  0  0  0  0  0  0  # atno 10765 bound_to 10752
  140.9913  134.0535  157.3651 H   0  0  0  0  0  0  0  0  0  0  0  0  # atno 11005 bound_to 11000
  145.0342  139.3314  143.6009 LP  0  0  0  0  0  0  0  0  0  0  0  0  # atno 17320 bound_to 7965
  146.3484  139.9691  142.8708 LP  0  0  0  0  0  0  0  0  0  0  0  0  # atno 17321 bound_to 7965
  140.0240  143.5512  152.2788 LP  0  0  0  0  0  0  0  0  0  0  0  0  # atno 17342 bound_to 10162
  139.6281  144.7640  151.2595 LP  0  0  0  0  0  0  0  0  0  0  0  0  # atno 17343 bound_to 10162
  157.7372  130.9792  150.2182 LP  0  0  0  0  0  0  0  0  0  0  0  0  # atno 17370 bound_to 10713
  156.2817  130.3734  149.7929 LP  0  0  0  0  0  0  0  0  0  0  0  0  # atno 17371 bound_to 10713
  139.8993  135.0158  156.7191 LP  0  0  0  0  0  0  0  0  0  0  0  0  # atno 17394 bound_to 11000
  140.7036  133.9285  155.8039 LP  0  0  0  0  0  0  0  0  0  0  0  0  # atno 17395 bound_to 11000

$$$$
