AV-unprocessed.smi:1406|AV-procd|sdf|5710|dock2
  -GOLD-   22720 5343D 1   1.00000     0.00000
 Structure written by MMmdl.
 41 43  0  0  0  0  0  0  0  0  2 V2000
  153.3135  141.5660  159.8927 C   0  0  0  0  0  0  0  0  0  0  0  0
  152.5211  142.1546  158.7078 C   0  0  1  0  0  0  0  0  0  0  0  0
  151.4844  141.1756  158.1290 C   0  0  0  0  0  0  0  0  0  0  0  0
  150.5082  140.8212  158.7909 O   0  0  0  0  0  0  0  0  0  0  0  0
  151.7095  140.7428  156.8786 N   0  0  0  0  0  0  0  0  0  0  0  0
  150.8154  139.8711  156.1261 C   0  0  2  0  0  0  0  0  0  0  0  0
  151.4235  138.5072  155.7665 C   0  0  0  0  0  0  0  0  0  0  0  0
  150.9030  138.1914  154.3495 C   0  0  0  0  0  0  0  0  0  0  0  0
  149.9941  139.2985  153.9705 N   0  3  1  0  0  0  0  0  0  0  0  0
  148.5631  138.9462  154.1839 C   0  0  0  0  0  0  0  0  0  0  0  0
  147.6388  140.1600  154.0230 C   0  0  0  0  0  0  0  0  0  0  0  0
  148.0432  141.2656  155.0014 C   0  0  0  0  0  0  0  0  0  0  0  0
  149.5006  141.6648  154.7468 C   0  0  0  0  0  0  0  0  0  0  0  0
  150.4705  140.4620  154.7570 C   0  0  1  0  0  0  0  0  0  0  0  0
  151.8874  143.4208  159.0585 N   0  0  0  0  0  0  0  0  0  0  0  0
  151.9392  144.1222  160.1930 C   0  0  0  0  0  0  0  0  0  0  0  0
  151.2759  145.2688  160.1480 N   0  0  0  0  0  0  0  0  0  0  0  0
  150.8056  145.2105  158.8668 C   0  0  0  0  0  0  0  0  0  0  0  0
  151.1513  144.1303  158.1668 N   0  0  0  0  0  0  0  0  0  0  0  0
  153.8475  140.6612  159.6000 H   0  0  0  0  0  0  0  0  0  0  0  0
  152.6640  141.3111  160.7313 H   0  0  0  0  0  0  0  0  0  0  0  0
  154.0557  142.2778  160.2554 H   0  0  0  0  0  0  0  0  0  0  0  0
  153.2358  142.3635  157.9102 H   0  0  0  0  0  0  0  0  0  0  0  0
  152.5360  141.0752  156.4031 H   0  0  0  0  0  0  0  0  0  0  0  0
  149.8956  139.7154  156.6930 H   0  0  0  0  0  0  0  0  0  0  0  0
  152.5138  138.5452  155.7602 H   0  0  0  0  0  0  0  0  0  0  0  0
  151.1263  137.7449  156.4875 H   0  0  0  0  0  0  0  0  0  0  0  0
  151.7382  138.1779  153.6483 H   0  0  0  0  0  0  0  0  0  0  0  0
  150.4193  137.2151  154.2922 H   0  0  0  0  0  0  0  0  0  0  0  0
  148.2799  138.1689  153.4732 H   0  0  0  0  0  0  0  0  0  0  0  0
  148.4287  138.5201  155.1795 H   0  0  0  0  0  0  0  0  0  0  0  0
  147.6838  140.5313  152.9983 H   0  0  0  0  0  0  0  0  0  0  0  0
  146.6042  139.8657  154.2022 H   0  0  0  0  0  0  0  0  0  0  0  0
  147.3915  142.1315  154.8818 H   0  0  0  0  0  0  0  0  0  0  0  0
  147.9188  140.9220  156.0290 H   0  0  0  0  0  0  0  0  0  0  0  0
  149.5600  142.1507  153.7719 H   0  0  0  0  0  0  0  0  0  0  0  0
  149.8182  142.4137  155.4735 H   0  0  0  0  0  0  0  0  0  0  0  0
  151.4026  140.7900  154.2919 H   0  0  0  0  0  0  0  0  0  0  0  0
  152.4800  143.7916  161.0676 H   0  0  0  0  0  0  0  0  0  0  0  0
  150.1966  145.9910  158.4345 H   0  0  0  0  0  0  0  0  0  0  0  0
  150.1073  139.5039  152.9880 H   0  0  0  0  0  0  0  0  0  0  0  0
  1  2  1  0  0  0  0
  1 20  1  0  0  0  0
  1 21  1  0  0  0  0
  1 22  1  0  0  0  0
  2  3  1  0  0  0  0
  2 15  1  0  0  0  0
  2 23  1  0  0  0  0
  3  4  2  0  0  0  0
  3  5  1  0  0  0  0
  5  6  1  0  0  0  0
  5 24  1  0  0  0  0
  6 14  1  0  0  0  0
  6  7  1  0  0  0  0
  6 25  1  0  0  0  0
  7  8  1  0  0  0  0
  7 26  1  0  0  0  0
  7 27  1  0  0  0  0
  8  9  1  0  0  0  0
  8 28  1  0  0  0  0
  8 29  1  0  0  0  0
  9 14  1  0  0  0  0
  9 10  1  0  0  0  0
  9 41  1  0  0  0  0
 10 11  1  0  0  0  0
 10 30  1  0  0  0  0
 10 31  1  0  0  0  0
 11 12  1  0  0  0  0
 11 32  1  0  0  0  0
 11 33  1  0  0  0  0
 12 13  1  0  0  0  0
 12 34  1  0  0  0  0
 12 35  1  0  0  0  0
 13 14  1  0  0  0  0
 13 36  1  0  0  0  0
 13 37  1  0  0  0  0
 14 38  1  0  0  0  0
 15 19  1  0  0  0  0
 15 16  1  0  0  0  0
 16 17  2  0  0  0  0
 16 39  1  0  0  0  0
 17 18  1  0  0  0  0
 18 19  2  0  0  0  0
 18 40  1  0  0  0  0
M  CHG  1   9   1
M  END
> <s_m_source_file>
AV-unprocessed.smi

> <i_m_source_file_index>
1406

> <i_lp_mmshare_version>
43012

> <i_f3d_flags>
0

> <s_epik_input>
bjFbY0hdbltjSF1uMVtDQEhdKFtDSDNdKUMoPU8pW05IXVtDQEhdKFtDSDJdW0NIMl0yKVtDQEBIXShOMjMpW0NIMl1bQ0gyXVtDSDJdW0NIMl0z

> <s_epik_cmdline>
J2VwaWtfcHl0aG9uJywgJy1waCcsICc3LjAnLCAnLXRuJywgJzgnLCAnLW1hJywgJzIwMCcsICctbWV0YWxfYmluZGluZycsICctaW1hZScsICc8aW5maWxlLm1hZT4nLCAnLW9tYWUnLCAnPG91dGZpbGUubWFlPic=

> <r_lp_tautomer_probability>
1

> <r_epik_Ionization_Penalty>
0.00197066

> <r_epik_Ionization_Penalty_Charging>
0.00196223

> <r_epik_Ionization_Penalty_Neutral>
8.43107e-06

> <r_epik_State_Penalty>
0.00133866

> <r_epik_Charging_Adjusted_Penalty>
0.00330089

> <i_epik_Tot_Q>
1

> <i_epik_Tot_abs_Q>
1

> <r_epik_Metal_State_Penalty>
-0

> <b_epik_Metal_Only>
0

> <s_lp_Force_Field>
OPLS_2005

> <r_lp_Energy>
42.7017

> <b_lp_Chiralities_Consistent>
1

> <s_lp_Variant>
AV-unprocessed.smi:1406-2

> <Gold.Version>
5.8.1

> <Gold.Id.Protein>
6NUR|6NUR_protein|mol2

> <Gold.PLP.Fitness>
39.9059

> <Gold.PLP.PLP>
-34.0656

> <Gold.PLP.part.hbond>
-1.0000

> <Gold.PLP.part.metal>
0.0000

> <Gold.PLP.part.buried>
-0.4247

> <Gold.PLP.part.nonpolar>
-31.3210

> <Gold.PLP.part.repulsive>
0.5740

> <Gold.PLP.ligand.clash>
0.0000

> <Gold.PLP.ligand.torsion>
0.1322

> <Gold.PLP.Chemscore.Hbond>
1.0000

> <Gold.PLP.Chemscore.CHOScore>
1.0000

> <Gold.PLP.Chemscore.Metal>
0.0000

> <Gold.Chemscore.Hbonds>
donor molecule, donor type, donor heavy atom, donor atom, acceptor molecule, acceptor atom, score
      L1  H     9    41       P1  7957  1.00
      L1  C    18    40       P1  8029  0.95

> <Gold.PLP.Chemscore.Internal.Correction>
0.1048

> <Gold.Rescore>
     Score         DG    S(hbond)    S(metal)    S(lipo)     H(rot)  DE(clash)    DE(int)     intcor
     11.48     -11.65       1.00        0.00      65.43       1.89       0.10       0.07       ----

> <Gold.Chemscore.Fitness>
11.4793

> <Gold.Chemscore.DG>
-11.6454

> <Gold.Chemscore.ZeroCoef>
-5.4800

> <Gold.Chemscore.Hbond>
0.9999

> <Gold.Chemscore.Metal>
0.0000

> <Gold.Chemscore.Lipo>
65.4289

> <Gold.Chemscore.Internal_Hbond>
0.0000

> <Gold.Chemscore.DEClash>
0.0998

> <Gold.Chemscore.DEInternal>
0.0662

> <Gold.Chemscore.Rot>
1.8865

> <Gold.Chemscore.Internal.Correction>
   9.000000E+99

> <Gold.Chemscore.Hbonds>
donor molecule, donor type, donor heavy atom, donor atom, acceptor molecule, acceptor atom, score
      L1  H     9    41       P1  7957  0.96

> <Gold.Chemscore.Hbond.Weighted>
-3.3397

> <Gold.Chemscore.Metal.Weighted>
-0.0000

> <Gold.Chemscore.Lipo.Weighted>
-7.6552

> <Gold.Chemscore.Internal_Hbond.Weighted>
0.0000

> <Gold.Chemscore.DEClash.Weighted>
0.0998

> <Gold.Chemscore.DEInternal.Weighted>
0.0662

> <Gold.Chemscore.Rot.Weighted>
4.8295

> <Gold.Chemscore.Internal.Correction.Weighted>
   9.000000E+99

> <Gold.Protein.RotatedTorsions>
[ 6907 6896 6895 6894 ] final -160.43 input  -60.11 | X-H torsion
[ 7974 7965 7964 7962 ] final -160.91 input  175.53 | X-H torsion
[ 8008 7997 7996 7995 ] final  -26.78 input   59.86 | X-H torsion
[ 10167 10162 10161 10158 ] final    8.55 input  -65.29 | X-H torsion
[ 10718 10713 10712 10709 ] final  112.98 input   66.30 | X-H torsion
[ 10763 10752 10751 10750 ] final -171.90 input  -60.55 | X-H torsion
[ 11005 11000 10999 10996 ] final  -76.04 input  -57.11 | X-H torsion

> <Gold.Protein.ActiveResidues>
 VAL166  LYS551  ARG553  GLY616  TRP617  ASP618  TYR619  PRO620  LYS621  CYS622 
 ASP623  PHE694  ASN695  SER759  ASP760  ASP761  ALA762  ILE779  LEU786  VAL792 
 PHE793  MET794  SER795  GLU796  ALA797  LYS798  CYS799  TRP800  GLU811  SER814 

> <Gold.Protein.RotatedAtoms>
  151.3489  133.3933  159.2678 H   0  0  0  0  0  0  0  0  0  0  0  0  # atno 6907 bound_to 6896
  150.9817  134.9172  159.7858 H   0  0  0  0  0  0  0  0  0  0  0  0  # atno 6908 bound_to 6896
  152.5219  134.3453  159.9284 H   0  0  0  0  0  0  0  0  0  0  0  0  # atno 6909 bound_to 6896
  144.7410  140.3474  143.6122 H   0  0  0  0  0  0  0  0  0  0  0  0  # atno 7974 bound_to 7965
  154.4408  140.1890  156.0829 H   0  0  0  0  0  0  0  0  0  0  0  0  # atno 8008 bound_to 7997
  156.0424  140.3318  155.7233 H   0  0  0  0  0  0  0  0  0  0  0  0  # atno 8009 bound_to 7997
  155.5679  140.0610  157.2804 H   0  0  0  0  0  0  0  0  0  0  0  0  # atno 8010 bound_to 7997
  140.6307  143.8000  150.7292 H   0  0  0  0  0  0  0  0  0  0  0  0  # atno 10167 bound_to 10162
  157.6363  131.0976  150.6974 H   0  0  0  0  0  0  0  0  0  0  0  0  # atno 10718 bound_to 10713
  154.6253  135.2880  155.0279 H   0  0  0  0  0  0  0  0  0  0  0  0  # atno 10763 bound_to 10752
  154.1459  135.6511  153.4956 H   0  0  0  0  0  0  0  0  0  0  0  0  # atno 10764 bound_to 10752
  153.0254  135.5344  154.7059 H   0  0  0  0  0  0  0  0  0  0  0  0  # atno 10765 bound_to 10752
  141.1650  133.6969  156.7608 H   0  0  0  0  0  0  0  0  0  0  0  0  # atno 11005 bound_to 11000
  145.7312  139.1736  143.2429 LP  0  0  0  0  0  0  0  0  0  0  0  0  # atno 17320 bound_to 7965
  146.1205  140.7315  142.9460 LP  0  0  0  0  0  0  0  0  0  0  0  0  # atno 17321 bound_to 7965
  140.1610  143.4275  152.2067 LP  0  0  0  0  0  0  0  0  0  0  0  0  # atno 17342 bound_to 10162
  139.5522  144.7346  151.4402 LP  0  0  0  0  0  0  0  0  0  0  0  0  # atno 17343 bound_to 10162
  156.7305  130.4708  149.5501 LP  0  0  0  0  0  0  0  0  0  0  0  0  # atno 17370 bound_to 10713
  156.1605  130.6371  151.0713 LP  0  0  0  0  0  0  0  0  0  0  0  0  # atno 17371 bound_to 10713
  140.2535  134.8522  157.3690 LP  0  0  0  0  0  0  0  0  0  0  0  0  # atno 17394 bound_to 11000
  140.1680  134.4645  155.7850 LP  0  0  0  0  0  0  0  0  0  0  0  0  # atno 17395 bound_to 11000

$$$$
