AV-unprocessed.smi:1047|AV-procd|sdf|4570|dock8
  -GOLD-   22720 3 23D 1   1.00000     0.00000
 Structure written by MMmdl.
 56 58  0  0  0  0  0  0  0  0  2 V2000
  144.0276  147.0154  156.4874 C   0  0  0  0  0  0  0  0  0  0  0  0
  142.9809  146.4853  155.4971 C   0  0  0  0  0  0  0  0  0  0  0  0
  143.4772  145.4877  154.5502 N   0  0  0  0  0  0  0  0  0  0  0  0
  144.4547  146.0403  153.6156 C   0  0  0  0  0  0  0  0  0  0  0  0
  144.9904  144.9707  152.6487 C   0  0  0  0  0  0  0  0  0  0  0  0
  145.5374  143.8853  153.3909 O   0  0  0  0  0  0  0  0  0  0  0  0
  144.5933  143.2808  154.2714 C   0  0  1  0  0  0  0  0  0  0  0  0
  145.2905  142.1258  155.0027 C   0  0  0  0  0  0  0  0  0  0  0  0
  145.9972  141.2440  154.0526 N   0  3  0  0  0  0  0  0  0  0  0  0
  147.2953  141.7766  153.5937 C   0  0  0  0  0  0  0  0  0  0  0  0
  148.4781  141.0932  154.3089 C   0  0  1  0  0  0  0  0  0  0  0  0
  149.5403  140.9233  153.3913 O   0  0  0  0  0  0  0  0  0  0  0  0
  149.0277  141.9032  155.5003 C   0  0  0  0  0  0  0  0  0  0  0  0
  149.9661  141.1463  156.3090 N   0  0  0  0  0  0  0  0  0  0  0  0
  150.3297  139.8612  156.1352 C   0  0  0  0  0  0  0  0  0  0  0  0
  151.2059  139.3545  156.9975 N   0  0  0  0  0  0  0  0  0  0  0  0
  151.4443  140.4392  157.8239 C   0  0  0  0  0  0  0  0  0  0  0  0
  152.2854  140.5661  158.9508 C   0  0  0  0  0  0  0  0  0  0  0  0
  152.3705  141.7864  159.6582 C   0  0  0  0  0  0  0  0  0  0  0  0
  153.2900  141.8782  160.8635 C   0  0  0  0  0  0  0  0  0  0  0  0
  151.6050  142.9046  159.2404 C   0  0  0  0  0  0  0  0  0  0  0  0
  151.6797  144.2254  159.9859 C   0  0  0  0  0  0  0  0  0  0  0  0
  150.7610  142.7959  158.1156 C   0  0  0  0  0  0  0  0  0  0  0  0
  150.6853  141.5762  157.4196 C   0  0  0  0  0  0  0  0  0  0  0  0
  144.0763  144.3556  155.2484 C   0  0  0  0  0  0  0  0  0  0  0  0
  143.6093  147.8219  157.0896 H   0  0  0  0  0  0  0  0  0  0  0  0
  144.8992  147.4110  155.9652 H   0  0  0  0  0  0  0  0  0  0  0  0
  144.3674  146.2422  157.1760 H   0  0  0  0  0  0  0  0  0  0  0  0
  142.1295  146.0837  156.0484 H   0  0  0  0  0  0  0  0  0  0  0  0
  142.5989  147.3409  154.9387 H   0  0  0  0  0  0  0  0  0  0  0  0
  144.0086  146.8448  153.0316 H   0  0  0  0  0  0  0  0  0  0  0  0
  145.2883  146.4785  154.1668 H   0  0  0  0  0  0  0  0  0  0  0  0
  144.1959  144.6088  151.9944 H   0  0  0  0  0  0  0  0  0  0  0  0
  145.7653  145.3922  152.0085 H   0  0  0  0  0  0  0  0  0  0  0  0
  143.7561  142.8875  153.6914 H   0  0  0  0  0  0  0  0  0  0  0  0
  145.9949  142.5152  155.7391 H   0  0  0  0  0  0  0  0  0  0  0  0
  144.5524  141.5332  155.5450 H   0  0  0  0  0  0  0  0  0  0  0  0
  146.1520  140.3493  154.4952 H   0  0  0  0  0  0  0  0  0  0  0  0
  147.3844  141.6582  152.5127 H   0  0  0  0  0  0  0  0  0  0  0  0
  147.2983  142.8475  153.7976 H   0  0  0  0  0  0  0  0  0  0  0  0
  148.1734  140.1072  154.6627 H   0  0  0  0  0  0  0  0  0  0  0  0
  149.2719  140.3176  152.7179 H   0  0  0  0  0  0  0  0  0  0  0  0
  149.5364  142.8005  155.1440 H   0  0  0  0  0  0  0  0  0  0  0  0
  148.2125  142.2436  156.1404 H   0  0  0  0  0  0  0  0  0  0  0  0
  149.9248  139.2626  155.3322 H   0  0  0  0  0  0  0  0  0  0  0  0
  152.8685  139.7144  159.2691 H   0  0  0  0  0  0  0  0  0  0  0  0
  154.0261  142.6705  160.7242 H   0  0  0  0  0  0  0  0  0  0  0  0
  153.8312  140.9451  161.0239 H   0  0  0  0  0  0  0  0  0  0  0  0
  152.7168  142.0920  161.7659 H   0  0  0  0  0  0  0  0  0  0  0  0
  151.0061  144.9656  159.5530 H   0  0  0  0  0  0  0  0  0  0  0  0
  152.6917  144.6288  159.9448 H   0  0  0  0  0  0  0  0  0  0  0  0
  151.4015  144.0919  161.0314 H   0  0  0  0  0  0  0  0  0  0  0  0
  150.1739  143.6406  157.7871 H   0  0  0  0  0  0  0  0  0  0  0  0
  144.8988  144.7030  155.8761 H   0  0  0  0  0  0  0  0  0  0  0  0
  143.3416  143.9082  155.9191 H   0  0  0  0  0  0  0  0  0  0  0  0
  145.4038  141.1084  153.2465 H   0  0  0  0  0  0  0  0  0  0  0  0
  1  2  1  0  0  0  0
  1 26  1  0  0  0  0
  1 27  1  0  0  0  0
  1 28  1  0  0  0  0
  2  3  1  0  0  0  0
  2 29  1  0  0  0  0
  2 30  1  0  0  0  0
  3 25  1  0  0  0  0
  3  4  1  0  0  0  0
  4  5  1  0  0  0  0
  4 31  1  0  0  0  0
  4 32  1  0  0  0  0
  5  6  1  0  0  0  0
  5 33  1  0  0  0  0
  5 34  1  0  0  0  0
  6  7  1  0  0  0  0
  7  8  1  0  0  0  0
  7 25  1  0  0  0  0
  7 35  1  0  0  0  0
  8  9  1  0  0  0  0
  8 36  1  0  0  0  0
  8 37  1  0  0  0  0
  9 10  1  0  0  0  0
  9 38  1  0  0  0  0
  9 56  1  0  0  0  0
 10 11  1  0  0  0  0
 10 39  1  0  0  0  0
 10 40  1  0  0  0  0
 11 12  1  0  0  0  0
 11 13  1  0  0  0  0
 11 41  1  0  0  0  0
 12 42  1  0  0  0  0
 13 14  1  0  0  0  0
 13 43  1  0  0  0  0
 13 44  1  0  0  0  0
 14 24  1  0  0  0  0
 14 15  1  0  0  0  0
 15 16  2  0  0  0  0
 15 45  1  0  0  0  0
 16 17  1  0  0  0  0
 17 24  2  0  0  0  0
 17 18  1  0  0  0  0
 18 19  2  0  0  0  0
 18 46  1  0  0  0  0
 19 20  1  0  0  0  0
 19 21  1  0  0  0  0
 20 47  1  0  0  0  0
 20 48  1  0  0  0  0
 20 49  1  0  0  0  0
 21 22  1  0  0  0  0
 21 23  2  0  0  0  0
 22 50  1  0  0  0  0
 22 51  1  0  0  0  0
 22 52  1  0  0  0  0
 23 24  1  0  0  0  0
 23 53  1  0  0  0  0
 25 54  1  0  0  0  0
 25 55  1  0  0  0  0
M  CHG  1   9   1
M  END
> <s_m_source_file>
AV-unprocessed.smi

> <i_m_source_file_index>
1047

> <i_lp_mmshare_version>
43012

> <i_f3d_flags>
0

> <s_epik_input>
W0NIM11bQ0gyXU4xW0NIMl1bQ0gyXU9bQ0BIXShbQ0gyXTEpW0NIMl1bTkhdW0NIMl1bQ0BIXShbT0hdKVtDSDJdbihbY0hdbjIpYyhjMjMpW2NIXWMoW0NIM10pYyhbY0hdMylbQ0gzXQ==

> <s_epik_cmdline>
J2VwaWtfcHl0aG9uJywgJy1waCcsICc3LjAnLCAnLXRuJywgJzgnLCAnLW1hJywgJzIwMCcsICctbWV0YWxfYmluZGluZycsICctaW1hZScsICc8aW5maWxlLm1hZT4nLCAnLW9tYWUnLCAnPG91dGZpbGUubWFlPic=

> <r_epik_Ionization_Penalty>
0.692425

> <r_epik_Ionization_Penalty_Charging>
0.0243549

> <r_epik_Ionization_Penalty_Neutral>
0.66807

> <r_epik_State_Penalty>
0.592789

> <r_epik_Charging_Adjusted_Penalty>
0.617144

> <i_epik_Tot_Q>
1

> <i_epik_Tot_abs_Q>
1

> <r_epik_Metal_State_Penalty>
0.508021

> <b_epik_Metal_Only>
0

> <s_lp_Force_Field>
OPLS_2005

> <r_lp_Energy>
31.2277

> <b_lp_Chiralities_Consistent>
1

> <s_lp_Variant>
AV-unprocessed.smi:1047-11

> <Gold.Version>
5.8.1

> <Gold.Id.Protein>
6NUR|6NUR_protein|mol2

> <Gold.PLP.Fitness>
58.8106

> <Gold.PLP.PLP>
-49.1597

> <Gold.PLP.part.hbond>
-3.2701

> <Gold.PLP.part.metal>
0.0000

> <Gold.PLP.part.buried>
-2.9158

> <Gold.PLP.part.nonpolar>
-45.0863

> <Gold.PLP.part.repulsive>
0.2593

> <Gold.PLP.ligand.clash>
0.0000

> <Gold.PLP.ligand.torsion>
1.0364

> <Gold.PLP.Chemscore.Hbond>
3.8511

> <Gold.PLP.Chemscore.CHOScore>
0.0000

> <Gold.PLP.Chemscore.Metal>
0.0000

> <Gold.Chemscore.Hbonds>
donor molecule, donor type, donor heavy atom, donor atom, acceptor molecule, acceptor atom, score
      L1  H     9    56       P1 10175  1.98
      L1  H    12    42       P1  7957  0.74
      P1  H  7989  7998       L1    12  0.24
      P1  H  8011  8017       L1    12  0.90

> <Gold.PLP.Chemscore.Internal.Correction>
0.1703

> <Gold.Rescore>
     Score         DG    S(hbond)    S(metal)    S(lipo)     H(rot)  DE(clash)    DE(int)     intcor
     18.80     -21.53       2.12        0.00     133.58       2.60       1.42       1.31       ----

> <Gold.Chemscore.Fitness>
18.8018

> <Gold.Chemscore.DG>
-21.5326

> <Gold.Chemscore.ZeroCoef>
-5.4800

> <Gold.Chemscore.Hbond>
2.1233

> <Gold.Chemscore.Metal>
0.0000

> <Gold.Chemscore.Lipo>
133.5842

> <Gold.Chemscore.Internal_Hbond>
0.0000

> <Gold.Chemscore.DEClash>
1.4173

> <Gold.Chemscore.DEInternal>
1.3135

> <Gold.Chemscore.Rot>
2.6049

> <Gold.Chemscore.Internal.Correction>
   9.000000E+99

> <Gold.Chemscore.Hbonds>
donor molecule, donor type, donor heavy atom, donor atom, acceptor molecule, acceptor atom, score
      L1  H     9    56       P1 10175  0.32
      L1  H    12    42       P1  7957  0.73
      P1  H  7989  7998       L1    12  0.14
      P1  H  8011  8017       L1    12  0.15

> <Gold.Chemscore.Hbond.Weighted>
-7.0917

> <Gold.Chemscore.Metal.Weighted>
-0.0000

> <Gold.Chemscore.Lipo.Weighted>
-15.6293

> <Gold.Chemscore.Internal_Hbond.Weighted>
0.0000

> <Gold.Chemscore.DEClash.Weighted>
1.4173

> <Gold.Chemscore.DEInternal.Weighted>
1.3135

> <Gold.Chemscore.Rot.Weighted>
6.6685

> <Gold.Chemscore.Internal.Correction.Weighted>
   9.000000E+99

> <Gold.Protein.RotatedTorsions>
[ 6907 6896 6895 6894 ] final -160.42 input  -60.11 | X-H torsion
[ 7974 7965 7964 7962 ] final   42.06 input  175.53 | X-H torsion
[ 8008 7997 7996 7995 ] final -156.65 input   59.86 | X-H torsion
[ 10167 10162 10161 10158 ] final  -70.40 input  -65.29 | X-H torsion
[ 10718 10713 10712 10709 ] final -162.55 input   66.30 | X-H torsion
[ 10763 10752 10751 10750 ] final  -10.22 input  -60.55 | X-H torsion
[ 11005 11000 10999 10996 ] final  134.05 input  -57.11 | X-H torsion

> <Gold.Protein.ActiveResidues>
 VAL166  LYS551  ARG553  GLY616  TRP617  ASP618  TYR619  PRO620  LYS621  CYS622 
 ASP623  PHE694  ASN695  SER759  ASP760  ASP761  ALA762  ILE779  LEU786  VAL792 
 PHE793  MET794  SER795  GLU796  ALA797  LYS798  CYS799  TRP800  GLU811  SER814 

> <Gold.Protein.RotatedAtoms>
  151.3489  133.3933  159.2677 H   0  0  0  0  0  0  0  0  0  0  0  0  # atno 6907 bound_to 6896
  150.9817  134.9172  159.7859 H   0  0  0  0  0  0  0  0  0  0  0  0  # atno 6908 bound_to 6896
  152.5219  134.3453  159.9284 H   0  0  0  0  0  0  0  0  0  0  0  0  # atno 6909 bound_to 6896
  146.0772  139.5344  142.9560 H   0  0  0  0  0  0  0  0  0  0  0  0  # atno 7974 bound_to 7965
  155.7205  140.0789  157.2333 H   0  0  0  0  0  0  0  0  0  0  0  0  # atno 8008 bound_to 7997
  154.4046  140.1613  156.2451 H   0  0  0  0  0  0  0  0  0  0  0  0  # atno 8009 bound_to 7997
  155.9201  140.3398  155.6169 H   0  0  0  0  0  0  0  0  0  0  0  0  # atno 8010 bound_to 7997
  140.5355  143.2318  151.7184 H   0  0  0  0  0  0  0  0  0  0  0  0  # atno 10167 bound_to 10162
  156.6120  130.8854  151.2938 H   0  0  0  0  0  0  0  0  0  0  0  0  # atno 10718 bound_to 10713
  153.4661  135.7016  153.6021 H   0  0  0  0  0  0  0  0  0  0  0  0  # atno 10763 bound_to 10752
  153.4295  135.3806  155.2161 H   0  0  0  0  0  0  0  0  0  0  0  0  # atno 10764 bound_to 10752
  154.8726  135.3947  154.4093 H   0  0  0  0  0  0  0  0  0  0  0  0  # atno 10765 bound_to 10752
  139.9890  134.9522  156.9811 H   0  0  0  0  0  0  0  0  0  0  0  0  # atno 11005 bound_to 11000
  145.6284  141.0309  143.1876 LP  0  0  0  0  0  0  0  0  0  0  0  0  # atno 17320 bound_to 7965
  144.7269  139.7847  143.7361 LP  0  0  0  0  0  0  0  0  0  0  0  0  # atno 17321 bound_to 7965
  139.4969  144.4048  152.0143 LP  0  0  0  0  0  0  0  0  0  0  0  0  # atno 17342 bound_to 10162
  140.3154  144.3490  150.6023 LP  0  0  0  0  0  0  0  0  0  0  0  0  # atno 17343 bound_to 10162
  157.7251  130.9612  150.1602 LP  0  0  0  0  0  0  0  0  0  0  0  0  # atno 17370 bound_to 10713
  156.2382  130.3688  149.8367 LP  0  0  0  0  0  0  0  0  0  0  0  0  # atno 17371 bound_to 10713
  140.4945  134.1159  155.7239 LP  0  0  0  0  0  0  0  0  0  0  0  0  # atno 17394 bound_to 11000
  141.1550  133.8900  157.2002 LP  0  0  0  0  0  0  0  0  0  0  0  0  # atno 17395 bound_to 11000

$$$$
