AV-unprocessed.smi:938|AV-procd|sdf|4217|dock10
  -GOLD-   22720 2123D 1   1.00000     0.00000
 Structure written by MMmdl.
 42 43  0  0  0  0  0  0  0  0  1 V2000
  151.1372  133.5196  156.0691 C   0  0  0  0  0  0  0  0  0  0  0  0
  149.9033  134.4148  156.2418 C   0  0  0  0  0  0  0  0  0  0  0  0
  149.1272  134.5807  154.9281 C   0  0  0  0  0  0  0  0  0  0  0  0
  150.3177  135.7246  156.7365 N   0  0  0  0  0  0  0  0  0  0  0  0
  151.0612  136.6265  156.0715 C   0  0  0  0  0  0  0  0  0  0  0  0
  151.5004  136.4391  154.9361 O   0  0  0  0  0  0  0  0  0  0  0  0
  151.3694  137.8983  156.8168 C   0  0  0  0  0  0  0  0  0  0  0  0
  150.7889  138.1366  158.0821 C   0  0  0  0  0  0  0  0  0  0  0  0
  151.1152  139.3345  158.7398 C   0  0  0  0  0  0  0  0  0  0  0  0
  152.0009  140.2152  158.0909 C   0  0  0  0  0  0  0  0  0  0  0  0
  152.3466  141.4224  158.7133 N   0  0  0  0  0  0  0  0  0  0  0  0
  153.0382  141.2434  159.9817 C   0  0  0  0  0  0  0  0  0  0  0  0
  153.5251  142.6023  160.5058 C   0  0  0  0  0  0  0  0  0  0  0  0
  152.4298  143.5136  160.5929 O   0  0  0  0  0  0  0  0  0  0  0  0
  151.7087  143.7246  159.3728 C   0  0  0  0  0  0  0  0  0  0  0  0
  150.4909  144.5795  159.7564 C   0  0  0  0  0  0  0  0  0  0  0  0
  152.5687  144.4970  158.3494 C   0  0  0  0  0  0  0  0  0  0  0  0
  151.2351  142.3595  158.8196 C   0  0  0  0  0  0  0  0  0  0  0  0
  152.5324  139.9325  156.8760 N   0  0  0  0  0  0  0  0  0  0  0  0
  152.2225  138.7912  156.2520 N   0  0  0  0  0  0  0  0  0  0  0  0
  150.8547  132.5255  155.7214 H   0  0  0  0  0  0  0  0  0  0  0  0
  151.6685  133.3986  157.0138 H   0  0  0  0  0  0  0  0  0  0  0  0
  151.8357  133.9402  155.3449 H   0  0  0  0  0  0  0  0  0  0  0  0
  149.2420  133.9306  156.9622 H   0  0  0  0  0  0  0  0  0  0  0  0
  148.7901  133.6161  154.5475 H   0  0  0  0  0  0  0  0  0  0  0  0
  149.7438  135.0454  154.1577 H   0  0  0  0  0  0  0  0  0  0  0  0
  148.2441  135.2049  155.0697 H   0  0  0  0  0  0  0  0  0  0  0  0
  150.0144  135.9731  157.6674 H   0  0  0  0  0  0  0  0  0  0  0  0
  150.1126  137.4296  158.5402 H   0  0  0  0  0  0  0  0  0  0  0  0
  150.6983  139.5687  159.7085 H   0  0  0  0  0  0  0  0  0  0  0  0
  152.3646  140.7865  160.7082 H   0  0  0  0  0  0  0  0  0  0  0  0
  153.8831  140.5658  159.8529 H   0  0  0  0  0  0  0  0  0  0  0  0
  153.9595  142.4833  161.4982 H   0  0  0  0  0  0  0  0  0  0  0  0
  154.3137  143.0062  159.8708 H   0  0  0  0  0  0  0  0  0  0  0  0
  149.8631  144.7876  158.8893 H   0  0  0  0  0  0  0  0  0  0  0  0
  150.7978  145.5360  160.1810 H   0  0  0  0  0  0  0  0  0  0  0  0
  149.8717  144.0757  160.4994 H   0  0  0  0  0  0  0  0  0  0  0  0
  151.9837  144.7583  157.4672 H   0  0  0  0  0  0  0  0  0  0  0  0
  153.4233  143.9175  158.0015 H   0  0  0  0  0  0  0  0  0  0  0  0
  152.9511  145.4241  158.7773 H   0  0  0  0  0  0  0  0  0  0  0  0
  150.7627  142.4893  157.8447 H   0  0  0  0  0  0  0  0  0  0  0  0
  150.4791  141.9352  159.4828 H   0  0  0  0  0  0  0  0  0  0  0  0
  1  2  1  0  0  0  0
  1 21  1  0  0  0  0
  1 22  1  0  0  0  0
  1 23  1  0  0  0  0
  2  3  1  0  0  0  0
  2  4  1  0  0  0  0
  2 24  1  0  0  0  0
  3 25  1  0  0  0  0
  3 26  1  0  0  0  0
  3 27  1  0  0  0  0
  4  5  1  0  0  0  0
  4 28  1  0  0  0  0
  5  6  2  0  0  0  0
  5  7  1  0  0  0  0
  7 20  1  0  0  0  0
  7  8  2  0  0  0  0
  8  9  1  0  0  0  0
  8 29  1  0  0  0  0
  9 10  2  0  0  0  0
  9 30  1  0  0  0  0
 10 11  1  0  0  0  0
 10 19  1  0  0  0  0
 11 18  1  0  0  0  0
 11 12  1  0  0  0  0
 12 13  1  0  0  0  0
 12 31  1  0  0  0  0
 12 32  1  0  0  0  0
 13 14  1  0  0  0  0
 13 33  1  0  0  0  0
 13 34  1  0  0  0  0
 14 15  1  0  0  0  0
 15 16  1  0  0  0  0
 15 17  1  0  0  0  0
 15 18  1  0  0  0  0
 16 35  1  0  0  0  0
 16 36  1  0  0  0  0
 16 37  1  0  0  0  0
 17 38  1  0  0  0  0
 17 39  1  0  0  0  0
 17 40  1  0  0  0  0
 18 41  1  0  0  0  0
 18 42  1  0  0  0  0
 19 20  2  0  0  0  0
M  END
> <s_m_source_file>
AV-unprocessed.smi

> <i_m_source_file_index>
938

> <i_lp_mmshare_version>
43012

> <i_f3d_flags>
0

> <s_epik_input>
W0NIM11bQ0hdKFtDSDNdKVtOSF1DKD1PKWMxW2NIXVtjSF1jKG5uMSlOKFtDSDJdMilbQ0gyXVtDSDJdT0MyKFtDSDNdKVtDSDNd

> <s_epik_cmdline>
J2VwaWtfcHl0aG9uJywgJy1waCcsICc3LjAnLCAnLXRuJywgJzgnLCAnLW1hJywgJzIwMCcsICctbWV0YWxfYmluZGluZycsICctaW1hZScsICc8aW5maWxlLm1hZT4nLCAnLW9tYWUnLCAnPG91dGZpbGUubWFlPic=

> <r_lp_tautomer_probability>
1

> <r_epik_Ionization_Penalty>
1.44833e-06

> <r_epik_Ionization_Penalty_Charging>
0

> <r_epik_Ionization_Penalty_Neutral>
1.44833e-06

> <r_epik_State_Penalty>
-0

> <r_epik_Charging_Adjusted_Penalty>
0

> <i_epik_Tot_Q>
0

> <i_epik_Tot_abs_Q>
0

> <r_epik_Metal_State_Penalty>
-0

> <b_epik_Metal_Only>
0

> <s_lp_Force_Field>
OPLS_2005

> <r_lp_Energy>
32.4644

> <b_lp_Chiralities_Consistent>
1

> <s_lp_Variant>
AV-unprocessed.smi:938-1

> <Gold.Version>
5.8.1

> <Gold.Id.Protein>
6NUR|6NUR_protein|mol2

> <Gold.PLP.Fitness>
39.9693

> <Gold.PLP.PLP>
-34.0644

> <Gold.PLP.part.hbond>
-2.0000

> <Gold.PLP.part.metal>
0.0000

> <Gold.PLP.part.buried>
-6.4378

> <Gold.PLP.part.nonpolar>
-25.9668

> <Gold.PLP.part.repulsive>
0.2775

> <Gold.PLP.ligand.clash>
0.0000

> <Gold.PLP.ligand.torsion>
0.0974

> <Gold.PLP.Chemscore.Hbond>
2.0000

> <Gold.PLP.Chemscore.CHOScore>
0.0000

> <Gold.PLP.Chemscore.Metal>
0.0000

> <Gold.Chemscore.Hbonds>
donor molecule, donor type, donor heavy atom, donor atom, acceptor molecule, acceptor atom, score
      P1  H  7997  8008       L1    19  1.00
      P1  H 10752 10764       L1     6  1.00

> <Gold.PLP.Chemscore.Internal.Correction>
0.0997

> <Gold.Rescore>
     Score         DG    S(hbond)    S(metal)    S(lipo)     H(rot)  DE(clash)    DE(int)     intcor
     18.40     -19.40       1.88        0.00      90.91       1.17       0.05       0.94       ----

> <Gold.Chemscore.Fitness>
18.4028

> <Gold.Chemscore.DG>
-19.3962

> <Gold.Chemscore.ZeroCoef>
-5.4800

> <Gold.Chemscore.Hbond>
1.8824

> <Gold.Chemscore.Metal>
0.0000

> <Gold.Chemscore.Lipo>
90.9107

> <Gold.Chemscore.Internal_Hbond>
0.0000

> <Gold.Chemscore.DEClash>
0.0528

> <Gold.Chemscore.DEInternal>
0.9407

> <Gold.Chemscore.Rot>
1.1749

> <Gold.Chemscore.Internal.Correction>
   9.000000E+99

> <Gold.Chemscore.Hbonds>
donor molecule, donor type, donor heavy atom, donor atom, acceptor molecule, acceptor atom, score
      P1  H  7997  8008       L1    19  0.34
      P1  H 10752 10764       L1     6  1.00

> <Gold.Chemscore.Hbond.Weighted>
-6.2873

> <Gold.Chemscore.Metal.Weighted>
-0.0000

> <Gold.Chemscore.Lipo.Weighted>
-10.6366

> <Gold.Chemscore.Internal_Hbond.Weighted>
0.0000

> <Gold.Chemscore.DEClash.Weighted>
0.0528

> <Gold.Chemscore.DEInternal.Weighted>
0.9407

> <Gold.Chemscore.Rot.Weighted>
3.0076

> <Gold.Chemscore.Internal.Correction.Weighted>
   9.000000E+99

> <Gold.Protein.RotatedTorsions>
[ 6907 6896 6895 6894 ] final   58.18 input  -60.11 | X-H torsion
[ 7974 7965 7964 7962 ] final   93.04 input  175.53 | X-H torsion
[ 8008 7997 7996 7995 ] final  -47.71 input   59.86 | X-H torsion
[ 10167 10162 10161 10158 ] final  -96.17 input  -65.29 | X-H torsion
[ 10718 10713 10712 10709 ] final   91.39 input   66.30 | X-H torsion
[ 10763 10752 10751 10750 ] final  -70.58 input  -60.55 | X-H torsion
[ 11005 11000 10999 10996 ] final -144.85 input  -57.11 | X-H torsion

> <Gold.Protein.ActiveResidues>
 VAL166  LYS551  ARG553  GLY616  TRP617  ASP618  TYR619  PRO620  LYS621  CYS622 
 ASP623  PHE694  ASN695  SER759  ASP760  ASP761  ALA762  ILE779  LEU786  VAL792 
 PHE793  MET794  SER795  GLU796  ALA797  LYS798  CYS799  TRP800  GLU811  SER814 

> <Gold.Protein.RotatedAtoms>
  152.3800  134.6605  160.0146 H   0  0  0  0  0  0  0  0  0  0  0  0  # atno 6907 bound_to 6896
  151.6871  133.3306  159.3242 H   0  0  0  0  0  0  0  0  0  0  0  0  # atno 6908 bound_to 6896
  150.7740  134.6666  159.6413 H   0  0  0  0  0  0  0  0  0  0  0  0  # atno 6909 bound_to 6896
  145.4842  139.2278  143.2865 H   0  0  0  0  0  0  0  0  0  0  0  0  # atno 7974 bound_to 7965
  154.4020  140.1339  156.4220 H   0  0  0  0  0  0  0  0  0  0  0  0  # atno 8008 bound_to 7997
  155.7634  140.3485  155.5189 H   0  0  0  0  0  0  0  0  0  0  0  0  # atno 8009 bound_to 7997
  155.8837  140.0991  157.1457 H   0  0  0  0  0  0  0  0  0  0  0  0  # atno 8010 bound_to 7997
  140.2966  143.3188  152.0291 H   0  0  0  0  0  0  0  0  0  0  0  0  # atno 10167 bound_to 10162
  157.6960  131.0406  150.3723 H   0  0  0  0  0  0  0  0  0  0  0  0  # atno 10718 bound_to 10713
  154.4196  135.5990  153.6002 H   0  0  0  0  0  0  0  0  0  0  0  0  # atno 10763 bound_to 10752
  152.9793  135.5949  154.3971 H   0  0  0  0  0  0  0  0  0  0  0  0  # atno 10764 bound_to 10752
  154.3795  135.2841  155.2198 H   0  0  0  0  0  0  0  0  0  0  0  0  # atno 10765 bound_to 10752
  140.7983  134.2887  157.4988 H   0  0  0  0  0  0  0  0  0  0  0  0  # atno 11005 bound_to 11000
  146.2322  140.5631  142.8970 LP  0  0  0  0  0  0  0  0  0  0  0  0  # atno 17320 bound_to 7965
  144.7871  140.5958  143.6566 LP  0  0  0  0  0  0  0  0  0  0  0  0  # atno 17321 bound_to 7965
  139.4925  144.6486  151.6724 LP  0  0  0  0  0  0  0  0  0  0  0  0  # atno 17342 bound_to 10162
  140.5687  144.0146  150.6205 LP  0  0  0  0  0  0  0  0  0  0  0  0  # atno 17343 bound_to 10162
  156.4146  130.3941  149.6867 LP  0  0  0  0  0  0  0  0  0  0  0  0  # atno 17370 bound_to 10713
  156.4139  130.7735  151.2750 LP  0  0  0  0  0  0  0  0  0  0  0  0  # atno 17371 bound_to 10713
  139.8724  134.9414  156.3797 LP  0  0  0  0  0  0  0  0  0  0  0  0  # atno 17394 bound_to 11000
  140.9321  133.7572  156.0037 LP  0  0  0  0  0  0  0  0  0  0  0  0  # atno 17395 bound_to 11000

$$$$
