AV-unprocessed.smi:1437|AV-procd|sdf|5864|dock4
  -GOLD-   22720 5533D 1   1.00000     0.00000
 Structure written by MMmdl.
 36 37  0  0  0  0  0  0  0  0  2 V2000
  153.5677  142.6908  160.2074 C   0  0  0  0  0  0  0  0  0  0  0  0
  152.6878  142.3251  159.0617 C   0  0  0  0  0  0  0  0  0  0  0  0
  151.6792  142.9843  158.4168 C   0  0  0  0  0  0  0  0  0  0  0  0
  151.2733  142.0539  157.4235 C   0  0  0  0  0  0  0  0  0  0  0  0
  150.2223  142.3631  156.5227 N   0  0  0  0  0  0  0  0  0  0  0  0
  149.6358  141.5398  155.6370 C   0  0  0  0  0  0  0  0  0  0  0  0
  149.9321  140.3578  155.4617 O   0  0  0  0  0  0  0  0  0  0  0  0
  148.6710  142.1693  154.9502 N   0  0  0  0  0  0  0  0  0  0  0  0
  147.8257  141.5544  153.9267 C   0  0  2  0  0  0  0  0  0  0  0  0
  146.8252  142.5616  153.3237 C   0  0  0  0  0  0  0  0  0  0  0  0
  145.7186  142.9437  154.3225 C   0  0  0  0  0  0  0  0  0  0  0  0
  145.0162  141.7371  154.8257 N   0  3  2  0  0  0  0  0  0  0  0  0
  143.8647  142.0746  155.6897 C   0  0  0  0  0  0  0  0  0  0  0  0
  145.9470  140.7809  155.4750 C   0  0  0  0  0  0  0  0  0  0  0  0
  147.0652  140.3490  154.5083 C   0  0  0  0  0  0  0  0  0  0  0  0
  151.9712  140.9291  157.4580 N   0  0  0  0  0  0  0  0  0  0  0  0
  152.8810  141.0968  158.5084 O   0  0  0  0  0  0  0  0  0  0  0  0
  153.6098  143.7726  160.3353 H   0  0  0  0  0  0  0  0  0  0  0  0
  154.5842  142.3304  160.0481 H   0  0  0  0  0  0  0  0  0  0  0  0
  153.1941  142.2546  161.1339 H   0  0  0  0  0  0  0  0  0  0  0  0
  151.2959  143.9719  158.6263 H   0  0  0  0  0  0  0  0  0  0  0  0
  149.8777  143.3106  156.5625 H   0  0  0  0  0  0  0  0  0  0  0  0
  148.4946  143.1397  155.1654 H   0  0  0  0  0  0  0  0  0  0  0  0
  148.4778  141.1885  153.1313 H   0  0  0  0  0  0  0  0  0  0  0  0
  147.3409  143.4571  152.9752 H   0  0  0  0  0  0  0  0  0  0  0  0
  146.3652  142.1190  152.4390 H   0  0  0  0  0  0  0  0  0  0  0  0
  146.1401  143.5002  155.1613 H   0  0  0  0  0  0  0  0  0  0  0  0
  145.0026  143.6051  153.8330 H   0  0  0  0  0  0  0  0  0  0  0  0
  144.1915  142.5908  156.5934 H   0  0  0  0  0  0  0  0  0  0  0  0
  143.3288  141.1722  155.9862 H   0  0  0  0  0  0  0  0  0  0  0  0
  143.1616  142.7195  155.1616 H   0  0  0  0  0  0  0  0  0  0  0  0
  146.3738  141.2362  156.3701 H   0  0  0  0  0  0  0  0  0  0  0  0
  145.3934  139.9003  155.8030 H   0  0  0  0  0  0  0  0  0  0  0  0
  146.6249  139.7773  153.6901 H   0  0  0  0  0  0  0  0  0  0  0  0
  147.7559  139.6715  155.0119 H   0  0  0  0  0  0  0  0  0  0  0  0
  144.6375  141.2666  154.0157 H   0  0  0  0  0  0  0  0  0  0  0  0
  1  2  1  0  0  0  0
  1 18  1  0  0  0  0
  1 19  1  0  0  0  0
  1 20  1  0  0  0  0
  2 17  1  0  0  0  0
  2  3  2  0  0  0  0
  3  4  1  0  0  0  0
  3 21  1  0  0  0  0
  4  5  1  0  0  0  0
  4 16  2  0  0  0  0
  5  6  1  0  0  0  0
  5 22  1  0  0  0  0
  6  7  2  0  0  0  0
  6  8  1  0  0  0  0
  8  9  1  0  0  0  0
  8 23  1  0  0  0  0
  9 15  1  0  0  0  0
  9 10  1  0  0  0  0
  9 24  1  0  0  0  0
 10 11  1  0  0  0  0
 10 25  1  0  0  0  0
 10 26  1  0  0  0  0
 11 12  1  0  0  0  0
 11 27  1  0  0  0  0
 11 28  1  0  0  0  0
 12 13  1  0  0  0  0
 12 14  1  0  0  0  0
 12 36  1  0  0  0  0
 13 29  1  0  0  0  0
 13 30  1  0  0  0  0
 13 31  1  0  0  0  0
 14 15  1  0  0  0  0
 14 32  1  0  0  0  0
 14 33  1  0  0  0  0
 15 34  1  0  0  0  0
 15 35  1  0  0  0  0
 16 17  1  0  0  0  0
M  CHG  1  12   1
M  END
> <s_m_source_file>
AV-unprocessed.smi

> <i_m_source_file_index>
1437

> <i_lp_mmshare_version>
43012

> <i_f3d_flags>
0

> <s_epik_input>
W0NIM11jMVtjSF1jKG5vMSlbTkhdQyg9TylbTkhdW0NIXTJbQ0gyXVtDSDJdTihbQ0gzXSlbQ0gyXVtDSDJdMg==

> <s_epik_cmdline>
J2VwaWtfcHl0aG9uJywgJy1waCcsICc3LjAnLCAnLXRuJywgJzgnLCAnLW1hJywgJzIwMCcsICctbWV0YWxfYmluZGluZycsICctaW1hZScsICc8aW5maWxlLm1hZT4nLCAnLW9tYWUnLCAnPG91dGZpbGUubWFlPic=

> <r_epik_Ionization_Penalty>
0.00408962

> <r_epik_Ionization_Penalty_Charging>
0.00405645

> <r_epik_Ionization_Penalty_Neutral>
3.31706e-05

> <r_epik_State_Penalty>
0.00290716

> <r_epik_Charging_Adjusted_Penalty>
0.00696361

> <i_epik_Tot_Q>
1

> <i_epik_Tot_abs_Q>
1

> <r_epik_Metal_State_Penalty>
0.0142111

> <b_epik_Metal_Only>
0

> <s_lp_Force_Field>
OPLS_2005

> <r_lp_Energy>
12.346

> <b_lp_Chiralities_Consistent>
1

> <s_lp_Variant>
AV-unprocessed.smi:1437-2

> <Gold.Version>
5.8.1

> <Gold.Id.Protein>
6NUR|6NUR_protein|mol2

> <Gold.PLP.Fitness>
39.6552

> <Gold.PLP.PLP>
-27.8049

> <Gold.PLP.part.hbond>
-3.0000

> <Gold.PLP.part.metal>
0.0000

> <Gold.PLP.part.buried>
-6.4777

> <Gold.PLP.part.nonpolar>
-19.1067

> <Gold.PLP.part.repulsive>
0.2877

> <Gold.PLP.ligand.clash>
0.0000

> <Gold.PLP.ligand.torsion>
0.0168

> <Gold.PLP.Chemscore.Hbond>
3.9600

> <Gold.PLP.Chemscore.CHOScore>
0.0000

> <Gold.PLP.Chemscore.Metal>
0.0000

> <Gold.Chemscore.Hbonds>
donor molecule, donor type, donor heavy atom, donor atom, acceptor molecule, acceptor atom, score
      L1  H     5    22       P1  8028  0.94
      L1  H     8    23       P1  8028  1.00
      L1  H    12    36       P1 10175  2.00

> <Gold.PLP.Chemscore.Internal.Correction>
0.0038

> <Gold.Rescore>
     Score         DG    S(hbond)    S(metal)    S(lipo)     H(rot)  DE(clash)    DE(int)     intcor
     16.77     -19.35       2.74        0.00      62.10       1.00       1.31       1.27       ----

> <Gold.Chemscore.Fitness>
16.7659

> <Gold.Chemscore.DG>
-19.3467

> <Gold.Chemscore.ZeroCoef>
-5.4800

> <Gold.Chemscore.Hbond>
2.7427

> <Gold.Chemscore.Metal>
0.0000

> <Gold.Chemscore.Lipo>
62.1025

> <Gold.Chemscore.Internal_Hbond>
0.0000

> <Gold.Chemscore.DEClash>
1.3061

> <Gold.Chemscore.DEInternal>
1.2747

> <Gold.Chemscore.Rot>
1.0000

> <Gold.Chemscore.Internal.Correction>
   9.000000E+99

> <Gold.Chemscore.Hbonds>
donor molecule, donor type, donor heavy atom, donor atom, acceptor molecule, acceptor atom, score
      L1  H     5    22       P1  8028  0.90
      L1  H     8    23       P1  8028  0.99
      L1  H    12    36       P1 10175  0.55

> <Gold.Chemscore.Hbond.Weighted>
-9.1607

> <Gold.Chemscore.Metal.Weighted>
-0.0000

> <Gold.Chemscore.Lipo.Weighted>
-7.2660

> <Gold.Chemscore.Internal_Hbond.Weighted>
0.0000

> <Gold.Chemscore.DEClash.Weighted>
1.3061

> <Gold.Chemscore.DEInternal.Weighted>
1.2747

> <Gold.Chemscore.Rot.Weighted>
2.5600

> <Gold.Chemscore.Internal.Correction.Weighted>
   9.000000E+99

> <Gold.Protein.RotatedTorsions>
[ 6907 6896 6895 6894 ] final   84.98 input  -60.11 | X-H torsion
[ 7974 7965 7964 7962 ] final  -73.09 input  175.53 | X-H torsion
[ 8008 7997 7996 7995 ] final  -95.54 input   59.86 | X-H torsion
[ 10167 10162 10161 10158 ] final   11.34 input  -65.29 | X-H torsion
[ 10718 10713 10712 10709 ] final  131.52 input   66.30 | X-H torsion
[ 10763 10752 10751 10750 ] final  164.69 input  -60.55 | X-H torsion
[ 11005 11000 10999 10996 ] final   49.61 input  -57.11 | X-H torsion

> <Gold.Protein.ActiveResidues>
 VAL166  LYS551  ARG553  GLY616  TRP617  ASP618  TYR619  PRO620  LYS621  CYS622 
 ASP623  PHE694  ASN695  SER759  ASP760  ASP761  ALA762  ILE779  LEU786  VAL792 
 PHE793  MET794  SER795  GLU796  ALA797  LYS798  CYS799  TRP800  GLU811  SER814 

> <Gold.Protein.RotatedAtoms>
  152.5365  134.2656  159.8951 H   0  0  0  0  0  0  0  0  0  0  0  0  # atno 6907 bound_to 6896
  151.2615  133.4293  159.2624 H   0  0  0  0  0  0  0  0  0  0  0  0  # atno 6908 bound_to 6896
  151.0449  134.9647  159.8237 H   0  0  0  0  0  0  0  0  0  0  0  0  # atno 6909 bound_to 6896
  145.6566  140.9266  143.0956 H   0  0  0  0  0  0  0  0  0  0  0  0  # atno 7974 bound_to 7965
  154.7627  140.0479  157.0987 H   0  0  0  0  0  0  0  0  0  0  0  0  # atno 8008 bound_to 7997
  154.9917  140.3114  155.4884 H   0  0  0  0  0  0  0  0  0  0  0  0  # atno 8009 bound_to 7997
  156.2907  140.2217  156.5023 H   0  0  0  0  0  0  0  0  0  0  0  0  # atno 8010 bound_to 7997
  140.6138  143.8351  150.7095 H   0  0  0  0  0  0  0  0  0  0  0  0  # atno 10167 bound_to 10162
  157.4959  131.1092  150.9493 H   0  0  0  0  0  0  0  0  0  0  0  0  # atno 10718 bound_to 10713
  154.3127  135.2757  155.2558 H   0  0  0  0  0  0  0  0  0  0  0  0  # atno 10763 bound_to 10752
  154.4946  135.5824  153.6488 H   0  0  0  0  0  0  0  0  0  0  0  0  # atno 10764 bound_to 10752
  152.9886  135.6143  154.3305 H   0  0  0  0  0  0  0  0  0  0  0  0  # atno 10765 bound_to 10752
  140.1089  134.4981  155.8695 H   0  0  0  0  0  0  0  0  0  0  0  0  # atno 11005 bound_to 11000
  144.7104  139.8395  143.7416 LP  0  0  0  0  0  0  0  0  0  0  0  0  # atno 17320 bound_to 7965
  146.1160  139.4171  143.0258 LP  0  0  0  0  0  0  0  0  0  0  0  0  # atno 17321 bound_to 7965
  140.1926  143.4024  152.1852 LP  0  0  0  0  0  0  0  0  0  0  0  0  # atno 17342 bound_to 10162
  139.5382  144.7231  151.4821 LP  0  0  0  0  0  0  0  0  0  0  0  0  # atno 17343 bound_to 10162
  157.0179  130.5662  149.5328 LP  0  0  0  0  0  0  0  0  0  0  0  0  # atno 17370 bound_to 10713
  156.0200  130.5295  150.8249 LP  0  0  0  0  0  0  0  0  0  0  0  0  # atno 17371 bound_to 10713
  141.2125  133.6720  156.6665 LP  0  0  0  0  0  0  0  0  0  0  0  0  # atno 17394 bound_to 11000
  140.3118  134.8080  157.4182 LP  0  0  0  0  0  0  0  0  0  0  0  0  # atno 17395 bound_to 11000

$$$$
