AV-unprocessed.smi:212|AV-procd|sdf|1621|dock8
  -GOLD-   2262019553D 1   1.00000     0.00000
 Structure written by MMmdl.
 65 68  0  0  0  0  0  0  0  0  2 V2000
  146.4680  139.8001  156.8152 C   0  0  0  0  0  0  0  0  0  0  0  0
  146.2632  139.8663  155.2890 C   0  0  2  0  0  0  0  0  0  0  0  0
  146.0909  138.4691  154.6589 C   0  0  0  0  0  0  0  0  0  0  0  0
  145.8185  138.5746  153.2026 N   0  3  2  0  0  0  0  0  0  0  0  0
  145.5200  137.2645  152.5652 C   0  0  0  0  0  0  0  0  0  0  0  0
  144.0669  136.7983  152.8169 C   0  0  0  0  0  0  0  0  0  0  0  0
  143.7755  135.5179  152.0161 C   0  0  0  0  0  0  0  0  0  0  0  0
  143.7787  136.5679  154.3121 C   0  0  0  0  0  0  0  0  0  0  0  0
  143.1738  137.7842  152.3371 O   0  0  0  0  0  0  0  0  0  0  0  0
  146.8651  139.3500  152.4875 C   0  0  0  0  0  0  0  0  0  0  0  0
  147.0873  140.7319  153.1364 C   0  0  0  0  0  0  0  0  0  0  0  0
  147.2893  140.6396  154.5809 N   0  0  0  0  0  0  0  0  0  0  0  0
  148.5757  140.4898  154.9779 C   0  0  0  0  0  0  0  0  0  0  0  0
  149.4146  139.6725  154.2903 N   0  0  0  0  0  0  0  0  0  0  0  0
  150.6789  139.5201  154.6954 C   0  0  0  0  0  0  0  0  0  0  0  0
  151.2917  140.0763  155.7422 N   0  0  0  0  0  0  0  0  0  0  0  0
  150.4498  140.8919  156.4387 C   0  0  0  0  0  0  0  0  0  0  0  0
  149.0886  141.1568  156.1215 C   0  0  0  0  0  0  0  0  0  0  0  0
  148.5470  142.0436  157.0416 N   0  0  0  0  0  0  0  0  0  0  0  0
  149.5343  142.2903  157.8587 C   0  0  0  0  0  0  0  0  0  0  0  0
  150.7105  141.6264  157.5837 N   0  0  0  0  0  0  0  0  0  0  0  0
  151.9556  141.7164  158.3355 C   0  0  0  0  0  0  0  0  0  0  0  0
  152.2668  140.4721  159.2098 C   0  0  1  0  0  0  0  0  0  0  0  0
  152.2723  139.1861  158.3486 C   0  0  0  0  0  0  0  0  0  0  0  0
  153.2179  139.2549  157.3019 O   0  0  0  0  0  0  0  0  0  0  0  0
  153.5731  140.6522  160.0325 C   0  0  2  0  0  0  0  0  0  0  0  0
  153.9889  139.4663  160.8862 C   0  0  0  0  0  0  0  0  0  0  0  0
  154.9664  140.0954  161.8735 C   0  0  0  0  0  0  0  0  0  0  0  0
  154.5307  141.4393  162.0450 O   0  0  0  0  0  0  0  0  0  0  0  0
  153.4895  141.7306  161.1195 C   0  0  0  0  0  0  0  0  0  0  0  0
  145.6224  139.3101  157.2983 H   0  0  0  0  0  0  0  0  0  0  0  0
  146.5533  140.7988  157.2447 H   0  0  0  0  0  0  0  0  0  0  0  0
  147.3647  139.2401  157.0831 H   0  0  0  0  0  0  0  0  0  0  0  0
  145.3296  140.4081  155.1304 H   0  0  0  0  0  0  0  0  0  0  0  0
  146.9795  137.8576  154.8228 H   0  0  0  0  0  0  0  0  0  0  0  0
  145.2587  137.9555  155.1423 H   0  0  0  0  0  0  0  0  0  0  0  0
  145.7286  137.3097  151.4947 H   0  0  0  0  0  0  0  0  0  0  0  0
  146.1959  136.5019  152.9564 H   0  0  0  0  0  0  0  0  0  0  0  0
  144.4241  134.6993  152.3302 H   0  0  0  0  0  0  0  0  0  0  0  0
  143.9340  135.6707  150.9476 H   0  0  0  0  0  0  0  0  0  0  0  0
  142.7445  135.1883  152.1507 H   0  0  0  0  0  0  0  0  0  0  0  0
  144.4536  135.8210  154.7315 H   0  0  0  0  0  0  0  0  0  0  0  0
  142.7594  136.2131  154.4691 H   0  0  0  0  0  0  0  0  0  0  0  0
  143.8956  137.4820  154.8952 H   0  0  0  0  0  0  0  0  0  0  0  0
  143.4539  138.6282  152.6590 H   0  0  0  0  0  0  0  0  0  0  0  0
  147.7940  138.7792  152.4818 H   0  0  0  0  0  0  0  0  0  0  0  0
  146.5812  139.4835  151.4437 H   0  0  0  0  0  0  0  0  0  0  0  0
  147.9316  141.2383  152.6660 H   0  0  0  0  0  0  0  0  0  0  0  0
  146.2154  141.3623  152.9594 H   0  0  0  0  0  0  0  0  0  0  0  0
  151.2863  138.8566  154.0976 H   0  0  0  0  0  0  0  0  0  0  0  0
  149.4270  142.9653  158.6951 H   0  0  0  0  0  0  0  0  0  0  0  0
  152.7696  141.9160  157.6385 H   0  0  0  0  0  0  0  0  0  0  0  0
  151.8946  142.6001  158.9720 H   0  0  0  0  0  0  0  0  0  0  0  0
  151.4392  140.3855  159.9157 H   0  0  0  0  0  0  0  0  0  0  0  0
  152.5464  138.3242  158.9573 H   0  0  0  0  0  0  0  0  0  0  0  0
  151.2831  138.9855  157.9356 H   0  0  0  0  0  0  0  0  0  0  0  0
  153.4866  138.3763  157.0806 H   0  0  0  0  0  0  0  0  0  0  0  0
  154.4013  140.8866  159.3626 H   0  0  0  0  0  0  0  0  0  0  0  0
  153.1285  139.0627  161.4224 H   0  0  0  0  0  0  0  0  0  0  0  0
  154.4441  138.6594  160.3114 H   0  0  0  0  0  0  0  0  0  0  0  0
  154.9991  139.5611  162.8234 H   0  0  0  0  0  0  0  0  0  0  0  0
  155.9742  140.1087  161.4565 H   0  0  0  0  0  0  0  0  0  0  0  0
  153.5893  142.7433  160.7320 H   0  0  0  0  0  0  0  0  0  0  0  0
  152.5369  141.6704  161.6480 H   0  0  0  0  0  0  0  0  0  0  0  0
  144.9685  139.1145  153.1249 H   0  0  0  0  0  0  0  0  0  0  0  0
  1  2  1  0  0  0  0
  1 31  1  0  0  0  0
  1 32  1  0  0  0  0
  1 33  1  0  0  0  0
  2 12  1  0  0  0  0
  2  3  1  0  0  0  0
  2 34  1  0  0  0  0
  3  4  1  0  0  0  0
  3 35  1  0  0  0  0
  3 36  1  0  0  0  0
  4  5  1  0  0  0  0
  4 10  1  0  0  0  0
  4 65  1  0  0  0  0
  5  6  1  0  0  0  0
  5 37  1  0  0  0  0
  5 38  1  0  0  0  0
  6  7  1  0  0  0  0
  6  8  1  0  0  0  0
  6  9  1  0  0  0  0
  7 39  1  0  0  0  0
  7 40  1  0  0  0  0
  7 41  1  0  0  0  0
  8 42  1  0  0  0  0
  8 43  1  0  0  0  0
  8 44  1  0  0  0  0
  9 45  1  0  0  0  0
 10 11  1  0  0  0  0
 10 46  1  0  0  0  0
 10 47  1  0  0  0  0
 11 12  1  0  0  0  0
 11 48  1  0  0  0  0
 11 49  1  0  0  0  0
 12 13  1  0  0  0  0
 13 18  1  0  0  0  0
 13 14  2  0  0  0  0
 14 15  1  0  0  0  0
 15 16  2  0  0  0  0
 15 50  1  0  0  0  0
 16 17  1  0  0  0  0
 17 21  1  0  0  0  0
 17 18  2  0  0  0  0
 18 19  1  0  0  0  0
 19 20  2  0  0  0  0
 20 21  1  0  0  0  0
 20 51  1  0  0  0  0
 21 22  1  0  0  0  0
 22 23  1  0  0  0  0
 22 52  1  0  0  0  0
 22 53  1  0  0  0  0
 23 24  1  0  0  0  0
 23 26  1  0  0  0  0
 23 54  1  0  0  0  0
 24 25  1  0  0  0  0
 24 55  1  0  0  0  0
 24 56  1  0  0  0  0
 25 57  1  0  0  0  0
 26 30  1  0  0  0  0
 26 27  1  0  0  0  0
 26 58  1  0  0  0  0
 27 28  1  0  0  0  0
 27 59  1  0  0  0  0
 27 60  1  0  0  0  0
 28 29  1  0  0  0  0
 28 61  1  0  0  0  0
 28 62  1  0  0  0  0
 29 30  1  0  0  0  0
 30 63  1  0  0  0  0
 30 64  1  0  0  0  0
M  CHG  1   4   1
M  END
> <s_m_source_file>
AV-unprocessed.smi

> <i_m_source_file_index>
212

> <i_lp_mmshare_version>
43012

> <i_f3d_flags>
0

> <s_epik_input>
W0NIM11bQ0BASF0xW0NIMl1OKFtDSDJdQyhbQ0gzXSkoW0NIM10pW09IXSlbQ0gyXVtDSDJdTjFjKG5bY0hdbjIpYyhjMjMpbltjSF1uM1tDSDJdW0NASF0oW0NIMl1bT0hdKVtDQEBIXTRbQ0gyXVtDSDJdT1tDSDJdNA==

> <s_epik_cmdline>
J2VwaWtfcHl0aG9uJywgJy1waCcsICc3LjAnLCAnLXRuJywgJzgnLCAnLW1hJywgJzIwMCcsICctbWV0YWxfYmluZGluZycsICctaW1hZScsICc8aW5maWxlLm1hZT4nLCAnLW9tYWUnLCAnPG91dGZpbGUubWFlPic=

> <r_lp_tautomer_probability>
1

> <r_epik_Ionization_Penalty>
0.00182193

> <r_epik_Ionization_Penalty_Charging>
0.00173996

> <r_epik_Ionization_Penalty_Neutral>
8.19718e-05

> <r_epik_State_Penalty>
-0

> <r_epik_Charging_Adjusted_Penalty>
0.00173996

> <i_epik_Tot_Q>
1

> <i_epik_Tot_abs_Q>
1

> <r_epik_Metal_State_Penalty>
-0

> <b_epik_Metal_Only>
0

> <s_lp_Force_Field>
OPLS_2005

> <r_lp_Energy>
60.0398

> <b_lp_Chiralities_Consistent>
1

> <s_lp_Variant>
AV-unprocessed.smi:212-5

> <Gold.Version>
5.8.1

> <Gold.Id.Protein>
6NUR|6NUR_protein|mol2

> <Gold.PLP.Fitness>
55.8228

> <Gold.PLP.PLP>
-44.8833

> <Gold.PLP.part.hbond>
-5.1317

> <Gold.PLP.part.metal>
0.0000

> <Gold.PLP.part.buried>
-5.7914

> <Gold.PLP.part.nonpolar>
-35.0977

> <Gold.PLP.part.repulsive>
1.2266

> <Gold.PLP.ligand.clash>
0.0000

> <Gold.PLP.ligand.torsion>
1.1133

> <Gold.PLP.Chemscore.Hbond>
4.0000

> <Gold.PLP.Chemscore.CHOScore>
0.0000

> <Gold.PLP.Chemscore.Metal>
0.0000

> <Gold.Chemscore.Hbonds>
donor molecule, donor type, donor heavy atom, donor atom, acceptor molecule, acceptor atom, score
      L1  H     4    65       P1 10175  2.00
      L1  H     9    45       P1 10175  1.00
      P1  H  7997  8010       L1    25  0.95

> <Gold.PLP.Chemscore.Internal.Correction>
1.1661

> <Gold.Rescore>
     Score         DG    S(hbond)    S(metal)    S(lipo)     H(rot)  DE(clash)    DE(int)     intcor
     11.17     -16.20       2.73        0.00      94.14       3.68       1.76       3.27       ----

> <Gold.Chemscore.Fitness>
11.1704

> <Gold.Chemscore.DG>
-16.1976

> <Gold.Chemscore.ZeroCoef>
-5.4800

> <Gold.Chemscore.Hbond>
2.7328

> <Gold.Chemscore.Metal>
0.0000

> <Gold.Chemscore.Lipo>
94.1358

> <Gold.Chemscore.Internal_Hbond>
0.0000

> <Gold.Chemscore.DEClash>
1.7553

> <Gold.Chemscore.DEInternal>
3.2719

> <Gold.Chemscore.Rot>
3.6812

> <Gold.Chemscore.Internal.Correction>
   9.000000E+99

> <Gold.Chemscore.Hbonds>
donor molecule, donor type, donor heavy atom, donor atom, acceptor molecule, acceptor atom, score
      L1  H     4    65       P1 10175  0.97
      L1  H     9    45       P1 10175  0.95
      P1  H  7997  8010       L1    25  0.21

> <Gold.Chemscore.Hbond.Weighted>
-9.1276

> <Gold.Chemscore.Metal.Weighted>
-0.0000

> <Gold.Chemscore.Lipo.Weighted>
-11.0139

> <Gold.Chemscore.Internal_Hbond.Weighted>
0.0000

> <Gold.Chemscore.DEClash.Weighted>
1.7553

> <Gold.Chemscore.DEInternal.Weighted>
3.2719

> <Gold.Chemscore.Rot.Weighted>
9.4239

> <Gold.Chemscore.Internal.Correction.Weighted>
   9.000000E+99

> <Gold.Protein.RotatedTorsions>
[ 6907 6896 6895 6894 ] final   86.28 input  -60.11 | X-H torsion
[ 7974 7965 7964 7962 ] final   47.61 input  175.53 | X-H torsion
[ 8008 7997 7996 7995 ] final   37.00 input   59.86 | X-H torsion
[ 10167 10162 10161 10158 ] final  -85.26 input  -65.29 | X-H torsion
[ 10718 10713 10712 10709 ] final   58.22 input   66.30 | X-H torsion
[ 10763 10752 10751 10750 ] final   47.46 input  -60.55 | X-H torsion
[ 11005 11000 10999 10996 ] final  -68.22 input  -57.11 | X-H torsion

> <Gold.Protein.ActiveResidues>
 VAL166  LYS551  ARG553  GLY616  TRP617  ASP618  TYR619  PRO620  LYS621  CYS622 
 ASP623  PHE694  ASN695  SER759  ASP760  ASP761  ALA762  ILE779  LEU786  VAL792 
 PHE793  MET794  SER795  GLU796  ALA797  LYS798  CYS799  TRP800  GLU811  SER814 

> <Gold.Protein.RotatedAtoms>
  152.5391  134.2456  159.8878 H   0  0  0  0  0  0  0  0  0  0  0  0  # atno 6907 bound_to 6896
  151.2422  133.4387  159.2615 H   0  0  0  0  0  0  0  0  0  0  0  0  # atno 6908 bound_to 6896
  151.0616  134.9754  159.8319 H   0  0  0  0  0  0  0  0  0  0  0  0  # atno 6909 bound_to 6896
  146.0282  139.4732  142.9854 H   0  0  0  0  0  0  0  0  0  0  0  0  # atno 7974 bound_to 7965
  155.1966  140.3312  155.4350 H   0  0  0  0  0  0  0  0  0  0  0  0  # atno 8008 bound_to 7997
  156.2423  140.1901  156.7005 H   0  0  0  0  0  0  0  0  0  0  0  0  # atno 8009 bound_to 7997
  154.6170  140.0601  156.9552 H   0  0  0  0  0  0  0  0  0  0  0  0  # atno 8010 bound_to 7997
  140.4054  143.2645  151.9088 H   0  0  0  0  0  0  0  0  0  0  0  0  # atno 10167 bound_to 10162
  157.5579  130.8813  149.9064 H   0  0  0  0  0  0  0  0  0  0  0  0  # atno 10718 bound_to 10713
  152.9800  135.5975  154.3766 H   0  0  0  0  0  0  0  0  0  0  0  0  # atno 10763 bound_to 10752
  154.3435  135.2767  155.2412 H   0  0  0  0  0  0  0  0  0  0  0  0  # atno 10764 bound_to 10752
  154.4483  135.5996  153.6230 H   0  0  0  0  0  0  0  0  0  0  0  0  # atno 10765 bound_to 10752
  141.1527  133.6736  156.6413 H   0  0  0  0  0  0  0  0  0  0  0  0  # atno 11005 bound_to 11000
  145.7083  141.0114  143.1467 LP  0  0  0  0  0  0  0  0  0  0  0  0  # atno 17320 bound_to 7965
  144.7019  139.8727  143.7442 LP  0  0  0  0  0  0  0  0  0  0  0  0  # atno 17321 bound_to 7965
  139.4783  144.5591  151.8267 LP  0  0  0  0  0  0  0  0  0  0  0  0  # atno 17342 bound_to 10162
  140.4695  144.1607  150.5916 LP  0  0  0  0  0  0  0  0  0  0  0  0  # atno 17343 bound_to 10162
  156.0635  130.3696  150.0929 LP  0  0  0  0  0  0  0  0  0  0  0  0  # atno 17370 bound_to 10713
  156.9096  130.9647  151.3565 LP  0  0  0  0  0  0  0  0  0  0  0  0  # atno 17371 bound_to 10713
  140.3391  134.7864  157.4384 LP  0  0  0  0  0  0  0  0  0  0  0  0  # atno 17394 bound_to 11000
  140.0953  134.5546  155.8404 LP  0  0  0  0  0  0  0  0  0  0  0  0  # atno 17395 bound_to 11000

$$$$
