AV-unprocessed.smi:802|AV-procd|sdf|3792|dock5
  -GOLD-   22720 1223D 1   1.00000     0.00000
 Structure written by MMmdl.
 37 38  0  0  0  0  0  0  0  0  2 V2000
  153.5948  137.0622  161.5309 C   0  0  0  0  0  0  0  0  0  0  0  0
  152.9895  137.0682  160.1588 C   0  0  0  0  0  0  0  0  0  0  0  0
  152.0767  138.0026  159.5982 C   0  0  0  0  0  0  0  0  0  0  0  0
  151.8699  137.5327  158.3319 C   0  0  0  0  0  0  0  0  0  0  0  0
  151.0342  138.0103  157.1917 C   0  0  0  0  0  0  0  0  0  0  0  0
  152.0812  138.9256  155.9827 S   0  0  0  0  0  0  0  0  0  0  0  0
  153.1925  138.0228  155.6397 O   0  0  0  0  0  0  0  0  0  0  0  0
  151.1834  139.3243  154.8860 O   0  0  0  0  0  0  0  0  0  0  0  0
  152.5544  140.1809  156.8911 N   0  5  0  0  0  0  0  0  0  0  0  0
  151.5746  141.1768  157.2915 C   0  0  0  0  0  0  0  0  0  0  0  0
  152.2070  142.1960  158.2792 C   0  0  0  0  0  0  0  0  0  0  0  0
  152.3136  141.6612  159.7346 C   0  0  0  0  0  0  0  0  0  0  0  0
  152.9835  142.6838  160.6676 C   0  0  0  0  0  0  0  0  0  0  0  0
  152.2422  144.0278  160.6487 C   0  0  0  0  0  0  0  0  0  0  0  0
  152.1288  144.5724  159.2178 C   0  0  0  0  0  0  0  0  0  0  0  0
  151.4553  143.5538  158.2829 C   0  0  0  0  0  0  0  0  0  0  0  0
  152.5877  136.3970  158.1321 O   0  0  0  0  0  0  0  0  0  0  0  0
  153.2980  136.1082  159.3028 N   0  0  0  0  0  0  0  0  0  0  0  0
  153.2974  137.9458  162.0958 H   0  0  0  0  0  0  0  0  0  0  0  0
  154.6838  137.0528  161.4802 H   0  0  0  0  0  0  0  0  0  0  0  0
  153.2782  136.1849  162.0953 H   0  0  0  0  0  0  0  0  0  0  0  0
  151.6466  138.8852  160.0481 H   0  0  0  0  0  0  0  0  0  0  0  0
  150.5658  137.1726  156.6750 H   0  0  0  0  0  0  0  0  0  0  0  0
  150.2459  138.6759  157.5421 H   0  0  0  0  0  0  0  0  0  0  0  0
  151.1953  141.7174  156.4237 H   0  0  0  0  0  0  0  0  0  0  0  0
  150.7004  140.7247  157.7613 H   0  0  0  0  0  0  0  0  0  0  0  0
  153.2202  142.3998  157.9276 H   0  0  0  0  0  0  0  0  0  0  0  0
  151.3239  141.4214  160.1295 H   0  0  0  0  0  0  0  0  0  0  0  0
  152.8918  140.7360  159.7761 H   0  0  0  0  0  0  0  0  0  0  0  0
  153.0144  142.2925  161.6848 H   0  0  0  0  0  0  0  0  0  0  0  0
  154.0198  142.8328  160.3621 H   0  0  0  0  0  0  0  0  0  0  0  0
  151.2454  143.9025  161.0734 H   0  0  0  0  0  0  0  0  0  0  0  0
  152.7614  144.7478  161.2818 H   0  0  0  0  0  0  0  0  0  0  0  0
  151.5630  145.5044  159.2198 H   0  0  0  0  0  0  0  0  0  0  0  0
  153.1223  144.8145  158.8382 H   0  0  0  0  0  0  0  0  0  0  0  0
  151.4171  143.9853  157.2802 H   0  0  0  0  0  0  0  0  0  0  0  0
  150.4187  143.4204  158.6006 H   0  0  0  0  0  0  0  0  0  0  0  0
  1  2  1  0  0  0  0
  1 19  1  0  0  0  0
  1 20  1  0  0  0  0
  1 21  1  0  0  0  0
  2 18  2  0  0  0  0
  2  3  1  0  0  0  0
  3  4  2  0  0  0  0
  3 22  1  0  0  0  0
  4  5  1  0  0  0  0
  4 17  1  0  0  0  0
  5  6  1  0  0  0  0
  5 23  1  0  0  0  0
  5 24  1  0  0  0  0
  6  7  2  0  0  0  0
  6  8  2  0  0  0  0
  6  9  1  0  0  0  0
  9 10  1  0  0  0  0
 10 11  1  0  0  0  0
 10 25  1  0  0  0  0
 10 26  1  0  0  0  0
 11 16  1  0  0  0  0
 11 12  1  0  0  0  0
 11 27  1  0  0  0  0
 12 13  1  0  0  0  0
 12 28  1  0  0  0  0
 12 29  1  0  0  0  0
 13 14  1  0  0  0  0
 13 30  1  0  0  0  0
 13 31  1  0  0  0  0
 14 15  1  0  0  0  0
 14 32  1  0  0  0  0
 14 33  1  0  0  0  0
 15 16  1  0  0  0  0
 15 34  1  0  0  0  0
 15 35  1  0  0  0  0
 16 36  1  0  0  0  0
 16 37  1  0  0  0  0
 17 18  1  0  0  0  0
M  CHG  1   9  -1
M  END
> <s_m_source_file>
AV-unprocessed.smi

> <i_m_source_file_index>
802

> <i_lp_mmshare_version>
43012

> <i_f3d_flags>
0

> <s_epik_input>
W0NIM11jMVtjSF1jKG9uMSlbQ0gyXVMoPU8pKD1PKVtOSF1bQ0gyXVtDSF0yW0NIMl1bQ0gyXVtDSDJdW0NIMl1bQ0gyXTI=

> <s_epik_cmdline>
J2VwaWtfcHl0aG9uJywgJy1waCcsICc3LjAnLCAnLXRuJywgJzgnLCAnLW1hJywgJzIwMCcsICctbWV0YWxfYmluZGluZycsICctaW1hZScsICc8aW5maWxlLm1hZT4nLCAnLW9tYWUnLCAnPG91dGZpbGUubWFlPic=

> <r_lp_tautomer_probability>
1

> <r_epik_Ionization_Penalty>
5.54077

> <r_epik_Ionization_Penalty_Charging>
5.54077

> <r_epik_Ionization_Penalty_Neutral>
8.84355e-10

> <r_epik_State_Penalty>
5.54071

> <r_epik_Charging_Adjusted_Penalty>
11.0815

> <i_epik_Tot_Q>
-1

> <i_epik_Tot_abs_Q>
1

> <r_epik_Metal_State_Penalty>
1.54279

> <b_epik_Metal_Only>
1

> <s_lp_Force_Field>
OPLS_2005

> <r_lp_Energy>
6.62566

> <b_lp_Chiralities_Consistent>
1

> <s_lp_Variant>
AV-unprocessed.smi:802-2

> <Gold.Version>
5.8.1

> <Gold.Id.Protein>
6NUR|6NUR_protein|mol2

> <Gold.PLP.Fitness>
45.1354

> <Gold.PLP.PLP>
-34.5383

> <Gold.PLP.part.hbond>
-3.8476

> <Gold.PLP.part.metal>
0.0000

> <Gold.PLP.part.buried>
-3.2109

> <Gold.PLP.part.nonpolar>
-25.9388

> <Gold.PLP.part.repulsive>
0.0770

> <Gold.PLP.ligand.clash>
0.0000

> <Gold.PLP.ligand.torsion>
1.0536

> <Gold.PLP.Chemscore.Hbond>
3.9025

> <Gold.PLP.Chemscore.CHOScore>
0.0000

> <Gold.PLP.Chemscore.Metal>
0.0000

> <Gold.Chemscore.Hbonds>
donor molecule, donor type, donor heavy atom, donor atom, acceptor molecule, acceptor atom, score
      P1  H  6896  6909       L1    18  0.93
      P1  H  7989  7998       L1     8  0.78
      P1  H  7997  8009       L1     9  2.00

> <Gold.PLP.Chemscore.Internal.Correction>
0.9969

> <Gold.Rescore>
     Score         DG    S(hbond)    S(metal)    S(lipo)     H(rot)  DE(clash)    DE(int)     intcor
     19.23     -21.70       2.50        0.00     100.01       1.50       1.52       0.95       ----

> <Gold.Chemscore.Fitness>
19.2314

> <Gold.Chemscore.DG>
-21.7023

> <Gold.Chemscore.ZeroCoef>
-5.4800

> <Gold.Chemscore.Hbond>
2.4999

> <Gold.Chemscore.Metal>
0.0000

> <Gold.Chemscore.Lipo>
100.0122

> <Gold.Chemscore.Internal_Hbond>
0.0000

> <Gold.Chemscore.DEClash>
1.5198

> <Gold.Chemscore.DEInternal>
0.9511

> <Gold.Chemscore.Rot>
1.4956

> <Gold.Chemscore.Internal.Correction>
   9.000000E+99

> <Gold.Chemscore.Hbonds>
donor molecule, donor type, donor heavy atom, donor atom, acceptor molecule, acceptor atom, score
      P1  H  6896  6909       L1    18  0.08
      P1  H  7989  7998       L1     8  0.76
      P1  H  7997  8009       L1     9  0.25

> <Gold.Chemscore.Hbond.Weighted>
-8.3496

> <Gold.Chemscore.Metal.Weighted>
-0.0000

> <Gold.Chemscore.Lipo.Weighted>
-11.7014

> <Gold.Chemscore.Internal_Hbond.Weighted>
0.0000

> <Gold.Chemscore.DEClash.Weighted>
1.5198

> <Gold.Chemscore.DEInternal.Weighted>
0.9511

> <Gold.Chemscore.Rot.Weighted>
3.8287

> <Gold.Chemscore.Internal.Correction.Weighted>
   9.000000E+99

> <Gold.Protein.RotatedTorsions>
[ 6907 6896 6895 6894 ] final  172.20 input  -60.11 | X-H torsion
[ 7974 7965 7964 7962 ] final -147.66 input  175.53 | X-H torsion
[ 8008 7997 7996 7995 ] final -178.39 input   59.86 | X-H torsion
[ 10167 10162 10161 10158 ] final  144.88 input  -65.29 | X-H torsion
[ 10718 10713 10712 10709 ] final  173.58 input   66.30 | X-H torsion
[ 10763 10752 10751 10750 ] final -178.30 input  -60.55 | X-H torsion
[ 11005 11000 10999 10996 ] final  -12.07 input  -57.11 | X-H torsion

> <Gold.Protein.ActiveResidues>
 VAL166  LYS551  ARG553  GLY616  TRP617  ASP618  TYR619  PRO620  LYS621  CYS622 
 ASP623  PHE694  ASN695  SER759  ASP760  ASP761  ALA762  ILE779  LEU786  VAL792 
 PHE793  MET794  SER795  GLU796  ALA797  LYS798  CYS799  TRP800  GLU811  SER814 

> <Gold.Protein.RotatedAtoms>
  151.7881  133.3356  159.3490 H   0  0  0  0  0  0  0  0  0  0  0  0  # atno 6907 bound_to 6896
  150.7401  134.5868  159.5976 H   0  0  0  0  0  0  0  0  0  0  0  0  # atno 6908 bound_to 6896
  152.3229  134.7359  160.0360 H   0  0  0  0  0  0  0  0  0  0  0  0  # atno 6909 bound_to 6896
  144.8079  140.5298  143.5662 H   0  0  0  0  0  0  0  0  0  0  0  0  # atno 7974 bound_to 7965
  156.0182  140.1255  157.0384 H   0  0  0  0  0  0  0  0  0  0  0  0  # atno 8008 bound_to 7997
  154.4301  140.1074  156.5996 H   0  0  0  0  0  0  0  0  0  0  0  0  # atno 8009 bound_to 7997
  155.5982  140.3470  155.4588 H   0  0  0  0  0  0  0  0  0  0  0  0  # atno 8010 bound_to 7997
  139.4937  144.5941  151.6620 H   0  0  0  0  0  0  0  0  0  0  0  0  # atno 10167 bound_to 10162
  156.9622  131.0064  151.2925 H   0  0  0  0  0  0  0  0  0  0  0  0  # atno 10718 bound_to 10713
  154.5493  135.2811  155.1023 H   0  0  0  0  0  0  0  0  0  0  0  0  # atno 10763 bound_to 10752
  154.2475  135.6345  153.5232 H   0  0  0  0  0  0  0  0  0  0  0  0  # atno 10764 bound_to 10752
  152.9999  135.5574  154.6055 H   0  0  0  0  0  0  0  0  0  0  0  0  # atno 10765 bound_to 10752
  140.7619  133.8508  155.9132 H   0  0  0  0  0  0  0  0  0  0  0  0  # atno 11005 bound_to 11000
  145.5394  139.1475  143.3455 LP  0  0  0  0  0  0  0  0  0  0  0  0  # atno 17320 bound_to 7965
  146.2373  140.5534  142.8949 LP  0  0  0  0  0  0  0  0  0  0  0  0  # atno 17321 bound_to 7965
  140.5574  144.0325  150.6154 LP  0  0  0  0  0  0  0  0  0  0  0  0  # atno 17342 bound_to 10162
  140.3399  143.3026  152.0599 LP  0  0  0  0  0  0  0  0  0  0  0  0  # atno 17343 bound_to 10162
  157.5650  130.8271  149.8316 LP  0  0  0  0  0  0  0  0  0  0  0  0  # atno 17370 bound_to 10713
  156.0317  130.3762  150.1668 LP  0  0  0  0  0  0  0  0  0  0  0  0  # atno 17371 bound_to 10713
  140.9655  134.1599  157.4619 LP  0  0  0  0  0  0  0  0  0  0  0  0  # atno 17394 bound_to 11000
  139.8769  134.9960  156.5773 LP  0  0  0  0  0  0  0  0  0  0  0  0  # atno 17395 bound_to 11000

$$$$
