#       Name:                AV-unprocessed.smi:3149
#       Creating user name   scv26
#       Creation time:       Fri Mar 27 17:40:37 2020


#       File generated by GOLD software.
#

@<TRIPOS>MOLECULE
AV-unprocessed.smi:3149
    41    42     1
SMALL
NO_CHARGES


@<TRIPOS>ATOM
      1 ****        -1.5181  -0.8936  -1.2555 C.3            1 S1                 0.0000
      2 ****        -0.9759  -0.5007   0.1355 C.3            1 S1                 0.0000
      3 ****         0.5043  -0.4562   0.1154 N.4            1 S1                 1.0000
      4 ****         1.0962   0.7394  -0.5220 C.3            1 S1                 0.0000
      5 ****         2.6204   0.7596  -0.3716 C.2            1 S1                 0.0000
      6 ****         3.1600   0.2493   0.6109 O.2            1 S1                 0.0000
      7 ****         3.3522   1.4619  -1.3315 N.am           1 S1                 0.0000
      8 ****         2.8371   2.6770  -1.9452 C.3            1 S1                 0.0000
      9 ****         4.3026   3.1069  -2.0673 C.3            1 S1                 0.0000
     10 ****         4.6428   2.0520  -1.0095 C.3            1 S1                 0.0000
     11 ****        -1.4542  -1.4549   1.2630 C.3            1 S1                 0.0000
     12 ****        -1.0428  -0.9644   2.6652 C.3            1 S1                 0.0000
     13 ****        -2.8925  -1.6869   1.2176 N.pl3          1 S1                 0.0000
     14 ****        -3.5597  -2.8779   1.0159 C.2            1 S1                 0.0000
     15 ****        -4.8975  -2.6076   1.0489 C.2            1 S1                 0.0000
     16 ****        -4.9541  -1.2058   1.2838 C.2            1 S1                 0.0000
     17 ****        -3.7540  -0.6576   1.3852 N.2            1 S1                 0.0000
     18 ****        -2.6072  -0.8652  -1.2887 H              1 S1                 0.0000
     19 ****        -1.2051  -1.9011  -1.5310 H              1 S1                 0.0000
     20 ****        -1.1706  -0.2141  -2.0331 H              1 S1                 0.0000
     21 ****        -1.3406   0.5007   0.3705 H              1 S1                 0.0000
     22 ****         0.8220  -0.4604   1.0744 H              1 S1                 0.0000
     23 ****         0.8333   0.7590  -1.5796 H              1 S1                 0.0000
     24 ****         0.6896   1.6405  -0.0616 H              1 S1                 0.0000
     25 ****         2.3313   2.5155  -2.8977 H              1 S1                 0.0000
     26 ****         2.2622   3.3049  -1.2616 H              1 S1                 0.0000
     27 ****         4.7362   2.8936  -3.0461 H              1 S1                 0.0000
     28 ****         4.4953   4.1335  -1.7540 H              1 S1                 0.0000
     29 ****         4.6994   2.4608   0.0016 H              1 S1                 0.0000
     30 ****         5.4950   1.4180  -1.2567 H              1 S1                 0.0000
     31 ****        -0.9803  -2.4252   1.1034 H              1 S1                 0.0000
     32 ****         0.0408  -0.9094   2.7704 H              1 S1                 0.0000
     33 ****        -1.4071  -1.6420   3.4381 H              1 S1                 0.0000
     34 ****        -1.4461   0.0264   2.8775 H              1 S1                 0.0000
     35 ****        -3.0335  -3.8090   0.8644 H              1 S1                 0.0000
     36 ****        -5.7124  -3.3054   0.9252 H              1 S1                 0.0000
     37 ****        -5.8250  -0.5746   1.3825 H              1 S1                 0.0000
     38 ****         0.8573  -1.2868  -0.3379 H              1 S1                 0.0000
     39 ****         2.6023  -0.1832   1.3194 LP             1 S1                 0.0000
     40 ****         4.1558   0.2675   0.7002 LP             1 S1                 0.0000
     41 ****        -3.5331   0.3038   1.5493 LP             1 S1                 0.0000
@<TRIPOS>BOND
    1    1    2 1     
    2    1   18 1     
    3    1   19 1     
    4    1   20 1     
    5    2    3 1     
    6    2   11 1     
    7    2   21 1     
    8    3    4 1     
    9    3   22 1     
   10    3   38 1     
   11    4    5 1     
   12    4   23 1     
   13    4   24 1     
   14    5    6 2     
   15    5    7 am    
   16    7   10 1     
   17    7    8 1     
   18    8    9 1     
   19    8   25 1     
   20    8   26 1     
   21    9   10 1     
   22    9   27 1     
   23    9   28 1     
   24   10   29 1     
   25   10   30 1     
   26   11   12 1     
   27   11   13 1     
   28   11   31 1     
   29   12   32 1     
   30   12   33 1     
   31   12   34 1     
   32   13   17 1     
   33   13   14 1     
   34   14   15 2     
   35   14   35 1     
   36   15   16 1     
   37   15   36 1     
   38   16   17 2     
   39   16   37 1     
   40    6   39 1     
   41    6   40 1     
   42   17   41 1     
@<TRIPOS>SUBSTRUCTURE
      1 S1             1
@<TRIPOS>SET
LONE_PAIRS      STATIC     ATOMS    <user>   **** ""
3 39 40 41
DONOR_HYDROGENS      STATIC     ATOMS    <user>   **** ""
2 22 38
ATOM$BLUE        STATIC     ATOMS    COLORGROUP SYSTEM
3 39 40 41
ATOM$RED        STATIC     ATOMS    COLORGROUP SYSTEM
2 22 38
