AV-unprocessed.smi:3029|AV-procd|sdf|11525|dock7
  -GOLD-   2272016463D 1   1.00000     0.00000
 Structure written by MMmdl.
 42 43  0  0  0  0  0  0  0  0  4 V2000
  151.1386  144.5324  160.7197 O   0  0  0  0  0  0  0  0  0  0  0  0
  151.9135  143.5773  160.6762 C   0  0  0  0  0  0  0  0  0  0  0  0
  152.5977  143.0735  161.8713 C   0  0  0  0  0  0  0  0  0  0  0  0
  153.4611  142.0406  161.8106 C   0  0  0  0  0  0  0  0  0  0  0  0
  153.7416  141.3904  160.5454 C   0  0  0  0  0  0  0  0  0  0  0  0
  154.6874  140.2998  160.4624 N   0  3  0  0  0  0  0  0  0  0  0  0
  155.2049  139.8822  161.4940 O   0  0  0  0  0  0  0  0  0  0  0  0
  154.9392  139.8222  159.3612 O   0  5  0  0  0  0  0  0  0  0  0  0
  153.1025  141.8475  159.4507 C   0  0  0  0  0  0  0  0  0  0  0  0
  152.1969  142.9252  159.5082 N   0  0  0  0  0  0  0  0  0  0  0  0
  151.5784  143.3536  158.2429 C   0  0  0  0  0  0  0  0  0  0  0  0
  150.8281  142.2083  157.5347 C   0  0  0  0  0  0  0  0  0  0  0  0
  149.4202  142.5665  157.2565 N   0  3  0  0  0  0  0  0  0  0  0  0
  148.6987  141.6643  156.3314 C   0  0  2  0  0  0  0  0  0  0  0  0
  149.5097  141.4942  155.0273 C   0  0  0  0  0  0  0  0  0  0  0  0
  148.7802  140.6158  154.0039 C   0  0  0  0  0  0  0  0  0  0  0  0
  147.3911  141.1836  153.6973 C   0  0  0  0  0  0  0  0  0  0  0  0
  146.5657  141.3232  154.9829 C   0  0  0  0  0  0  0  0  0  0  0  0
  147.2678  142.2043  156.0431 C   0  0  1  0  0  0  0  0  0  0  0  0
  146.3868  142.3126  157.3148 C   0  0  0  0  0  0  0  0  0  0  0  0
  145.2271  142.9064  157.0326 F   0  0  0  0  0  0  0  0  0  0  0  0
  146.1354  141.1116  157.8357 F   0  0  0  0  0  0  0  0  0  0  0  0
  147.0176  143.0268  158.2467 F   0  0  0  0  0  0  0  0  0  0  0  0
  152.4032  143.5430  162.8244 H   0  0  0  0  0  0  0  0  0  0  0  0
  153.9402  141.7037  162.7182 H   0  0  0  0  0  0  0  0  0  0  0  0
  153.2486  141.4352  158.4628 H   0  0  0  0  0  0  0  0  0  0  0  0
  150.8885  144.1799  158.4214 H   0  0  0  0  0  0  0  0  0  0  0  0
  152.3368  143.7647  157.5743 H   0  0  0  0  0  0  0  0  0  0  0  0
  151.3363  141.9586  156.6034 H   0  0  0  0  0  0  0  0  0  0  0  0
  150.8548  141.3140  158.1584 H   0  0  0  0  0  0  0  0  0  0  0  0
  148.9314  142.5356  158.1402 H   0  0  0  0  0  0  0  0  0  0  0  0
  148.5971  140.6890  156.8102 H   0  0  0  0  0  0  0  0  0  0  0  0
  149.7061  142.4724  154.5856 H   0  0  0  0  0  0  0  0  0  0  0  0
  150.4836  141.0516  155.2371 H   0  0  0  0  0  0  0  0  0  0  0  0
  149.3659  140.5485  153.0864 H   0  0  0  0  0  0  0  0  0  0  0  0
  148.6872  139.5994  154.3888 H   0  0  0  0  0  0  0  0  0  0  0  0
  147.4874  142.1564  153.2130 H   0  0  0  0  0  0  0  0  0  0  0  0
  146.8723  140.5354  152.9905 H   0  0  0  0  0  0  0  0  0  0  0  0
  145.5914  141.7426  154.7308 H   0  0  0  0  0  0  0  0  0  0  0  0
  146.3736  140.3319  155.3957 H   0  0  0  0  0  0  0  0  0  0  0  0
  147.3636  143.2065  155.6215 H   0  0  0  0  0  0  0  0  0  0  0  0
  149.3760  143.5115  156.9023 H   0  0  0  0  0  0  0  0  0  0  0  0
  1  2  2  0  0  0  0
  2 10  1  0  0  0  0
  2  3  1  0  0  0  0
  3  4  2  0  0  0  0
  3 24  1  0  0  0  0
  4  5  1  0  0  0  0
  4 25  1  0  0  0  0
  5  6  1  0  0  0  0
  5  9  2  0  0  0  0
  6  7  2  0  0  0  0
  6  8  1  0  0  0  0
  9 10  1  0  0  0  0
  9 26  1  0  0  0  0
 10 11  1  0  0  0  0
 11 12  1  0  0  0  0
 11 27  1  0  0  0  0
 11 28  1  0  0  0  0
 12 13  1  0  0  0  0
 12 29  1  0  0  0  0
 12 30  1  0  0  0  0
 13 14  1  0  0  0  0
 13 31  1  0  0  0  0
 13 42  1  0  0  0  0
 14 19  1  0  0  0  0
 14 15  1  0  0  0  0
 14 32  1  0  0  0  0
 15 16  1  0  0  0  0
 15 33  1  0  0  0  0
 15 34  1  0  0  0  0
 16 17  1  0  0  0  0
 16 35  1  0  0  0  0
 16 36  1  0  0  0  0
 17 18  1  0  0  0  0
 17 37  1  0  0  0  0
 17 38  1  0  0  0  0
 18 19  1  0  0  0  0
 18 39  1  0  0  0  0
 18 40  1  0  0  0  0
 19 20  1  0  0  0  0
 19 41  1  0  0  0  0
 20 21  1  0  0  0  0
 20 22  1  0  0  0  0
 20 23  1  0  0  0  0
M  CHG  1   6   1
M  CHG  1   8  -1
M  CHG  1  13   1
M  END
> <s_m_source_file>
AV-unprocessed.smi

> <i_m_source_file_index>
3029

> <i_lp_mmshare_version>
43012

> <i_f3d_flags>
0

> <s_epik_input>
Tz1jMVtjSF1bY0hdYyhbTitdKD1PKVtPLV0pW2NIXW4xW0NIMl1bQ0gyXVtOSF1bQ0BASF0yW0NIMl1bQ0gyXVtDSDJdW0NIMl1bQ0BIXTJDKEYpKEYpRg==

> <s_epik_cmdline>
J2VwaWtfcHl0aG9uJywgJy1waCcsICc3LjAnLCAnLXRuJywgJzgnLCAnLW1hJywgJzIwMCcsICctbWV0YWxfYmluZGluZycsICctaW1hZScsICc8aW5maWxlLm1hZT4nLCAnLW9tYWUnLCAnPG91dGZpbGUubWFlPic=

> <r_lp_tautomer_probability>
1

> <r_epik_Ionization_Penalty>
0.037386

> <r_epik_Ionization_Penalty_Charging>
0.037386

> <r_epik_Ionization_Penalty_Neutral>
0

> <r_epik_State_Penalty>
0.0312892

> <r_epik_Charging_Adjusted_Penalty>
0.0686752

> <i_epik_Tot_Q>
1

> <i_epik_Tot_abs_Q>
3

> <r_epik_Metal_State_Penalty>
0.0312892

> <b_epik_Metal_Only>
0

> <s_lp_Force_Field>
OPLS_2005

> <r_lp_Energy>
38.6527

> <b_lp_Chiralities_Consistent>
1

> <s_lp_Variant>
AV-unprocessed.smi:3029-1

> <Gold.Version>
5.8.1

> <Gold.Id.Protein>
6NUR|6NUR_protein|mol2

> <Gold.PLP.Fitness>
54.5996

> <Gold.PLP.PLP>
-46.5040

> <Gold.PLP.part.hbond>
-2.0000

> <Gold.PLP.part.metal>
0.0000

> <Gold.PLP.part.buried>
-4.1393

> <Gold.PLP.part.nonpolar>
-41.6192

> <Gold.PLP.part.repulsive>
0.1934

> <Gold.PLP.ligand.clash>
0.0000

> <Gold.PLP.ligand.torsion>
0.4786

> <Gold.PLP.Chemscore.Hbond>
3.0000

> <Gold.PLP.Chemscore.CHOScore>
0.0000

> <Gold.PLP.Chemscore.Metal>
0.0000

> <Gold.Chemscore.Hbonds>
donor molecule, donor type, donor heavy atom, donor atom, acceptor molecule, acceptor atom, score
      L1  H    13    42       P1  8028  2.00
      P1  H  7997  8008       L1     8  0.94

> <Gold.PLP.Chemscore.Internal.Correction>
0.0528

> <Gold.Rescore>
     Score         DG    S(hbond)    S(metal)    S(lipo)     H(rot)  DE(clash)    DE(int)     intcor
     16.35     -18.43       1.91        0.00      97.87       1.90       0.07       2.01       ----

> <Gold.Chemscore.Fitness>
16.3535

> <Gold.Chemscore.DG>
-18.4338

> <Gold.Chemscore.ZeroCoef>
-5.4800

> <Gold.Chemscore.Hbond>
1.9091

> <Gold.Chemscore.Metal>
0.0000

> <Gold.Chemscore.Lipo>
97.8715

> <Gold.Chemscore.Internal_Hbond>
0.0000

> <Gold.Chemscore.DEClash>
0.0672

> <Gold.Chemscore.DEInternal>
2.0131

> <Gold.Chemscore.Rot>
1.9037

> <Gold.Chemscore.Internal.Correction>
   9.000000E+99

> <Gold.Chemscore.Hbonds>
donor molecule, donor type, donor heavy atom, donor atom, acceptor molecule, acceptor atom, score
      L1  H    13    42       P1  8028  0.90
      P1  H  7997  8008       L1     8  0.87

> <Gold.Chemscore.Hbond.Weighted>
-6.3764

> <Gold.Chemscore.Metal.Weighted>
-0.0000

> <Gold.Chemscore.Lipo.Weighted>
-11.4510

> <Gold.Chemscore.Internal_Hbond.Weighted>
0.0000

> <Gold.Chemscore.DEClash.Weighted>
0.0672

> <Gold.Chemscore.DEInternal.Weighted>
2.0131

> <Gold.Chemscore.Rot.Weighted>
4.8736

> <Gold.Chemscore.Internal.Correction.Weighted>
   9.000000E+99

> <Gold.Protein.RotatedTorsions>
[ 6907 6896 6895 6894 ] final -157.61 input  -60.11 | X-H torsion
[ 7974 7965 7964 7962 ] final    4.80 input  175.53 | X-H torsion
[ 8008 7997 7996 7995 ] final -136.82 input   59.86 | X-H torsion
[ 10167 10162 10161 10158 ] final -148.15 input  -65.29 | X-H torsion
[ 10718 10713 10712 10709 ] final    4.02 input   66.30 | X-H torsion
[ 10763 10752 10751 10750 ] final -174.80 input  -60.55 | X-H torsion
[ 11005 11000 10999 10996 ] final -160.52 input  -57.11 | X-H torsion

> <Gold.Protein.ActiveResidues>
 VAL166  LYS551  ARG553  GLY616  TRP617  ASP618  TYR619  PRO620  LYS621  CYS622 
 ASP623  PHE694  ASN695  SER759  ASP760  ASP761  ALA762  ILE779  LEU786  VAL792 
 PHE793  MET794  SER795  GLU796  ALA797  LYS798  CYS799  TRP800  GLU811  SER814 

> <Gold.Protein.RotatedAtoms>
  151.3054  133.4104  159.2642 H   0  0  0  0  0  0  0  0  0  0  0  0  # atno 6907 bound_to 6896
  151.0159  134.9433  159.8043 H   0  0  0  0  0  0  0  0  0  0  0  0  # atno 6908 bound_to 6896
  152.5312  134.3018  159.9134 H   0  0  0  0  0  0  0  0  0  0  0  0  # atno 6909 bound_to 6896
  146.2443  140.0479  142.8377 H   0  0  0  0  0  0  0  0  0  0  0  0  # atno 7974 bound_to 7965
  155.4015  140.0506  157.3036 H   0  0  0  0  0  0  0  0  0  0  0  0  # atno 8008 bound_to 7997
  154.4988  140.2149  155.9350 H   0  0  0  0  0  0  0  0  0  0  0  0  # atno 8009 bound_to 7997
  156.1441  140.3148  155.8547 H   0  0  0  0  0  0  0  0  0  0  0  0  # atno 8010 bound_to 7997
  139.7557  143.8451  152.2596 H   0  0  0  0  0  0  0  0  0  0  0  0  # atno 10167 bound_to 10162
  156.8865  130.5672  149.5651 H   0  0  0  0  0  0  0  0  0  0  0  0  # atno 10718 bound_to 10713
  154.5919  135.2846  155.0626 H   0  0  0  0  0  0  0  0  0  0  0  0  # atno 10763 bound_to 10752
  154.1923  135.6438  153.5067 H   0  0  0  0  0  0  0  0  0  0  0  0  # atno 10764 bound_to 10752
  153.0124  135.5449  154.6608 H   0  0  0  0  0  0  0  0  0  0  0  0  # atno 10765 bound_to 10752
  140.6306  134.4655  157.5229 H   0  0  0  0  0  0  0  0  0  0  0  0  # atno 11005 bound_to 11000
  145.1010  140.9346  143.4712 LP  0  0  0  0  0  0  0  0  0  0  0  0  # atno 17320 bound_to 7965
  145.0672  139.3059  143.5850 LP  0  0  0  0  0  0  0  0  0  0  0  0  # atno 17321 bound_to 7965
  139.8442  144.7195  150.9293 LP  0  0  0  0  0  0  0  0  0  0  0  0  # atno 17342 bound_to 10162
  140.7802  143.3956  151.1236 LP  0  0  0  0  0  0  0  0  0  0  0  0  # atno 17343 bound_to 10162
  156.0651  130.5696  150.9271 LP  0  0  0  0  0  0  0  0  0  0  0  0  # atno 17370 bound_to 10713
  157.6109  131.0936  150.8796 LP  0  0  0  0  0  0  0  0  0  0  0  0  # atno 17371 bound_to 10713
  139.9117  134.8330  156.1504 LP  0  0  0  0  0  0  0  0  0  0  0  0  # atno 17394 bound_to 11000
  141.0678  133.6811  156.2079 LP  0  0  0  0  0  0  0  0  0  0  0  0  # atno 17395 bound_to 11000

$$$$
