AV-unprocessed.smi:2062|AV-procd|sdf|8397|dock6
  -GOLD-   2272011 83D 1   1.00000     0.00000
 Structure written by MMmdl.
 43 44  0  0  0  0  0  0  0  0  2 V2000
  143.7604  131.9537  150.5671 C   0  0  0  0  0  0  0  0  0  0  0  0
  145.0562  132.6501  150.1262 C   0  0  0  0  0  0  0  0  0  0  0  0
  145.7675  131.8234  149.0419 C   0  0  0  0  0  0  0  0  0  0  0  0
  145.9708  132.9148  151.3421 C   0  0  0  0  0  0  0  0  0  0  0  0
  147.0079  131.8639  151.5338 N   0  3  2  0  0  0  0  0  0  0  0  0
  146.5207  130.6805  152.2835 C   0  0  0  0  0  0  0  0  0  0  0  0
  146.4616  130.9659  153.7949 C   0  0  0  0  0  0  0  0  0  0  0  0
  147.7469  131.3716  154.2484 O   0  0  0  0  0  0  0  0  0  0  0  0
  148.1876  132.5768  153.6297 C   0  0  1  0  0  0  0  0  0  0  0  0
  149.5440  132.9691  154.2429 C   0  0  0  0  0  0  0  0  0  0  0  0
  149.9437  134.3204  153.8644 N   0  0  0  0  0  0  0  0  0  0  0  0
  150.9178  135.0257  154.4570 C   0  0  0  0  0  0  0  0  0  0  0  0
  151.5827  134.5981  155.4012 O   0  0  0  0  0  0  0  0  0  0  0  0
  151.0635  136.2337  153.8855 N   0  0  0  0  0  0  0  0  0  0  0  0
  152.0050  137.2471  154.2051 C   0  0  0  0  0  0  0  0  0  0  0  0
  153.2500  137.0114  154.6355 N   0  0  0  0  0  0  0  0  0  0  0  0
  153.9570  138.1940  154.8677 C   0  0  0  0  0  0  0  0  0  0  0  0
  153.2303  139.3285  154.6051 C   0  0  0  0  0  0  0  0  0  0  0  0
  151.6195  138.9552  154.0524 S   0  0  0  0  0  0  0  0  0  0  0  0
  148.2920  132.3455  152.1063 C   0  0  0  0  0  0  0  0  0  0  0  0
  143.9640  130.9812  151.0167 H   0  0  0  0  0  0  0  0  0  0  0  0
  143.0914  131.7948  149.7206 H   0  0  0  0  0  0  0  0  0  0  0  0
  143.2214  132.5537  151.3007 H   0  0  0  0  0  0  0  0  0  0  0  0
  144.7619  133.6006  149.6831 H   0  0  0  0  0  0  0  0  0  0  0  0
  146.0842  130.8532  149.4265 H   0  0  0  0  0  0  0  0  0  0  0  0
  146.6513  132.3366  148.6629 H   0  0  0  0  0  0  0  0  0  0  0  0
  145.1090  131.6431  148.1917 H   0  0  0  0  0  0  0  0  0  0  0  0
  146.4414  133.8942  151.2569 H   0  0  0  0  0  0  0  0  0  0  0  0
  145.3411  132.9650  152.2316 H   0  0  0  0  0  0  0  0  0  0  0  0
  145.5486  130.3576  151.9092 H   0  0  0  0  0  0  0  0  0  0  0  0
  147.2073  129.8528  152.1012 H   0  0  0  0  0  0  0  0  0  0  0  0
  145.7182  131.7299  154.0269 H   0  0  0  0  0  0  0  0  0  0  0  0
  146.1682  130.0652  154.3341 H   0  0  0  0  0  0  0  0  0  0  0  0
  147.4667  133.3698  153.8316 H   0  0  0  0  0  0  0  0  0  0  0  0
  149.4940  132.9167  155.3309 H   0  0  0  0  0  0  0  0  0  0  0  0
  150.3178  132.2641  153.9344 H   0  0  0  0  0  0  0  0  0  0  0  0
  149.4462  134.7446  153.0949 H   0  0  0  0  0  0  0  0  0  0  0  0
  150.4335  136.4521  153.1280 H   0  0  0  0  0  0  0  0  0  0  0  0
  154.9763  138.1356  155.2197 H   0  0  0  0  0  0  0  0  0  0  0  0
  153.5439  140.3572  154.7026 H   0  0  0  0  0  0  0  0  0  0  0  0
  149.0516  131.5882  151.9081 H   0  0  0  0  0  0  0  0  0  0  0  0
  148.6323  133.2497  151.6037 H   0  0  0  0  0  0  0  0  0  0  0  0
  147.2143  131.5315  150.6025 H   0  0  0  0  0  0  0  0  0  0  0  0
  1  2  1  0  0  0  0
  1 21  1  0  0  0  0
  1 22  1  0  0  0  0
  1 23  1  0  0  0  0
  2  3  1  0  0  0  0
  2  4  1  0  0  0  0
  2 24  1  0  0  0  0
  3 25  1  0  0  0  0
  3 26  1  0  0  0  0
  3 27  1  0  0  0  0
  4  5  1  0  0  0  0
  4 28  1  0  0  0  0
  4 29  1  0  0  0  0
  5 20  1  0  0  0  0
  5  6  1  0  0  0  0
  5 43  1  0  0  0  0
  6  7  1  0  0  0  0
  6 30  1  0  0  0  0
  6 31  1  0  0  0  0
  7  8  1  0  0  0  0
  7 32  1  0  0  0  0
  7 33  1  0  0  0  0
  8  9  1  0  0  0  0
  9 10  1  0  0  0  0
  9 20  1  0  0  0  0
  9 34  1  0  0  0  0
 10 11  1  0  0  0  0
 10 35  1  0  0  0  0
 10 36  1  0  0  0  0
 11 12  1  0  0  0  0
 11 37  1  0  0  0  0
 12 13  2  0  0  0  0
 12 14  1  0  0  0  0
 14 15  1  0  0  0  0
 14 38  1  0  0  0  0
 15 19  1  0  0  0  0
 15 16  2  0  0  0  0
 16 17  1  0  0  0  0
 17 18  2  0  0  0  0
 17 39  1  0  0  0  0
 18 19  1  0  0  0  0
 18 40  1  0  0  0  0
 20 41  1  0  0  0  0
 20 42  1  0  0  0  0
M  CHG  1   5   1
M  END
> <s_m_source_file>
AV-unprocessed.smi

> <i_m_source_file_index>
2062

> <i_lp_mmshare_version>
43012

> <i_f3d_flags>
0

> <s_epik_input>
W0NIM11bQ0hdKFtDSDNdKVtDSDJdTjFbQ0gyXVtDSDJdT1tDQEhdKFtDSDJdMSlbQ0gyXVtOSF1DKD1PKVtOSF1jMm5bY0hdW2NIXXMy

> <s_epik_cmdline>
J2VwaWtfcHl0aG9uJywgJy1waCcsICc3LjAnLCAnLXRuJywgJzgnLCAnLW1hJywgJzIwMCcsICctbWV0YWxfYmluZGluZycsICctaW1hZScsICc8aW5maWxlLm1hZT4nLCAnLW9tYWUnLCAnPG91dGZpbGUubWFlPic=

> <r_lp_tautomer_probability>
0.999

> <r_epik_Ionization_Penalty>
0.0985527

> <r_epik_Ionization_Penalty_Charging>
0.098413

> <r_epik_Ionization_Penalty_Neutral>
0.000139681

> <r_epik_State_Penalty>
0.0884988

> <r_epik_Charging_Adjusted_Penalty>
0.186912

> <i_epik_Tot_Q>
1

> <i_epik_Tot_abs_Q>
1

> <r_epik_Metal_State_Penalty>
0.141792

> <b_epik_Metal_Only>
0

> <s_lp_Force_Field>
OPLS_2005

> <r_lp_Energy>
17.4544

> <b_lp_Chiralities_Consistent>
1

> <s_lp_Variant>
AV-unprocessed.smi:2062-2

> <Gold.Version>
5.8.1

> <Gold.Id.Protein>
6NUR|6NUR_protein|mol2

> <Gold.PLP.Fitness>
43.2912

> <Gold.PLP.PLP>
-36.1919

> <Gold.PLP.part.hbond>
-5.4798

> <Gold.PLP.part.metal>
0.0000

> <Gold.PLP.part.buried>
3.9496

> <Gold.PLP.part.nonpolar>
-34.0864

> <Gold.PLP.part.repulsive>
0.2369

> <Gold.PLP.ligand.clash>
0.0000

> <Gold.PLP.ligand.torsion>
1.1759

> <Gold.PLP.Chemscore.Hbond>
3.1200

> <Gold.PLP.Chemscore.CHOScore>
0.0000

> <Gold.PLP.Chemscore.Metal>
0.0000

> <Gold.Chemscore.Hbonds>
donor molecule, donor type, donor heavy atom, donor atom, acceptor molecule, acceptor atom, score
      L1  H     5    43       P1 10747  0.37
      L1  H    11    37       P1  7948  0.20
      L1  H    14    38       P1  7949  0.02
      P1  H 10752 10765       L1    13  0.23

> <Gold.PLP.Chemscore.Internal.Correction>
0.0911

> <Gold.Rescore>
     Score         DG    S(hbond)    S(metal)    S(lipo)     H(rot)  DE(clash)    DE(int)     intcor
     15.53     -17.76       2.06        0.00      84.70       1.76       0.81       1.42       ----

> <Gold.Chemscore.Fitness>
15.5325

> <Gold.Chemscore.DG>
-17.7566

> <Gold.Chemscore.ZeroCoef>
-5.4800

> <Gold.Chemscore.Hbond>
2.0575

> <Gold.Chemscore.Metal>
0.0000

> <Gold.Chemscore.Lipo>
84.6996

> <Gold.Chemscore.Internal_Hbond>
0.0000

> <Gold.Chemscore.DEClash>
0.8072

> <Gold.Chemscore.DEInternal>
1.4169

> <Gold.Chemscore.Rot>
1.7599

> <Gold.Chemscore.Internal.Correction>
   9.000000E+99

> <Gold.Chemscore.Hbonds>
donor molecule, donor type, donor heavy atom, donor atom, acceptor molecule, acceptor atom, score
      L1  H     5    43       P1 10747  0.36
      P1  H 10752 10765       L1    13  0.01

> <Gold.Chemscore.Hbond.Weighted>
-6.8721

> <Gold.Chemscore.Metal.Weighted>
-0.0000

> <Gold.Chemscore.Lipo.Weighted>
-9.9099

> <Gold.Chemscore.Internal_Hbond.Weighted>
0.0000

> <Gold.Chemscore.DEClash.Weighted>
0.8072

> <Gold.Chemscore.DEInternal.Weighted>
1.4169

> <Gold.Chemscore.Rot.Weighted>
4.5054

> <Gold.Chemscore.Internal.Correction.Weighted>
   9.000000E+99

> <Gold.Protein.RotatedTorsions>
[ 6907 6896 6895 6894 ] final -105.54 input  -60.11 | X-H torsion
[ 7974 7965 7964 7962 ] final  143.02 input  175.53 | X-H torsion
[ 8008 7997 7996 7995 ] final  109.49 input   59.86 | X-H torsion
[ 10167 10162 10161 10158 ] final  -83.14 input  -65.29 | X-H torsion
[ 10718 10713 10712 10709 ] final -130.33 input   66.30 | X-H torsion
[ 10763 10752 10751 10750 ] final -170.51 input  -60.55 | X-H torsion
[ 11005 11000 10999 10996 ] final   82.36 input  -57.11 | X-H torsion

> <Gold.Protein.ActiveResidues>
 VAL166  LYS551  ARG553  GLY616  TRP617  ASP618  TYR619  PRO620  LYS621  CYS622 
 ASP623  PHE694  ASN695  SER759  ASP760  ASP761  ALA762  ILE779  LEU786  VAL792 
 PHE793  MET794  SER795  GLU796  ALA797  LYS798  CYS799  TRP800  GLU811  SER814 

> <Gold.Protein.RotatedAtoms>
  150.7342  134.0111  159.3669 H   0  0  0  0  0  0  0  0  0  0  0  0  # atno 6907 bound_to 6896
  151.8070  135.0690  160.0417 H   0  0  0  0  0  0  0  0  0  0  0  0  # atno 6908 bound_to 6896
  152.3100  133.5706  159.5710 H   0  0  0  0  0  0  0  0  0  0  0  0  # atno 6909 bound_to 6896
  144.8957  139.5494  143.5777 H   0  0  0  0  0  0  0  0  0  0  0  0  # atno 7974 bound_to 7965
  156.1983  140.3057  155.9472 H   0  0  0  0  0  0  0  0  0  0  0  0  # atno 8008 bound_to 7997
  155.3015  140.0446  157.3047 H   0  0  0  0  0  0  0  0  0  0  0  0  # atno 8009 bound_to 7997
  154.5537  140.2299  155.8453 H   0  0  0  0  0  0  0  0  0  0  0  0  # atno 8010 bound_to 7997
  140.4255  143.2568  151.8832 H   0  0  0  0  0  0  0  0  0  0  0  0  # atno 10167 bound_to 10162
  156.2134  130.6933  151.0675 H   0  0  0  0  0  0  0  0  0  0  0  0  # atno 10718 bound_to 10713
  154.6408  135.2898  155.0106 H   0  0  0  0  0  0  0  0  0  0  0  0  # atno 10763 bound_to 10752
  154.1233  135.6544  153.4911 H   0  0  0  0  0  0  0  0  0  0  0  0  # atno 10764 bound_to 10752
  153.0325  135.5293  154.7273 H   0  0  0  0  0  0  0  0  0  0  0  0  # atno 10765 bound_to 10752
  139.9066  134.8065  156.2164 H   0  0  0  0  0  0  0  0  0  0  0  0  # atno 11005 bound_to 11000
  146.3080  139.7646  142.9041 LP  0  0  0  0  0  0  0  0  0  0  0  0  # atno 17320 bound_to 7965
  145.3704  141.0342  143.3234 LP  0  0  0  0  0  0  0  0  0  0  0  0  # atno 17321 bound_to 7965
  139.4783  144.5392  151.8554 LP  0  0  0  0  0  0  0  0  0  0  0  0  # atno 17342 bound_to 10162
  140.4486  144.1886  150.5896 LP  0  0  0  0  0  0  0  0  0  0  0  0  # atno 17343 bound_to 10162
  157.7050  131.0760  150.6695 LP  0  0  0  0  0  0  0  0  0  0  0  0  # atno 17370 bound_to 10713
  156.6755  130.4552  149.5644 LP  0  0  0  0  0  0  0  0  0  0  0  0  # atno 17371 bound_to 10713
  141.0433  133.6926  156.1638 LP  0  0  0  0  0  0  0  0  0  0  0  0  # atno 17394 bound_to 11000
  140.6922  134.4654  157.5588 LP  0  0  0  0  0  0  0  0  0  0  0  0  # atno 17395 bound_to 11000

$$$$
