AV-unprocessed.smi:125|AV-procd|sdf|1149|dock1
  -GOLD-   2262018283D 1   1.00000     0.00000
 Structure written by MMmdl.
 59 62  0  0  0  0  0  0  0  0  1 V2000
  145.7848  133.8147  158.1717 C   0  0  0  0  0  0  0  0  0  0  0  0
  146.8811  134.7697  157.7293 C   0  0  0  0  0  0  0  0  0  0  0  0
  147.6982  134.3943  156.6425 C   0  0  0  0  0  0  0  0  0  0  0  0
  148.7301  135.2370  156.1894 C   0  0  0  0  0  0  0  0  0  0  0  0
  148.9710  136.4750  156.8290 C   0  0  0  0  0  0  0  0  0  0  0  0
  149.9790  137.3906  156.4220 N   0  0  0  0  0  0  0  0  0  0  0  0
  151.1591  137.1382  155.8267 C   0  0  0  0  0  0  0  0  0  0  0  0
  151.5973  136.0113  155.5931 O   0  0  0  0  0  0  0  0  0  0  0  0
  151.9985  138.3787  155.4850 C   0  0  0  0  0  0  0  0  0  0  0  0
  152.2258  139.2628  156.6491 N   0  0  0  0  0  0  0  0  0  0  0  0
  152.9246  138.7383  157.7649 C   0  0  0  0  0  0  0  0  0  0  0  0
  153.3404  137.5783  157.7694 O   0  0  0  0  0  0  0  0  0  0  0  0
  153.1067  139.6563  158.8834 C   0  0  0  0  0  0  0  0  0  0  0  0
  153.7765  139.2505  159.9754 F   0  0  0  0  0  0  0  0  0  0  0  0
  152.6161  140.9116  158.8378 C   0  0  0  0  0  0  0  0  0  0  0  0
  151.9182  141.4041  157.7505 N   0  0  0  0  0  0  0  0  0  0  0  0
  151.3842  142.8193  157.7356 C   0  0  2  0  0  0  0  0  0  0  0  0
  152.5395  143.8221  157.8306 C   0  0  0  0  0  0  0  0  0  0  0  0
  152.5942  144.0947  159.3181 C   0  0  0  0  0  0  0  0  0  0  0  0
  151.1198  144.0181  159.6969 C   0  0  0  0  0  0  0  0  0  0  0  0
  150.5665  143.0104  158.8544 O   0  0  0  0  0  0  0  0  0  0  0  0
  151.7162  140.5832  156.6196 C   0  0  0  0  0  0  0  0  0  0  0  0
  151.1124  141.0088  155.6328 O   0  0  0  0  0  0  0  0  0  0  0  0
  148.1474  136.8623  157.9043 C   0  0  0  0  0  0  0  0  0  0  0  0
  147.1107  136.0204  158.3598 C   0  0  0  0  0  0  0  0  0  0  0  0
  146.1304  136.5880  159.7603 S   0  0  0  0  0  0  0  0  0  0  0  0
  146.3342  138.0335  159.9445 O   0  0  0  0  0  0  0  0  0  0  0  0
  144.7680  136.0548  159.6062 O   0  0  0  0  0  0  0  0  0  0  0  0
  146.8830  135.7894  161.0998 N   0  0  0  0  0  0  0  0  0  0  0  0
  146.7042  134.3398  161.2794 C   0  0  0  0  0  0  0  0  0  0  0  0
  147.7661  133.7686  162.2338 C   0  0  0  0  0  0  0  0  0  0  0  0
  147.7921  134.5082  163.4455 O   0  0  0  0  0  0  0  0  0  0  0  0
  148.1621  135.8603  163.2206 C   0  0  0  0  0  0  0  0  0  0  0  0
  147.1155  136.5532  162.3344 C   0  0  0  0  0  0  0  0  0  0  0  0
  145.7114  132.9621  157.4960 H   0  0  0  0  0  0  0  0  0  0  0  0
  144.8120  134.3037  158.1771 H   0  0  0  0  0  0  0  0  0  0  0  0
  145.9904  133.4217  159.1660 H   0  0  0  0  0  0  0  0  0  0  0  0
  147.5345  133.4517  156.1411 H   0  0  0  0  0  0  0  0  0  0  0  0
  149.3130  134.9159  155.3403 H   0  0  0  0  0  0  0  0  0  0  0  0
  149.7981  138.3585  156.6453 H   0  0  0  0  0  0  0  0  0  0  0  0
  152.9517  138.0635  155.0566 H   0  0  0  0  0  0  0  0  0  0  0  0
  151.5046  138.9064  154.6681 H   0  0  0  0  0  0  0  0  0  0  0  0
  152.7857  141.5489  159.6929 H   0  0  0  0  0  0  0  0  0  0  0  0
  150.7878  142.9141  156.8269 H   0  0  0  0  0  0  0  0  0  0  0  0
  153.4679  143.4299  157.4140 H   0  0  0  0  0  0  0  0  0  0  0  0
  152.2613  144.7258  157.2870 H   0  0  0  0  0  0  0  0  0  0  0  0
  153.1576  143.3113  159.8261 H   0  0  0  0  0  0  0  0  0  0  0  0
  153.0482  145.0555  159.5616 H   0  0  0  0  0  0  0  0  0  0  0  0
  150.9676  143.7863  160.7511 H   0  0  0  0  0  0  0  0  0  0  0  0
  150.6236  144.9652  159.4816 H   0  0  0  0  0  0  0  0  0  0  0  0
  148.3224  137.8143  158.3833 H   0  0  0  0  0  0  0  0  0  0  0  0
  145.7039  134.1575  161.6733 H   0  0  0  0  0  0  0  0  0  0  0  0
  146.7697  133.8318  160.3176 H   0  0  0  0  0  0  0  0  0  0  0  0
  147.5417  132.7262  162.4603 H   0  0  0  0  0  0  0  0  0  0  0  0
  148.7521  133.7833  161.7667 H   0  0  0  0  0  0  0  0  0  0  0  0
  148.2344  136.3715  164.1806 H   0  0  0  0  0  0  0  0  0  0  0  0
  149.1510  135.9085  162.7619 H   0  0  0  0  0  0  0  0  0  0  0  0
  147.4451  137.5623  162.0863 H   0  0  0  0  0  0  0  0  0  0  0  0
  146.1713  136.6468  162.8717 H   0  0  0  0  0  0  0  0  0  0  0  0
  1  2  1  0  0  0  0
  1 35  1  0  0  0  0
  1 36  1  0  0  0  0
  1 37  1  0  0  0  0
  2 25  1  0  0  0  0
  2  3  2  0  0  0  0
  3  4  1  0  0  0  0
  3 38  1  0  0  0  0
  4  5  2  0  0  0  0
  4 39  1  0  0  0  0
  5  6  1  0  0  0  0
  5 24  1  0  0  0  0
  6  7  1  0  0  0  0
  6 40  1  0  0  0  0
  7  8  2  0  0  0  0
  7  9  1  0  0  0  0
  9 10  1  0  0  0  0
  9 41  1  0  0  0  0
  9 42  1  0  0  0  0
 10 22  1  0  0  0  0
 10 11  1  0  0  0  0
 11 12  2  0  0  0  0
 11 13  1  0  0  0  0
 13 14  1  0  0  0  0
 13 15  2  0  0  0  0
 15 16  1  0  0  0  0
 15 43  1  0  0  0  0
 16 17  1  0  0  0  0
 16 22  1  0  0  0  0
 17 21  1  0  0  0  0
 17 18  1  0  0  0  0
 17 44  1  0  0  0  0
 18 19  1  0  0  0  0
 18 45  1  0  0  0  0
 18 46  1  0  0  0  0
 19 20  1  0  0  0  0
 19 47  1  0  0  0  0
 19 48  1  0  0  0  0
 20 21  1  0  0  0  0
 20 49  1  0  0  0  0
 20 50  1  0  0  0  0
 22 23  2  0  0  0  0
 24 25  2  0  0  0  0
 24 51  1  0  0  0  0
 25 26  1  0  0  0  0
 26 27  2  0  0  0  0
 26 28  2  0  0  0  0
 26 29  1  0  0  0  0
 29 34  1  0  0  0  0
 29 30  1  0  0  0  0
 30 31  1  0  0  0  0
 30 52  1  0  0  0  0
 30 53  1  0  0  0  0
 31 32  1  0  0  0  0
 31 54  1  0  0  0  0
 31 55  1  0  0  0  0
 32 33  1  0  0  0  0
 33 34  1  0  0  0  0
 33 56  1  0  0  0  0
 33 57  1  0  0  0  0
 34 58  1  0  0  0  0
 34 59  1  0  0  0  0
M  END
> <s_m_source_file>
AV-unprocessed.smi

> <i_m_source_file_index>
125

> <i_lp_mmshare_version>
43012

> <i_f3d_flags>
0

> <s_epik_input>
W0NIMl0xW0NIMl1PW0NIMl1bQ0gyXU4xUyg9TykoPU8pYzJbY0hdYyhbY0hdW2NIXWMyW0NIM10pW05IXUMoPU8pW0NIMl1uM2MoPU8pYyhGKVtjSF1uKGMzPU8pW0NAQEhdNFtDSDJdW0NIMl1bQ0gyXU80

> <s_epik_cmdline>
J2VwaWtfcHl0aG9uJywgJy1waCcsICc3LjAnLCAnLXRuJywgJzgnLCAnLW1hJywgJzIwMCcsICctbWV0YWxfYmluZGluZycsICctaW1hZScsICc8aW5maWxlLm1hZT4nLCAnLW9tYWUnLCAnPG91dGZpbGUubWFlPic=

> <r_lp_tautomer_probability>
1

> <r_epik_Ionization_Penalty>
4.12263e-06

> <r_epik_Ionization_Penalty_Charging>
3.88729e-08

> <r_epik_Ionization_Penalty_Neutral>
4.08376e-06

> <r_epik_State_Penalty>
-0

> <r_epik_Charging_Adjusted_Penalty>
3.88729e-08

> <i_epik_Tot_Q>
0

> <i_epik_Tot_abs_Q>
0

> <r_epik_Metal_State_Penalty>
-0

> <b_epik_Metal_Only>
0

> <s_epik_Chemistry_Notes>
This compound contains an acetal/aminal-like group ( X-CH(R)-Y where X, Y are N, S, or O) that may be acid/base labile, releasing an aldehyde.

> <s_lp_Force_Field>
OPLS_2005

> <r_lp_Energy>
38.613

> <b_lp_Chiralities_Consistent>
1

> <s_lp_Variant>
AV-unprocessed.smi:125-1

> <Gold.Version>
5.8.1

> <Gold.Id.Protein>
6NUR|6NUR_protein|mol2

> <Gold.PLP.Fitness>
55.2233

> <Gold.PLP.PLP>
-48.2632

> <Gold.PLP.part.hbond>
-4.3852

> <Gold.PLP.part.metal>
0.0000

> <Gold.PLP.part.buried>
-6.6486

> <Gold.PLP.part.nonpolar>
-36.9897

> <Gold.PLP.part.repulsive>
0.2843

> <Gold.PLP.ligand.clash>
0.0000

> <Gold.PLP.ligand.torsion>
2.3098

> <Gold.PLP.Chemscore.Hbond>
2.4880

> <Gold.PLP.Chemscore.CHOScore>
0.0000

> <Gold.PLP.Chemscore.Metal>
0.0000

> <Gold.Chemscore.Hbonds>
donor molecule, donor type, donor heavy atom, donor atom, acceptor molecule, acceptor atom, score
      P1  H  6934  6947       L1    27  0.93
      P1  H  7989  7998       L1    23  0.39
      P1  H 10752 10764       L1     8  1.00

> <Gold.PLP.Chemscore.Internal.Correction>
4.1158

> <Gold.Rescore>
     Score         DG    S(hbond)    S(metal)    S(lipo)     H(rot)  DE(clash)    DE(int)     intcor
     14.86     -21.83       2.59        0.00     102.03       1.65       1.34       5.63       ----

> <Gold.Chemscore.Fitness>
14.8608

> <Gold.Chemscore.DG>
-21.8307

> <Gold.Chemscore.ZeroCoef>
-5.4800

> <Gold.Chemscore.Hbond>
2.5866

> <Gold.Chemscore.Metal>
0.0000

> <Gold.Chemscore.Lipo>
102.0334

> <Gold.Chemscore.Internal_Hbond>
0.0000

> <Gold.Chemscore.DEClash>
1.3439

> <Gold.Chemscore.DEInternal>
5.6260

> <Gold.Chemscore.Rot>
1.6510

> <Gold.Chemscore.Internal.Correction>
   9.000000E+99

> <Gold.Chemscore.Hbonds>
donor molecule, donor type, donor heavy atom, donor atom, acceptor molecule, acceptor atom, score
      P1  H  6934  6947       L1    27  0.89
      P1  H  7989  7998       L1    23  0.40
      P1  H 10752 10764       L1     8  0.99

> <Gold.Chemscore.Hbond.Weighted>
-8.6393

> <Gold.Chemscore.Metal.Weighted>
-0.0000

> <Gold.Chemscore.Lipo.Weighted>
-11.9379

> <Gold.Chemscore.Internal_Hbond.Weighted>
0.0000

> <Gold.Chemscore.DEClash.Weighted>
1.3439

> <Gold.Chemscore.DEInternal.Weighted>
5.6260

> <Gold.Chemscore.Rot.Weighted>
4.2265

> <Gold.Chemscore.Internal.Correction.Weighted>
   9.000000E+99

> <Gold.Protein.RotatedTorsions>
[ 6907 6896 6895 6894 ] final   44.11 input  -60.11 | X-H torsion
[ 7974 7965 7964 7962 ] final  172.33 input  175.53 | X-H torsion
[ 8008 7997 7996 7995 ] final  131.20 input   59.86 | X-H torsion
[ 10167 10162 10161 10158 ] final   98.13 input  -65.29 | X-H torsion
[ 10718 10713 10712 10709 ] final -163.89 input   66.30 | X-H torsion
[ 10763 10752 10751 10750 ] final  -29.33 input  -60.55 | X-H torsion
[ 11005 11000 10999 10996 ] final  -72.55 input  -57.11 | X-H torsion

> <Gold.Protein.ActiveResidues>
 VAL166  LYS551  ARG553  GLY616  TRP617  ASP618  TYR619  PRO620  LYS621  CYS622 
 ASP623  PHE694  ASN695  SER759  ASP760  ASP761  ALA762  ILE779  LEU786  VAL792 
 PHE793  MET794  SER795  GLU796  ALA797  LYS798  CYS799  TRP800  GLU811  SER814 

> <Gold.Protein.RotatedAtoms>
  152.2285  134.8345  160.0476 H   0  0  0  0  0  0  0  0  0  0  0  0  # atno 6907 bound_to 6896
  151.9102  133.3554  159.3869 H   0  0  0  0  0  0  0  0  0  0  0  0  # atno 6908 bound_to 6896
  150.7019  134.4665  159.5449 H   0  0  0  0  0  0  0  0  0  0  0  0  # atno 6909 bound_to 6896
  144.7271  139.9483  143.6431 H   0  0  0  0  0  0  0  0  0  0  0  0  # atno 7974 bound_to 7965
  156.2966  140.2577  156.2886 H   0  0  0  0  0  0  0  0  0  0  0  0  # atno 8008 bound_to 7997
  154.9531  140.0394  157.2172 H   0  0  0  0  0  0  0  0  0  0  0  0  # atno 8009 bound_to 7997
  154.8017  140.2829  155.5921 H   0  0  0  0  0  0  0  0  0  0  0  0  # atno 8010 bound_to 7997
  139.7737  144.6913  151.0119 H   0  0  0  0  0  0  0  0  0  0  0  0  # atno 10167 bound_to 10162
  156.6312  130.8930  151.2978 H   0  0  0  0  0  0  0  0  0  0  0  0  # atno 10718 bound_to 10713
  153.7629  135.6918  153.4922 H   0  0  0  0  0  0  0  0  0  0  0  0  # atno 10763 bound_to 10752
  153.1926  135.4465  155.0167 H   0  0  0  0  0  0  0  0  0  0  0  0  # atno 10764 bound_to 10752
  154.8146  135.3393  154.7143 H   0  0  0  0  0  0  0  0  0  0  0  0  # atno 10765 bound_to 10752
  141.1610  133.6850  156.7075 H   0  0  0  0  0  0  0  0  0  0  0  0  # atno 11005 bound_to 11000
  146.0731  139.3720  143.0510 LP  0  0  0  0  0  0  0  0  0  0  0  0  # atno 17320 bound_to 7965
  145.7941  140.9801  143.1033 LP  0  0  0  0  0  0  0  0  0  0  0  0  # atno 17321 bound_to 7965
  140.7815  143.4559  151.0346 LP  0  0  0  0  0  0  0  0  0  0  0  0  # atno 17342 bound_to 10162
  139.8242  143.7778  152.3178 LP  0  0  0  0  0  0  0  0  0  0  0  0  # atno 17343 bound_to 10162
  157.7199  130.9545  150.1399 LP  0  0  0  0  0  0  0  0  0  0  0  0  # atno 17370 bound_to 10713
  156.2233  130.3676  149.8530 LP  0  0  0  0  0  0  0  0  0  0  0  0  # atno 17371 bound_to 10713
  140.2912  134.8239  157.4018 LP  0  0  0  0  0  0  0  0  0  0  0  0  # atno 17394 bound_to 11000
  140.1345  134.5052  155.8079 LP  0  0  0  0  0  0  0  0  0  0  0  0  # atno 17395 bound_to 11000

$$$$
