AV-unprocessed.smi:234|AV-procd|sdf|1787|dock5
  -GOLD-   2262020343D 1   1.00000     0.00000
 Structure written by MMmdl.
 59 62  0  0  0  0  0  0  0  0  1 V2000
  151.6658  144.3471  159.3118 C   0  0  0  0  0  0  0  0  0  0  0  0
  151.9228  143.0738  158.4950 C   0  0  0  0  0  0  0  0  0  0  0  0
  150.7980  142.2069  158.4876 O   0  0  0  0  0  0  0  0  0  0  0  0
  150.9816  141.0002  157.7586 C   0  0  2  0  0  0  0  0  0  0  0  0
  151.0215  141.2422  156.2512 C   0  0  0  0  0  0  0  0  0  0  0  0
  150.2401  139.9271  156.1260 C   0  0  2  0  0  0  0  0  0  0  0  0
  149.2352  139.9252  155.0589 N   0  0  0  0  0  0  0  0  0  0  0  0
  148.6369  141.1960  154.6665 C   0  0  0  0  0  0  0  0  0  0  0  0
  148.3355  138.9130  155.0393 C   0  0  0  0  0  0  0  0  0  0  0  0
  148.2474  138.1450  156.1547 N   0  0  0  0  0  0  0  0  0  0  0  0
  147.3761  137.1331  156.2058 C   0  0  0  0  0  0  0  0  0  0  0  0
  146.5204  136.7199  155.2688 N   0  0  0  0  0  0  0  0  0  0  0  0
  146.6173  137.4783  154.1394 C   0  0  0  0  0  0  0  0  0  0  0  0
  147.4957  138.5807  153.9367 C   0  0  0  0  0  0  0  0  0  0  0  0
  147.3266  139.0865  152.6527 N   0  0  0  0  0  0  0  0  0  0  0  0
  146.3921  138.3389  152.1339 C   0  0  0  0  0  0  0  0  0  0  0  0
  145.8997  137.3558  152.9618 N   0  0  0  0  0  0  0  0  0  0  0  0
  144.8533  136.3947  152.6466 C   0  0  0  0  0  0  0  0  0  0  0  0
  145.2369  135.4255  151.4971 C   0  0  1  0  0  0  0  0  0  0  0  0
  145.3687  136.1863  150.3081 O   0  0  0  0  0  0  0  0  0  0  0  0
  146.5579  134.6963  151.7314 C   0  0  0  0  0  0  0  0  0  0  0  0
  146.3691  133.3896  150.9771 C   0  0  0  0  0  0  0  0  0  0  0  0
  145.0177  133.0709  151.2558 O   0  0  0  0  0  0  0  0  0  0  0  0
  144.2423  134.2658  151.2061 C   0  0  1  0  0  0  0  0  0  0  0  0
  143.0648  134.0989  152.1791 C   0  0  0  0  0  0  0  0  0  0  0  0
  149.6791  140.1830  157.5538 C   0  0  0  0  0  0  0  0  0  0  0  0
  149.5312  138.9531  158.4508 C   0  0  0  0  0  0  0  0  0  0  0  0
  148.3696  140.9831  157.6667 C   0  0  0  0  0  0  0  0  0  0  0  0
  152.5010  145.0413  159.2170 H   0  0  0  0  0  0  0  0  0  0  0  0
  151.5454  144.1263  160.3720 H   0  0  0  0  0  0  0  0  0  0  0  0
  150.7663  144.8578  158.9678 H   0  0  0  0  0  0  0  0  0  0  0  0
  152.1298  143.3516  157.4614 H   0  0  0  0  0  0  0  0  0  0  0  0
  152.8074  142.5478  158.8574 H   0  0  0  0  0  0  0  0  0  0  0  0
  151.8286  140.3899  158.0826 H   0  0  0  0  0  0  0  0  0  0  0  0
  150.4605  142.1255  155.9399 H   0  0  0  0  0  0  0  0  0  0  0  0
  152.0216  141.2258  155.8175 H   0  0  0  0  0  0  0  0  0  0  0  0
  150.9040  139.0608  156.1053 H   0  0  0  0  0  0  0  0  0  0  0  0
  147.5903  141.2584  154.9693 H   0  0  0  0  0  0  0  0  0  0  0  0
  148.6858  141.3125  153.5837 H   0  0  0  0  0  0  0  0  0  0  0  0
  149.1589  142.0376  155.1191 H   0  0  0  0  0  0  0  0  0  0  0  0
  147.3623  136.5749  157.1305 H   0  0  0  0  0  0  0  0  0  0  0  0
  146.0303  138.4896  151.1273 H   0  0  0  0  0  0  0  0  0  0  0  0
  144.6347  135.8384  153.5584 H   0  0  0  0  0  0  0  0  0  0  0  0
  143.9463  136.9463  152.3957 H   0  0  0  0  0  0  0  0  0  0  0  0
  144.8210  136.9528  150.3797 H   0  0  0  0  0  0  0  0  0  0  0  0
  147.4363  135.2569  151.4083 H   0  0  0  0  0  0  0  0  0  0  0  0
  146.6793  134.4717  152.7916 H   0  0  0  0  0  0  0  0  0  0  0  0
  146.5043  133.5291  149.9034 H   0  0  0  0  0  0  0  0  0  0  0  0
  147.0465  132.6052  151.3149 H   0  0  0  0  0  0  0  0  0  0  0  0
  143.8406  134.3546  150.1947 H   0  0  0  0  0  0  0  0  0  0  0  0
  142.4210  134.9785  152.1798 H   0  0  0  0  0  0  0  0  0  0  0  0
  143.4085  133.9238  153.1987 H   0  0  0  0  0  0  0  0  0  0  0  0
  142.4490  133.2463  151.8925 H   0  0  0  0  0  0  0  0  0  0  0  0
  148.6942  138.3262  158.1445 H   0  0  0  0  0  0  0  0  0  0  0  0
  149.3591  139.2346  159.4896 H   0  0  0  0  0  0  0  0  0  0  0  0
  150.4264  138.3316  158.4276 H   0  0  0  0  0  0  0  0  0  0  0  0
  147.5043  140.3825  157.3854 H   0  0  0  0  0  0  0  0  0  0  0  0
  148.3693  141.8653  157.0264 H   0  0  0  0  0  0  0  0  0  0  0  0
  148.2035  141.3301  158.6871 H   0  0  0  0  0  0  0  0  0  0  0  0
  1  2  1  0  0  0  0
  1 29  1  0  0  0  0
  1 30  1  0  0  0  0
  1 31  1  0  0  0  0
  2  3  1  0  0  0  0
  2 32  1  0  0  0  0
  2 33  1  0  0  0  0
  3  4  1  0  0  0  0
  4 26  1  0  0  0  0
  4  5  1  0  0  0  0
  4 34  1  0  0  0  0
  5  6  1  0  0  0  0
  5 35  1  0  0  0  0
  5 36  1  0  0  0  0
  6  7  1  0  0  0  0
  6 26  1  0  0  0  0
  6 37  1  0  0  0  0
  7  8  1  0  0  0  0
  7  9  1  0  0  0  0
  8 38  1  0  0  0  0
  8 39  1  0  0  0  0
  8 40  1  0  0  0  0
  9 14  1  0  0  0  0
  9 10  2  0  0  0  0
 10 11  1  0  0  0  0
 11 12  2  0  0  0  0
 11 41  1  0  0  0  0
 12 13  1  0  0  0  0
 13 17  1  0  0  0  0
 13 14  2  0  0  0  0
 14 15  1  0  0  0  0
 15 16  2  0  0  0  0
 16 17  1  0  0  0  0
 16 42  1  0  0  0  0
 17 18  1  0  0  0  0
 18 19  1  0  0  0  0
 18 43  1  0  0  0  0
 18 44  1  0  0  0  0
 19 24  1  0  0  0  0
 19 20  1  0  0  0  0
 19 21  1  0  0  0  0
 20 45  1  0  0  0  0
 21 22  1  0  0  0  0
 21 46  1  0  0  0  0
 21 47  1  0  0  0  0
 22 23  1  0  0  0  0
 22 48  1  0  0  0  0
 22 49  1  0  0  0  0
 23 24  1  0  0  0  0
 24 25  1  0  0  0  0
 24 50  1  0  0  0  0
 25 51  1  0  0  0  0
 25 52  1  0  0  0  0
 25 53  1  0  0  0  0
 26 27  1  0  0  0  0
 26 28  1  0  0  0  0
 27 54  1  0  0  0  0
 27 55  1  0  0  0  0
 27 56  1  0  0  0  0
 28 57  1  0  0  0  0
 28 58  1  0  0  0  0
 28 59  1  0  0  0  0
M  END
> <s_m_source_file>
AV-unprocessed.smi

> <i_m_source_file_index>
234

> <i_lp_mmshare_version>
43012

> <i_f3d_flags>
0

> <s_epik_input>
W0NIM11bQ0gyXU9bQ0BASF0oQzEoW0NIM10pW0NIM10pW0NIMl1bQ0BIXTFOKFtDSDNdKWMobltjSF1uMiljKGMyMyluW2NIXW4zW0NIMl1bQ0BAXTQoW09IXSlbQ0gyXVtDSDJdT1tDQEhdNFtDSDNd

> <s_epik_cmdline>
J2VwaWtfcHl0aG9uJywgJy1waCcsICc3LjAnLCAnLXRuJywgJzgnLCAnLW1hJywgJzIwMCcsICctbWV0YWxfYmluZGluZycsICctaW1hZScsICc8aW5maWxlLm1hZT4nLCAnLW9tYWUnLCAnPG91dGZpbGUubWFlPic=

> <r_lp_tautomer_probability>
1

> <r_epik_Ionization_Penalty>
0.00349132

> <r_epik_Ionization_Penalty_Charging>
0

> <r_epik_Ionization_Penalty_Neutral>
0.00349132

> <r_epik_State_Penalty>
0.00242418

> <r_epik_Charging_Adjusted_Penalty>
0.00242418

> <i_epik_Tot_Q>
0

> <i_epik_Tot_abs_Q>
0

> <r_epik_Metal_State_Penalty>
-0

> <b_epik_Metal_Only>
0

> <s_lp_Force_Field>
OPLS_2005

> <r_lp_Energy>
50.018

> <b_lp_Chiralities_Consistent>
1

> <s_lp_Variant>
AV-unprocessed.smi:234-3

> <Gold.Version>
5.8.1

> <Gold.Id.Protein>
6NUR|6NUR_protein|mol2

> <Gold.PLP.Fitness>
45.2479

> <Gold.PLP.PLP>
-39.4513

> <Gold.PLP.part.hbond>
-2.0000

> <Gold.PLP.part.metal>
0.0000

> <Gold.PLP.part.buried>
-6.3387

> <Gold.PLP.part.nonpolar>
-34.3450

> <Gold.PLP.part.repulsive>
2.8403

> <Gold.PLP.ligand.clash>
0.0000

> <Gold.PLP.ligand.torsion>
0.6459

> <Gold.PLP.Chemscore.Hbond>
1.0000

> <Gold.PLP.Chemscore.CHOScore>
1.0000

> <Gold.PLP.Chemscore.Metal>
0.0000

> <Gold.Chemscore.Hbonds>
donor molecule, donor type, donor heavy atom, donor atom, acceptor molecule, acceptor atom, score
      L1  H    20    45       P1 10171  1.00
      L1  C    16    42       P1 10171  1.00

> <Gold.PLP.Chemscore.Internal.Correction>
1.0884

> <Gold.Rescore>
     Score         DG    S(hbond)    S(metal)    S(lipo)     H(rot)  DE(clash)    DE(int)     intcor
      5.84     -13.35       1.00        0.00      96.10       2.62       2.88       4.63       ----

> <Gold.Chemscore.Fitness>
5.8399

> <Gold.Chemscore.DG>
-13.3506

> <Gold.Chemscore.ZeroCoef>
-5.4800

> <Gold.Chemscore.Hbond>
0.9995

> <Gold.Chemscore.Metal>
0.0000

> <Gold.Chemscore.Lipo>
96.1042

> <Gold.Chemscore.Internal_Hbond>
0.0000

> <Gold.Chemscore.DEClash>
2.8821

> <Gold.Chemscore.DEInternal>
4.6285

> <Gold.Chemscore.Rot>
2.6219

> <Gold.Chemscore.Internal.Correction>
   9.000000E+99

> <Gold.Chemscore.Hbonds>
donor molecule, donor type, donor heavy atom, donor atom, acceptor molecule, acceptor atom, score
      L1  H    20    45       P1 10171  0.97

> <Gold.Chemscore.Hbond.Weighted>
-3.3385

> <Gold.Chemscore.Metal.Weighted>
-0.0000

> <Gold.Chemscore.Lipo.Weighted>
-11.2442

> <Gold.Chemscore.Internal_Hbond.Weighted>
0.0000

> <Gold.Chemscore.DEClash.Weighted>
2.8821

> <Gold.Chemscore.DEInternal.Weighted>
4.6285

> <Gold.Chemscore.Rot.Weighted>
6.7121

> <Gold.Chemscore.Internal.Correction.Weighted>
   9.000000E+99

> <Gold.Protein.RotatedTorsions>
[ 6907 6896 6895 6894 ] final  -85.82 input  -60.11 | X-H torsion
[ 7974 7965 7964 7962 ] final -160.47 input  175.53 | X-H torsion
[ 8008 7997 7996 7995 ] final   79.00 input   59.86 | X-H torsion
[ 10167 10162 10161 10158 ] final   74.38 input  -65.29 | X-H torsion
[ 10718 10713 10712 10709 ] final   69.19 input   66.30 | X-H torsion
[ 10763 10752 10751 10750 ] final    9.70 input  -60.55 | X-H torsion
[ 11005 11000 10999 10996 ] final  -36.55 input  -57.11 | X-H torsion

> <Gold.Protein.ActiveResidues>
 VAL166  LYS551  ARG553  GLY616  TRP617  ASP618  TYR619  PRO620  LYS621  CYS622 
 ASP623  PHE694  ASN695  SER759  ASP760  ASP761  ALA762  ILE779  LEU786  VAL792 
 PHE793  MET794  SER795  GLU796  ALA797  LYS798  CYS799  TRP800  GLU811  SER814 

> <Gold.Protein.RotatedAtoms>
  150.6869  134.3146  159.4760 H   0  0  0  0  0  0  0  0  0  0  0  0  # atno 6907 bound_to 6896
  152.1028  134.9327  160.0578 H   0  0  0  0  0  0  0  0  0  0  0  0  # atno 6908 bound_to 6896
  152.0600  133.4023  159.4450 H   0  0  0  0  0  0  0  0  0  0  0  0  # atno 6909 bound_to 6896
  144.7426  140.3537  143.6110 H   0  0  0  0  0  0  0  0  0  0  0  0  # atno 7974 bound_to 7965
  155.8636  140.3452  155.5773 H   0  0  0  0  0  0  0  0  0  0  0  0  # atno 8008 bound_to 7997
  155.7905  140.0871  157.2030 H   0  0  0  0  0  0  0  0  0  0  0  0  # atno 8009 bound_to 7997
  154.4013  140.1484  156.3145 H   0  0  0  0  0  0  0  0  0  0  0  0  # atno 8010 bound_to 7997
  140.0143  144.5590  150.7633 H   0  0  0  0  0  0  0  0  0  0  0  0  # atno 10167 bound_to 10162
  157.6332  130.9413  150.0480 H   0  0  0  0  0  0  0  0  0  0  0  0  # atno 10718 bound_to 10713
  153.2112  135.6869  153.8112 H   0  0  0  0  0  0  0  0  0  0  0  0  # atno 10763 bound_to 10752
  153.7344  135.3247  155.3293 H   0  0  0  0  0  0  0  0  0  0  0  0  # atno 10764 bound_to 10752
  154.8223  135.4643  154.0920 H   0  0  0  0  0  0  0  0  0  0  0  0  # atno 10765 bound_to 10752
  140.9883  133.7018  156.1805 H   0  0  0  0  0  0  0  0  0  0  0  0  # atno 11005 bound_to 11000
  145.7249  139.1720  143.2463 LP  0  0  0  0  0  0  0  0  0  0  0  0  # atno 17320 bound_to 7965
  146.1249  140.7260  142.9439 LP  0  0  0  0  0  0  0  0  0  0  0  0  # atno 17321 bound_to 7965
  140.7369  143.2758  151.3746 LP  0  0  0  0  0  0  0  0  0  0  0  0  # atno 17342 bound_to 10162
  139.6183  144.0958  152.2367 LP  0  0  0  0  0  0  0  0  0  0  0  0  # atno 17343 bound_to 10162
  156.1551  130.3643  149.9381 LP  0  0  0  0  0  0  0  0  0  0  0  0  # atno 17370 bound_to 10713
  156.7392  130.9073  151.3631 LP  0  0  0  0  0  0  0  0  0  0  0  0  # atno 17371 bound_to 10713
  140.7079  134.4493  157.5583 LP  0  0  0  0  0  0  0  0  0  0  0  0  # atno 17394 bound_to 11000
  139.8981  134.8622  156.2017 LP  0  0  0  0  0  0  0  0  0  0  0  0  # atno 17395 bound_to 11000

$$$$
