#       Name:                AV-unprocessed.smi:2071
#       Creating user name   scv26
#       Creation time:       Fri Mar 27 11:14:04 2020


#       File generated by GOLD software.
#

@<TRIPOS>MOLECULE
AV-unprocessed.smi:2071
    52    54     1
SMALL
NO_CHARGES


@<TRIPOS>ATOM
      1 ****        -2.6130   1.2504   1.1940 O.2            1 S1                 0.0000
      2 ****        -2.9500   1.5839   0.0583 C.2            1 S1                 0.0000
      3 ****        -2.9520   0.7449  -0.9873 N.am           1 S1                 0.0000
      4 ****        -2.5547  -0.6574  -0.9375 C.3            1 S1                 0.0000
      5 ****        -1.0281  -0.8137  -1.0176 C.3            1 S1                 0.0000
      6 ****        -0.5879  -2.2870  -0.9985 C.3            1 S1                 0.0000
      7 ****         0.8703  -2.4099  -1.0771 N.am           1 S1                 0.0000
      8 ****         1.5631  -2.4876  -2.2279 C.2            1 S1                 0.0000
      9 ****         1.0946  -2.4852  -3.3653 O.2            1 S1                 0.0000
     10 ****         2.8672  -2.5642  -1.9330 N.am           1 S1                 0.0000
     11 ****         3.1214  -2.5249  -0.5067 C.3            1 S1                 0.0000
     12 ****         4.0006  -1.3457  -0.0711 C.3            1 S1                 0.0000
     13 ****         4.5826  -1.7645   1.2859 C.3            1 S1                 0.0000
     14 ****         4.5139  -3.3016   1.3374 C.3            1 S1                 0.0000
     15 ****         3.8645  -3.7585   0.0227 C.3            1 S1                 0.0000
     16 ****         1.6830  -2.4216  -0.0122 C.2            1 S1                 0.0000
     17 ****         1.3566  -2.3538   1.1734 O.2            1 S1                 0.0000
     18 ****        -3.3736   2.8076  -0.3026 N.am           1 S1                 0.0000
     19 ****        -3.5162   3.9748   0.4967 C.ar           1 S1                 0.0000
     20 ****        -2.8867   4.1712   1.7502 C.ar           1 S1                 0.0000
     21 ****        -3.0995   5.3831   2.4355 C.ar           1 S1                 0.0000
     22 ****        -3.9260   6.3562   1.8415 C.ar           1 S1                 0.0000
     23 ****        -4.5220   6.1883   0.6426 N.ar           1 S1                 0.0000
     24 ****        -4.3137   5.0239  -0.0083 C.ar           1 S1                 0.0000
     25 ****        -3.2489   1.1017  -1.8839 H              1 S1                 0.0000
     26 ****        -2.9410  -1.1262  -0.0308 H              1 S1                 0.0000
     27 ****        -3.0244  -1.1713  -1.7764 H              1 S1                 0.0000
     28 ****        -0.6628  -0.3353  -1.9275 H              1 S1                 0.0000
     29 ****        -0.5623  -0.2867  -0.1836 H              1 S1                 0.0000
     30 ****        -0.9537  -2.7717  -0.0916 H              1 S1                 0.0000
     31 ****        -1.0512  -2.8252  -1.8272 H              1 S1                 0.0000
     32 ****         3.6044  -2.6308  -2.6197 H              1 S1                 0.0000
     33 ****         4.8103  -1.2034  -0.7883 H              1 S1                 0.0000
     34 ****         3.4551  -0.4029  -0.0074 H              1 S1                 0.0000
     35 ****         5.6015  -1.3972   1.4113 H              1 S1                 0.0000
     36 ****         3.9847  -1.3438   2.0954 H              1 S1                 0.0000
     37 ****         5.5012  -3.7470   1.4641 H              1 S1                 0.0000
     38 ****         3.9059  -3.6146   2.1871 H              1 S1                 0.0000
     39 ****         3.2141  -4.6224   0.1685 H              1 S1                 0.0000
     40 ****         4.6408  -4.0547  -0.6845 H              1 S1                 0.0000
     41 ****        -3.6780   2.9033  -1.2603 H              1 S1                 0.0000
     42 ****        -2.2392   3.4313   2.1935 H              1 S1                 0.0000
     43 ****        -2.6354   5.5638   3.3939 H              1 S1                 0.0000
     44 ****        -4.1089   7.2963   2.3405 H              1 S1                 0.0000
     45 ****        -4.8055   4.9260  -0.9655 H              1 S1                 0.0000
     46 ****        -2.3213   0.3109   1.3733 LP             1 S1                 0.0000
     47 ****        -2.6310   1.9190   1.9374 LP             1 S1                 0.0000
     48 ****         0.1056  -2.4207  -3.4986 LP             1 S1                 0.0000
     49 ****         1.7027  -2.5476  -4.1567 LP             1 S1                 0.0000
     50 ****         0.3909  -2.2806   1.4227 LP             1 S1                 0.0000
     51 ****         2.0572  -2.3718   1.8867 LP             1 S1                 0.0000
     52 ****        -5.0995   6.9035   0.2488 LP             1 S1                 0.0000
@<TRIPOS>BOND
    1    1    2 2     
    2    2    3 am    
    3    2   18 am    
    4    3    4 1     
    5    3   25 1     
    6    4    5 1     
    7    4   26 1     
    8    4   27 1     
    9    5    6 1     
   10    5   28 1     
   11    5   29 1     
   12    6    7 1     
   13    6   30 1     
   14    6   31 1     
   15    7   16 am    
   16    7    8 am    
   17    8    9 2     
   18    8   10 am    
   19   10   11 1     
   20   10   32 1     
   21   11   15 1     
   22   11   12 1     
   23   11   16 1     
   24   12   13 1     
   25   12   33 1     
   26   12   34 1     
   27   13   14 1     
   28   13   35 1     
   29   13   36 1     
   30   14   15 1     
   31   14   37 1     
   32   14   38 1     
   33   15   39 1     
   34   15   40 1     
   35   16   17 2     
   36   18   19 1     
   37   18   41 1     
   38   19   24 ar    
   39   19   20 ar    
   40   20   21 ar    
   41   20   42 1     
   42   21   22 ar    
   43   21   43 1     
   44   22   23 ar    
   45   22   44 1     
   46   23   24 ar    
   47   24   45 1     
   48    1   46 1     
   49    1   47 1     
   50    9   48 1     
   51    9   49 1     
   52   17   50 1     
   53   17   51 1     
   54   23   52 1     
@<TRIPOS>SUBSTRUCTURE
      1 S1             1
@<TRIPOS>SET
LONE_PAIRS      STATIC     ATOMS    <user>   **** ""
7 46 47 48 49 50 51 52
DONOR_HYDROGENS      STATIC     ATOMS    <user>   **** ""
3 25 32 41
ATOM$BLUE        STATIC     ATOMS    COLORGROUP SYSTEM
7 46 47 48 49 50 51 52
ATOM$RED        STATIC     ATOMS    COLORGROUP SYSTEM
3 25 32 41
