AV-unprocessed.smi:772|AV-procd|sdf|3688|dock6
  -GOLD-   22720 1103D 1   1.00000     0.00000
 Structure written by MMmdl.
 47 48  0  0  0  0  0  0  0  0  2 V2000
  143.8216  132.4563  149.6236 C   0  0  0  0  0  0  0  0  0  0  0  0
  144.0906  133.6354  150.5343 C   0  0  0  0  0  0  0  0  0  0  0  0
  143.5176  133.7425  151.8196 C   0  0  0  0  0  0  0  0  0  0  0  0
  143.8091  134.8726  152.6110 C   0  0  0  0  0  0  0  0  0  0  0  0
  144.6656  135.8734  152.1015 C   0  0  0  0  0  0  0  0  0  0  0  0
  144.9753  137.1189  152.9137 C   0  0  0  0  0  0  0  0  0  0  0  0
  145.8267  138.1544  152.1542 C   0  0  0  0  0  0  0  0  0  0  0  0
  146.0016  139.3925  152.9102 N   0  0  0  0  0  0  0  0  0  0  0  0
  147.1223  139.7759  153.5476 C   0  0  0  0  0  0  0  0  0  0  0  0
  148.1450  139.0886  153.5451 O   0  0  0  0  0  0  0  0  0  0  0  0
  147.0398  140.9809  154.1672 N   0  0  0  0  0  0  0  0  0  0  0  0
  145.8030  141.6419  154.6131 C   0  0  0  0  0  0  0  0  0  0  0  0
  145.5961  141.3563  156.1082 C   0  0  0  0  0  0  0  0  0  0  0  0
  146.9549  142.0540  157.0963 S   0  0  0  0  0  0  0  0  0  0  0  0
  148.3931  141.3952  156.1792 C   0  0  2  0  0  0  0  0  0  0  0  0
  149.7403  141.9053  156.7504 C   0  0  0  0  0  0  0  0  0  0  0  0
  150.9440  141.3285  155.9859 C   0  0  0  0  0  0  0  0  0  0  0  0
  149.8991  141.6889  158.2671 C   0  0  0  0  0  0  0  0  0  0  0  0
  148.2344  141.6722  154.6671 C   0  0  0  0  0  0  0  0  0  0  0  0
  145.2137  135.7090  150.8114 C   0  0  0  0  0  0  0  0  0  0  0  0
  144.9097  134.6121  150.0846 N   0  3  0  0  0  0  0  0  0  0  0  0
  143.1092  131.7654  150.0754 H   0  0  0  0  0  0  0  0  0  0  0  0
  144.7449  131.9119  149.4244 H   0  0  0  0  0  0  0  0  0  0  0  0
  143.4096  132.7960  148.6728 H   0  0  0  0  0  0  0  0  0  0  0  0
  142.8595  132.9726  152.1954 H   0  0  0  0  0  0  0  0  0  0  0  0
  143.3698  134.9726  153.5930 H   0  0  0  0  0  0  0  0  0  0  0  0
  144.0407  137.5796  153.2368 H   0  0  0  0  0  0  0  0  0  0  0  0
  145.4941  136.8187  153.8246 H   0  0  0  0  0  0  0  0  0  0  0  0
  146.8153  137.7381  151.9596 H   0  0  0  0  0  0  0  0  0  0  0  0
  145.3889  138.3592  151.1757 H   0  0  0  0  0  0  0  0  0  0  0  0
  145.2038  140.0099  152.9571 H   0  0  0  0  0  0  0  0  0  0  0  0
  145.8753  142.7178  154.4479 H   0  0  0  0  0  0  0  0  0  0  0  0
  144.9234  141.3327  154.0483 H   0  0  0  0  0  0  0  0  0  0  0  0
  144.6566  141.7894  156.4518 H   0  0  0  0  0  0  0  0  0  0  0  0
  145.5386  140.2823  156.2881 H   0  0  0  0  0  0  0  0  0  0  0  0
  148.3743  140.3127  156.3152 H   0  0  0  0  0  0  0  0  0  0  0  0
  149.7647  142.9830  156.5833 H   0  0  0  0  0  0  0  0  0  0  0  0
  151.0330  140.2511  156.1261 H   0  0  0  0  0  0  0  0  0  0  0  0
  151.8758  141.7812  156.3261 H   0  0  0  0  0  0  0  0  0  0  0  0
  150.8604  141.5195  154.9158 H   0  0  0  0  0  0  0  0  0  0  0  0
  149.9057  140.6304  158.5269 H   0  0  0  0  0  0  0  0  0  0  0  0
  149.0980  142.1672  158.8297 H   0  0  0  0  0  0  0  0  0  0  0  0
  150.8372  142.1161  158.6225 H   0  0  0  0  0  0  0  0  0  0  0  0
  149.1321  141.3615  154.1304 H   0  0  0  0  0  0  0  0  0  0  0  0
  148.1435  142.7421  154.4778 H   0  0  0  0  0  0  0  0  0  0  0  0
  145.8713  136.4232  150.3373 H   0  0  0  0  0  0  0  0  0  0  0  0
  145.3136  134.5187  149.1523 H   0  0  0  0  0  0  0  0  0  0  0  0
  1  2  1  0  0  0  0
  1 22  1  0  0  0  0
  1 23  1  0  0  0  0
  1 24  1  0  0  0  0
  2 21  1  0  0  0  0
  2  3  2  0  0  0  0
  3  4  1  0  0  0  0
  3 25  1  0  0  0  0
  4  5  2  0  0  0  0
  4 26  1  0  0  0  0
  5  6  1  0  0  0  0
  5 20  1  0  0  0  0
  6  7  1  0  0  0  0
  6 27  1  0  0  0  0
  6 28  1  0  0  0  0
  7  8  1  0  0  0  0
  7 29  1  0  0  0  0
  7 30  1  0  0  0  0
  8  9  1  0  0  0  0
  8 31  1  0  0  0  0
  9 10  2  0  0  0  0
  9 11  1  0  0  0  0
 11 19  1  0  0  0  0
 11 12  1  0  0  0  0
 12 13  1  0  0  0  0
 12 32  1  0  0  0  0
 12 33  1  0  0  0  0
 13 14  1  0  0  0  0
 13 34  1  0  0  0  0
 13 35  1  0  0  0  0
 14 15  1  0  0  0  0
 15 16  1  0  0  0  0
 15 19  1  0  0  0  0
 15 36  1  0  0  0  0
 16 17  1  0  0  0  0
 16 18  1  0  0  0  0
 16 37  1  0  0  0  0
 17 38  1  0  0  0  0
 17 39  1  0  0  0  0
 17 40  1  0  0  0  0
 18 41  1  0  0  0  0
 18 42  1  0  0  0  0
 18 43  1  0  0  0  0
 19 44  1  0  0  0  0
 19 45  1  0  0  0  0
 20 21  2  0  0  0  0
 20 46  1  0  0  0  0
 21 47  1  0  0  0  0
M  CHG  1  21   1
M  END
> <s_m_source_file>
AV-unprocessed.smi

> <i_m_source_file_index>
772

> <i_lp_mmshare_version>
43012

> <i_f3d_flags>
0

> <s_epik_input>
W0NIM11jMVtjSF1bY0hdYyhbY0hdbjEpW0NIMl1bQ0gyXVtOSF1DKD1PKU4yW0NIMl1bQ0gyXVNbQ0BIXShbQ0gyXTIpW0NIXShbQ0gzXSlbQ0gzXQ==

> <s_epik_cmdline>
J2VwaWtfcHl0aG9uJywgJy1waCcsICc3LjAnLCAnLXRuJywgJzgnLCAnLW1hJywgJzIwMCcsICctbWV0YWxfYmluZGluZycsICctaW1hZScsICc8aW5maWxlLm1hZT4nLCAnLW9tYWUnLCAnPG91dGZpbGUubWFlPic=

> <r_epik_Ionization_Penalty>
1.41908

> <r_epik_Ionization_Penalty_Charging>
1.41903

> <r_epik_Ionization_Penalty_Neutral>
4.72921e-05

> <r_epik_State_Penalty>
1.50265

> <r_epik_Charging_Adjusted_Penalty>
2.92168

> <i_epik_Tot_Q>
1

> <i_epik_Tot_abs_Q>
1

> <r_epik_Metal_State_Penalty>
1.55496

> <b_epik_Metal_Only>
0

> <s_lp_Force_Field>
OPLS_2005

> <r_lp_Energy>
32.4452

> <b_lp_Chiralities_Consistent>
1

> <s_lp_Variant>
AV-unprocessed.smi:772-4

> <Gold.Version>
5.8.1

> <Gold.Id.Protein>
6NUR|6NUR_protein|mol2

> <Gold.PLP.Fitness>
46.1369

> <Gold.PLP.PLP>
-40.6767

> <Gold.PLP.part.hbond>
-2.0000

> <Gold.PLP.part.metal>
0.0000

> <Gold.PLP.part.buried>
-5.4817

> <Gold.PLP.part.nonpolar>
-35.8802

> <Gold.PLP.part.repulsive>
1.6447

> <Gold.PLP.ligand.clash>
0.0000

> <Gold.PLP.ligand.torsion>
0.2866

> <Gold.PLP.Chemscore.Hbond>
1.9840

> <Gold.PLP.Chemscore.CHOScore>
0.0000

> <Gold.PLP.Chemscore.Metal>
0.0000

> <Gold.Chemscore.Hbonds>
donor molecule, donor type, donor heavy atom, donor atom, acceptor molecule, acceptor atom, score
      L1  H     8    31       P1 10175  1.00
      L1  H    21    47       P1  7921  1.00

> <Gold.PLP.Chemscore.Internal.Correction>
0.0814

> <Gold.Rescore>
     Score         DG    S(hbond)    S(metal)    S(lipo)     H(rot)  DE(clash)    DE(int)     intcor
     18.34     -18.72       1.95        0.00      87.95       1.39       0.05       0.33       ----

> <Gold.Chemscore.Fitness>
18.3375

> <Gold.Chemscore.DG>
-18.7181

> <Gold.Chemscore.ZeroCoef>
-5.4800

> <Gold.Chemscore.Hbond>
1.9517

> <Gold.Chemscore.Metal>
0.0000

> <Gold.Chemscore.Lipo>
87.9507

> <Gold.Chemscore.Internal_Hbond>
0.0000

> <Gold.Chemscore.DEClash>
0.0462

> <Gold.Chemscore.DEInternal>
0.3344

> <Gold.Chemscore.Rot>
1.3949

> <Gold.Chemscore.Internal.Correction>
   9.000000E+99

> <Gold.Chemscore.Hbonds>
donor molecule, donor type, donor heavy atom, donor atom, acceptor molecule, acceptor atom, score
      L1  H     8    31       P1 10175  0.96
      L1  H    21    47       P1  7921  0.99

> <Gold.Chemscore.Hbond.Weighted>
-6.5188

> <Gold.Chemscore.Metal.Weighted>
-0.0000

> <Gold.Chemscore.Lipo.Weighted>
-10.2902

> <Gold.Chemscore.Internal_Hbond.Weighted>
0.0000

> <Gold.Chemscore.DEClash.Weighted>
0.0462

> <Gold.Chemscore.DEInternal.Weighted>
0.3344

> <Gold.Chemscore.Rot.Weighted>
3.5709

> <Gold.Chemscore.Internal.Correction.Weighted>
   9.000000E+99

> <Gold.Protein.RotatedTorsions>
[ 6907 6896 6895 6894 ] final  127.75 input  -60.11 | X-H torsion
[ 7974 7965 7964 7962 ] final   15.35 input  175.53 | X-H torsion
[ 8008 7997 7996 7995 ] final  149.50 input   59.86 | X-H torsion
[ 10167 10162 10161 10158 ] final -155.48 input  -65.29 | X-H torsion
[ 10718 10713 10712 10709 ] final  -62.11 input   66.30 | X-H torsion
[ 10763 10752 10751 10750 ] final  130.10 input  -60.55 | X-H torsion
[ 11005 11000 10999 10996 ] final -179.06 input  -57.11 | X-H torsion

> <Gold.Protein.ActiveResidues>
 VAL166  LYS551  ARG553  GLY616  TRP617  ASP618  TYR619  PRO620  LYS621  CYS622 
 ASP623  PHE694  ASN695  SER759  ASP760  ASP761  ALA762  ILE779  LEU786  VAL792 
 PHE793  MET794  SER795  GLU796  ALA797  LYS798  CYS799  TRP800  GLU811  SER814 

> <Gold.Protein.RotatedAtoms>
  152.3784  133.6512  159.6141 H   0  0  0  0  0  0  0  0  0  0  0  0  # atno 6907 bound_to 6896
  150.7721  133.9155  159.3391 H   0  0  0  0  0  0  0  0  0  0  0  0  # atno 6908 bound_to 6896
  151.6965  135.0938  160.0294 H   0  0  0  0  0  0  0  0  0  0  0  0  # atno 6909 bound_to 6896
  146.2281  139.8907  142.8555 H   0  0  0  0  0  0  0  0  0  0  0  0  # atno 7974 bound_to 7965
  156.2752  140.2100  156.5868 H   0  0  0  0  0  0  0  0  0  0  0  0  # atno 8008 bound_to 7997
  154.7014  140.0520  157.0485 H   0  0  0  0  0  0  0  0  0  0  0  0  # atno 8009 bound_to 7997
  155.0730  140.3178  155.4627 H   0  0  0  0  0  0  0  0  0  0  0  0  # atno 8010 bound_to 7997
  139.6928  143.9392  152.2393 H   0  0  0  0  0  0  0  0  0  0  0  0  # atno 10167 bound_to 10162
  156.0877  130.4205  150.1088 H   0  0  0  0  0  0  0  0  0  0  0  0  # atno 10718 bound_to 10713
  153.7525  135.3208  155.3323 H   0  0  0  0  0  0  0  0  0  0  0  0  # atno 10763 bound_to 10752
  154.8258  135.4571  154.0917 H   0  0  0  0  0  0  0  0  0  0  0  0  # atno 10764 bound_to 10752
  153.2124  135.6937  153.8180 H   0  0  0  0  0  0  0  0  0  0  0  0  # atno 10765 bound_to 10752
  140.4228  134.6590  157.4673 H   0  0  0  0  0  0  0  0  0  0  0  0  # atno 11005 bound_to 11000
  145.2420  141.0013  143.3930 LP  0  0  0  0  0  0  0  0  0  0  0  0  # atno 17320 bound_to 7965
  144.9444  139.4152  143.6433 LP  0  0  0  0  0  0  0  0  0  0  0  0  # atno 17321 bound_to 7965
  139.9213  144.6798  150.8458 LP  0  0  0  0  0  0  0  0  0  0  0  0  # atno 17342 bound_to 10162
  140.7687  143.3373  151.2282 LP  0  0  0  0  0  0  0  0  0  0  0  0  # atno 17343 bound_to 10162
  156.9106  130.9650  151.3563 LP  0  0  0  0  0  0  0  0  0  0  0  0  # atno 17370 bound_to 10713
  157.6016  130.8517  149.8811 LP  0  0  0  0  0  0  0  0  0  0  0  0  # atno 17371 bound_to 10713
  140.0188  134.6579  155.9270 LP  0  0  0  0  0  0  0  0  0  0  0  0  # atno 17394 bound_to 11000
  141.1777  133.6542  156.4894 LP  0  0  0  0  0  0  0  0  0  0  0  0  # atno 17395 bound_to 11000

$$$$
