AV-unprocessed.smi:269|AV-procd|sdf|2042|dock3
  -GOLD-   2262021263D 1   1.00000     0.00000
 Structure written by MMmdl.
 62 65  0  0  0  0  0  0  0  0  2 V2000
  146.5772  128.2747  152.4371 C   0  0  0  0  0  0  0  0  0  0  0  0
  145.9793  129.6703  152.2152 C   0  0  0  0  0  0  0  0  0  0  0  0
  145.9266  130.4373  153.4546 N   0  0  0  0  0  0  0  0  0  0  0  0
  146.7138  131.4836  153.7471 C   0  0  0  0  0  0  0  0  0  0  0  0
  147.5686  131.9237  152.9774 O   0  0  0  0  0  0  0  0  0  0  0  0
  146.4893  132.1404  155.1132 C   0  0  0  0  0  0  0  0  0  0  0  0
  145.4064  133.1571  155.0975 N   0  3  0  0  0  0  0  0  0  0  0  0
  145.4949  134.0909  153.9424 C   0  0  0  0  0  0  0  0  0  0  0  0
  144.3036  135.0643  153.9259 C   0  0  0  0  0  0  0  0  0  0  0  0
  144.1968  135.7718  155.1992 N   0  0  0  0  0  0  0  0  0  0  0  0
  144.8767  136.9462  155.2954 C   0  0  0  0  0  0  0  0  0  0  0  0
  144.3093  138.0950  154.8399 N   0  0  0  0  0  0  0  0  0  0  0  0
  144.9578  139.2584  154.9415 C   0  0  0  0  0  0  0  0  0  0  0  0
  146.1659  139.4963  155.4531 N   0  0  0  0  0  0  0  0  0  0  0  0
  146.7522  138.3487  155.8975 C   0  0  0  0  0  0  0  0  0  0  0  0
  146.1813  137.0443  155.8602 C   0  0  0  0  0  0  0  0  0  0  0  0
  147.0733  136.1264  156.4011 N   0  0  0  0  0  0  0  0  0  0  0  0
  148.1020  136.8474  156.7526 C   0  0  0  0  0  0  0  0  0  0  0  0
  148.0035  138.1920  156.4707 N   0  0  0  0  0  0  0  0  0  0  0  0
  148.9973  139.2193  156.7562 C   0  0  0  0  0  0  0  0  0  0  0  0
  149.6709  139.8590  155.4998 C   0  0  0  0  0  0  0  0  0  0  0  0
  148.6052  140.4124  154.5165 C   0  0  0  0  0  0  0  0  0  0  0  0
  149.1847  140.9371  153.3384 O   0  0  0  0  0  0  0  0  0  0  0  0
  150.6091  141.0308  155.8849 C   0  0  0  0  0  0  0  0  0  0  0  0
  151.8887  140.5615  156.6017 C   0  0  0  0  0  0  0  0  0  0  0  0
  152.5846  139.6281  155.7863 O   0  0  0  0  0  0  0  0  0  0  0  0
  151.8283  138.4516  155.5317 C   0  0  0  0  0  0  0  0  0  0  0  0
  150.5414  138.8082  154.7653 C   0  0  0  0  0  0  0  0  0  0  0  0
  144.1229  134.8888  156.3636 C   0  0  0  0  0  0  0  0  0  0  0  0
  145.2924  133.8840  156.3880 C   0  0  0  0  0  0  0  0  0  0  0  0
  146.6366  127.7265  151.4966 H   0  0  0  0  0  0  0  0  0  0  0  0
  145.9689  127.6854  153.1240 H   0  0  0  0  0  0  0  0  0  0  0  0
  147.5850  128.3376  152.8490 H   0  0  0  0  0  0  0  0  0  0  0  0
  146.5900  130.2218  151.4998 H   0  0  0  0  0  0  0  0  0  0  0  0
  144.9833  129.5913  151.7764 H   0  0  0  0  0  0  0  0  0  0  0  0
  145.2450  130.1456  154.1406 H   0  0  0  0  0  0  0  0  0  0  0  0
  146.2284  131.3396  155.8065 H   0  0  0  0  0  0  0  0  0  0  0  0
  147.4143  132.5868  155.4829 H   0  0  0  0  0  0  0  0  0  0  0  0
  146.4308  134.6493  153.9986 H   0  0  0  0  0  0  0  0  0  0  0  0
  145.5153  133.5347  153.0050 H   0  0  0  0  0  0  0  0  0  0  0  0
  144.4036  135.7459  153.0827 H   0  0  0  0  0  0  0  0  0  0  0  0
  143.3771  134.5127  153.7618 H   0  0  0  0  0  0  0  0  0  0  0  0
  144.4341  140.1222  154.5589 H   0  0  0  0  0  0  0  0  0  0  0  0
  148.9702  136.4109  157.2244 H   0  0  0  0  0  0  0  0  0  0  0  0
  148.5178  139.9783  157.3728 H   0  0  0  0  0  0  0  0  0  0  0  0
  149.7571  138.7721  157.3982 H   0  0  0  0  0  0  0  0  0  0  0  0
  147.8831  139.6433  154.2429 H   0  0  0  0  0  0  0  0  0  0  0  0
  148.0293  141.2113  154.9855 H   0  0  0  0  0  0  0  0  0  0  0  0
  149.2359  140.2476  152.6946 H   0  0  0  0  0  0  0  0  0  0  0  0
  150.9130  141.5622  154.9819 H   0  0  0  0  0  0  0  0  0  0  0  0
  150.0862  141.7684  156.4929 H   0  0  0  0  0  0  0  0  0  0  0  0
  152.5417  141.4140  156.7882 H   0  0  0  0  0  0  0  0  0  0  0  0
  151.6705  140.1186  157.5732 H   0  0  0  0  0  0  0  0  0  0  0  0
  152.4365  137.7717  154.9348 H   0  0  0  0  0  0  0  0  0  0  0  0
  151.6099  137.9333  156.4658 H   0  0  0  0  0  0  0  0  0  0  0  0
  149.9672  137.9008  154.5744 H   0  0  0  0  0  0  0  0  0  0  0  0
  150.8288  139.1932  153.7858 H   0  0  0  0  0  0  0  0  0  0  0  0
  144.0856  135.4619  157.2909 H   0  0  0  0  0  0  0  0  0  0  0  0
  143.1792  134.3448  156.3105 H   0  0  0  0  0  0  0  0  0  0  0  0
  145.1399  133.1728  157.2006 H   0  0  0  0  0  0  0  0  0  0  0  0
  146.2318  134.3993  156.5927 H   0  0  0  0  0  0  0  0  0  0  0  0
  144.5427  132.6445  154.9880 H   0  0  0  0  0  0  0  0  0  0  0  0
  1  2  1  0  0  0  0
  1 31  1  0  0  0  0
  1 32  1  0  0  0  0
  1 33  1  0  0  0  0
  2  3  1  0  0  0  0
  2 34  1  0  0  0  0
  2 35  1  0  0  0  0
  3  4  1  0  0  0  0
  3 36  1  0  0  0  0
  4  5  2  0  0  0  0
  4  6  1  0  0  0  0
  6  7  1  0  0  0  0
  6 37  1  0  0  0  0
  6 38  1  0  0  0  0
  7 30  1  0  0  0  0
  7  8  1  0  0  0  0
  7 62  1  0  0  0  0
  8  9  1  0  0  0  0
  8 39  1  0  0  0  0
  8 40  1  0  0  0  0
  9 10  1  0  0  0  0
  9 41  1  0  0  0  0
  9 42  1  0  0  0  0
 10 11  1  0  0  0  0
 10 29  1  0  0  0  0
 11 16  1  0  0  0  0
 11 12  2  0  0  0  0
 12 13  1  0  0  0  0
 13 14  2  0  0  0  0
 13 43  1  0  0  0  0
 14 15  1  0  0  0  0
 15 19  1  0  0  0  0
 15 16  2  0  0  0  0
 16 17  1  0  0  0  0
 17 18  2  0  0  0  0
 18 19  1  0  0  0  0
 18 44  1  0  0  0  0
 19 20  1  0  0  0  0
 20 21  1  0  0  0  0
 20 45  1  0  0  0  0
 20 46  1  0  0  0  0
 21 28  1  0  0  0  0
 21 22  1  0  0  0  0
 21 24  1  0  0  0  0
 22 23  1  0  0  0  0
 22 47  1  0  0  0  0
 22 48  1  0  0  0  0
 23 49  1  0  0  0  0
 24 25  1  0  0  0  0
 24 50  1  0  0  0  0
 24 51  1  0  0  0  0
 25 26  1  0  0  0  0
 25 52  1  0  0  0  0
 25 53  1  0  0  0  0
 26 27  1  0  0  0  0
 27 28  1  0  0  0  0
 27 54  1  0  0  0  0
 27 55  1  0  0  0  0
 28 56  1  0  0  0  0
 28 57  1  0  0  0  0
 29 30  1  0  0  0  0
 29 58  1  0  0  0  0
 29 59  1  0  0  0  0
 30 60  1  0  0  0  0
 30 61  1  0  0  0  0
M  CHG  1   7   1
M  END
> <s_m_source_file>
AV-unprocessed.smi

> <i_m_source_file_index>
269

> <i_lp_mmshare_version>
43012

> <i_f3d_flags>
0

> <s_epik_input>
W0NIM11bQ0gyXVtOSF1DKD1PKVtDSDJdTjFbQ0gyXVtDSDJdTihbQ0gyXVtDSDJdMSljKG5bY0hdbjIpYyhjMjMpbltjSF1uM1tDSDJdQzQoW0NIMl1bT0hdKVtDSDJdW0NIMl1PW0NIMl1bQ0gyXTQ=

> <s_epik_cmdline>
J2VwaWtfcHl0aG9uJywgJy1waCcsICc3LjAnLCAnLXRuJywgJzgnLCAnLW1hJywgJzIwMCcsICctbWV0YWxfYmluZGluZycsICctaW1hZScsICc8aW5maWxlLm1hZT4nLCAnLW9tYWUnLCAnPG91dGZpbGUubWFlPic=

> <r_lp_tautomer_probability>
1

> <r_epik_Ionization_Penalty>
0.146524

> <r_epik_Ionization_Penalty_Charging>
0.146459

> <r_epik_Ionization_Penalty_Neutral>
6.45448e-05

> <r_epik_State_Penalty>
0.136576

> <r_epik_Charging_Adjusted_Penalty>
0.283035

> <i_epik_Tot_Q>
1

> <i_epik_Tot_abs_Q>
1

> <r_epik_Metal_State_Penalty>
0.148847

> <b_epik_Metal_Only>
0

> <s_lp_Force_Field>
OPLS_2005

> <r_lp_Energy>
42.6281

> <b_lp_Chiralities_Consistent>
1

> <s_lp_Variant>
AV-unprocessed.smi:269-1

> <Gold.Version>
5.8.1

> <Gold.Id.Protein>
6NUR|6NUR_protein|mol2

> <Gold.PLP.Fitness>
47.3348

> <Gold.PLP.PLP>
-29.2254

> <Gold.PLP.part.hbond>
-5.2925

> <Gold.PLP.part.metal>
0.0000

> <Gold.PLP.part.buried>
-5.9254

> <Gold.PLP.part.nonpolar>
-19.7289

> <Gold.PLP.part.repulsive>
0.2914

> <Gold.PLP.ligand.clash>
0.0000

> <Gold.PLP.ligand.torsion>
1.0646

> <Gold.PLP.Chemscore.Hbond>
5.5478

> <Gold.PLP.Chemscore.CHOScore>
0.9641

> <Gold.PLP.Chemscore.Metal>
0.0000

> <Gold.Chemscore.Hbonds>
donor molecule, donor type, donor heavy atom, donor atom, acceptor molecule, acceptor atom, score
      L1  H     3    36       P1 10956  0.71
      L1  H     7    62       P1 10957  1.82
      L1  H    23    49       P1  7957  0.78
      P1  H  7997  8009       L1    26  1.00
      P1  H  8011  8017       L1    23  1.00
      L1  C    13    43       P1 10175  0.98

> <Gold.PLP.Chemscore.Internal.Correction>
0.7031

> <Gold.Rescore>
     Score         DG    S(hbond)    S(metal)    S(lipo)     H(rot)  DE(clash)    DE(int)     intcor
      9.94     -13.76       2.73        0.00      66.65       3.37       0.10       3.72       ----

> <Gold.Chemscore.Fitness>
9.9351

> <Gold.Chemscore.DG>
-13.7602

> <Gold.Chemscore.ZeroCoef>
-5.4800

> <Gold.Chemscore.Hbond>
2.7304

> <Gold.Chemscore.Metal>
0.0000

> <Gold.Chemscore.Lipo>
66.6463

> <Gold.Chemscore.Internal_Hbond>
0.0000

> <Gold.Chemscore.DEClash>
0.1027

> <Gold.Chemscore.DEInternal>
3.7223

> <Gold.Chemscore.Rot>
3.3738

> <Gold.Chemscore.Internal.Correction>
   9.000000E+99

> <Gold.Chemscore.Hbonds>
donor molecule, donor type, donor heavy atom, donor atom, acceptor molecule, acceptor atom, score
      L1  H     3    36       P1 10956  0.18
      L1  H     7    62       P1 10957  0.85
      L1  H    23    49       P1  7957  0.78
      P1  H  7997  8009       L1    26  0.39
      P1  H  8011  8017       L1    23  0.30

> <Gold.Chemscore.Hbond.Weighted>
-9.1194

> <Gold.Chemscore.Metal.Weighted>
-0.0000

> <Gold.Chemscore.Lipo.Weighted>
-7.7976

> <Gold.Chemscore.Internal_Hbond.Weighted>
0.0000

> <Gold.Chemscore.DEClash.Weighted>
0.1027

> <Gold.Chemscore.DEInternal.Weighted>
3.7223

> <Gold.Chemscore.Rot.Weighted>
8.6369

> <Gold.Chemscore.Internal.Correction.Weighted>
   9.000000E+99

> <Gold.Protein.RotatedTorsions>
[ 6907 6896 6895 6894 ] final -135.95 input  -60.11 | X-H torsion
[ 7974 7965 7964 7962 ] final  -34.38 input  175.53 | X-H torsion
[ 8008 7997 7996 7995 ] final -137.68 input   59.86 | X-H torsion
[ 10167 10162 10161 10158 ] final   58.41 input  -65.29 | X-H torsion
[ 10718 10713 10712 10709 ] final  -16.46 input   66.30 | X-H torsion
[ 10763 10752 10751 10750 ] final  -88.92 input  -60.55 | X-H torsion
[ 11005 11000 10999 10996 ] final  130.46 input  -57.11 | X-H torsion

> <Gold.Protein.ActiveResidues>
 VAL166  LYS551  ARG553  GLY616  TRP617  ASP618  TYR619  PRO620  LYS621  CYS622 
 ASP623  PHE694  ASN695  SER759  ASP760  ASP761  ALA762  ILE779  LEU786  VAL792 
 PHE793  MET794  SER795  GLU796  ALA797  LYS798  CYS799  TRP800  GLU811  SER814 

> <Gold.Protein.RotatedAtoms>
  151.0042  133.6027  159.2690 H   0  0  0  0  0  0  0  0  0  0  0  0  # atno 6907 bound_to 6896
  151.3203  135.0816  159.9313 H   0  0  0  0  0  0  0  0  0  0  0  0  # atno 6908 bound_to 6896
  152.5282  133.9690  159.7807 H   0  0  0  0  0  0  0  0  0  0  0  0  # atno 6909 bound_to 6896
  146.0834  140.6032  142.8898 H   0  0  0  0  0  0  0  0  0  0  0  0  # atno 7974 bound_to 7965
  155.4158  140.0515  157.3029 H   0  0  0  0  0  0  0  0  0  0  0  0  # atno 8008 bound_to 7997
  154.4925  140.2125  155.9477 H   0  0  0  0  0  0  0  0  0  0  0  0  # atno 8009 bound_to 7997
  156.1361  140.3163  155.8428 H   0  0  0  0  0  0  0  0  0  0  0  0  # atno 8010 bound_to 7997
  140.1875  144.4119  150.6586 H   0  0  0  0  0  0  0  0  0  0  0  0  # atno 10167 bound_to 10162
  156.5872  130.4789  149.6294 H   0  0  0  0  0  0  0  0  0  0  0  0  # atno 10718 bound_to 10713
  154.6497  135.5359  153.7887 H   0  0  0  0  0  0  0  0  0  0  0  0  # atno 10763 bound_to 10752
  153.0379  135.6479  154.1035 H   0  0  0  0  0  0  0  0  0  0  0  0  # atno 10764 bound_to 10752
  154.0953  135.2937  155.3243 H   0  0  0  0  0  0  0  0  0  0  0  0  # atno 10765 bound_to 10752
  139.9673  134.9587  156.9297 H   0  0  0  0  0  0  0  0  0  0  0  0  # atno 11005 bound_to 11000
  144.7309  140.4667  143.6939 LP  0  0  0  0  0  0  0  0  0  0  0  0  # atno 17320 bound_to 7965
  145.6176  139.1520  143.3041 LP  0  0  0  0  0  0  0  0  0  0  0  0  # atno 17321 bound_to 7965
  140.6478  143.2217  151.6146 LP  0  0  0  0  0  0  0  0  0  0  0  0  # atno 17342 bound_to 10162
  139.5270  144.3030  152.1057 LP  0  0  0  0  0  0  0  0  0  0  0  0  # atno 17343 bound_to 10162
  156.2580  130.6946  151.1705 LP  0  0  0  0  0  0  0  0  0  0  0  0  # atno 17370 bound_to 10713
  157.7312  131.0610  150.5688 LP  0  0  0  0  0  0  0  0  0  0  0  0  # atno 17371 bound_to 10713
  140.5368  134.0759  155.7330 LP  0  0  0  0  0  0  0  0  0  0  0  0  # atno 17394 bound_to 11000
  141.1353  133.9232  157.2447 LP  0  0  0  0  0  0  0  0  0  0  0  0  # atno 17395 bound_to 11000

$$$$
