AV-unprocessed.smi:1809|AV-procd|sdf|7313|dock1
  -GOLD-   22720 8573D 1   1.00000     0.00000
 Structure written by MMmdl.
 40 42  0  0  0  0  0  0  0  0  2 V2000
  151.3079  141.2587  155.8358 C   0  0  0  0  0  0  0  0  0  0  0  0
  151.0499  139.8027  155.6494 C   0  0  0  0  0  0  0  0  0  0  0  0
  151.5424  138.8700  156.4736 N   0  0  0  0  0  0  0  0  0  0  0  0
  151.1669  137.5870  156.1007 N   0  0  0  0  0  0  0  0  0  0  0  0
  150.3988  137.5902  155.0026 C   0  0  0  0  0  0  0  0  0  0  0  0
  149.8696  136.4147  154.4068 N   0  0  0  0  0  0  0  0  0  0  0  0
  149.7243  135.1965  154.9566 C   0  0  0  0  0  0  0  0  0  0  0  0
  150.0636  134.8848  156.0985 O   0  0  0  0  0  0  0  0  0  0  0  0
  149.1488  134.3407  154.0996 N   0  0  0  0  0  0  0  0  0  0  0  0
  148.8706  132.9332  154.3722 C   0  0  0  0  0  0  0  0  0  0  0  0
  148.2301  132.2107  153.1714 C   0  0  2  0  0  0  0  0  0  0  0  0
  147.5914  133.1648  152.1436 C   0  0  0  0  0  0  0  0  0  0  0  0
  146.9089  132.4246  151.0525 N   0  3  2  0  0  0  0  0  0  0  0  0
  146.0380  133.3036  150.2414 C   0  0  0  0  0  0  0  0  0  0  0  0
  144.6122  133.1471  150.8011 C   0  0  0  0  0  0  0  0  0  0  0  0
  144.6995  132.0386  151.8573 C   0  0  0  0  0  0  0  0  0  0  0  0
  146.0261  131.3457  151.5450 C   0  0  2  0  0  0  0  0  0  0  0  0
  146.6494  130.5271  152.6924 C   0  0  0  0  0  0  0  0  0  0  0  0
  147.1999  131.3775  153.6873 O   0  0  0  0  0  0  0  0  0  0  0  0
  150.0650  139.1777  154.3319 S   0  0  0  0  0  0  0  0  0  0  0  0
  152.2923  141.4172  156.2771 H   0  0  0  0  0  0  0  0  0  0  0  0
  150.5536  141.6883  156.4951 H   0  0  0  0  0  0  0  0  0  0  0  0
  151.2699  141.7745  154.8762 H   0  0  0  0  0  0  0  0  0  0  0  0
  149.5619  136.5163  153.4509 H   0  0  0  0  0  0  0  0  0  0  0  0
  148.9030  134.6813  153.1813 H   0  0  0  0  0  0  0  0  0  0  0  0
  149.8222  132.4575  154.6116 H   0  0  0  0  0  0  0  0  0  0  0  0
  148.2478  132.8230  155.2617 H   0  0  0  0  0  0  0  0  0  0  0  0
  148.9898  131.5934  152.6878 H   0  0  0  0  0  0  0  0  0  0  0  0
  146.8788  133.8167  152.6522 H   0  0  0  0  0  0  0  0  0  0  0  0
  148.3459  133.8104  151.6941 H   0  0  0  0  0  0  0  0  0  0  0  0
  146.3758  134.3412  150.2374 H   0  0  0  0  0  0  0  0  0  0  0  0
  146.0654  132.9520  149.2093 H   0  0  0  0  0  0  0  0  0  0  0  0
  144.2506  134.0762  151.2432 H   0  0  0  0  0  0  0  0  0  0  0  0
  143.9215  132.8724  150.0030 H   0  0  0  0  0  0  0  0  0  0  0  0
  144.7292  132.4799  152.8548 H   0  0  0  0  0  0  0  0  0  0  0  0
  143.8507  131.3547  151.8220 H   0  0  0  0  0  0  0  0  0  0  0  0
  145.8493  130.6702  150.7059 H   0  0  0  0  0  0  0  0  0  0  0  0
  145.8979  129.8819  153.1480 H   0  0  0  0  0  0  0  0  0  0  0  0
  147.4308  129.8700  152.3074 H   0  0  0  0  0  0  0  0  0  0  0  0
  147.6249  132.0207  150.4656 H   0  0  0  0  0  0  0  0  0  0  0  0
  1  2  1  0  0  0  0
  1 21  1  0  0  0  0
  1 22  1  0  0  0  0
  1 23  1  0  0  0  0
  2 20  1  0  0  0  0
  2  3  2  0  0  0  0
  3  4  1  0  0  0  0
  4  5  2  0  0  0  0
  5  6  1  0  0  0  0
  5 20  1  0  0  0  0
  6  7  1  0  0  0  0
  6 24  1  0  0  0  0
  7  8  2  0  0  0  0
  7  9  1  0  0  0  0
  9 10  1  0  0  0  0
  9 25  1  0  0  0  0
 10 11  1  0  0  0  0
 10 26  1  0  0  0  0
 10 27  1  0  0  0  0
 11 19  1  0  0  0  0
 11 12  1  0  0  0  0
 11 28  1  0  0  0  0
 12 13  1  0  0  0  0
 12 29  1  0  0  0  0
 12 30  1  0  0  0  0
 13 17  1  0  0  0  0
 13 14  1  0  0  0  0
 13 40  1  0  0  0  0
 14 15  1  0  0  0  0
 14 31  1  0  0  0  0
 14 32  1  0  0  0  0
 15 16  1  0  0  0  0
 15 33  1  0  0  0  0
 15 34  1  0  0  0  0
 16 17  1  0  0  0  0
 16 35  1  0  0  0  0
 16 36  1  0  0  0  0
 17 18  1  0  0  0  0
 17 37  1  0  0  0  0
 18 19  1  0  0  0  0
 18 38  1  0  0  0  0
 18 39  1  0  0  0  0
M  CHG  1  13   1
M  END
> <s_m_source_file>
AV-unprocessed.smi

> <i_m_source_file_index>
1809

> <i_lp_mmshare_version>
43012

> <i_f3d_flags>
0

> <s_epik_input>
W0NIM11jMW5uYyhzMSlbTkhdQyg9TylbTkhdW0NIMl1bQ0BIXShbQ0gyXTIpT1tDSDJdW0NAQEhdKE4yMylbQ0gyXVtDSDJdW0NIMl0z

> <s_epik_cmdline>
J2VwaWtfcHl0aG9uJywgJy1waCcsICc3LjAnLCAnLXRuJywgJzgnLCAnLW1hJywgJzIwMCcsICctbWV0YWxfYmluZGluZycsICctaW1hZScsICc8aW5maWxlLm1hZT4nLCAnLW9tYWUnLCAnPG91dGZpbGUubWFlPic=

> <r_lp_tautomer_probability>
1

> <r_epik_Ionization_Penalty>
0.112474

> <r_epik_Ionization_Penalty_Charging>
0.108916

> <r_epik_Ionization_Penalty_Neutral>
0.00355844

> <r_epik_State_Penalty>
0.0565397

> <r_epik_Charging_Adjusted_Penalty>
0.165456

> <i_epik_Tot_Q>
1

> <i_epik_Tot_abs_Q>
1

> <r_epik_Metal_State_Penalty>
0.422831

> <b_epik_Metal_Only>
0

> <s_lp_Force_Field>
OPLS_2005

> <r_lp_Energy>
35.4297

> <b_lp_Chiralities_Consistent>
1

> <s_lp_Variant>
AV-unprocessed.smi:1809-5

> <Gold.Version>
5.8.1

> <Gold.Id.Protein>
6NUR|6NUR_protein|mol2

> <Gold.PLP.Fitness>
40.0702

> <Gold.PLP.PLP>
-32.5108

> <Gold.PLP.part.hbond>
-3.0000

> <Gold.PLP.part.metal>
0.0000

> <Gold.PLP.part.buried>
-3.2004

> <Gold.PLP.part.nonpolar>
-26.1026

> <Gold.PLP.part.repulsive>
0.2152

> <Gold.PLP.ligand.clash>
0.0000

> <Gold.PLP.ligand.torsion>
0.6633

> <Gold.PLP.Chemscore.Hbond>
2.9600

> <Gold.PLP.Chemscore.CHOScore>
0.0000

> <Gold.PLP.Chemscore.Metal>
0.0000

> <Gold.Chemscore.Hbonds>
donor molecule, donor type, donor heavy atom, donor atom, acceptor molecule, acceptor atom, score
      L1  H     6    24       P1  7948  1.00
      L1  H     9    25       P1  7948  0.77
      L1  H    13    40       P1 10747  0.99

> <Gold.PLP.Chemscore.Internal.Correction>
0.0061

> <Gold.Rescore>
     Score         DG    S(hbond)    S(metal)    S(lipo)     H(rot)  DE(clash)    DE(int)     intcor
     16.57     -18.58       2.21        0.00      78.34       1.34       0.11       1.90       ----

> <Gold.Chemscore.Fitness>
16.5748

> <Gold.Chemscore.DG>
-18.5834

> <Gold.Chemscore.ZeroCoef>
-5.4800

> <Gold.Chemscore.Hbond>
2.2053

> <Gold.Chemscore.Metal>
0.0000

> <Gold.Chemscore.Lipo>
78.3385

> <Gold.Chemscore.Internal_Hbond>
0.0000

> <Gold.Chemscore.DEClash>
0.1094

> <Gold.Chemscore.DEInternal>
1.8992

> <Gold.Chemscore.Rot>
1.3391

> <Gold.Chemscore.Internal.Correction>
   9.000000E+99

> <Gold.Chemscore.Hbonds>
donor molecule, donor type, donor heavy atom, donor atom, acceptor molecule, acceptor atom, score
      L1  H     6    24       P1  7948  0.60
      L1  H     9    25       P1  7948  0.11
      L1  H    13    40       P1 10747  0.94

> <Gold.Chemscore.Hbond.Weighted>
-7.3659

> <Gold.Chemscore.Metal.Weighted>
-0.0000

> <Gold.Chemscore.Lipo.Weighted>
-9.1656

> <Gold.Chemscore.Internal_Hbond.Weighted>
0.0000

> <Gold.Chemscore.DEClash.Weighted>
0.1094

> <Gold.Chemscore.DEInternal.Weighted>
1.8992

> <Gold.Chemscore.Rot.Weighted>
3.4281

> <Gold.Chemscore.Internal.Correction.Weighted>
   9.000000E+99

> <Gold.Protein.RotatedTorsions>
[ 6907 6896 6895 6894 ] final  -55.42 input  -60.11 | X-H torsion
[ 7974 7965 7964 7962 ] final -166.70 input  175.53 | X-H torsion
[ 8008 7997 7996 7995 ] final  -14.48 input   59.86 | X-H torsion
[ 10167 10162 10161 10158 ] final   73.48 input  -65.29 | X-H torsion
[ 10718 10713 10712 10709 ] final -148.84 input   66.30 | X-H torsion
[ 10763 10752 10751 10750 ] final   25.51 input  -60.55 | X-H torsion
[ 11005 11000 10999 10996 ] final  146.70 input  -57.11 | X-H torsion

> <Gold.Protein.ActiveResidues>
 VAL166  LYS551  ARG553  GLY616  TRP617  ASP618  TYR619  PRO620  LYS621  CYS622 
 ASP623  PHE694  ASN695  SER759  ASP760  ASP761  ALA762  ILE779  LEU786  VAL792 
 PHE793  MET794  SER795  GLU796  ALA797  LYS798  CYS799  TRP800  GLU811  SER814 

> <Gold.Protein.RotatedAtoms>
  150.8253  134.7482  159.6807 H   0  0  0  0  0  0  0  0  0  0  0  0  # atno 6907 bound_to 6896
  152.4365  134.5673  159.9921 H   0  0  0  0  0  0  0  0  0  0  0  0  # atno 6908 bound_to 6896
  151.5847  133.3336  159.3051 H   0  0  0  0  0  0  0  0  0  0  0  0  # atno 6909 bound_to 6896
  144.7239  140.2627  143.6262 H   0  0  0  0  0  0  0  0  0  0  0  0  # atno 7974 bound_to 7965
  154.5206  140.2222  155.8982 H   0  0  0  0  0  0  0  0  0  0  0  0  # atno 8008 bound_to 7997
  156.1658  140.3132  155.8851 H   0  0  0  0  0  0  0  0  0  0  0  0  # atno 8009 bound_to 7997
  155.3660  140.0464  157.3036 H   0  0  0  0  0  0  0  0  0  0  0  0  # atno 8010 bound_to 7997
  140.0240  144.5518  150.7559 H   0  0  0  0  0  0  0  0  0  0  0  0  # atno 10167 bound_to 10162
  156.4254  130.8049  151.2274 H   0  0  0  0  0  0  0  0  0  0  0  0  # atno 10718 bound_to 10713
  153.0686  135.6581  154.0297 H   0  0  0  0  0  0  0  0  0  0  0  0  # atno 10763 bound_to 10752
  153.9948  135.2942  155.3410 H   0  0  0  0  0  0  0  0  0  0  0  0  # atno 10764 bound_to 10752
  154.7053  135.5227  153.8656 H   0  0  0  0  0  0  0  0  0  0  0  0  # atno 10765 bound_to 10752
  140.0815  134.9094  157.1508 H   0  0  0  0  0  0  0  0  0  0  0  0  # atno 11005 bound_to 11000
  145.8120  139.2007  143.1987 LP  0  0  0  0  0  0  0  0  0  0  0  0  # atno 17320 bound_to 7965
  146.0588  140.7993  142.9745 LP  0  0  0  0  0  0  0  0  0  0  0  0  # atno 17321 bound_to 7965
  140.7330  143.2712  151.3881 LP  0  0  0  0  0  0  0  0  0  0  0  0  # atno 17342 bound_to 10162
  139.6120  144.1078  152.2309 LP  0  0  0  0  0  0  0  0  0  0  0  0  # atno 17343 bound_to 10162
  157.7508  131.0215  150.3752 LP  0  0  0  0  0  0  0  0  0  0  0  0  # atno 17370 bound_to 10713
  156.4079  130.3928  149.6913 LP  0  0  0  0  0  0  0  0  0  0  0  0  # atno 17371 bound_to 10713
  140.3481  134.2629  155.7202 LP  0  0  0  0  0  0  0  0  0  0  0  0  # atno 17394 bound_to 11000
  141.2048  133.7876  157.0266 LP  0  0  0  0  0  0  0  0  0  0  0  0  # atno 17395 bound_to 11000

$$$$
