#       Name:                AV-unprocessed.smi:1295
#       Creating user name   scv26
#       Creation time:       Fri Mar 27 04:57:02 2020


#       File generated by GOLD software.
#

@<TRIPOS>MOLECULE
AV-unprocessed.smi:1295
    48    49     1
SMALL
NO_CHARGES


@<TRIPOS>ATOM
      1 ****        -4.3338  -0.3026  -2.3963 C.3            1 S1                 0.0000
      2 ****        -2.8223  -0.2242  -2.3795 C.2            1 S1                 0.0000
      3 ****        -2.2527   0.9043  -2.5703 N.2            1 S1                 0.0000
      4 ****        -0.8499   0.9821  -2.5572 C.2            1 S1                 0.0000
      5 ****        -0.2594   2.3647  -2.7702 C.3            1 S1                 0.0000
      6 ****        -0.0836  -0.1272  -2.3526 C.2            1 S1                 0.0000
      7 ****         1.4458  -0.0919  -2.3083 C.3            1 S1                 0.0000
      8 ****         2.0630   0.3462  -0.9776 C.2            1 S1                 0.0000
      9 ****         3.1064   0.9987  -0.9668 O.2            1 S1                 0.0000
     10 ****         1.4042  -0.0194   0.1320 N.am           1 S1                 0.0000
     11 ****         1.7445   0.3359   1.5071 C.3            1 S1                 0.0000
     12 ****         2.5350  -0.8068   2.1769 C.3            1 S1                 0.0000
     13 ****         1.6606  -2.0487   2.4235 C.3            1 S1                 0.0000
     14 ****         0.4048  -1.6927   3.2328 C.3            1 S1                 0.0000
     15 ****        -0.3994  -0.5715   2.5553 C.3            1 S1                 0.0000
     16 ****         0.4670   0.6824   2.3119 C.3            1 S1                 0.0000
     17 ****        -0.3519   1.8159   1.6684 C.3            1 S1                 0.0000
     18 ****        -0.7793  -1.4074  -2.1296 C.2            1 S1                 0.0000
     19 ****        -0.1357  -2.4334  -1.9127 O.2            1 S1                 0.0000
     20 ****        -2.1422  -1.4003  -2.1567 N.pl3          1 S1                -1.0000
     21 ****        -4.7786   0.6928  -2.4316 H              1 S1                 0.0000
     22 ****        -4.6992  -0.8068  -1.5010 H              1 S1                 0.0000
     23 ****        -4.6720  -0.8600  -3.2703 H              1 S1                 0.0000
     24 ****         0.3381   2.3890  -3.6817 H              1 S1                 0.0000
     25 ****         0.3760   2.6435  -1.9294 H              1 S1                 0.0000
     26 ****        -1.0418   3.1188  -2.8614 H              1 S1                 0.0000
     27 ****         1.8630  -1.0625  -2.5781 H              1 S1                 0.0000
     28 ****         1.7989   0.5861  -3.0856 H              1 S1                 0.0000
     29 ****         0.5632  -0.5656   0.0088 H              1 S1                 0.0000
     30 ****         2.3792   1.2237   1.4949 H              1 S1                 0.0000
     31 ****         3.4006  -1.0741   1.5696 H              1 S1                 0.0000
     32 ****         2.9318  -0.4561   3.1302 H              1 S1                 0.0000
     33 ****         1.3684  -2.4905   1.4700 H              1 S1                 0.0000
     34 ****         2.2377  -2.8093   2.9499 H              1 S1                 0.0000
     35 ****        -0.2214  -2.5770   3.3542 H              1 S1                 0.0000
     36 ****         0.6946  -1.3784   4.2362 H              1 S1                 0.0000
     37 ****        -0.8062  -0.9343   1.6099 H              1 S1                 0.0000
     38 ****        -1.2574  -0.3149   3.1773 H              1 S1                 0.0000
     39 ****         0.7924   1.0447   3.2883 H              1 S1                 0.0000
     40 ****        -0.7699   1.5187   0.7057 H              1 S1                 0.0000
     41 ****         0.2645   2.7001   1.5044 H              1 S1                 0.0000
     42 ****        -1.1839   2.1083   2.3093 H              1 S1                 0.0000
     43 ****        -2.8014   1.7254  -2.7277 LP             1 S1                 0.0000
     44 ****         3.5521   1.2433  -1.8279 LP             1 S1                 0.0000
     45 ****         3.5086   1.2843  -0.0969 LP             1 S1                 0.0000
     46 ****         0.8635  -2.4009  -1.8872 LP             1 S1                 0.0000
     47 ****        -0.6118  -3.2998  -1.7619 LP             1 S1                 0.0000
     48 ****        -2.6488  -2.2507  -2.0145 LP             1 S1                 0.0000
@<TRIPOS>BOND
    1    1    2 1     
    2    1   21 1     
    3    1   22 1     
    4    1   23 1     
    5    2   20 1     
    6    2    3 2     
    7    3    4 1     
    8    4    5 1     
    9    4    6 2     
   10    5   24 1     
   11    5   25 1     
   12    5   26 1     
   13    6    7 1     
   14    6   18 1     
   15    7    8 1     
   16    7   27 1     
   17    7   28 1     
   18    8    9 2     
   19    8   10 am    
   20   10   11 1     
   21   10   29 1     
   22   11   16 1     
   23   11   12 1     
   24   11   30 1     
   25   12   13 1     
   26   12   31 1     
   27   12   32 1     
   28   13   14 1     
   29   13   33 1     
   30   13   34 1     
   31   14   15 1     
   32   14   35 1     
   33   14   36 1     
   34   15   16 1     
   35   15   37 1     
   36   15   38 1     
   37   16   17 1     
   38   16   39 1     
   39   17   40 1     
   40   17   41 1     
   41   17   42 1     
   42   18   19 2     
   43   18   20 1     
   44    3   43 1     
   45    9   44 1     
   46    9   45 1     
   47   19   46 1     
   48   19   47 1     
   49   20   48 1     
@<TRIPOS>SUBSTRUCTURE
      1 S1             1
@<TRIPOS>SET
LONE_PAIRS      STATIC     ATOMS    <user>   **** ""
6 43 44 45 46 47 48
DONOR_HYDROGENS      STATIC     ATOMS    <user>   **** ""
1 29
ATOM$BLUE        STATIC     ATOMS    COLORGROUP SYSTEM
6 43 44 45 46 47 48
ATOM$RED        STATIC     ATOMS    COLORGROUP SYSTEM
1 29
