#       Name:                AV-unprocessed.smi:2314
#       Creating user name   scv26
#       Creation time:       Fri Mar 27 12:49:12 2020


#       File generated by GOLD software.
#

@<TRIPOS>MOLECULE
AV-unprocessed.smi:2314
    42    43     1
SMALL
NO_CHARGES


@<TRIPOS>ATOM
      1 ****        -4.2323  -1.8192  -0.4445 C.3            1 S1                 0.0000
      2 ****        -3.4924  -0.7118  -1.2163 C.3            1 S1                 0.0000
      3 ****        -4.0704  -0.5134  -2.6263 C.3            1 S1                 0.0000
      4 ****        -2.0424  -0.9416  -1.2879 N.am           1 S1                 0.0000
      5 ****        -1.4627  -2.2752  -1.2886 C.3            1 S1                 0.0000
      6 ****         0.0158  -2.0621  -1.6279 C.3            1 S1                 0.0000
      7 ****         0.3057  -0.5668  -1.4201 C.3            1 S1                 0.0000
      8 ****         1.0030  -0.3671  -0.1516 N.am           1 S1                 0.0000
      9 ****         1.7655   0.6930   0.1531 C.2            1 S1                 0.0000
     10 ****         2.0073   1.6087  -0.6333 O.2            1 S1                 0.0000
     11 ****         2.2383   0.6112   1.4075 N.am           1 S1                 0.0000
     12 ****         3.0635   1.5545   2.0720 C.ar           1 S1                 0.0000
     13 ****         4.1192   1.0696   2.8715 C.ar           1 S1                 0.0000
     14 ****         4.9314   1.9964   3.5551 C.ar           1 S1                 0.0000
     15 ****         4.7436   3.3318   3.4978 N.ar           1 S1                 0.0000
     16 ****         3.7158   3.7919   2.7528 C.ar           1 S1                 0.0000
     17 ****         2.8424   2.9533   2.0308 C.ar           1 S1                 0.0000
     18 ****         1.8043   3.4934   1.3482 F              1 S1                 0.0000
     19 ****        -1.1045   0.0146  -1.3339 C.2            1 S1                 0.0000
     20 ****        -1.3168   1.2269  -1.3286 O.2            1 S1                 0.0000
     21 ****        -5.2888  -1.5732  -0.3338 H              1 S1                 0.0000
     22 ****        -3.8211  -1.9433   0.5576 H              1 S1                 0.0000
     23 ****        -4.1749  -2.7806  -0.9556 H              1 S1                 0.0000
     24 ****        -3.6565   0.2130  -0.6603 H              1 S1                 0.0000
     25 ****        -5.1389  -0.3004  -2.5853 H              1 S1                 0.0000
     26 ****        -3.9317  -1.4038  -3.2401 H              1 S1                 0.0000
     27 ****        -3.5900   0.3219  -3.1373 H              1 S1                 0.0000
     28 ****        -1.5674  -2.7204  -0.2981 H              1 S1                 0.0000
     29 ****        -1.9516  -2.9266  -2.0141 H              1 S1                 0.0000
     30 ****         0.6673  -2.7130  -1.0427 H              1 S1                 0.0000
     31 ****         0.1812  -2.3134  -2.6766 H              1 S1                 0.0000
     32 ****         0.8591  -0.1469  -2.2620 H              1 S1                 0.0000
     33 ****         0.8667  -1.0742   0.5559 H              1 S1                 0.0000
     34 ****         2.0723  -0.2544   1.8992 H              1 S1                 0.0000
     35 ****         4.3128   0.0102   2.9543 H              1 S1                 0.0000
     36 ****         5.7529   1.6548   4.1671 H              1 S1                 0.0000
     37 ****         3.5753   4.8626   2.7434 H              1 S1                 0.0000
     38 ****         1.6270   1.5872  -1.5580 LP             1 S1                 0.0000
     39 ****         2.5839   2.3741  -0.3475 LP             1 S1                 0.0000
     40 ****         5.3458   3.9597   3.9908 LP             1 S1                 0.0000
     41 ****        -2.2552   1.5700  -1.2873 LP             1 S1                 0.0000
     42 ****        -0.5509   1.8688  -1.3657 LP             1 S1                 0.0000
@<TRIPOS>BOND
    1    1    2 1     
    2    1   21 1     
    3    1   22 1     
    4    1   23 1     
    5    2    3 1     
    6    2    4 1     
    7    2   24 1     
    8    3   25 1     
    9    3   26 1     
   10    3   27 1     
   11    4   19 am    
   12    4    5 1     
   13    5    6 1     
   14    5   28 1     
   15    5   29 1     
   16    6    7 1     
   17    6   30 1     
   18    6   31 1     
   19    7    8 1     
   20    7   19 1     
   21    7   32 1     
   22    8    9 am    
   23    8   33 1     
   24    9   10 2     
   25    9   11 am    
   26   11   12 1     
   27   11   34 1     
   28   12   17 ar    
   29   12   13 ar    
   30   13   14 ar    
   31   13   35 1     
   32   14   15 ar    
   33   14   36 1     
   34   15   16 ar    
   35   16   17 ar    
   36   16   37 1     
   37   17   18 1     
   38   19   20 2     
   39   10   38 1     
   40   10   39 1     
   41   15   40 1     
   42   20   41 1     
   43   20   42 1     
@<TRIPOS>SUBSTRUCTURE
      1 S1             1
@<TRIPOS>SET
LONE_PAIRS      STATIC     ATOMS    <user>   **** ""
5 38 39 40 41 42
DONOR_HYDROGENS      STATIC     ATOMS    <user>   **** ""
2 33 34
ATOM$BLUE        STATIC     ATOMS    COLORGROUP SYSTEM
5 38 39 40 41 42
ATOM$RED        STATIC     ATOMS    COLORGROUP SYSTEM
2 33 34
