AV-unprocessed.smi:82|AV-procd|sdf|794|dock8
  -GOLD-   2262017173D 1   1.00000     0.00000
 Structure written by MMmdl.
 59 62  0  0  0  0  0  0  0  0  2 V2000
  146.1306  143.7977  160.7176 C   0  0  0  0  0  0  0  0  0  0  0  0
  145.6681  142.7515  159.8813 O   0  0  0  0  0  0  0  0  0  0  0  0
  146.2712  142.7734  158.5981 C   0  0  0  0  0  0  0  0  0  0  0  0
  147.7680  142.4622  158.7507 C   0  0  0  0  0  0  0  0  0  0  0  0
  148.4708  142.4118  157.4372 N   0  3  2  0  0  0  0  0  0  0  0  0
  147.8084  141.4497  156.5104 C   0  0  0  0  0  0  0  0  0  0  0  0
  148.4792  141.4186  155.1304 C   0  0  0  0  0  0  0  0  0  0  0  0
  149.8979  141.1233  155.2689 N   0  0  0  0  0  0  0  0  0  0  0  0
  150.2421  139.8079  155.2913 C   0  0  0  0  0  0  0  0  0  0  0  0
  151.5281  139.4401  155.0466 N   0  0  0  0  0  0  0  0  0  0  0  0
  151.8824  138.1524  155.0771 C   0  0  0  0  0  0  0  0  0  0  0  0
  151.1222  137.0849  155.3240 N   0  0  0  0  0  0  0  0  0  0  0  0
  149.8269  137.4414  155.5585 C   0  0  0  0  0  0  0  0  0  0  0  0
  149.3068  138.7674  155.5608 C   0  0  0  0  0  0  0  0  0  0  0  0
  147.9419  138.7372  155.8214 N   0  0  0  0  0  0  0  0  0  0  0  0
  147.6720  137.4693  155.9709 C   0  0  0  0  0  0  0  0  0  0  0  0
  148.7470  136.6194  155.8363 N   0  0  0  0  0  0  0  0  0  0  0  0
  148.7258  135.1871  155.9348 C   0  0  0  0  0  0  0  0  0  0  0  0
  149.7606  134.3405  155.1901 C   0  0  0  0  0  0  0  0  0  0  0  0
  148.6880  133.2672  154.8946 C   0  0  0  0  0  0  0  0  0  0  0  0
  148.6696  132.7754  153.4390 C   0  0  0  0  0  0  0  0  0  0  0  0
  147.5768  131.9122  153.1984 O   0  0  0  0  0  0  0  0  0  0  0  0
  148.7105  132.0147  155.7986 C   0  0  0  0  0  0  0  0  0  0  0  0
  149.8839  131.2410  155.6512 O   0  0  0  0  0  0  0  0  0  0  0  0
  147.6471  134.3592  155.2309 C   0  0  0  0  0  0  0  0  0  0  0  0
  150.5995  142.0634  156.1374 C   0  0  0  0  0  0  0  0  0  0  0  0
  149.9494  142.1872  157.5384 C   0  0  1  0  0  0  0  0  0  0  0  0
  150.6746  143.3154  158.3002 C   0  0  0  0  0  0  0  0  0  0  0  0
  145.6454  143.7306  161.6915 H   0  0  0  0  0  0  0  0  0  0  0  0
  145.8974  144.7750  160.2927 H   0  0  0  0  0  0  0  0  0  0  0  0
  147.2081  143.7311  160.8736 H   0  0  0  0  0  0  0  0  0  0  0  0
  145.8092  142.0123  157.9675 H   0  0  0  0  0  0  0  0  0  0  0  0
  146.1046  143.7335  158.1095 H   0  0  0  0  0  0  0  0  0  0  0  0
  148.1832  143.2215  159.4077 H   0  0  0  0  0  0  0  0  0  0  0  0
  147.9069  141.5163  159.2764 H   0  0  0  0  0  0  0  0  0  0  0  0
  147.8344  140.4506  156.9488 H   0  0  0  0  0  0  0  0  0  0  0  0
  146.7580  141.7066  156.3808 H   0  0  0  0  0  0  0  0  0  0  0  0
  147.9720  140.6968  154.4918 H   0  0  0  0  0  0  0  0  0  0  0  0
  148.3718  142.3876  154.6416 H   0  0  0  0  0  0  0  0  0  0  0  0
  152.9239  137.9482  154.8758 H   0  0  0  0  0  0  0  0  0  0  0  0
  146.6722  137.1177  156.1808 H   0  0  0  0  0  0  0  0  0  0  0  0
  148.7395  134.9461  156.9982 H   0  0  0  0  0  0  0  0  0  0  0  0
  150.1305  134.8335  154.2897 H   0  0  0  0  0  0  0  0  0  0  0  0
  150.5904  134.0015  155.8113 H   0  0  0  0  0  0  0  0  0  0  0  0
  148.5860  133.6135  152.7459 H   0  0  0  0  0  0  0  0  0  0  0  0
  149.5943  132.2564  153.1841 H   0  0  0  0  0  0  0  0  0  0  0  0
  147.6887  131.5135  152.3489 H   0  0  0  0  0  0  0  0  0  0  0  0
  148.6341  132.2899  156.8506 H   0  0  0  0  0  0  0  0  0  0  0  0
  147.8594  131.3680  155.5823 H   0  0  0  0  0  0  0  0  0  0  0  0
  149.6872  130.4952  155.1050 H   0  0  0  0  0  0  0  0  0  0  0  0
  146.8386  134.0307  155.8849 H   0  0  0  0  0  0  0  0  0  0  0  0
  147.2484  134.8487  154.3412 H   0  0  0  0  0  0  0  0  0  0  0  0
  151.6526  141.7911  156.2220 H   0  0  0  0  0  0  0  0  0  0  0  0
  150.5845  143.0356  155.6431 H   0  0  0  0  0  0  0  0  0  0  0  0
  150.1049  141.2527  158.0789 H   0  0  0  0  0  0  0  0  0  0  0  0
  151.7560  143.2053  158.2135 H   0  0  0  0  0  0  0  0  0  0  0  0
  150.4596  143.3162  159.3672 H   0  0  0  0  0  0  0  0  0  0  0  0
  150.4132  144.2958  157.9005 H   0  0  0  0  0  0  0  0  0  0  0  0
  148.3665  143.3281  157.0249 H   0  0  0  0  0  0  0  0  0  0  0  0
  1  2  1  0  0  0  0
  1 29  1  0  0  0  0
  1 30  1  0  0  0  0
  1 31  1  0  0  0  0
  2  3  1  0  0  0  0
  3  4  1  0  0  0  0
  3 32  1  0  0  0  0
  3 33  1  0  0  0  0
  4  5  1  0  0  0  0
  4 34  1  0  0  0  0
  4 35  1  0  0  0  0
  5 27  1  0  0  0  0
  5  6  1  0  0  0  0
  5 59  1  0  0  0  0
  6  7  1  0  0  0  0
  6 36  1  0  0  0  0
  6 37  1  0  0  0  0
  7  8  1  0  0  0  0
  7 38  1  0  0  0  0
  7 39  1  0  0  0  0
  8  9  1  0  0  0  0
  8 26  1  0  0  0  0
  9 14  1  0  0  0  0
  9 10  2  0  0  0  0
 10 11  1  0  0  0  0
 11 12  2  0  0  0  0
 11 40  1  0  0  0  0
 12 13  1  0  0  0  0
 13 17  1  0  0  0  0
 13 14  2  0  0  0  0
 14 15  1  0  0  0  0
 15 16  2  0  0  0  0
 16 17  1  0  0  0  0
 16 41  1  0  0  0  0
 17 18  1  0  0  0  0
 18 25  1  0  0  0  0
 18 19  1  0  0  0  0
 18 42  1  0  0  0  0
 19 20  1  0  0  0  0
 19 43  1  0  0  0  0
 19 44  1  0  0  0  0
 20 21  1  0  0  0  0
 20 23  1  0  0  0  0
 20 25  1  0  0  0  0
 21 22  1  0  0  0  0
 21 45  1  0  0  0  0
 21 46  1  0  0  0  0
 22 47  1  0  0  0  0
 23 24  1  0  0  0  0
 23 48  1  0  0  0  0
 23 49  1  0  0  0  0
 24 50  1  0  0  0  0
 25 51  1  0  0  0  0
 25 52  1  0  0  0  0
 26 27  1  0  0  0  0
 26 53  1  0  0  0  0
 26 54  1  0  0  0  0
 27 28  1  0  0  0  0
 27 55  1  0  0  0  0
 28 56  1  0  0  0  0
 28 57  1  0  0  0  0
 28 58  1  0  0  0  0
M  CHG  1   5   1
M  END
> <s_m_source_file>
AV-unprocessed.smi

> <i_m_source_file_index>
82

> <i_lp_mmshare_version>
43012

> <i_f3d_flags>
0

> <s_epik_input>
W0NIM11PW0NIMl1bQ0gyXU4xW0NIMl1bQ0gyXU4oW0NIMl1bQ0BIXTFbQ0gzXSljKG5bY0hdbjIpYyhjMjMpbltjSF1uM1tDSF0oW0NIMl00KVtDSDJdQzQoW0NIMl1bT0hdKVtDSDJdW09IXQ==

> <s_epik_cmdline>
J2VwaWtfcHl0aG9uJywgJy1waCcsICc3LjAnLCAnLXRuJywgJzgnLCAnLW1hJywgJzIwMCcsICctbWV0YWxfYmluZGluZycsICctaW1hZScsICc8aW5maWxlLm1hZT4nLCAnLW9tYWUnLCAnPG91dGZpbGUubWFlPic=

> <r_lp_tautomer_probability>
1

> <r_epik_Ionization_Penalty>
0.304275

> <r_epik_Ionization_Penalty_Charging>
0.304214

> <r_epik_Ionization_Penalty_Neutral>
6.13137e-05

> <r_epik_State_Penalty>
0.300354

> <r_epik_Charging_Adjusted_Penalty>
0.604567

> <i_epik_Tot_Q>
1

> <i_epik_Tot_abs_Q>
1

> <r_epik_Metal_State_Penalty>
0.301147

> <b_epik_Metal_Only>
0

> <s_lp_Force_Field>
OPLS_2005

> <r_lp_Energy>
58.1086

> <b_lp_Chiralities_Consistent>
1

> <s_lp_Variant>
AV-unprocessed.smi:82-1

> <Gold.Version>
5.8.1

> <Gold.Id.Protein>
6NUR|6NUR_protein|mol2

> <Gold.PLP.Fitness>
51.3816

> <Gold.PLP.PLP>
-37.3759

> <Gold.PLP.part.hbond>
-5.7972

> <Gold.PLP.part.metal>
0.0000

> <Gold.PLP.part.buried>
-6.9007

> <Gold.PLP.part.nonpolar>
-26.6651

> <Gold.PLP.part.repulsive>
0.3942

> <Gold.PLP.ligand.clash>
0.0000

> <Gold.PLP.ligand.torsion>
0.9501

> <Gold.PLP.Chemscore.Hbond>
4.9814

> <Gold.PLP.Chemscore.CHOScore>
0.0000

> <Gold.PLP.Chemscore.Metal>
0.0000

> <Gold.Chemscore.Hbonds>
donor molecule, donor type, donor heavy atom, donor atom, acceptor molecule, acceptor atom, score
      L1  H     5    59       P1  8028  1.80
      P1  H  6934  6946       L1     2  0.04
      P1  H  7989  7998       L1    10  0.45

> <Gold.PLP.Chemscore.Internal.Correction>
0.9615

> <Gold.Rescore>
     Score         DG    S(hbond)    S(metal)    S(lipo)     H(rot)  DE(clash)    DE(int)     intcor
      7.35     -12.09       2.32        0.00      75.87       3.91       0.21       4.53       ----

> <Gold.Chemscore.Fitness>
7.3463

> <Gold.Chemscore.DG>
-12.0914

> <Gold.Chemscore.ZeroCoef>
-5.4800

> <Gold.Chemscore.Hbond>
2.3152

> <Gold.Chemscore.Metal>
0.0000

> <Gold.Chemscore.Lipo>
75.8698

> <Gold.Chemscore.Internal_Hbond>
0.0000

> <Gold.Chemscore.DEClash>
0.2110

> <Gold.Chemscore.DEInternal>
4.5342

> <Gold.Chemscore.Rot>
3.9055

> <Gold.Chemscore.Internal.Correction>
   9.000000E+99

> <Gold.Chemscore.Hbonds>
donor molecule, donor type, donor heavy atom, donor atom, acceptor molecule, acceptor atom, score
      L1  H     5    59       P1  8028  0.17
      L1  H    22    47       P1 10747  0.01
      P1  H  7989  7998       L1    10  0.03

> <Gold.Chemscore.Hbond.Weighted>
-7.7327

> <Gold.Chemscore.Metal.Weighted>
-0.0000

> <Gold.Chemscore.Lipo.Weighted>
-8.8768

> <Gold.Chemscore.Internal_Hbond.Weighted>
0.0000

> <Gold.Chemscore.DEClash.Weighted>
0.2110

> <Gold.Chemscore.DEInternal.Weighted>
4.5342

> <Gold.Chemscore.Rot.Weighted>
9.9980

> <Gold.Chemscore.Internal.Correction.Weighted>
   9.000000E+99

> <Gold.Protein.RotatedTorsions>
[ 6907 6896 6895 6894 ] final  -26.98 input  -60.11 | X-H torsion
[ 7974 7965 7964 7962 ] final  -71.62 input  175.53 | X-H torsion
[ 8008 7997 7996 7995 ] final   83.73 input   59.86 | X-H torsion
[ 10167 10162 10161 10158 ] final   57.18 input  -65.29 | X-H torsion
[ 10718 10713 10712 10709 ] final  157.48 input   66.30 | X-H torsion
[ 10763 10752 10751 10750 ] final  -59.17 input  -60.55 | X-H torsion
[ 11005 11000 10999 10996 ] final   27.70 input  -57.11 | X-H torsion

> <Gold.Protein.ActiveResidues>
 VAL166  LYS551  ARG553  GLY616  TRP617  ASP618  TYR619  PRO620  LYS621  CYS622 
 ASP623  PHE694  ASN695  SER759  ASP760  ASP761  ALA762  ILE779  LEU786  VAL792 
 PHE793  MET794  SER795  GLU796  ALA797  LYS798  CYS799  TRP800  GLU811  SER814 

> <Gold.Protein.RotatedAtoms>
  151.1534  135.0238  159.8677 H   0  0  0  0  0  0  0  0  0  0  0  0  # atno 6907 bound_to 6896
  152.5452  134.1363  159.8470 H   0  0  0  0  0  0  0  0  0  0  0  0  # atno 6908 bound_to 6896
  151.1450  133.4899  159.2629 H   0  0  0  0  0  0  0  0  0  0  0  0  # atno 6909 bound_to 6896
  145.6757  140.9205  143.0859 H   0  0  0  0  0  0  0  0  0  0  0  0  # atno 7974 bound_to 7965
  155.9278  140.3417  155.6224 H   0  0  0  0  0  0  0  0  0  0  0  0  # atno 8008 bound_to 7997
  155.7194  140.0781  157.2355 H   0  0  0  0  0  0  0  0  0  0  0  0  # atno 8009 bound_to 7997
  154.4080  140.1608  156.2373 H   0  0  0  0  0  0  0  0  0  0  0  0  # atno 8010 bound_to 7997
  140.2008  144.3990  150.6530 H   0  0  0  0  0  0  0  0  0  0  0  0  # atno 10167 bound_to 10162
  157.1909  131.0654  151.2080 H   0  0  0  0  0  0  0  0  0  0  0  0  # atno 10718 bound_to 10713
  154.2495  135.6328  153.5235 H   0  0  0  0  0  0  0  0  0  0  0  0  # atno 10763 bound_to 10752
  152.9915  135.5561  154.5823 H   0  0  0  0  0  0  0  0  0  0  0  0  # atno 10764 bound_to 10752
  154.5347  135.2890  155.1124 H   0  0  0  0  0  0  0  0  0  0  0  0  # atno 10765 bound_to 10752
  140.3235  134.2517  155.7713 H   0  0  0  0  0  0  0  0  0  0  0  0  # atno 11005 bound_to 11000
  144.7042  139.8631  143.7435 LP  0  0  0  0  0  0  0  0  0  0  0  0  # atno 17320 bound_to 7965
  146.1007  139.4003  143.0348 LP  0  0  0  0  0  0  0  0  0  0  0  0  # atno 17321 bound_to 7965
  140.6392  143.2200  151.6329 LP  0  0  0  0  0  0  0  0  0  0  0  0  # atno 17342 bound_to 10162
  139.5218  144.3182  152.0934 LP  0  0  0  0  0  0  0  0  0  0  0  0  # atno 17343 bound_to 10162
  157.3861  130.7257  149.6664 LP  0  0  0  0  0  0  0  0  0  0  0  0  # atno 17370 bound_to 10713
  155.9712  130.4159  150.4204 LP  0  0  0  0  0  0  0  0  0  0  0  0  # atno 17371 bound_to 10713
  141.2081  133.7788  157.0080 LP  0  0  0  0  0  0  0  0  0  0  0  0  # atno 17394 bound_to 11000
  140.0921  134.9586  157.1793 LP  0  0  0  0  0  0  0  0  0  0  0  0  # atno 17395 bound_to 11000

$$$$
