AV-unprocessed.smi:1411|AV-procd|sdf|5739|dock10
  -GOLD-   22720 5373D 1   1.00000     0.00000
 Structure written by MMmdl.
 43 44  0  0  0  0  0  0  0  0  3 V2000
  151.6988  140.8360  155.5413 O   0  0  0  0  0  0  0  0  0  0  0  0
  150.7020  141.3071  156.0908 C   0  0  0  0  0  0  0  0  0  0  0  0
  149.3027  141.1223  155.4862 C   0  0  0  0  0  0  0  0  0  0  0  0
  148.9006  139.7108  155.3666 N   0  0  0  0  0  0  0  0  0  0  0  0
  149.9216  138.7843  155.0772 C   0  0  0  0  0  0  0  0  0  0  0  0
  149.6776  137.4653  154.9508 C   0  0  0  0  0  0  0  0  0  0  0  0
  150.7400  136.5282  154.6579 N   0  3  0  0  0  0  0  0  0  0  0  0
  151.8538  136.9669  154.3892 O   0  0  0  0  0  0  0  0  0  0  0  0
  150.4978  135.3253  154.6869 O   0  5  0  0  0  0  0  0  0  0  0  0
  148.3104  137.0137  155.1223 C   0  0  0  0  0  0  0  0  0  0  0  0
  147.3299  137.8942  155.4042 C   0  0  0  0  0  0  0  0  0  0  0  0
  147.5989  139.3290  155.5458 C   0  0  0  0  0  0  0  0  0  0  0  0
  146.7085  140.1369  155.8101 O   0  0  0  0  0  0  0  0  0  0  0  0
  150.7547  142.0004  157.2384 N   0  0  0  0  0  0  0  0  0  0  0  0
  151.9668  142.3098  157.9945 C   0  0  0  0  0  0  0  0  0  0  0  0
  151.9093  141.5806  159.3547 C   0  0  0  0  0  0  0  0  0  0  0  0
  152.9960  141.9798  160.3732 C   0  0  0  0  0  0  0  0  0  0  0  0
  152.5083  142.9232  161.4921 C   0  0  0  0  0  0  0  0  0  0  0  0
  152.1560  144.3681  161.0825 C   0  0  0  0  0  0  0  0  0  0  0  0
  150.8882  144.5029  160.2141 C   0  0  0  0  0  0  0  0  0  0  0  0
  151.1360  144.7123  158.7076 C   0  0  0  0  0  0  0  0  0  0  0  0
  152.2205  143.8355  158.0513 C   0  0  0  0  0  0  0  0  0  0  0  0
  148.5866  141.6835  156.0888 H   0  0  0  0  0  0  0  0  0  0  0  0
  149.2767  141.5963  154.5035 H   0  0  0  0  0  0  0  0  0  0  0  0
  150.9049  139.2208  154.9745 H   0  0  0  0  0  0  0  0  0  0  0  0
  148.0630  135.9666  155.0277 H   0  0  0  0  0  0  0  0  0  0  0  0
  146.3188  137.5353  155.5296 H   0  0  0  0  0  0  0  0  0  0  0  0
  149.8857  142.3458  157.6194 H   0  0  0  0  0  0  0  0  0  0  0  0
  152.8130  141.8780  157.4565 H   0  0  0  0  0  0  0  0  0  0  0  0
  150.9217  141.6663  159.8063 H   0  0  0  0  0  0  0  0  0  0  0  0
  152.0164  140.5143  159.1501 H   0  0  0  0  0  0  0  0  0  0  0  0
  153.3388  141.0658  160.8596 H   0  0  0  0  0  0  0  0  0  0  0  0
  153.8809  142.3798  159.8784 H   0  0  0  0  0  0  0  0  0  0  0  0
  151.6559  142.4721  162.0015 H   0  0  0  0  0  0  0  0  0  0  0  0
  153.2964  142.9771  162.2441 H   0  0  0  0  0  0  0  0  0  0  0  0
  151.9789  144.9220  162.0053 H   0  0  0  0  0  0  0  0  0  0  0  0
  153.0100  144.8637  160.6209 H   0  0  0  0  0  0  0  0  0  0  0  0
  150.2186  143.6610  160.3811 H   0  0  0  0  0  0  0  0  0  0  0  0
  150.3242  145.3671  160.5669 H   0  0  0  0  0  0  0  0  0  0  0  0
  150.1937  144.6018  158.1702 H   0  0  0  0  0  0  0  0  0  0  0  0
  151.4306  145.7521  158.5617 H   0  0  0  0  0  0  0  0  0  0  0  0
  153.1873  144.0359  158.5093 H   0  0  0  0  0  0  0  0  0  0  0  0
  152.3440  144.1913  157.0277 H   0  0  0  0  0  0  0  0  0  0  0  0
  1  2  2  0  0  0  0
  2  3  1  0  0  0  0
  2 14  1  0  0  0  0
  3  4  1  0  0  0  0
  3 23  1  0  0  0  0
  3 24  1  0  0  0  0
  4 12  1  0  0  0  0
  4  5  1  0  0  0  0
  5  6  2  0  0  0  0
  5 25  1  0  0  0  0
  6  7  1  0  0  0  0
  6 10  1  0  0  0  0
  7  8  2  0  0  0  0
  7  9  1  0  0  0  0
 10 11  2  0  0  0  0
 10 26  1  0  0  0  0
 11 12  1  0  0  0  0
 11 27  1  0  0  0  0
 12 13  2  0  0  0  0
 14 15  1  0  0  0  0
 14 28  1  0  0  0  0
 15 22  1  0  0  0  0
 15 16  1  0  0  0  0
 15 29  1  0  0  0  0
 16 17  1  0  0  0  0
 16 30  1  0  0  0  0
 16 31  1  0  0  0  0
 17 18  1  0  0  0  0
 17 32  1  0  0  0  0
 17 33  1  0  0  0  0
 18 19  1  0  0  0  0
 18 34  1  0  0  0  0
 18 35  1  0  0  0  0
 19 20  1  0  0  0  0
 19 36  1  0  0  0  0
 19 37  1  0  0  0  0
 20 21  1  0  0  0  0
 20 38  1  0  0  0  0
 20 39  1  0  0  0  0
 21 22  1  0  0  0  0
 21 40  1  0  0  0  0
 21 41  1  0  0  0  0
 22 42  1  0  0  0  0
 22 43  1  0  0  0  0
M  CHG  1   7   1
M  CHG  1   9  -1
M  END
> <s_m_source_file>
AV-unprocessed.smi

> <i_m_source_file_index>
1411

> <i_lp_mmshare_version>
43012

> <i_f3d_flags>
0

> <s_epik_input>
Tz1jMVtjSF1bY0hdYyhbTitdKD1PKVtPLV0pW2NIXW4xW0NIMl1DKD1PKVtOSF1bQ0hdMltDSDJdW0NIMl1bQ0gyXVtDSDJdW0NIMl1bQ0gyXVtDSDJdMg==

> <s_epik_cmdline>
J2VwaWtfcHl0aG9uJywgJy1waCcsICc3LjAnLCAnLXRuJywgJzgnLCAnLW1hJywgJzIwMCcsICctbWV0YWxfYmluZGluZycsICctaW1hZScsICc8aW5maWxlLm1hZT4nLCAnLW9tYWUnLCAnPG91dGZpbGUubWFlPic=

> <r_lp_tautomer_probability>
1

> <r_epik_Ionization_Penalty>
2.02954e-08

> <r_epik_Ionization_Penalty_Charging>
8.05481e-11

> <r_epik_Ionization_Penalty_Neutral>
2.02148e-08

> <r_epik_State_Penalty>
-0

> <r_epik_Charging_Adjusted_Penalty>
8.05481e-11

> <i_epik_Tot_Q>
0

> <i_epik_Tot_abs_Q>
2

> <r_epik_Metal_State_Penalty>
-0

> <b_epik_Metal_Only>
0

> <s_lp_Force_Field>
OPLS_2005

> <r_lp_Energy>
31.3753

> <b_lp_Chiralities_Consistent>
1

> <s_lp_Variant>
AV-unprocessed.smi:1411-1

> <Gold.Version>
5.8.1

> <Gold.Id.Protein>
6NUR|6NUR_protein|mol2

> <Gold.PLP.Fitness>
41.7214

> <Gold.PLP.PLP>
-37.6450

> <Gold.PLP.part.hbond>
-2.0000

> <Gold.PLP.part.metal>
0.0000

> <Gold.PLP.part.buried>
-4.9268

> <Gold.PLP.part.nonpolar>
-30.2709

> <Gold.PLP.part.repulsive>
0.3942

> <Gold.PLP.ligand.clash>
0.0000

> <Gold.PLP.ligand.torsion>
0.3998

> <Gold.PLP.Chemscore.Hbond>
1.6084

> <Gold.PLP.Chemscore.CHOScore>
0.0000

> <Gold.PLP.Chemscore.Metal>
0.0000

> <Gold.Chemscore.Hbonds>
donor molecule, donor type, donor heavy atom, donor atom, acceptor molecule, acceptor atom, score
      P1  H  7989  7998       L1     1  0.61
      P1  H 10752 10765       L1     8  1.00

> <Gold.PLP.Chemscore.Internal.Correction>
0.0508

> <Gold.Rescore>
     Score         DG    S(hbond)    S(metal)    S(lipo)     H(rot)  DE(clash)    DE(int)     intcor
     16.33     -18.53       1.50        0.00     102.33       1.54       0.43       1.78       ----

> <Gold.Chemscore.Fitness>
16.3278

> <Gold.Chemscore.DG>
-18.5298

> <Gold.Chemscore.ZeroCoef>
-5.4800

> <Gold.Chemscore.Hbond>
1.5025

> <Gold.Chemscore.Metal>
0.0000

> <Gold.Chemscore.Lipo>
102.3259

> <Gold.Chemscore.Internal_Hbond>
0.0000

> <Gold.Chemscore.DEClash>
0.4254

> <Gold.Chemscore.DEInternal>
1.7766

> <Gold.Chemscore.Rot>
1.5393

> <Gold.Chemscore.Internal.Correction>
   9.000000E+99

> <Gold.Chemscore.Hbonds>
donor molecule, donor type, donor heavy atom, donor atom, acceptor molecule, acceptor atom, score
      P1  H  7989  7998       L1     1  0.51
      P1  H 10752 10765       L1     8  0.69

> <Gold.Chemscore.Hbond.Weighted>
-5.0184

> <Gold.Chemscore.Metal.Weighted>
-0.0000

> <Gold.Chemscore.Lipo.Weighted>
-11.9721

> <Gold.Chemscore.Internal_Hbond.Weighted>
0.0000

> <Gold.Chemscore.DEClash.Weighted>
0.4254

> <Gold.Chemscore.DEInternal.Weighted>
1.7766

> <Gold.Chemscore.Rot.Weighted>
3.9407

> <Gold.Chemscore.Internal.Correction.Weighted>
   9.000000E+99

> <Gold.Protein.RotatedTorsions>
[ 6907 6896 6895 6894 ] final  -42.48 input  -60.11 | X-H torsion
[ 7974 7965 7964 7962 ] final   36.12 input  175.53 | X-H torsion
[ 8008 7997 7996 7995 ] final -172.06 input   59.86 | X-H torsion
[ 10167 10162 10161 10158 ] final  136.95 input  -65.29 | X-H torsion
[ 10718 10713 10712 10709 ] final   87.99 input   66.30 | X-H torsion
[ 10763 10752 10751 10750 ] final  161.40 input  -60.55 | X-H torsion
[ 11005 11000 10999 10996 ] final -105.60 input  -57.11 | X-H torsion

> <Gold.Protein.ActiveResidues>
 VAL166  LYS551  ARG553  GLY616  TRP617  ASP618  TYR619  PRO620  LYS621  CYS622 
 ASP623  PHE694  ASN695  SER759  ASP760  ASP761  ALA762  ILE779  LEU786  VAL792 
 PHE793  MET794  SER795  GLU796  ALA797  LYS798  CYS799  TRP800  GLU811  SER814 

> <Gold.Protein.RotatedAtoms>
  150.9548  134.8944  159.7693 H   0  0  0  0  0  0  0  0  0  0  0  0  # atno 6907 bound_to 6896
  152.5133  134.3756  159.9343 H   0  0  0  0  0  0  0  0  0  0  0  0  # atno 6908 bound_to 6896
  151.3770  133.3794  159.2740 H   0  0  0  0  0  0  0  0  0  0  0  0  # atno 6909 bound_to 6896
  146.1234  139.6057  142.9274 H   0  0  0  0  0  0  0  0  0  0  0  0  # atno 7974 bound_to 7965
  155.9396  140.1106  157.1066 H   0  0  0  0  0  0  0  0  0  0  0  0  # atno 8008 bound_to 7997
  154.4087  140.1221  156.4976 H   0  0  0  0  0  0  0  0  0  0  0  0  # atno 8009 bound_to 7997
  155.6978  140.3472  155.4922 H   0  0  0  0  0  0  0  0  0  0  0  0  # atno 8010 bound_to 7997
  139.5161  144.6436  151.5500 H   0  0  0  0  0  0  0  0  0  0  0  0  # atno 10167 bound_to 10162
  157.6945  131.0277  150.3206 H   0  0  0  0  0  0  0  0  0  0  0  0  # atno 10718 bound_to 10713
  154.2624  135.2768  155.2772 H   0  0  0  0  0  0  0  0  0  0  0  0  # atno 10763 bound_to 10752
  154.5372  135.5713  153.6812 H   0  0  0  0  0  0  0  0  0  0  0  0  # atno 10764 bound_to 10752
  152.9960  135.6242  154.2775 H   0  0  0  0  0  0  0  0  0  0  0  0  # atno 10765 bound_to 10752
  141.1045  133.8822  157.1754 H   0  0  0  0  0  0  0  0  0  0  0  0  # atno 11005 bound_to 11000
  145.5417  141.0420  143.2327 LP  0  0  0  0  0  0  0  0  0  0  0  0  # atno 17320 bound_to 7965
  144.7619  139.6937  143.7231 LP  0  0  0  0  0  0  0  0  0  0  0  0  # atno 17321 bound_to 7965
  140.6213  143.9253  150.6528 LP  0  0  0  0  0  0  0  0  0  0  0  0  # atno 17342 bound_to 10162
  140.2528  143.3581  152.1391 LP  0  0  0  0  0  0  0  0  0  0  0  0  # atno 17343 bound_to 10162
  156.3694  130.3861  149.7187 LP  0  0  0  0  0  0  0  0  0  0  0  0  # atno 17370 bound_to 10713
  156.4607  130.7950  151.2970 LP  0  0  0  0  0  0  0  0  0  0  0  0  # atno 17371 bound_to 10713
  139.9910  135.0064  156.9974 LP  0  0  0  0  0  0  0  0  0  0  0  0  # atno 17394 bound_to 11000
  140.4937  134.1167  155.7237 LP  0  0  0  0  0  0  0  0  0  0  0  0  # atno 17395 bound_to 11000

$$$$
