AV-unprocessed.smi:1929|AV-procd|sdf|7802|dock7
  -GOLD-   22720 9543D 1   1.00000     0.00000
 Structure written by MMmdl.
 43 44  0  0  0  0  0  0  0  0  2 V2000
  155.6344  133.3539  157.4335 C   0  0  0  0  0  0  0  0  0  0  0  0
  154.8482  132.1797  157.0888 N   0  0  0  0  0  0  0  0  0  0  0  0
  153.5175  132.0952  157.2290 C   0  0  0  0  0  0  0  0  0  0  0  0
  152.8242  133.0128  157.6679 O   0  0  0  0  0  0  0  0  0  0  0  0
  152.8633  130.7756  156.8018 C   0  0  0  0  0  0  0  0  0  0  0  0
  151.9384  130.8925  155.6511 N   0  0  0  0  0  0  0  0  0  0  0  0
  150.9632  131.9535  155.9240 C   0  0  0  0  0  0  0  0  0  0  0  0
  150.0664  132.1950  154.6978 C   0  0  0  0  0  0  0  0  0  0  0  0
  149.3254  130.9128  154.2947 C   0  0  0  0  0  0  0  0  0  0  0  0
  148.5675  131.1414  153.0680 N   0  0  0  0  0  0  0  0  0  0  0  0
  147.3300  131.6538  153.0087 C   0  0  0  0  0  0  0  0  0  0  0  0
  146.6829  131.9806  154.0032 O   0  0  0  0  0  0  0  0  0  0  0  0
  146.8995  131.7396  151.7377 N   0  0  0  0  0  0  0  0  0  0  0  0
  145.6608  132.2384  151.2491 C   0  0  0  0  0  0  0  0  0  0  0  0
  144.9052  133.0630  152.1122 C   0  0  0  0  0  0  0  0  0  0  0  0
  143.6629  133.5705  151.6804 C   0  0  0  0  0  0  0  0  0  0  0  0
  143.2000  133.2586  150.4511 N   0  3  0  0  0  0  0  0  0  0  0  0
  143.8787  132.4642  149.5959 C   0  0  0  0  0  0  0  0  0  0  0  0
  145.1267  131.9270  149.9724 C   0  0  0  0  0  0  0  0  0  0  0  0
  150.3522  129.7839  154.1072 C   0  0  0  0  0  0  0  0  0  0  0  0
  151.2466  129.6301  155.3504 C   0  0  0  0  0  0  0  0  0  0  0  0
  156.6853  133.1777  157.2047 H   0  0  0  0  0  0  0  0  0  0  0  0
  155.5495  133.5794  158.4973 H   0  0  0  0  0  0  0  0  0  0  0  0
  155.3028  134.2235  156.8649 H   0  0  0  0  0  0  0  0  0  0  0  0
  155.3442  131.3826  156.7171 H   0  0  0  0  0  0  0  0  0  0  0  0
  153.6352  130.0360  156.5790 H   0  0  0  0  0  0  0  0  0  0  0  0
  152.3169  130.3984  157.6676 H   0  0  0  0  0  0  0  0  0  0  0  0
  150.3546  131.6966  156.7930 H   0  0  0  0  0  0  0  0  0  0  0  0
  151.4841  132.8811  156.1650 H   0  0  0  0  0  0  0  0  0  0  0  0
  149.3500  132.9878  154.9168 H   0  0  0  0  0  0  0  0  0  0  0  0
  150.6782  132.5513  153.8671 H   0  0  0  0  0  0  0  0  0  0  0  0
  148.6391  130.6440  155.1001 H   0  0  0  0  0  0  0  0  0  0  0  0
  149.0230  130.8907  152.2024 H   0  0  0  0  0  0  0  0  0  0  0  0
  147.5173  131.3562  151.0372 H   0  0  0  0  0  0  0  0  0  0  0  0
  145.2740  133.3110  153.0972 H   0  0  0  0  0  0  0  0  0  0  0  0
  143.0298  134.2106  152.2779 H   0  0  0  0  0  0  0  0  0  0  0  0
  143.4041  132.2781  148.6435 H   0  0  0  0  0  0  0  0  0  0  0  0
  145.6401  131.2796  149.2787 H   0  0  0  0  0  0  0  0  0  0  0  0
  149.8422  128.8411  153.9061 H   0  0  0  0  0  0  0  0  0  0  0  0
  150.9767  129.9886  153.2360 H   0  0  0  0  0  0  0  0  0  0  0  0
  151.9611  128.8312  155.1525 H   0  0  0  0  0  0  0  0  0  0  0  0
  150.6504  129.3144  156.2085 H   0  0  0  0  0  0  0  0  0  0  0  0
  142.2980  133.6352  150.1577 H   0  0  0  0  0  0  0  0  0  0  0  0
  1  2  1  0  0  0  0
  1 22  1  0  0  0  0
  1 23  1  0  0  0  0
  1 24  1  0  0  0  0
  2  3  1  0  0  0  0
  2 25  1  0  0  0  0
  3  4  2  0  0  0  0
  3  5  1  0  0  0  0
  5  6  1  0  0  0  0
  5 26  1  0  0  0  0
  5 27  1  0  0  0  0
  6 21  1  0  0  0  0
  6  7  1  0  0  0  0
  7  8  1  0  0  0  0
  7 28  1  0  0  0  0
  7 29  1  0  0  0  0
  8  9  1  0  0  0  0
  8 30  1  0  0  0  0
  8 31  1  0  0  0  0
  9 10  1  0  0  0  0
  9 20  1  0  0  0  0
  9 32  1  0  0  0  0
 10 11  1  0  0  0  0
 10 33  1  0  0  0  0
 11 12  2  0  0  0  0
 11 13  1  0  0  0  0
 13 14  1  0  0  0  0
 13 34  1  0  0  0  0
 14 19  1  0  0  0  0
 14 15  2  0  0  0  0
 15 16  1  0  0  0  0
 15 35  1  0  0  0  0
 16 17  2  0  0  0  0
 16 36  1  0  0  0  0
 17 18  1  0  0  0  0
 17 43  1  0  0  0  0
 18 19  2  0  0  0  0
 18 37  1  0  0  0  0
 19 38  1  0  0  0  0
 20 21  1  0  0  0  0
 20 39  1  0  0  0  0
 20 40  1  0  0  0  0
 21 41  1  0  0  0  0
 21 42  1  0  0  0  0
M  CHG  1  17   1
M  END
> <s_m_source_file>
AV-unprocessed.smi

> <i_m_source_file_index>
1929

> <i_lp_mmshare_version>
43012

> <i_f3d_flags>
0

> <s_epik_input>
W0NIM11bTkhdQyg9TylbQ0gyXU4xW0NIMl1bQ0gyXVtDSF0oW0NIMl1bQ0gyXTEpW05IXUMoPU8pW05IXWMyW2NIXVtjSF1uW2NIXVtjSF0y

> <s_epik_cmdline>
J2VwaWtfcHl0aG9uJywgJy1waCcsICc3LjAnLCAnLXRuJywgJzgnLCAnLW1hJywgJzIwMCcsICctbWV0YWxfYmluZGluZycsICctaW1hZScsICc8aW5maWxlLm1hZT4nLCAnLW9tYWUnLCAnPG91dGZpbGUubWFlPic=

> <r_epik_Ionization_Penalty>
1.15133

> <r_epik_Ionization_Penalty_Charging>
0.995513

> <r_epik_Ionization_Penalty_Neutral>
0.155816

> <r_epik_State_Penalty>
1.22166

> <r_epik_Charging_Adjusted_Penalty>
2.21717

> <i_epik_Tot_Q>
1

> <i_epik_Tot_abs_Q>
1

> <r_epik_Metal_State_Penalty>
1.32497

> <b_epik_Metal_Only>
0

> <s_lp_Force_Field>
OPLS_2005

> <r_lp_Energy>
25.1405

> <b_lp_Chiralities_Consistent>
1

> <s_lp_Variant>
AV-unprocessed.smi:1929-4

> <Gold.Version>
5.8.1

> <Gold.Id.Protein>
6NUR|6NUR_protein|mol2

> <Gold.PLP.Fitness>
48.2066

> <Gold.PLP.PLP>
-34.5241

> <Gold.PLP.part.hbond>
-4.0000

> <Gold.PLP.part.metal>
0.0000

> <Gold.PLP.part.buried>
-6.6096

> <Gold.PLP.part.nonpolar>
-24.0449

> <Gold.PLP.part.repulsive>
0.2187

> <Gold.PLP.ligand.clash>
0.0000

> <Gold.PLP.ligand.torsion>
0.4818

> <Gold.PLP.Chemscore.Hbond>
4.8800

> <Gold.PLP.Chemscore.CHOScore>
0.0000

> <Gold.PLP.Chemscore.Metal>
0.0000

> <Gold.Chemscore.Hbonds>
donor molecule, donor type, donor heavy atom, donor atom, acceptor molecule, acceptor atom, score
      L1  H    10    33       P1 10747  1.00
      L1  H    13    34       P1 10747  1.00
      L1  H    17    43       P1 10186  2.00
      P1  H  6896  6908       L1     4  0.86

> <Gold.PLP.Chemscore.Internal.Correction>
0.0060

> <Gold.Rescore>
     Score         DG    S(hbond)    S(metal)    S(lipo)     H(rot)  DE(clash)    DE(int)     intcor
     18.86     -22.09       3.52        0.00      78.37       1.69       0.04       3.20       ----

> <Gold.Chemscore.Fitness>
18.8569

> <Gold.Chemscore.DG>
-22.0927

> <Gold.Chemscore.ZeroCoef>
-5.4800

> <Gold.Chemscore.Hbond>
3.5224

> <Gold.Chemscore.Metal>
0.0000

> <Gold.Chemscore.Lipo>
78.3750

> <Gold.Chemscore.Internal_Hbond>
0.0000

> <Gold.Chemscore.DEClash>
0.0358

> <Gold.Chemscore.DEInternal>
3.2001

> <Gold.Chemscore.Rot>
1.6883

> <Gold.Chemscore.Internal.Correction>
   9.000000E+99

> <Gold.Chemscore.Hbonds>
donor molecule, donor type, donor heavy atom, donor atom, acceptor molecule, acceptor atom, score
      L1  H    10    33       P1 10747  0.37
      L1  H    13    34       P1 10747  1.00
      L1  H    17    43       P1 10186  0.99
      P1  H  6896  6908       L1     4  0.85

> <Gold.Chemscore.Hbond.Weighted>
-11.7649

> <Gold.Chemscore.Metal.Weighted>
-0.0000

> <Gold.Chemscore.Lipo.Weighted>
-9.1699

> <Gold.Chemscore.Internal_Hbond.Weighted>
0.0000

> <Gold.Chemscore.DEClash.Weighted>
0.0358

> <Gold.Chemscore.DEInternal.Weighted>
3.2001

> <Gold.Chemscore.Rot.Weighted>
4.3221

> <Gold.Chemscore.Internal.Correction.Weighted>
   9.000000E+99

> <Gold.Protein.RotatedTorsions>
[ 6907 6896 6895 6894 ] final   35.40 input  -60.11 | X-H torsion
[ 7974 7965 7964 7962 ] final -143.95 input  175.53 | X-H torsion
[ 8008 7997 7996 7995 ] final -105.38 input   59.86 | X-H torsion
[ 10167 10162 10161 10158 ] final  154.39 input  -65.29 | X-H torsion
[ 10718 10713 10712 10709 ] final   22.64 input   66.30 | X-H torsion
[ 10763 10752 10751 10750 ] final -127.01 input  -60.55 | X-H torsion
[ 11005 11000 10999 10996 ] final -177.05 input  -57.11 | X-H torsion

> <Gold.Protein.ActiveResidues>
 VAL166  LYS551  ARG553  GLY616  TRP617  ASP618  TYR619  PRO620  LYS621  CYS622 
 ASP623  PHE694  ASN695  SER759  ASP760  ASP761  ALA762  ILE779  LEU786  VAL792 
 PHE793  MET794  SER795  GLU796  ALA797  LYS798  CYS799  TRP800  GLU811  SER814 

> <Gold.Protein.RotatedAtoms>
  152.1156  134.9243  160.0564 H   0  0  0  0  0  0  0  0  0  0  0  0  # atno 6907 bound_to 6896
  152.0403  133.3970  159.4342 H   0  0  0  0  0  0  0  0  0  0  0  0  # atno 6908 bound_to 6896
  150.6846  134.3342  159.4884 H   0  0  0  0  0  0  0  0  0  0  0  0  # atno 6909 bound_to 6896
  144.8333  140.5771  143.5501 H   0  0  0  0  0  0  0  0  0  0  0  0  # atno 7974 bound_to 7965
  154.8990  140.0413  157.1882 H   0  0  0  0  0  0  0  0  0  0  0  0  # atno 8008 bound_to 7997
  154.8463  140.2922  155.5605 H   0  0  0  0  0  0  0  0  0  0  0  0  # atno 8009 bound_to 7997
  156.2994  140.2473  156.3415 H   0  0  0  0  0  0  0  0  0  0  0  0  # atno 8010 bound_to 7997
  139.4823  144.5191  151.7905 H   0  0  0  0  0  0  0  0  0  0  0  0  # atno 10167 bound_to 10162
  157.1551  130.6692  149.6025 H   0  0  0  0  0  0  0  0  0  0  0  0  # atno 10718 bound_to 10713
  154.8750  135.3976  154.3525 H   0  0  0  0  0  0  0  0  0  0  0  0  # atno 10763 bound_to 10752
  153.4308  135.7025  153.6237 H   0  0  0  0  0  0  0  0  0  0  0  0  # atno 10764 bound_to 10752
  153.4859  135.3759  155.2436 H   0  0  0  0  0  0  0  0  0  0  0  0  # atno 10765 bound_to 10752
  140.4452  134.6394  157.4776 H   0  0  0  0  0  0  0  0  0  0  0  0  # atno 11005 bound_to 11000
  145.4850  139.1492  143.3741 LP  0  0  0  0  0  0  0  0  0  0  0  0  # atno 17320 bound_to 7965
  146.2634  140.4986  142.8844 LP  0  0  0  0  0  0  0  0  0  0  0  0  # atno 17321 bound_to 7965
  140.4703  144.1597  150.5917 LP  0  0  0  0  0  0  0  0  0  0  0  0  # atno 17342 bound_to 10162
  140.4390  143.2535  151.9498 LP  0  0  0  0  0  0  0  0  0  0  0  0  # atno 17343 bound_to 10162
  155.9763  130.4731  150.6522 LP  0  0  0  0  0  0  0  0  0  0  0  0  # atno 17370 bound_to 10713
  157.4184  131.0833  151.1154 LP  0  0  0  0  0  0  0  0  0  0  0  0  # atno 17371 bound_to 10713
  140.0043  134.6788  155.9480 LP  0  0  0  0  0  0  0  0  0  0  0  0  # atno 17394 bound_to 11000
  141.1688  133.6537  156.4576 LP  0  0  0  0  0  0  0  0  0  0  0  0  # atno 17395 bound_to 11000

$$$$
