AV-unprocessed.smi:1827|AV-procd|sdf|7419|dock10
  -GOLD-   22720 9103D 1   1.00000     0.00000
 Structure written by MMmdl.
 43 44  0  0  0  0  0  0  0  0  1 V2000
  138.2818  138.5387  153.6717 C   0  0  0  0  0  0  0  0  0  0  0  0
  138.8213  139.8864  154.0641 C   0  0  0  0  0  0  0  0  0  0  0  0
  137.9826  140.7907  154.5532 N   0  0  0  0  0  0  0  0  0  0  0  0
  138.7623  141.8480  154.8662 N   0  0  0  0  0  0  0  0  0  0  0  0
  140.0960  141.6484  154.5896 C   0  0  0  0  0  0  0  0  0  0  0  0
  141.1369  142.6798  154.8719 C   0  0  0  0  0  0  0  0  0  0  0  0
  140.1560  140.3992  154.0432 C   0  0  0  0  0  0  0  0  0  0  0  0
  141.3530  139.7626  153.6308 N   0  0  0  0  0  0  0  0  0  0  0  0
  141.6247  138.4499  153.6815 C   0  0  0  0  0  0  0  0  0  0  0  0
  140.8395  137.5822  154.0632 O   0  0  0  0  0  0  0  0  0  0  0  0
  142.8638  138.1899  153.2411 N   0  0  0  0  0  0  0  0  0  0  0  0
  143.4698  136.8640  153.1697 C   0  0  0  0  0  0  0  0  0  0  0  0
  144.7280  136.8798  152.2859 C   0  0  0  0  0  0  0  0  0  0  0  0
  145.2891  135.4603  152.0961 C   0  0  0  0  0  0  0  0  0  0  0  0
  144.2803  134.5810  151.4964 N   0  0  0  0  0  0  0  0  0  0  0  0
  144.8923  133.2637  151.2078 C   0  0  0  0  0  0  0  0  0  0  0  0
  144.2062  132.4770  150.0845 C   0  0  0  0  0  0  0  0  0  0  0  0
  144.2654  132.9922  148.8540 N   0  0  0  0  0  0  0  0  0  0  0  0
  143.6351  131.4155  150.3253 O   0  0  0  0  0  0  0  0  0  0  0  0
  143.1075  134.4786  152.3772 C   0  0  0  0  0  0  0  0  0  0  0  0
  142.4647  135.8615  152.5852 C   0  0  0  0  0  0  0  0  0  0  0  0
  138.3738  142.6881  155.2709 H   0  0  0  0  0  0  0  0  0  0  0  0
  139.0130  137.7514  153.8546 H   0  0  0  0  0  0  0  0  0  0  0  0
  138.0184  138.5154  152.6141 H   0  0  0  0  0  0  0  0  0  0  0  0
  137.3860  138.2864  154.2401 H   0  0  0  0  0  0  0  0  0  0  0  0
  142.1398  142.2754  154.7346 H   0  0  0  0  0  0  0  0  0  0  0  0
  141.0580  143.0393  155.8980 H   0  0  0  0  0  0  0  0  0  0  0  0
  141.0247  143.5338  154.2039 H   0  0  0  0  0  0  0  0  0  0  0  0
  142.0348  140.3518  153.1763 H   0  0  0  0  0  0  0  0  0  0  0  0
  143.4346  138.9665  152.9410 H   0  0  0  0  0  0  0  0  0  0  0  0
  143.7407  136.5370  154.1756 H   0  0  0  0  0  0  0  0  0  0  0  0
  144.4943  137.3106  151.3108 H   0  0  0  0  0  0  0  0  0  0  0  0
  145.4927  137.5182  152.7297 H   0  0  0  0  0  0  0  0  0  0  0  0
  146.1651  135.5139  151.4483 H   0  0  0  0  0  0  0  0  0  0  0  0
  145.6269  135.0566  153.0524 H   0  0  0  0  0  0  0  0  0  0  0  0
  145.9304  133.4068  150.9043 H   0  0  0  0  0  0  0  0  0  0  0  0
  144.9173  132.6624  152.1189 H   0  0  0  0  0  0  0  0  0  0  0  0
  143.8277  132.5097  148.0829 H   0  0  0  0  0  0  0  0  0  0  0  0
  144.7488  133.8654  148.7006 H   0  0  0  0  0  0  0  0  0  0  0  0
  142.3537  133.8192  151.9474 H   0  0  0  0  0  0  0  0  0  0  0  0
  143.3951  134.0461  153.3370 H   0  0  0  0  0  0  0  0  0  0  0  0
  141.6024  135.7700  153.2466 H   0  0  0  0  0  0  0  0  0  0  0  0
  142.0840  136.2280  151.6305 H   0  0  0  0  0  0  0  0  0  0  0  0
  1  2  1  0  0  0  0
  1 23  1  0  0  0  0
  1 24  1  0  0  0  0
  1 25  1  0  0  0  0
  2  7  1  0  0  0  0
  2  3  2  0  0  0  0
  3  4  1  0  0  0  0
  4 22  1  0  0  0  0
  4  5  1  0  0  0  0
  5  6  1  0  0  0  0
  5  7  2  0  0  0  0
  6 26  1  0  0  0  0
  6 27  1  0  0  0  0
  6 28  1  0  0  0  0
  7  8  1  0  0  0  0
  8  9  1  0  0  0  0
  8 29  1  0  0  0  0
  9 10  2  0  0  0  0
  9 11  1  0  0  0  0
 11 12  1  0  0  0  0
 11 30  1  0  0  0  0
 12 21  1  0  0  0  0
 12 13  1  0  0  0  0
 12 31  1  0  0  0  0
 13 14  1  0  0  0  0
 13 32  1  0  0  0  0
 13 33  1  0  0  0  0
 14 15  1  0  0  0  0
 14 34  1  0  0  0  0
 14 35  1  0  0  0  0
 15 16  1  0  0  0  0
 15 20  1  0  0  0  0
 16 17  1  0  0  0  0
 16 36  1  0  0  0  0
 16 37  1  0  0  0  0
 17 18  1  0  0  0  0
 17 19  2  0  0  0  0
 18 38  1  0  0  0  0
 18 39  1  0  0  0  0
 20 21  1  0  0  0  0
 20 40  1  0  0  0  0
 20 41  1  0  0  0  0
 21 42  1  0  0  0  0
 21 43  1  0  0  0  0
M  END
> <s_m_source_file>
AV-unprocessed.smi

> <i_m_source_file_index>
1827

> <i_lp_mmshare_version>
43012

> <i_f3d_flags>
0

> <s_epik_input>
W0NIM11jMW5bbkhdYyhbQ0gzXSljMVtOSF1DKD1PKVtOSF1bQ0hdMltDSDJdW0NIMl1OKFtDSDJdW0NIMl0yKVtDSDJdQyg9TylbTkgyXQ==

> <s_epik_cmdline>
J2VwaWtfcHl0aG9uJywgJy1waCcsICc3LjAnLCAnLXRuJywgJzgnLCAnLW1hJywgJzIwMCcsICctbWV0YWxfYmluZGluZycsICctaW1hZScsICc8aW5maWxlLm1hZT4nLCAnLW9tYWUnLCAnPG91dGZpbGUubWFlPic=

> <r_lp_tautomer_probability>
0.5

> <r_epik_Ionization_Penalty>
0.165173

> <r_epik_Ionization_Penalty_Charging>
0

> <r_epik_Ionization_Penalty_Neutral>
0.165173

> <r_epik_State_Penalty>
0.154069

> <r_epik_Charging_Adjusted_Penalty>
0.154069

> <i_epik_Tot_Q>
0

> <i_epik_Tot_abs_Q>
0

> <r_epik_Metal_State_Penalty>
0.171338

> <b_epik_Metal_Only>
0

> <s_lp_Force_Field>
OPLS_2005

> <r_lp_Energy>
14.0389

> <b_lp_Chiralities_Consistent>
1

> <s_lp_Variant>
AV-unprocessed.smi:1827-1

> <Gold.Version>
5.8.1

> <Gold.Id.Protein>
6NUR|6NUR_protein|mol2

> <Gold.PLP.Fitness>
37.6944

> <Gold.PLP.PLP>
-28.0052

> <Gold.PLP.part.hbond>
-4.7754

> <Gold.PLP.part.metal>
0.0000

> <Gold.PLP.part.buried>
-5.6580

> <Gold.PLP.part.nonpolar>
-17.9910

> <Gold.PLP.part.repulsive>
0.6572

> <Gold.PLP.ligand.clash>
0.0000

> <Gold.PLP.ligand.torsion>
0.6790

> <Gold.PLP.Chemscore.Hbond>
3.5840

> <Gold.PLP.Chemscore.CHOScore>
0.0000

> <Gold.PLP.Chemscore.Metal>
0.0000

> <Gold.Chemscore.Hbonds>
donor molecule, donor type, donor heavy atom, donor atom, acceptor molecule, acceptor atom, score
      L1  H     8    29       P1 10175  0.72
      L1  H    11    30       P1 10175  1.00
      L1  H    18    39       P1  7921  0.90
      P1  H 10785 10796       L1    19  0.74

> <Gold.PLP.Chemscore.Internal.Correction>
0.2952

> <Gold.Rescore>
     Score         DG    S(hbond)    S(metal)    S(lipo)     H(rot)  DE(clash)    DE(int)     intcor
     13.84     -16.15       3.05        0.00      47.09       1.96       0.28       2.03       ----

> <Gold.Chemscore.Fitness>
13.8357

> <Gold.Chemscore.DG>
-16.1539

> <Gold.Chemscore.ZeroCoef>
-5.4800

> <Gold.Chemscore.Hbond>
3.0496

> <Gold.Chemscore.Metal>
0.0000

> <Gold.Chemscore.Lipo>
47.0924

> <Gold.Chemscore.Internal_Hbond>
0.0000

> <Gold.Chemscore.DEClash>
0.2841

> <Gold.Chemscore.DEInternal>
2.0341

> <Gold.Chemscore.Rot>
1.9616

> <Gold.Chemscore.Internal.Correction>
   9.000000E+99

> <Gold.Chemscore.Hbonds>
donor molecule, donor type, donor heavy atom, donor atom, acceptor molecule, acceptor atom, score
      L1  H     8    29       P1 10175  0.09
      L1  H    11    30       P1 10175  0.92
      L1  H    18    39       P1  7921  0.85
      P1  H 10785 10796       L1    19  0.69

> <Gold.Chemscore.Hbond.Weighted>
-10.1857

> <Gold.Chemscore.Metal.Weighted>
-0.0000

> <Gold.Chemscore.Lipo.Weighted>
-5.5098

> <Gold.Chemscore.Internal_Hbond.Weighted>
0.0000

> <Gold.Chemscore.DEClash.Weighted>
0.2841

> <Gold.Chemscore.DEInternal.Weighted>
2.0341

> <Gold.Chemscore.Rot.Weighted>
5.0216

> <Gold.Chemscore.Internal.Correction.Weighted>
   9.000000E+99

> <Gold.Protein.RotatedTorsions>
[ 6907 6896 6895 6894 ] final  -56.87 input  -60.11 | X-H torsion
[ 7974 7965 7964 7962 ] final -173.88 input  175.53 | X-H torsion
[ 8008 7997 7996 7995 ] final  114.99 input   59.86 | X-H torsion
[ 10167 10162 10161 10158 ] final   63.44 input  -65.29 | X-H torsion
[ 10718 10713 10712 10709 ] final -144.32 input   66.30 | X-H torsion
[ 10763 10752 10751 10750 ] final  -55.83 input  -60.55 | X-H torsion
[ 11005 11000 10999 10996 ] final    7.68 input  -57.11 | X-H torsion

> <Gold.Protein.ActiveResidues>
 VAL166  LYS551  ARG553  GLY616  TRP617  ASP618  TYR619  PRO620  LYS621  CYS622 
 ASP623  PHE694  ASN695  SER759  ASP760  ASP761  ALA762  ILE779  LEU786  VAL792 
 PHE793  MET794  SER795  GLU796  ALA797  LYS798  CYS799  TRP800  GLU811  SER814 

> <Gold.Protein.RotatedAtoms>
  150.8132  134.7299  159.6706 H   0  0  0  0  0  0  0  0  0  0  0  0  # atno 6907 bound_to 6896
  152.4252  134.5879  159.9976 H   0  0  0  0  0  0  0  0  0  0  0  0  # atno 6908 bound_to 6896
  151.6083  133.3312  159.3098 H   0  0  0  0  0  0  0  0  0  0  0  0  # atno 6909 bound_to 6896
  144.7135  140.1555  143.6380 H   0  0  0  0  0  0  0  0  0  0  0  0  # atno 7974 bound_to 7965
  156.2355  140.2948  156.0300 H   0  0  0  0  0  0  0  0  0  0  0  0  # atno 8008 bound_to 7997
  155.2105  140.0412  157.2949 H   0  0  0  0  0  0  0  0  0  0  0  0  # atno 8009 bound_to 7997
  154.6071  140.2442  155.7725 H   0  0  0  0  0  0  0  0  0  0  0  0  # atno 8010 bound_to 7997
  140.1330  144.4625  150.6854 H   0  0  0  0  0  0  0  0  0  0  0  0  # atno 10167 bound_to 10162
  156.3686  130.7776  151.1954 H   0  0  0  0  0  0  0  0  0  0  0  0  # atno 10718 bound_to 10713
  154.1969  135.6417  153.5076 H   0  0  0  0  0  0  0  0  0  0  0  0  # atno 10763 bound_to 10752
  153.0021  135.5442  154.6356 H   0  0  0  0  0  0  0  0  0  0  0  0  # atno 10764 bound_to 10752
  154.5759  135.2921  155.0754 H   0  0  0  0  0  0  0  0  0  0  0  0  # atno 10765 bound_to 10752
  140.5455  134.0333  155.7919 H   0  0  0  0  0  0  0  0  0  0  0  0  # atno 11005 bound_to 11000
  145.9078  139.2468  143.1456 LP  0  0  0  0  0  0  0  0  0  0  0  0  # atno 17320 bound_to 7965
  145.9747  140.8732  143.0145 LP  0  0  0  0  0  0  0  0  0  0  0  0  # atno 17321 bound_to 7965
  140.6805  143.2325  151.5395 LP  0  0  0  0  0  0  0  0  0  0  0  0  # atno 17342 bound_to 10162
  139.5510  144.2396  152.1529 LP  0  0  0  0  0  0  0  0  0  0  0  0  # atno 17343 bound_to 10162
  157.7481  131.0379  150.4476 LP  0  0  0  0  0  0  0  0  0  0  0  0  # atno 17370 bound_to 10713
  156.4700  130.4050  149.6524 LP  0  0  0  0  0  0  0  0  0  0  0  0  # atno 17371 bound_to 10713
  141.1202  133.9474  157.2744 LP  0  0  0  0  0  0  0  0  0  0  0  0  # atno 17394 bound_to 11000
  139.9482  135.0180  156.8914 LP  0  0  0  0  0  0  0  0  0  0  0  0  # atno 17395 bound_to 11000

$$$$
