AV-unprocessed.smi:2143|AV-procd|sdf|8729|dock9
  -GOLD-   2272011493D 1   1.00000     0.00000
 Structure written by MMmdl.
 44 45  0  0  0  0  0  0  0  0  1 V2000
  145.9988  142.8440  153.8247 C   0  0  0  0  0  0  0  0  0  0  0  0
  146.6936  142.5870  155.1741 C   0  0  1  0  0  0  0  0  0  0  0  0
  145.6342  142.4475  156.2868 C   0  0  0  0  0  0  0  0  0  0  0  0
  146.2681  142.2025  157.6624 C   0  0  0  0  0  0  0  0  0  0  0  0
  147.1748  140.9642  157.6351 C   0  0  0  0  0  0  0  0  0  0  0  0
  148.2537  141.0693  156.5392 C   0  0  2  0  0  0  0  0  0  0  0  0
  149.2465  142.0876  156.8848 N   0  0  0  0  0  0  0  0  0  0  0  0
  150.5273  141.8536  157.2063 C   0  0  0  0  0  0  0  0  0  0  0  0
  151.0144  140.7244  157.2715 O   0  0  0  0  0  0  0  0  0  0  0  0
  151.3779  143.0894  157.5259 C   0  0  0  0  0  0  0  0  0  0  0  0
  151.9215  143.0640  158.8893 N   0  0  0  0  0  0  0  0  0  0  0  0
  151.5356  144.0292  159.8013 C   0  0  0  0  0  0  0  0  0  0  0  0
  151.9752  144.0655  161.0782 C   0  0  0  0  0  0  0  0  0  0  0  0
  152.9088  143.0634  161.5780 C   0  0  0  0  0  0  0  0  0  0  0  0
  153.3211  143.0520  162.7383 O   0  0  0  0  0  0  0  0  0  0  0  0
  153.2962  142.0944  160.6209 N   0  0  0  0  0  0  0  0  0  0  0  0
  154.2112  141.0447  161.0184 C   0  0  0  0  0  0  0  0  0  0  0  0
  152.8211  142.0537  159.2914 C   0  0  0  0  0  0  0  0  0  0  0  0
  153.1677  141.1697  158.5034 O   0  0  0  0  0  0  0  0  0  0  0  0
  147.6291  141.3455  155.1468 C   0  0  2  0  0  0  0  0  0  0  0  0
  148.7159  141.4304  154.0554 C   0  0  0  0  0  0  0  0  0  0  0  0
  145.4302  141.9725  153.4986 H   0  0  0  0  0  0  0  0  0  0  0  0
  146.7144  143.0914  153.0411 H   0  0  0  0  0  0  0  0  0  0  0  0
  145.3060  143.6828  153.8958 H   0  0  0  0  0  0  0  0  0  0  0  0
  147.2978  143.4667  155.3999 H   0  0  0  0  0  0  0  0  0  0  0  0
  145.0176  143.3461  156.3291 H   0  0  0  0  0  0  0  0  0  0  0  0
  144.9589  141.6242  156.0500 H   0  0  0  0  0  0  0  0  0  0  0  0
  146.8428  143.0788  157.9648 H   0  0  0  0  0  0  0  0  0  0  0  0
  145.4877  142.0728  158.4129 H   0  0  0  0  0  0  0  0  0  0  0  0
  147.6359  140.8158  158.6123 H   0  0  0  0  0  0  0  0  0  0  0  0
  146.5645  140.0789  157.4527 H   0  0  0  0  0  0  0  0  0  0  0  0
  148.7629  140.1052  156.4808 H   0  0  0  0  0  0  0  0  0  0  0  0
  148.9339  143.0473  156.8636 H   0  0  0  0  0  0  0  0  0  0  0  0
  152.1890  143.1844  156.8013 H   0  0  0  0  0  0  0  0  0  0  0  0
  150.7555  143.9747  157.3884 H   0  0  0  0  0  0  0  0  0  0  0  0
  150.8407  144.7920  159.4808 H   0  0  0  0  0  0  0  0  0  0  0  0
  151.6291  144.8455  161.7405 H   0  0  0  0  0  0  0  0  0  0  0  0
  154.9703  140.9441  160.2404 H   0  0  0  0  0  0  0  0  0  0  0  0
  153.6220  140.1323  161.1215 H   0  0  0  0  0  0  0  0  0  0  0  0
  154.7079  141.2951  161.9557 H   0  0  0  0  0  0  0  0  0  0  0  0
  147.0106  140.4797  154.9043 H   0  0  0  0  0  0  0  0  0  0  0  0
  149.3047  142.3442  154.1417 H   0  0  0  0  0  0  0  0  0  0  0  0
  148.2839  141.4066  153.0552 H   0  0  0  0  0  0  0  0  0  0  0  0
  149.4031  140.5863  154.1227 H   0  0  0  0  0  0  0  0  0  0  0  0
  1  2  1  0  0  0  0
  1 22  1  0  0  0  0
  1 23  1  0  0  0  0
  1 24  1  0  0  0  0
  2 20  1  0  0  0  0
  2  3  1  0  0  0  0
  2 25  1  0  0  0  0
  3  4  1  0  0  0  0
  3 26  1  0  0  0  0
  3 27  1  0  0  0  0
  4  5  1  0  0  0  0
  4 28  1  0  0  0  0
  4 29  1  0  0  0  0
  5  6  1  0  0  0  0
  5 30  1  0  0  0  0
  5 31  1  0  0  0  0
  6  7  1  0  0  0  0
  6 20  1  0  0  0  0
  6 32  1  0  0  0  0
  7  8  1  0  0  0  0
  7 33  1  0  0  0  0
  8  9  2  0  0  0  0
  8 10  1  0  0  0  0
 10 11  1  0  0  0  0
 10 34  1  0  0  0  0
 10 35  1  0  0  0  0
 11 18  1  0  0  0  0
 11 12  1  0  0  0  0
 12 13  2  0  0  0  0
 12 36  1  0  0  0  0
 13 14  1  0  0  0  0
 13 37  1  0  0  0  0
 14 15  2  0  0  0  0
 14 16  1  0  0  0  0
 16 17  1  0  0  0  0
 16 18  1  0  0  0  0
 17 38  1  0  0  0  0
 17 39  1  0  0  0  0
 17 40  1  0  0  0  0
 18 19  2  0  0  0  0
 20 21  1  0  0  0  0
 20 41  1  0  0  0  0
 21 42  1  0  0  0  0
 21 43  1  0  0  0  0
 21 44  1  0  0  0  0
M  END
> <s_m_source_file>
AV-unprocessed.smi

> <i_m_source_file_index>
2143

> <i_lp_mmshare_version>
43012

> <i_f3d_flags>
0

> <s_epik_input>
W0NIM11bQ0BASF0xW0NIMl1bQ0gyXVtDSDJdW0NASF0oW0NASF0xW0NIM10pW05IXUMoPU8pW0NIMl1uMltjSF1bY0hdYyg9TyluKFtDSDNdKWMyPU8=

> <s_epik_cmdline>
J2VwaWtfcHl0aG9uJywgJy1waCcsICc3LjAnLCAnLXRuJywgJzgnLCAnLW1hJywgJzIwMCcsICctbWV0YWxfYmluZGluZycsICctaW1hZScsICc8aW5maWxlLm1hZT4nLCAnLW9tYWUnLCAnPG91dGZpbGUubWFlPic=

> <r_lp_tautomer_probability>
1

> <r_epik_Ionization_Penalty>
3.18445e-08

> <r_epik_Ionization_Penalty_Charging>
1.27977e-08

> <r_epik_Ionization_Penalty_Neutral>
1.90469e-08

> <r_epik_State_Penalty>
-0

> <r_epik_Charging_Adjusted_Penalty>
1.27977e-08

> <i_epik_Tot_Q>
0

> <i_epik_Tot_abs_Q>
0

> <r_epik_Metal_State_Penalty>
-0

> <b_epik_Metal_Only>
0

> <s_lp_Force_Field>
OPLS_2005

> <r_lp_Energy>
18.9337

> <b_lp_Chiralities_Consistent>
1

> <s_lp_Variant>
AV-unprocessed.smi:2143-8

> <Gold.Version>
5.8.1

> <Gold.Id.Protein>
6NUR|6NUR_protein|mol2

> <Gold.PLP.Fitness>
47.0907

> <Gold.PLP.PLP>
-44.5408

> <Gold.PLP.part.hbond>
-1.2534

> <Gold.PLP.part.metal>
0.0000

> <Gold.PLP.part.buried>
-3.2435

> <Gold.PLP.part.nonpolar>
-39.1566

> <Gold.PLP.part.repulsive>
0.1507

> <Gold.PLP.ligand.clash>
0.0000

> <Gold.PLP.ligand.torsion>
0.0516

> <Gold.PLP.Chemscore.Hbond>
0.8800

> <Gold.PLP.Chemscore.CHOScore>
0.0000

> <Gold.PLP.Chemscore.Metal>
0.0000

> <Gold.Chemscore.Hbonds>
donor molecule, donor type, donor heavy atom, donor atom, acceptor molecule, acceptor atom, score
      L1  H     7    33       P1  8028  0.81
      P1  H  7997  8009       L1    19  0.13

> <Gold.PLP.Chemscore.Internal.Correction>
0.0133

> <Gold.Rescore>
     Score         DG    S(hbond)    S(metal)    S(lipo)     H(rot)  DE(clash)    DE(int)     intcor
     11.29     -14.34       1.26        0.00      72.89       1.51       0.78       2.27       ----

> <Gold.Chemscore.Fitness>
11.2933

> <Gold.Chemscore.DG>
-14.3396

> <Gold.Chemscore.ZeroCoef>
-5.4800

> <Gold.Chemscore.Hbond>
1.2588

> <Gold.Chemscore.Metal>
0.0000

> <Gold.Chemscore.Lipo>
72.8948

> <Gold.Chemscore.Internal_Hbond>
0.0000

> <Gold.Chemscore.DEClash>
0.7759

> <Gold.Chemscore.DEInternal>
2.2704

> <Gold.Chemscore.Rot>
1.5131

> <Gold.Chemscore.Internal.Correction>
   9.000000E+99

> <Gold.Chemscore.Hbonds>
donor molecule, donor type, donor heavy atom, donor atom, acceptor molecule, acceptor atom, score
      L1  H     7    33       P1  8028  0.69
      P1  H  7997  8009       L1    19  0.13

> <Gold.Chemscore.Hbond.Weighted>
-4.2044

> <Gold.Chemscore.Metal.Weighted>
-0.0000

> <Gold.Chemscore.Lipo.Weighted>
-8.5287

> <Gold.Chemscore.Internal_Hbond.Weighted>
0.0000

> <Gold.Chemscore.DEClash.Weighted>
0.7759

> <Gold.Chemscore.DEInternal.Weighted>
2.2704

> <Gold.Chemscore.Rot.Weighted>
3.8734

> <Gold.Chemscore.Internal.Correction.Weighted>
   9.000000E+99

> <Gold.Protein.RotatedTorsions>
[ 6907 6896 6895 6894 ] final -121.08 input  -60.11 | X-H torsion
[ 7974 7965 7964 7962 ] final -164.91 input  175.53 | X-H torsion
[ 8008 7997 7996 7995 ] final  156.80 input   59.86 | X-H torsion
[ 10167 10162 10161 10158 ] final  -88.63 input  -65.29 | X-H torsion
[ 10718 10713 10712 10709 ] final   28.91 input   66.30 | X-H torsion
[ 10763 10752 10751 10750 ] final -149.24 input  -60.55 | X-H torsion
[ 11005 11000 10999 10996 ] final  -54.57 input  -57.11 | X-H torsion

> <Gold.Protein.ActiveResidues>
 VAL166  LYS551  ARG553  GLY616  TRP617  ASP618  TYR619  PRO620  LYS621  CYS622 
 ASP623  PHE694  ASN695  SER759  ASP760  ASP761  ALA762  ILE779  LEU786  VAL792 
 PHE793  MET794  SER795  GLU796  ALA797  LYS798  CYS799  TRP800  GLU811  SER814 

> <Gold.Protein.RotatedAtoms>
  150.8451  133.7874  159.3045 H   0  0  0  0  0  0  0  0  0  0  0  0  # atno 6907 bound_to 6896
  151.5563  135.1065  159.9971 H   0  0  0  0  0  0  0  0  0  0  0  0  # atno 6908 bound_to 6896
  152.4507  133.7580  159.6787 H   0  0  0  0  0  0  0  0  0  0  0  0  # atno 6909 bound_to 6896
  144.7284  140.2891  143.6223 H   0  0  0  0  0  0  0  0  0  0  0  0  # atno 7974 bound_to 7965
  156.2401  140.1902  156.7011 H   0  0  0  0  0  0  0  0  0  0  0  0  # atno 8008 bound_to 7997
  154.6181  140.0612  156.9607 H   0  0  0  0  0  0  0  0  0  0  0  0  # atno 8009 bound_to 7997
  155.1906  140.3284  155.4362 H   0  0  0  0  0  0  0  0  0  0  0  0  # atno 8010 bound_to 7997
  140.3728  143.2786  151.9480 H   0  0  0  0  0  0  0  0  0  0  0  0  # atno 10167 bound_to 10162
  157.2397  130.7063  149.6352 H   0  0  0  0  0  0  0  0  0  0  0  0  # atno 10718 bound_to 10713
  154.8188  135.3314  154.7098 H   0  0  0  0  0  0  0  0  0  0  0  0  # atno 10763 bound_to 10752
  153.7735  135.6924  153.4906 H   0  0  0  0  0  0  0  0  0  0  0  0  # atno 10764 bound_to 10752
  153.2029  135.4510  155.0236 H   0  0  0  0  0  0  0  0  0  0  0  0  # atno 10765 bound_to 10752
  141.1032  133.6616  156.4341 H   0  0  0  0  0  0  0  0  0  0  0  0  # atno 11005 bound_to 11000
  145.7873  139.1913  143.2123 LP  0  0  0  0  0  0  0  0  0  0  0  0  # atno 17320 bound_to 7965
  146.0785  140.7790  142.9653 LP  0  0  0  0  0  0  0  0  0  0  0  0  # atno 17321 bound_to 7965
  139.4802  144.5891  151.7802 LP  0  0  0  0  0  0  0  0  0  0  0  0  # atno 17342 bound_to 10162
  140.5016  144.1160  150.5972 LP  0  0  0  0  0  0  0  0  0  0  0  0  # atno 17343 bound_to 10162
  155.9670  130.4462  150.5531 LP  0  0  0  0  0  0  0  0  0  0  0  0  # atno 17370 bound_to 10713
  157.3392  131.0713  151.1801 LP  0  0  0  0  0  0  0  0  0  0  0  0  # atno 17371 bound_to 10713
  140.4968  134.6523  157.5233 LP  0  0  0  0  0  0  0  0  0  0  0  0  # atno 17394 bound_to 11000
  139.9892  134.7013  155.9720 LP  0  0  0  0  0  0  0  0  0  0  0  0  # atno 17395 bound_to 11000

$$$$
