AV-unprocessed.smi:837|AV-procd|sdf|3905|dock3
  -GOLD-   22720 1363D 1   1.00000     0.00000
 Structure written by MMmdl.
 49 51  0  0  0  0  0  0  0  0  3 V2000
  144.9748  137.5165  160.3945 C   0  0  0  0  0  0  0  0  0  0  0  0
  145.5655  136.5880  161.4782 C   0  0  1  0  0  0  0  0  0  0  0  0
  144.5301  135.5095  161.8680 C   0  0  0  0  0  0  0  0  0  0  0  0
  145.0397  134.6074  163.0010 C   0  0  0  0  0  0  0  0  0  0  0  0
  146.3717  133.9459  162.6272 C   0  0  0  0  0  0  0  0  0  0  0  0
  147.4233  135.0011  162.2443 C   0  0  0  0  0  0  0  0  0  0  0  0
  146.9558  135.9639  161.1193 C   0  0  2  0  0  0  0  0  0  0  0  0
  147.9532  137.0092  160.9648 N   0  5  0  0  0  0  0  0  0  0  0  0
  148.4801  136.9385  159.7211 C   0  0  0  0  0  0  0  0  0  0  0  0
  149.3644  137.6583  159.2572 O   0  0  0  0  0  0  0  0  0  0  0  0
  147.9211  135.9383  159.0140 N   0  0  0  0  0  0  0  0  0  0  0  0
  148.3090  135.5613  157.6496 C   0  0  0  0  0  0  0  0  0  0  0  0
  147.0783  135.1841  156.8209 C   0  0  0  0  0  0  0  0  0  0  0  0
  145.9525  135.5105  157.1959 O   0  0  0  0  0  0  0  0  0  0  0  0
  147.3131  134.4807  155.7037 N   0  0  0  0  0  0  0  0  0  0  0  0
  146.2941  133.9299  154.8155 C   0  0  0  0  0  0  0  0  0  0  0  0
  146.4501  134.3800  153.3451 C   0  0  0  0  0  0  0  0  0  0  0  0
  145.6381  133.5669  152.3469 C   0  0  0  0  0  0  0  0  0  0  0  0
  145.9407  132.2058  152.1165 C   0  0  0  0  0  0  0  0  0  0  0  0
  145.1833  131.4764  151.1773 C   0  0  0  0  0  0  0  0  0  0  0  0
  144.1475  132.1264  150.4776 C   0  0  0  0  0  0  0  0  0  0  0  0
  143.8857  133.4287  150.7228 N   0  3  0  0  0  0  0  0  0  0  0  0
  144.5801  134.1591  151.6230 C   0  0  0  0  0  0  0  0  0  0  0  0
  147.0081  135.2928  159.7476 C   0  0  0  0  0  0  0  0  0  0  0  0
  146.3279  134.3253  159.4043 O   0  0  0  0  0  0  0  0  0  0  0  0
  144.7421  136.9752  159.4772 H   0  0  0  0  0  0  0  0  0  0  0  0
  145.6596  138.3256  160.1401 H   0  0  0  0  0  0  0  0  0  0  0  0
  144.0504  137.9780  160.7419 H   0  0  0  0  0  0  0  0  0  0  0  0
  145.7151  137.2091  162.3633 H   0  0  0  0  0  0  0  0  0  0  0  0
  143.6023  135.9872  162.1844 H   0  0  0  0  0  0  0  0  0  0  0  0
  144.2736  134.8998  161.0016 H   0  0  0  0  0  0  0  0  0  0  0  0
  145.1668  135.1976  163.9092 H   0  0  0  0  0  0  0  0  0  0  0  0
  144.2969  133.8427  163.2298 H   0  0  0  0  0  0  0  0  0  0  0  0
  146.7360  133.3523  163.4659 H   0  0  0  0  0  0  0  0  0  0  0  0
  146.2193  133.2460  161.8056 H   0  0  0  0  0  0  0  0  0  0  0  0
  147.6742  135.5786  163.1358 H   0  0  0  0  0  0  0  0  0  0  0  0
  148.3428  134.4915  161.9522 H   0  0  0  0  0  0  0  0  0  0  0  0
  148.8283  136.3847  157.1564 H   0  0  0  0  0  0  0  0  0  0  0  0
  149.0208  134.7341  157.6716 H   0  0  0  0  0  0  0  0  0  0  0  0
  148.2746  134.2663  155.4808 H   0  0  0  0  0  0  0  0  0  0  0  0
  146.2786  132.8414  154.8849 H   0  0  0  0  0  0  0  0  0  0  0  0
  145.3316  134.2748  155.1938 H   0  0  0  0  0  0  0  0  0  0  0  0
  146.1603  135.4280  153.2613 H   0  0  0  0  0  0  0  0  0  0  0  0
  147.5012  134.3389  153.0583 H   0  0  0  0  0  0  0  0  0  0  0  0
  146.7505  131.7235  152.6445 H   0  0  0  0  0  0  0  0  0  0  0  0
  145.4078  130.4384  150.9797 H   0  0  0  0  0  0  0  0  0  0  0  0
  143.5320  131.6500  149.7287 H   0  0  0  0  0  0  0  0  0  0  0  0
  144.2793  135.1914  151.7246 H   0  0  0  0  0  0  0  0  0  0  0  0
  143.1355  133.8810  150.2001 H   0  0  0  0  0  0  0  0  0  0  0  0
  1  2  1  0  0  0  0
  1 26  1  0  0  0  0
  1 27  1  0  0  0  0
  1 28  1  0  0  0  0
  2  7  1  0  0  0  0
  2  3  1  0  0  0  0
  2 29  1  0  0  0  0
  3  4  1  0  0  0  0
  3 30  1  0  0  0  0
  3 31  1  0  0  0  0
  4  5  1  0  0  0  0
  4 32  1  0  0  0  0
  4 33  1  0  0  0  0
  5  6  1  0  0  0  0
  5 34  1  0  0  0  0
  5 35  1  0  0  0  0
  6  7  1  0  0  0  0
  6 36  1  0  0  0  0
  6 37  1  0  0  0  0
  7 24  1  0  0  0  0
  7  8  1  0  0  0  0
  8  9  1  0  0  0  0
  9 10  2  0  0  0  0
  9 11  1  0  0  0  0
 11 12  1  0  0  0  0
 11 24  1  0  0  0  0
 12 13  1  0  0  0  0
 12 38  1  0  0  0  0
 12 39  1  0  0  0  0
 13 14  2  0  0  0  0
 13 15  1  0  0  0  0
 15 16  1  0  0  0  0
 15 40  1  0  0  0  0
 16 17  1  0  0  0  0
 16 41  1  0  0  0  0
 16 42  1  0  0  0  0
 17 18  1  0  0  0  0
 17 43  1  0  0  0  0
 17 44  1  0  0  0  0
 18 23  1  0  0  0  0
 18 19  2  0  0  0  0
 19 20  1  0  0  0  0
 19 45  1  0  0  0  0
 20 21  2  0  0  0  0
 20 46  1  0  0  0  0
 21 22  1  0  0  0  0
 21 47  1  0  0  0  0
 22 23  2  0  0  0  0
 22 49  1  0  0  0  0
 23 48  1  0  0  0  0
 24 25  2  0  0  0  0
M  CHG  1   8  -1
M  CHG  1  22   1
M  END
> <s_m_source_file>
AV-unprocessed.smi

> <i_m_source_file_index>
837

> <i_lp_mmshare_version>
43012

> <i_f3d_flags>
0

> <s_epik_input>
W0NIMl0xW0NIMl1bQ0gyXVtDSDJdW0NAQEhdKFtDSDNdKVtDQEBdMTJbTkhdQyg9TylOKEMyPU8pW0NIMl1DKD1PKVtOSF1bQ0gyXVtDSDJdYzNbY0hdW2NIXVtjSF1uW2NIXTM=

> <s_epik_cmdline>
J2VwaWtfcHl0aG9uJywgJy1waCcsICc3LjAnLCAnLXRuJywgJzgnLCAnLW1hJywgJzIwMCcsICctbWV0YWxfYmluZGluZycsICctaW1hZScsICc8aW5maWxlLm1hZT4nLCAnLW9tYWUnLCAnPG91dGZpbGUubWFlPic=

> <r_lp_tautomer_probability>
1

> <r_epik_Ionization_Penalty>
8.27169

> <r_epik_Ionization_Penalty_Charging>
8.27169

> <r_epik_Ionization_Penalty_Neutral>
1.56557e-07

> <r_epik_State_Penalty>
8.42098

> <r_epik_Charging_Adjusted_Penalty>
16.6927

> <i_epik_Tot_Q>
0

> <i_epik_Tot_abs_Q>
2

> <r_epik_Metal_State_Penalty>
4.38565

> <b_epik_Metal_Only>
1

> <s_lp_Force_Field>
OPLS_2005

> <r_lp_Energy>
12.2851

> <b_lp_Chiralities_Consistent>
1

> <s_lp_Variant>
AV-unprocessed.smi:837-14

> <Gold.Version>
5.8.1

> <Gold.Id.Protein>
6NUR|6NUR_protein|mol2

> <Gold.PLP.Fitness>
50.3404

> <Gold.PLP.PLP>
-35.1175

> <Gold.PLP.part.hbond>
-3.6666

> <Gold.PLP.part.metal>
0.0000

> <Gold.PLP.part.buried>
-6.0296

> <Gold.PLP.part.nonpolar>
-25.7149

> <Gold.PLP.part.repulsive>
0.0084

> <Gold.PLP.ligand.clash>
0.0000

> <Gold.PLP.ligand.torsion>
0.6057

> <Gold.PLP.Chemscore.Hbond>
5.4560

> <Gold.PLP.Chemscore.CHOScore>
0.0000

> <Gold.PLP.Chemscore.Metal>
0.0000

> <Gold.Chemscore.Hbonds>
donor molecule, donor type, donor heavy atom, donor atom, acceptor molecule, acceptor atom, score
      L1  H    22    49       P1 10186  0.71
      P1  H  6931  6943       L1     8  2.00
      P1  H  6934  6947       L1     8  1.12

> <Gold.PLP.Chemscore.Internal.Correction>
0.0662

> <Gold.Rescore>
     Score         DG    S(hbond)    S(metal)    S(lipo)     H(rot)  DE(clash)    DE(int)     intcor
     15.29     -16.90       2.16        0.00      78.07       1.92       0.01       1.60       ----

> <Gold.Chemscore.Fitness>
15.2878

> <Gold.Chemscore.DG>
-16.9044

> <Gold.Chemscore.ZeroCoef>
-5.4800

> <Gold.Chemscore.Hbond>
2.1555

> <Gold.Chemscore.Metal>
0.0000

> <Gold.Chemscore.Lipo>
78.0668

> <Gold.Chemscore.Internal_Hbond>
0.0000

> <Gold.Chemscore.DEClash>
0.0126

> <Gold.Chemscore.DEInternal>
1.6040

> <Gold.Chemscore.Rot>
1.9175

> <Gold.Chemscore.Internal.Correction>
   9.000000E+99

> <Gold.Chemscore.Hbonds>
donor molecule, donor type, donor heavy atom, donor atom, acceptor molecule, acceptor atom, score
      L1  H    22    49       P1 10186  0.35
      P1  H  6931  6943       L1     8  0.47
      P1  H  6934  6947       L1     8  0.13

> <Gold.Chemscore.Hbond.Weighted>
-7.1993

> <Gold.Chemscore.Metal.Weighted>
-0.0000

> <Gold.Chemscore.Lipo.Weighted>
-9.1338

> <Gold.Chemscore.Internal_Hbond.Weighted>
0.0000

> <Gold.Chemscore.DEClash.Weighted>
0.0126

> <Gold.Chemscore.DEInternal.Weighted>
1.6040

> <Gold.Chemscore.Rot.Weighted>
4.9087

> <Gold.Chemscore.Internal.Correction.Weighted>
   9.000000E+99

> <Gold.Protein.RotatedTorsions>
[ 6907 6896 6895 6894 ] final  -34.06 input  -60.11 | X-H torsion
[ 7974 7965 7964 7962 ] final  -25.62 input  175.53 | X-H torsion
[ 8008 7997 7996 7995 ] final   24.94 input   59.86 | X-H torsion
[ 10167 10162 10161 10158 ] final   50.61 input  -65.29 | X-H torsion
[ 10718 10713 10712 10709 ] final  108.59 input   66.30 | X-H torsion
[ 10763 10752 10751 10750 ] final  166.70 input  -60.55 | X-H torsion
[ 11005 11000 10999 10996 ] final  130.82 input  -57.11 | X-H torsion

> <Gold.Protein.ActiveResidues>
 VAL166  LYS551  ARG553  GLY616  TRP617  ASP618  TYR619  PRO620  LYS621  CYS622 
 ASP623  PHE694  ASN695  SER759  ASP760  ASP761  ALA762  ILE779  LEU786  VAL792 
 PHE793  MET794  SER795  GLU796  ALA797  LYS798  CYS799  TRP800  GLU811  SER814 

> <Gold.Protein.RotatedAtoms>
  151.0575  134.9715  159.8243 H   0  0  0  0  0  0  0  0  0  0  0  0  # atno 6907 bound_to 6896
  152.5390  134.2459  159.8890 H   0  0  0  0  0  0  0  0  0  0  0  0  # atno 6908 bound_to 6896
  151.2477  133.4323  159.2644 H   0  0  0  0  0  0  0  0  0  0  0  0  # atno 6909 bound_to 6896
  146.1479  140.4910  142.8624 H   0  0  0  0  0  0  0  0  0  0  0  0  # atno 7974 bound_to 7965
  155.0040  140.3128  155.4856 H   0  0  0  0  0  0  0  0  0  0  0  0  # atno 8008 bound_to 7997
  156.2920  140.2226  156.5093 H   0  0  0  0  0  0  0  0  0  0  0  0  # atno 8009 bound_to 7997
  154.7593  140.0460  157.0948 H   0  0  0  0  0  0  0  0  0  0  0  0  # atno 8010 bound_to 7997
  140.2707  144.3269  150.6291 H   0  0  0  0  0  0  0  0  0  0  0  0  # atno 10167 bound_to 10162
  157.6579  131.0897  150.6328 H   0  0  0  0  0  0  0  0  0  0  0  0  # atno 10718 bound_to 10713
  154.3429  135.2754  155.2413 H   0  0  0  0  0  0  0  0  0  0  0  0  # atno 10763 bound_to 10752
  154.4676  135.5891  153.6302 H   0  0  0  0  0  0  0  0  0  0  0  0  # atno 10764 bound_to 10752
  152.9856  135.6080  154.3632 H   0  0  0  0  0  0  0  0  0  0  0  0  # atno 10765 bound_to 10752
  139.9694  134.9581  156.9349 H   0  0  0  0  0  0  0  0  0  0  0  0  # atno 11005 bound_to 11000
  144.7868  140.5953  143.6568 LP  0  0  0  0  0  0  0  0  0  0  0  0  # atno 17320 bound_to 7965
  145.4893  139.1490  143.3718 LP  0  0  0  0  0  0  0  0  0  0  0  0  # atno 17321 bound_to 7965
  140.5892  143.2168  151.7284 LP  0  0  0  0  0  0  0  0  0  0  0  0  # atno 17342 bound_to 10162
  139.4990  144.3964  152.0226 LP  0  0  0  0  0  0  0  0  0  0  0  0  # atno 17343 bound_to 10162
  156.6633  130.4518  149.5681 LP  0  0  0  0  0  0  0  0  0  0  0  0  # atno 17370 bound_to 10713
  156.2051  130.6644  151.1210 LP  0  0  0  0  0  0  0  0  0  0  0  0  # atno 17371 bound_to 10713
  140.5326  134.0799  155.7320 LP  0  0  0  0  0  0  0  0  0  0  0  0  # atno 17394 bound_to 11000
  141.1374  133.9198  157.2403 LP  0  0  0  0  0  0  0  0  0  0  0  0  # atno 17395 bound_to 11000

$$$$
