AV-unprocessed.smi:512|AV-procd|sdf|2771|dock5
  -GOLD-   2262023243D 1   1.00000     0.00000
 Structure written by MMmdl.
 47 49  0  0  0  0  0  0  0  0  2 V2000
  147.9500  141.4967  154.2521 C   0  0  0  0  0  0  0  0  0  0  0  0
  147.5667  141.1983  155.7033 C   0  0  0  0  0  0  0  0  0  0  0  0
  147.7255  139.8106  155.9436 O   0  0  0  0  0  0  0  0  0  0  0  0
  147.6936  139.4862  157.3232 C   0  0  0  0  0  0  0  0  0  0  0  0
  147.8491  137.9642  157.4740 C   0  0  0  0  0  0  0  0  0  0  0  0
  148.9585  137.6023  158.3524 N   0  0  0  0  0  0  0  0  0  0  0  0
  148.9534  136.8089  159.4635 C   0  0  0  0  0  0  0  0  0  0  0  0
  147.8018  136.1992  159.9802 N   0  0  0  0  0  0  0  0  0  0  0  0
  147.2336  136.5126  161.2910 C   0  0  0  0  0  0  0  0  0  0  0  0
  146.9761  135.2300  162.1062 C   0  0  0  0  0  0  0  0  0  0  0  0
  146.0120  134.3884  161.3990 N   0  0  0  0  0  0  0  0  0  0  0  0
  145.7718  133.1712  162.1603 C   0  0  0  0  0  0  0  0  0  0  0  0
  146.5676  134.0489  160.0902 C   0  0  0  0  0  0  0  0  0  0  0  0
  146.8275  135.3458  159.2986 C   0  0  0  0  0  0  0  0  0  0  0  0
  150.1591  136.6244  160.0078 N   0  0  0  0  0  0  0  0  0  0  0  0
  150.9966  137.3704  159.1961 C   0  0  0  0  0  0  0  0  0  0  0  0
  150.3022  137.9617  158.1888 C   0  0  0  0  0  0  0  0  0  0  0  0
  150.9317  138.7971  157.1404 C   0  0  0  0  0  0  0  0  0  0  0  0
  150.2647  139.2904  156.2334 O   0  0  0  0  0  0  0  0  0  0  0  0
  152.2842  138.9252  157.3221 N   0  5  0  0  0  0  0  0  0  0  0  0
  153.0240  138.3500  158.3326 C   0  0  0  0  0  0  0  0  0  0  0  0
  154.2408  138.5179  158.4244 O   0  0  0  0  0  0  0  0  0  0  0  0
  152.4025  137.5668  159.2690 N   0  0  0  0  0  0  0  0  0  0  0  0
  153.1644  136.9354  160.3503 C   0  0  0  0  0  0  0  0  0  0  0  0
  147.8360  142.5577  154.0293 H   0  0  0  0  0  0  0  0  0  0  0  0
  147.3204  140.9387  153.5586 H   0  0  0  0  0  0  0  0  0  0  0  0
  148.9874  141.2233  154.0583 H   0  0  0  0  0  0  0  0  0  0  0  0
  148.2001  141.7734  156.3802 H   0  0  0  0  0  0  0  0  0  0  0  0
  146.5326  141.4956  155.8842 H   0  0  0  0  0  0  0  0  0  0  0  0
  148.4956  140.0081  157.8455 H   0  0  0  0  0  0  0  0  0  0  0  0
  146.7573  139.8287  157.7639 H   0  0  0  0  0  0  0  0  0  0  0  0
  146.9291  137.5155  157.8413 H   0  0  0  0  0  0  0  0  0  0  0  0
  148.0083  137.5039  156.4993 H   0  0  0  0  0  0  0  0  0  0  0  0
  147.9187  137.1530  161.8471 H   0  0  0  0  0  0  0  0  0  0  0  0
  146.3115  137.0823  161.1667 H   0  0  0  0  0  0  0  0  0  0  0  0
  147.9106  134.6901  162.2690 H   0  0  0  0  0  0  0  0  0  0  0  0
  146.5785  135.4915  163.0874 H   0  0  0  0  0  0  0  0  0  0  0  0
  145.0546  132.5334  161.6427 H   0  0  0  0  0  0  0  0  0  0  0  0
  145.3583  133.4093  163.1409 H   0  0  0  0  0  0  0  0  0  0  0  0
  146.6920  132.6033  162.3057 H   0  0  0  0  0  0  0  0  0  0  0  0
  147.4881  133.4737  160.2016 H   0  0  0  0  0  0  0  0  0  0  0  0
  145.8592  133.4225  159.5470 H   0  0  0  0  0  0  0  0  0  0  0  0
  145.8952  135.8991  159.1767 H   0  0  0  0  0  0  0  0  0  0  0  0
  147.1534  135.1080  158.2912 H   0  0  0  0  0  0  0  0  0  0  0  0
  153.9534  136.3015  159.9439 H   0  0  0  0  0  0  0  0  0  0  0  0
  152.5453  136.3082  160.9911 H   0  0  0  0  0  0  0  0  0  0  0  0
  153.6268  137.6941  160.9827 H   0  0  0  0  0  0  0  0  0  0  0  0
  1  2  1  0  0  0  0
  1 25  1  0  0  0  0
  1 26  1  0  0  0  0
  1 27  1  0  0  0  0
  2  3  1  0  0  0  0
  2 28  1  0  0  0  0
  2 29  1  0  0  0  0
  3  4  1  0  0  0  0
  4  5  1  0  0  0  0
  4 30  1  0  0  0  0
  4 31  1  0  0  0  0
  5  6  1  0  0  0  0
  5 32  1  0  0  0  0
  5 33  1  0  0  0  0
  6 17  1  0  0  0  0
  6  7  1  0  0  0  0
  7  8  1  0  0  0  0
  7 15  2  0  0  0  0
  8 14  1  0  0  0  0
  8  9  1  0  0  0  0
  9 10  1  0  0  0  0
  9 34  1  0  0  0  0
  9 35  1  0  0  0  0
 10 11  1  0  0  0  0
 10 36  1  0  0  0  0
 10 37  1  0  0  0  0
 11 12  1  0  0  0  0
 11 13  1  0  0  0  0
 12 38  1  0  0  0  0
 12 39  1  0  0  0  0
 12 40  1  0  0  0  0
 13 14  1  0  0  0  0
 13 41  1  0  0  0  0
 13 42  1  0  0  0  0
 14 43  1  0  0  0  0
 14 44  1  0  0  0  0
 15 16  1  0  0  0  0
 16 23  1  0  0  0  0
 16 17  2  0  0  0  0
 17 18  1  0  0  0  0
 18 19  2  0  0  0  0
 18 20  1  0  0  0  0
 20 21  1  0  0  0  0
 21 22  2  0  0  0  0
 21 23  1  0  0  0  0
 23 24  1  0  0  0  0
 24 45  1  0  0  0  0
 24 46  1  0  0  0  0
 24 47  1  0  0  0  0
M  CHG  1  20  -1
M  END
> <s_m_source_file>
AV-unprocessed.smi

> <i_m_source_file_index>
512

> <i_lp_mmshare_version>
43012

> <i_f3d_flags>
0

> <s_epik_input>
W0NIM11uMWMoPU8pW25IXWMoPU8pYyhjMTIpbihbQ0gyXVtDSDJdT1tDSDJdW0NIM10pYyhuMilOM1tDSDJdW0NIMl1OKFtDSDNdKVtDSDJdW0NIMl0z

> <s_epik_cmdline>
J2VwaWtfcHl0aG9uJywgJy1waCcsICc3LjAnLCAnLXRuJywgJzgnLCAnLW1hJywgJzIwMCcsICctbWV0YWxfYmluZGluZycsICctaW1hZScsICc8aW5maWxlLm1hZT4nLCAnLW9tYWUnLCAnPG91dGZpbGUubWFlPic=

> <r_epik_Ionization_Penalty>
7.67022

> <r_epik_Ionization_Penalty_Charging>
0.0776929

> <r_epik_Ionization_Penalty_Neutral>
7.59253

> <r_epik_State_Penalty>
7.66971

> <r_epik_Charging_Adjusted_Penalty>
7.7474

> <i_epik_Tot_Q>
-1

> <i_epik_Tot_abs_Q>
1

> <r_epik_Metal_State_Penalty>
3.61867

> <b_epik_Metal_Only>
1

> <s_lp_Force_Field>
OPLS_2005

> <r_lp_Energy>
53.7442

> <b_lp_Chiralities_Consistent>
1

> <s_lp_Variant>
AV-unprocessed.smi:512-4

> <Gold.Version>
5.8.1

> <Gold.Id.Protein>
6NUR|6NUR_protein|mol2

> <Gold.PLP.Fitness>
38.2047

> <Gold.PLP.PLP>
-31.6965

> <Gold.PLP.part.hbond>
-3.5439

> <Gold.PLP.part.metal>
0.0000

> <Gold.PLP.part.buried>
-1.2536

> <Gold.PLP.part.nonpolar>
-26.8009

> <Gold.PLP.part.repulsive>
0.0054

> <Gold.PLP.ligand.clash>
0.0000

> <Gold.PLP.ligand.torsion>
1.5436

> <Gold.PLP.Chemscore.Hbond>
3.1685

> <Gold.PLP.Chemscore.CHOScore>
0.0000

> <Gold.PLP.Chemscore.Metal>
0.0000

> <Gold.Chemscore.Hbonds>
donor molecule, donor type, donor heavy atom, donor atom, acceptor molecule, acceptor atom, score
      P1  H  6896  6907       L1    15  0.75

> <Gold.PLP.Chemscore.Internal.Correction>
0.0900

> <Gold.Rescore>
     Score         DG    S(hbond)    S(metal)    S(lipo)     H(rot)  DE(clash)    DE(int)     intcor
     10.40     -12.45       1.65        0.00      47.58       1.61       0.40       1.65       ----

> <Gold.Chemscore.Fitness>
10.4041

> <Gold.Chemscore.DG>
-12.4539

> <Gold.Chemscore.ZeroCoef>
-5.4800

> <Gold.Chemscore.Hbond>
1.6525

> <Gold.Chemscore.Metal>
0.0000

> <Gold.Chemscore.Lipo>
47.5812

> <Gold.Chemscore.Internal_Hbond>
0.0000

> <Gold.Chemscore.DEClash>
0.3989

> <Gold.Chemscore.DEInternal>
1.6509

> <Gold.Chemscore.Rot>
1.6064

> <Gold.Chemscore.Internal.Correction>
   9.000000E+99

> <Gold.Chemscore.Hbonds>
donor molecule, donor type, donor heavy atom, donor atom, acceptor molecule, acceptor atom, score
      P1  H  6896  6907       L1    15  0.09

> <Gold.Chemscore.Hbond.Weighted>
-5.5192

> <Gold.Chemscore.Metal.Weighted>
-0.0000

> <Gold.Chemscore.Lipo.Weighted>
-5.5670

> <Gold.Chemscore.Internal_Hbond.Weighted>
0.0000

> <Gold.Chemscore.DEClash.Weighted>
0.3989

> <Gold.Chemscore.DEInternal.Weighted>
1.6509

> <Gold.Chemscore.Rot.Weighted>
4.1123

> <Gold.Chemscore.Internal.Correction.Weighted>
   9.000000E+99

> <Gold.Protein.RotatedTorsions>
[ 6907 6896 6895 6894 ] final  -24.42 input  -60.11 | X-H torsion
[ 7974 7965 7964 7962 ] final   42.80 input  175.53 | X-H torsion
[ 8008 7997 7996 7995 ] final   69.83 input   59.86 | X-H torsion
[ 10167 10162 10161 10158 ] final   32.47 input  -65.29 | X-H torsion
[ 10718 10713 10712 10709 ] final  -87.65 input   66.30 | X-H torsion
[ 10763 10752 10751 10750 ] final  -20.56 input  -60.55 | X-H torsion
[ 11005 11000 10999 10996 ] final   91.76 input  -57.11 | X-H torsion

> <Gold.Protein.ActiveResidues>
 VAL166  LYS551  ARG553  GLY616  TRP617  ASP618  TYR619  PRO620  LYS621  CYS622 
 ASP623  PHE694  ASN695  SER759  ASP760  ASP761  ALA762  ILE779  LEU786  VAL792 
 PHE793  MET794  SER795  GLU796  ALA797  LYS798  CYS799  TRP800  GLU811  SER814 

> <Gold.Protein.RotatedAtoms>
  151.1898  135.0397  159.8827 H   0  0  0  0  0  0  0  0  0  0  0  0  # atno 6907 bound_to 6896
  152.5440  134.0968  159.8311 H   0  0  0  0  0  0  0  0  0  0  0  0  # atno 6908 bound_to 6896
  151.1095  133.5136  159.2638 H   0  0  0  0  0  0  0  0  0  0  0  0  # atno 6909 bound_to 6896
  146.0709  139.5258  142.9598 H   0  0  0  0  0  0  0  0  0  0  0  0  # atno 7974 bound_to 7965
  155.7296  140.3492  155.5053 H   0  0  0  0  0  0  0  0  0  0  0  0  # atno 8008 bound_to 7997
  155.9194  140.1064  157.1240 H   0  0  0  0  0  0  0  0  0  0  0  0  # atno 8009 bound_to 7997
  154.4067  140.1252  156.4647 H   0  0  0  0  0  0  0  0  0  0  0  0  # atno 8010 bound_to 7997
  140.4496  144.1068  150.6189 H   0  0  0  0  0  0  0  0  0  0  0  0  # atno 10167 bound_to 10162
  155.9985  130.4807  150.4899 H   0  0  0  0  0  0  0  0  0  0  0  0  # atno 10718 bound_to 10713
  153.6223  135.6992  153.5306 H   0  0  0  0  0  0  0  0  0  0  0  0  # atno 10763 bound_to 10752
  153.2928  135.4152  155.1181 H   0  0  0  0  0  0  0  0  0  0  0  0  # atno 10764 bound_to 10752
  154.8540  135.3629  154.5764 H   0  0  0  0  0  0  0  0  0  0  0  0  # atno 10765 bound_to 10752
  139.8833  134.8693  156.3475 H   0  0  0  0  0  0  0  0  0  0  0  0  # atno 11005 bound_to 11000
  145.6393  141.0288  143.1820 LP  0  0  0  0  0  0  0  0  0  0  0  0  # atno 17320 bound_to 7965
  144.7231  139.7964  143.7375 LP  0  0  0  0  0  0  0  0  0  0  0  0  # atno 17321 bound_to 7965
  140.4223  143.2606  151.9700 LP  0  0  0  0  0  0  0  0  0  0  0  0  # atno 17342 bound_to 10162
  139.4795  144.5820  151.7917 LP  0  0  0  0  0  0  0  0  0  0  0  0  # atno 17343 bound_to 10162
  157.2896  131.0623  151.2143 LP  0  0  0  0  0  0  0  0  0  0  0  0  # atno 17370 bound_to 10713
  157.3161  130.6913  149.6242 LP  0  0  0  0  0  0  0  0  0  0  0  0  # atno 17371 bound_to 10713
  140.9617  133.7384  156.0410 LP  0  0  0  0  0  0  0  0  0  0  0  0  # atno 17394 bound_to 11000
  140.7981  134.3540  157.5447 LP  0  0  0  0  0  0  0  0  0  0  0  0  # atno 17395 bound_to 11000

$$$$
