AV-unprocessed.smi:155|AV-procd|sdf|1271|dock1
  -GOLD-   2262018533D 1   1.00000     0.00000
 Structure written by MMmdl.
 63 66  0  0  0  0  0  0  0  0  2 V2000
  145.6980  130.7201  151.5337 C   0  0  0  0  0  0  0  0  0  0  0  0
  145.7376  131.8936  150.6678 N   0  0  0  0  0  0  0  0  0  0  0  0
  144.3887  132.4353  150.5700 C   0  0  0  0  0  0  0  0  0  0  0  0
  146.6292  132.9202  151.2040 C   0  0  0  0  0  0  0  0  0  0  0  0
  146.1720  133.4340  152.5913 C   0  0  0  0  0  0  0  0  0  0  0  0
  147.2412  134.1201  153.3634 N   0  3  2  0  0  0  0  0  0  0  0  0
  148.3058  133.1992  153.8346 C   0  0  0  0  0  0  0  0  0  0  0  0
  149.5622  133.9336  154.3316 C   0  0  0  0  0  0  0  0  0  0  0  0
  149.3881  134.5806  155.7155 C   0  0  0  0  0  0  0  0  0  0  0  0
  148.7104  135.8787  155.6817 N   0  0  0  0  0  0  0  0  0  0  0  0
  149.3040  136.9145  156.3329 C   0  0  0  0  0  0  0  0  0  0  0  0
  149.6534  136.7605  157.6386 N   0  0  0  0  0  0  0  0  0  0  0  0
  150.2286  137.7623  158.3100 C   0  0  0  0  0  0  0  0  0  0  0  0
  150.5450  138.9833  157.8764 N   0  0  0  0  0  0  0  0  0  0  0  0
  150.2072  139.1434  156.5654 C   0  0  0  0  0  0  0  0  0  0  0  0
  149.5909  138.1724  155.7258 C   0  0  0  0  0  0  0  0  0  0  0  0
  149.4175  138.6989  154.4498 N   0  0  0  0  0  0  0  0  0  0  0  0
  149.8890  139.9132  154.5357 C   0  0  0  0  0  0  0  0  0  0  0  0
  150.3814  140.2620  155.7721 N   0  0  0  0  0  0  0  0  0  0  0  0
  150.9612  141.5361  156.1550 C   0  0  0  0  0  0  0  0  0  0  0  0
  151.1054  141.6724  157.6854 C   0  0  2  0  0  0  0  0  0  0  0  0
  149.8362  141.8135  158.2919 O   0  0  0  0  0  0  0  0  0  0  0  0
  152.0064  142.8399  158.1357 C   0  0  1  0  0  0  0  0  0  0  0  0
  151.4096  144.2248  157.8733 C   0  0  0  0  0  0  0  0  0  0  0  0
  152.1101  145.0649  158.9158 C   0  0  0  0  0  0  0  0  0  0  0  0
  152.1484  144.1076  160.1018 C   0  0  0  0  0  0  0  0  0  0  0  0
  152.2548  142.8018  159.5413 O   0  0  0  0  0  0  0  0  0  0  0  0
  147.6771  136.1879  154.6910 C   0  0  0  0  0  0  0  0  0  0  0  0
  146.7140  135.0237  154.4169 C   0  0  0  0  0  0  0  0  0  0  0  0
  146.6750  130.2441  151.6033 H   0  0  0  0  0  0  0  0  0  0  0  0
  145.0060  129.9772  151.1353 H   0  0  0  0  0  0  0  0  0  0  0  0
  145.3721  130.9800  152.5418 H   0  0  0  0  0  0  0  0  0  0  0  0
  144.3684  133.2983  149.9030 H   0  0  0  0  0  0  0  0  0  0  0  0
  144.0133  132.7483  151.5454 H   0  0  0  0  0  0  0  0  0  0  0  0
  143.7039  131.6906  150.1629 H   0  0  0  0  0  0  0  0  0  0  0  0
  147.6325  132.5062  151.3156 H   0  0  0  0  0  0  0  0  0  0  0  0
  146.7197  133.7294  150.4784 H   0  0  0  0  0  0  0  0  0  0  0  0
  145.3194  134.1090  152.5094 H   0  0  0  0  0  0  0  0  0  0  0  0
  145.8018  132.5927  153.1783 H   0  0  0  0  0  0  0  0  0  0  0  0
  147.9242  132.5331  154.6092 H   0  0  0  0  0  0  0  0  0  0  0  0
  148.6017  132.5635  152.9996 H   0  0  0  0  0  0  0  0  0  0  0  0
  150.3576  133.1924  154.4165 H   0  0  0  0  0  0  0  0  0  0  0  0
  149.9147  134.6598  153.5978 H   0  0  0  0  0  0  0  0  0  0  0  0
  148.8548  133.9105  156.3905 H   0  0  0  0  0  0  0  0  0  0  0  0
  150.3871  134.7030  156.1355 H   0  0  0  0  0  0  0  0  0  0  0  0
  150.4674  137.5573  159.3434 H   0  0  0  0  0  0  0  0  0  0  0  0
  149.8890  140.5922  153.6954 H   0  0  0  0  0  0  0  0  0  0  0  0
  151.9325  141.6223  155.6679 H   0  0  0  0  0  0  0  0  0  0  0  0
  150.3396  142.3366  155.7517 H   0  0  0  0  0  0  0  0  0  0  0  0
  151.5266  140.7487  158.0852 H   0  0  0  0  0  0  0  0  0  0  0  0
  149.9617  141.9270  159.2217 H   0  0  0  0  0  0  0  0  0  0  0  0
  152.9702  142.7919  157.6250 H   0  0  0  0  0  0  0  0  0  0  0  0
  151.5834  144.5751  156.8556 H   0  0  0  0  0  0  0  0  0  0  0  0
  150.3345  144.2327  158.0545 H   0  0  0  0  0  0  0  0  0  0  0  0
  153.1233  145.3022  158.5883 H   0  0  0  0  0  0  0  0  0  0  0  0
  151.5921  145.9986  159.1361 H   0  0  0  0  0  0  0  0  0  0  0  0
  152.9723  144.3191  160.7837 H   0  0  0  0  0  0  0  0  0  0  0  0
  151.2173  144.1656  160.6668 H   0  0  0  0  0  0  0  0  0  0  0  0
  147.0832  137.0189  155.0748 H   0  0  0  0  0  0  0  0  0  0  0  0
  148.1353  136.5389  153.7653 H   0  0  0  0  0  0  0  0  0  0  0  0
  145.7819  135.4594  154.0543 H   0  0  0  0  0  0  0  0  0  0  0  0
  146.4606  134.4807  155.3289 H   0  0  0  0  0  0  0  0  0  0  0  0
  147.6877  134.7260  152.6899 H   0  0  0  0  0  0  0  0  0  0  0  0
  1  2  1  0  0  0  0
  1 30  1  0  0  0  0
  1 31  1  0  0  0  0
  1 32  1  0  0  0  0
  2  3  1  0  0  0  0
  2  4  1  0  0  0  0
  3 33  1  0  0  0  0
  3 34  1  0  0  0  0
  3 35  1  0  0  0  0
  4  5  1  0  0  0  0
  4 36  1  0  0  0  0
  4 37  1  0  0  0  0
  5  6  1  0  0  0  0
  5 38  1  0  0  0  0
  5 39  1  0  0  0  0
  6 29  1  0  0  0  0
  6  7  1  0  0  0  0
  6 63  1  0  0  0  0
  7  8  1  0  0  0  0
  7 40  1  0  0  0  0
  7 41  1  0  0  0  0
  8  9  1  0  0  0  0
  8 42  1  0  0  0  0
  8 43  1  0  0  0  0
  9 10  1  0  0  0  0
  9 44  1  0  0  0  0
  9 45  1  0  0  0  0
 10 11  1  0  0  0  0
 10 28  1  0  0  0  0
 11 16  1  0  0  0  0
 11 12  2  0  0  0  0
 12 13  1  0  0  0  0
 13 14  2  0  0  0  0
 13 46  1  0  0  0  0
 14 15  1  0  0  0  0
 15 19  1  0  0  0  0
 15 16  2  0  0  0  0
 16 17  1  0  0  0  0
 17 18  2  0  0  0  0
 18 19  1  0  0  0  0
 18 47  1  0  0  0  0
 19 20  1  0  0  0  0
 20 21  1  0  0  0  0
 20 48  1  0  0  0  0
 20 49  1  0  0  0  0
 21 22  1  0  0  0  0
 21 23  1  0  0  0  0
 21 50  1  0  0  0  0
 22 51  1  0  0  0  0
 23 27  1  0  0  0  0
 23 24  1  0  0  0  0
 23 52  1  0  0  0  0
 24 25  1  0  0  0  0
 24 53  1  0  0  0  0
 24 54  1  0  0  0  0
 25 26  1  0  0  0  0
 25 55  1  0  0  0  0
 25 56  1  0  0  0  0
 26 27  1  0  0  0  0
 26 57  1  0  0  0  0
 26 58  1  0  0  0  0
 28 29  1  0  0  0  0
 28 59  1  0  0  0  0
 28 60  1  0  0  0  0
 29 61  1  0  0  0  0
 29 62  1  0  0  0  0
M  CHG  1   6   1
M  END
> <s_m_source_file>
AV-unprocessed.smi

> <i_m_source_file_index>
155

> <i_lp_mmshare_version>
43012

> <i_f3d_flags>
0

> <s_epik_input>
W0NIM11OKFtDSDNdKVtDSDJdW0NIMl1OMVtDSDJdW0NIMl1bQ0gyXU4oW0NIMl1bQ0gyXTEpYyhuW2NIXW4yKWMoYzIzKW5bY0hdbjNbQ0gyXVtDQEhdKFtPSF0pW0NAQEhdNFtDSDJdW0NIMl1bQ0gyXU80

> <s_epik_cmdline>
J2VwaWtfcHl0aG9uJywgJy1waCcsICc3LjAnLCAnLXRuJywgJzgnLCAnLW1hJywgJzIwMCcsICctbWV0YWxfYmluZGluZycsICctaW1hZScsICc8aW5maWxlLm1hZT4nLCAnLW9tYWUnLCAnPG91dGZpbGUubWFlPic=

> <r_epik_Ionization_Penalty>
0.0619615

> <r_epik_Ionization_Penalty_Charging>
0.0161638

> <r_epik_Ionization_Penalty_Neutral>
0.0457976

> <r_epik_State_Penalty>
0.403408

> <r_epik_Charging_Adjusted_Penalty>
0.419572

> <i_epik_Tot_Q>
1

> <i_epik_Tot_abs_Q>
1

> <r_epik_Metal_State_Penalty>
0.404222

> <b_epik_Metal_Only>
0

> <s_lp_Force_Field>
OPLS_2005

> <r_lp_Energy>
57.0558

> <b_lp_Chiralities_Consistent>
1

> <s_lp_Variant>
AV-unprocessed.smi:155-5

> <Gold.Version>
5.8.1

> <Gold.Id.Protein>
6NUR|6NUR_protein|mol2

> <Gold.PLP.Fitness>
51.9066

> <Gold.PLP.PLP>
-45.3400

> <Gold.PLP.part.hbond>
-1.0000

> <Gold.PLP.part.metal>
0.0000

> <Gold.PLP.part.buried>
-4.9815

> <Gold.PLP.part.nonpolar>
-38.5427

> <Gold.PLP.part.repulsive>
0.3203

> <Gold.PLP.ligand.clash>
0.0000

> <Gold.PLP.ligand.torsion>
1.2268

> <Gold.PLP.Chemscore.Hbond>
2.0000

> <Gold.PLP.Chemscore.CHOScore>
0.9023

> <Gold.PLP.Chemscore.Metal>
0.0000

> <Gold.Chemscore.Hbonds>
donor molecule, donor type, donor heavy atom, donor atom, acceptor molecule, acceptor atom, score
      L1  H     6    63       P1  7948  1.66
      L1  C    18    47       P1  7957  0.80

> <Gold.PLP.Chemscore.Internal.Correction>
0.3131

> <Gold.Rescore>
     Score         DG    S(hbond)    S(metal)    S(lipo)     H(rot)  DE(clash)    DE(int)     intcor
     12.60     -15.49       0.97        0.00     115.37       2.63       0.10       2.79       ----

> <Gold.Chemscore.Fitness>
12.6013

> <Gold.Chemscore.DG>
-15.4927

> <Gold.Chemscore.ZeroCoef>
-5.4800

> <Gold.Chemscore.Hbond>
0.9742

> <Gold.Chemscore.Metal>
0.0000

> <Gold.Chemscore.Lipo>
115.3669

> <Gold.Chemscore.Internal_Hbond>
0.0000

> <Gold.Chemscore.DEClash>
0.1033

> <Gold.Chemscore.DEInternal>
2.7882

> <Gold.Chemscore.Rot>
2.6324

> <Gold.Chemscore.Internal.Correction>
   9.000000E+99

> <Gold.Chemscore.Hbonds>
donor molecule, donor type, donor heavy atom, donor atom, acceptor molecule, acceptor atom, score
      L1  H     6    63       P1  7948  0.73

> <Gold.Chemscore.Hbond.Weighted>
-3.2537

> <Gold.Chemscore.Metal.Weighted>
-0.0000

> <Gold.Chemscore.Lipo.Weighted>
-13.4979

> <Gold.Chemscore.Internal_Hbond.Weighted>
0.0000

> <Gold.Chemscore.DEClash.Weighted>
0.1033

> <Gold.Chemscore.DEInternal.Weighted>
2.7882

> <Gold.Chemscore.Rot.Weighted>
6.7389

> <Gold.Chemscore.Internal.Correction.Weighted>
   9.000000E+99

> <Gold.Protein.RotatedTorsions>
[ 6907 6896 6895 6894 ] final  131.45 input  -60.11 | X-H torsion
[ 7974 7965 7964 7962 ] final  -71.20 input  175.53 | X-H torsion
[ 8008 7997 7996 7995 ] final  101.19 input   59.86 | X-H torsion
[ 10167 10162 10161 10158 ] final  157.68 input  -65.29 | X-H torsion
[ 10718 10713 10712 10709 ] final  -76.45 input   66.30 | X-H torsion
[ 10763 10752 10751 10750 ] final  -82.94 input  -60.55 | X-H torsion
[ 11005 11000 10999 10996 ] final -120.17 input  -57.11 | X-H torsion

> <Gold.Protein.ActiveResidues>
 VAL166  LYS551  ARG553  GLY616  TRP617  ASP618  TYR619  PRO620  LYS621  CYS622 
 ASP623  PHE694  ASN695  SER759  ASP760  ASP761  ALA762  ILE779  LEU786  VAL792 
 PHE793  MET794  SER795  GLU796  ALA797  LYS798  CYS799  TRP800  GLU811  SER814 

> <Gold.Protein.RotatedAtoms>
  152.3424  133.6083  159.5885 H   0  0  0  0  0  0  0  0  0  0  0  0  # atno 6907 bound_to 6896
  150.7487  133.9701  159.3552 H   0  0  0  0  0  0  0  0  0  0  0  0  # atno 6908 bound_to 6896
  151.7563  135.0821  160.0390 H   0  0  0  0  0  0  0  0  0  0  0  0  # atno 6909 bound_to 6896
  145.6812  140.9187  143.0831 H   0  0  0  0  0  0  0  0  0  0  0  0  # atno 7974 bound_to 7965
  156.1276  140.3201  155.8300 H   0  0  0  0  0  0  0  0  0  0  0  0  # atno 8008 bound_to 7997
  155.4392  140.0524  157.3029 H   0  0  0  0  0  0  0  0  0  0  0  0  # atno 8009 bound_to 7997
  154.4874  140.2078  155.9638 H   0  0  0  0  0  0  0  0  0  0  0  0  # atno 8010 bound_to 7997
  139.4824  144.4895  151.8328 H   0  0  0  0  0  0  0  0  0  0  0  0  # atno 10167 bound_to 10162
  156.0174  130.4466  150.3196 H   0  0  0  0  0  0  0  0  0  0  0  0  # atno 10718 bound_to 10713
  154.5818  135.5573  153.7193 H   0  0  0  0  0  0  0  0  0  0  0  0  # atno 10763 bound_to 10752
  153.0084  135.6322  154.1972 H   0  0  0  0  0  0  0  0  0  0  0  0  # atno 10764 bound_to 10752
  154.1912  135.2882  155.3001 H   0  0  0  0  0  0  0  0  0  0  0  0  # atno 10765 bound_to 10752
  141.0163  134.0191  157.3345 H   0  0  0  0  0  0  0  0  0  0  0  0  # atno 11005 bound_to 11000
  144.7025  139.8699  143.7440 LP  0  0  0  0  0  0  0  0  0  0  0  0  # atno 17320 bound_to 7965
  146.0963  139.3955  143.0375 LP  0  0  0  0  0  0  0  0  0  0  0  0  # atno 17321 bound_to 7965
  140.4378  144.2028  150.5890 LP  0  0  0  0  0  0  0  0  0  0  0  0  # atno 17342 bound_to 10162
  140.4714  143.2412  151.9084 LP  0  0  0  0  0  0  0  0  0  0  0  0  # atno 17343 bound_to 10162
  157.1296  131.0268  151.2975 LP  0  0  0  0  0  0  0  0  0  0  0  0  # atno 17370 bound_to 10713
  157.4561  130.7626  149.7194 LP  0  0  0  0  0  0  0  0  0  0  0  0  # atno 17371 bound_to 10713
  139.9119  135.0191  156.7725 LP  0  0  0  0  0  0  0  0  0  0  0  0  # atno 17394 bound_to 11000
  140.6650  133.9611  155.7825 LP  0  0  0  0  0  0  0  0  0  0  0  0  # atno 17395 bound_to 11000

$$$$
