AV-unprocessed.smi:186|AV-procd|sdf|1467|dock6
  -GOLD-   2262019283D 1   1.00000     0.00000
 Structure written by MMmdl.
 48 51  0  0  0  0  0  0  0  0  1 V2000
  144.8862  132.3846  150.1469 C   0  0  0  0  0  0  0  0  0  0  0  0
  145.2445  133.4038  151.0635 O   0  0  0  0  0  0  0  0  0  0  0  0
  145.0812  134.7047  150.5196 C   0  0  0  0  0  0  0  0  0  0  0  0
  144.9236  135.7210  151.6519 C   0  0  0  0  0  0  0  0  0  0  0  0
  144.0353  135.5937  152.4953 O   0  0  0  0  0  0  0  0  0  0  0  0
  145.7998  136.7357  151.6561 N   0  0  0  0  0  0  0  0  0  0  0  0
  145.8209  137.8034  152.6476 C   0  0  0  0  0  0  0  0  0  0  0  0
  146.8421  138.9052  152.3524 C   0  0  0  0  0  0  0  0  0  0  0  0
  147.1177  138.8636  153.7835 N   0  0  0  0  0  0  0  0  0  0  0  0
  148.4645  139.1334  154.1583 C   0  0  0  0  0  0  0  0  0  0  0  0
  149.4636  138.3462  153.6762 N   0  0  0  0  0  0  0  0  0  0  0  0
  150.7377  138.5628  154.0144 C   0  0  0  0  0  0  0  0  0  0  0  0
  151.2365  139.4951  154.8256 N   0  0  0  0  0  0  0  0  0  0  0  0
  150.2461  140.2776  155.3390 C   0  0  0  0  0  0  0  0  0  0  0  0
  148.8540  140.1675  155.0586 C   0  0  0  0  0  0  0  0  0  0  0  0
  148.1560  141.1411  155.7639 N   0  0  0  0  0  0  0  0  0  0  0  0
  149.0804  141.7904  156.4168 C   0  0  0  0  0  0  0  0  0  0  0  0
  150.3640  141.3292  156.2318 N   0  0  0  0  0  0  0  0  0  0  0  0
  151.5785  141.8576  156.8358 C   0  0  0  0  0  0  0  0  0  0  0  0
  151.3988  142.3611  158.2911 C   0  0  2  0  0  0  0  0  0  0  0  0
  150.6607  141.4057  159.0306 O   0  0  0  0  0  0  0  0  0  0  0  0
  150.7072  143.7226  158.4042 C   0  0  0  0  0  0  0  0  0  0  0  0
  151.8659  144.6818  158.6367 C   0  0  0  0  0  0  0  0  0  0  0  0
  152.7161  143.9294  159.4828 O   0  0  0  0  0  0  0  0  0  0  0  0
  152.7585  142.6008  158.9783 C   0  0  0  0  0  0  0  0  0  0  0  0
  146.6817  137.4727  153.8666 C   0  0  0  0  0  0  0  0  0  0  0  0
  145.0256  131.4083  150.6108 H   0  0  0  0  0  0  0  0  0  0  0  0
  145.5085  132.4240  149.2520 H   0  0  0  0  0  0  0  0  0  0  0  0
  143.8401  132.4706  149.8505 H   0  0  0  0  0  0  0  0  0  0  0  0
  145.9476  134.9703  149.9115 H   0  0  0  0  0  0  0  0  0  0  0  0
  144.1969  134.7415  149.8815 H   0  0  0  0  0  0  0  0  0  0  0  0
  146.4983  136.7695  150.9279 H   0  0  0  0  0  0  0  0  0  0  0  0
  144.8347  138.1903  152.9159 H   0  0  0  0  0  0  0  0  0  0  0  0
  147.6853  138.5774  151.7410 H   0  0  0  0  0  0  0  0  0  0  0  0
  146.4075  139.8436  152.0071 H   0  0  0  0  0  0  0  0  0  0  0  0
  151.4600  137.8913  153.5745 H   0  0  0  0  0  0  0  0  0  0  0  0
  148.8477  142.6258  157.0612 H   0  0  0  0  0  0  0  0  0  0  0  0
  152.3389  141.0760  156.8027 H   0  0  0  0  0  0  0  0  0  0  0  0
  151.9469  142.6662  156.2028 H   0  0  0  0  0  0  0  0  0  0  0  0
  150.3624  141.8108  159.8304 H   0  0  0  0  0  0  0  0  0  0  0  0
  150.1073  143.9986  157.5388 H   0  0  0  0  0  0  0  0  0  0  0  0
  150.0504  143.7526  159.2753 H   0  0  0  0  0  0  0  0  0  0  0  0
  152.3799  144.9128  157.7023 H   0  0  0  0  0  0  0  0  0  0  0  0
  151.5544  145.6161  159.1041 H   0  0  0  0  0  0  0  0  0  0  0  0
  152.9701  141.8932  159.7812 H   0  0  0  0  0  0  0  0  0  0  0  0
  153.5791  142.5345  158.2622 H   0  0  0  0  0  0  0  0  0  0  0  0
  146.1194  137.2356  154.7701 H   0  0  0  0  0  0  0  0  0  0  0  0
  147.4763  136.7527  153.6603 H   0  0  0  0  0  0  0  0  0  0  0  0
  1  2  1  0  0  0  0
  1 27  1  0  0  0  0
  1 28  1  0  0  0  0
  1 29  1  0  0  0  0
  2  3  1  0  0  0  0
  3  4  1  0  0  0  0
  3 30  1  0  0  0  0
  3 31  1  0  0  0  0
  4  5  2  0  0  0  0
  4  6  1  0  0  0  0
  6  7  1  0  0  0  0
  6 32  1  0  0  0  0
  7 26  1  0  0  0  0
  7  8  1  0  0  0  0
  7 33  1  0  0  0  0
  8  9  1  0  0  0  0
  8 34  1  0  0  0  0
  8 35  1  0  0  0  0
  9 10  1  0  0  0  0
  9 26  1  0  0  0  0
 10 15  1  0  0  0  0
 10 11  2  0  0  0  0
 11 12  1  0  0  0  0
 12 13  2  0  0  0  0
 12 36  1  0  0  0  0
 13 14  1  0  0  0  0
 14 18  1  0  0  0  0
 14 15  2  0  0  0  0
 15 16  1  0  0  0  0
 16 17  2  0  0  0  0
 17 18  1  0  0  0  0
 17 37  1  0  0  0  0
 18 19  1  0  0  0  0
 19 20  1  0  0  0  0
 19 38  1  0  0  0  0
 19 39  1  0  0  0  0
 20 25  1  0  0  0  0
 20 21  1  0  0  0  0
 20 22  1  0  0  0  0
 21 40  1  0  0  0  0
 22 23  1  0  0  0  0
 22 41  1  0  0  0  0
 22 42  1  0  0  0  0
 23 24  1  0  0  0  0
 23 43  1  0  0  0  0
 23 44  1  0  0  0  0
 24 25  1  0  0  0  0
 25 45  1  0  0  0  0
 25 46  1  0  0  0  0
 26 47  1  0  0  0  0
 26 48  1  0  0  0  0
M  END
> <s_m_source_file>
AV-unprocessed.smi

> <i_m_source_file_index>
186

> <i_lp_mmshare_version>
43012

> <i_f3d_flags>
0

> <s_epik_input>
W0NIM11PW0NIMl1DKD1PKVtOSF1bQ0hdMVtDSDJdTihbQ0gyXTEpYyhuW2NIXW4yKWMoYzIzKW5bY0hdbjNbQ0gyXVtDQEBdNChbT0hdKVtDSDJdW0NIMl1PW0NIMl00

> <s_epik_cmdline>
J2VwaWtfcHl0aG9uJywgJy1waCcsICc3LjAnLCAnLXRuJywgJzgnLCAnLW1hJywgJzIwMCcsICctbWV0YWxfYmluZGluZycsICctaW1hZScsICc8aW5maWxlLm1hZT4nLCAnLW9tYWUnLCAnPG91dGZpbGUubWFlPic=

> <r_lp_tautomer_probability>
1

> <r_epik_Ionization_Penalty>
0.00138671

> <r_epik_Ionization_Penalty_Charging>
0

> <r_epik_Ionization_Penalty_Neutral>
0.00138671

> <r_epik_State_Penalty>
0.000746021

> <r_epik_Charging_Adjusted_Penalty>
0.000746021

> <i_epik_Tot_Q>
0

> <i_epik_Tot_abs_Q>
0

> <r_epik_Metal_State_Penalty>
-0

> <b_epik_Metal_Only>
0

> <s_lp_Force_Field>
OPLS_2005

> <r_lp_Energy>
43.6542

> <b_lp_Chiralities_Consistent>
1

> <s_lp_Variant>
AV-unprocessed.smi:186-2

> <Gold.Version>
5.8.1

> <Gold.Id.Protein>
6NUR|6NUR_protein|mol2

> <Gold.PLP.Fitness>
41.5690

> <Gold.PLP.PLP>
-38.5493

> <Gold.PLP.part.hbond>
-2.3875

> <Gold.PLP.part.metal>
0.0000

> <Gold.PLP.part.buried>
-6.0441

> <Gold.PLP.part.nonpolar>
-33.5731

> <Gold.PLP.part.repulsive>
4.0104

> <Gold.PLP.ligand.clash>
0.0000

> <Gold.PLP.ligand.torsion>
0.9725

> <Gold.PLP.Chemscore.Hbond>
0.4500

> <Gold.PLP.Chemscore.CHOScore>
1.0340

> <Gold.PLP.Chemscore.Metal>
0.0000

> <Gold.Chemscore.Hbonds>
donor molecule, donor type, donor heavy atom, donor atom, acceptor molecule, acceptor atom, score
      P1  H  7989  7998       L1    13  0.52
      L1  C    12    36       P1  7949  0.24
      L1  C    17    37       P1  8028  0.57

> <Gold.PLP.Chemscore.Internal.Correction>
0.5127

> <Gold.Rescore>
     Score         DG    S(hbond)    S(metal)    S(lipo)     H(rot)  DE(clash)    DE(int)     intcor
      5.72      -6.66       0.00        0.00      83.67       3.36       0.25       0.69       ----

> <Gold.Chemscore.Fitness>
5.7240

> <Gold.Chemscore.DG>
-6.6630

> <Gold.Chemscore.ZeroCoef>
-5.4800

> <Gold.Chemscore.Hbond>
0.0000

> <Gold.Chemscore.Metal>
0.0000

> <Gold.Chemscore.Lipo>
83.6726

> <Gold.Chemscore.Internal_Hbond>
0.0000

> <Gold.Chemscore.DEClash>
0.2506

> <Gold.Chemscore.DEInternal>
0.6884

> <Gold.Chemscore.Rot>
3.3620

> <Gold.Chemscore.Internal.Correction>
   9.000000E+99

> <Gold.Chemscore.Hbonds>
donor molecule, donor type, donor heavy atom, donor atom, acceptor molecule, acceptor atom, score
      P1  H  7989  7998       L1    13  0.01

> <Gold.Chemscore.Hbond.Weighted>
-0.0001

> <Gold.Chemscore.Metal.Weighted>
-0.0000

> <Gold.Chemscore.Lipo.Weighted>
-9.7897

> <Gold.Chemscore.Internal_Hbond.Weighted>
0.0000

> <Gold.Chemscore.DEClash.Weighted>
0.2506

> <Gold.Chemscore.DEInternal.Weighted>
0.6884

> <Gold.Chemscore.Rot.Weighted>
8.6067

> <Gold.Chemscore.Internal.Correction.Weighted>
   9.000000E+99

> <Gold.Protein.RotatedTorsions>
[ 6907 6896 6895 6894 ] final  106.60 input  -60.11 | X-H torsion
[ 7974 7965 7964 7962 ] final  -84.70 input  175.53 | X-H torsion
[ 8008 7997 7996 7995 ] final   95.68 input   59.86 | X-H torsion
[ 10167 10162 10161 10158 ] final    1.40 input  -65.29 | X-H torsion
[ 10718 10713 10712 10709 ] final -102.70 input   66.30 | X-H torsion
[ 10763 10752 10751 10750 ] final   18.76 input  -60.55 | X-H torsion
[ 11005 11000 10999 10996 ] final  -10.18 input  -57.11 | X-H torsion

> <Gold.Protein.ActiveResidues>
 VAL166  LYS551  ARG553  GLY616  TRP617  ASP618  TYR619  PRO620  LYS621  CYS622 
 ASP623  PHE694  ASN695  SER759  ASP760  ASP761  ALA762  ILE779  LEU786  VAL792 
 PHE793  MET794  SER795  GLU796  ALA797  LYS798  CYS799  TRP800  GLU811  SER814 

> <Gold.Protein.RotatedAtoms>
  152.5187  133.9357  159.7601 H   0  0  0  0  0  0  0  0  0  0  0  0  # atno 6907 bound_to 6896
  150.9698  133.6348  159.2747 H   0  0  0  0  0  0  0  0  0  0  0  0  # atno 6908 bound_to 6896
  151.3564  135.0900  159.9473 H   0  0  0  0  0  0  0  0  0  0  0  0  # atno 6909 bound_to 6896
  145.5031  140.9545  143.1749 H   0  0  0  0  0  0  0  0  0  0  0  0  # atno 7974 bound_to 7965
  156.0715  140.3283  155.7581 H   0  0  0  0  0  0  0  0  0  0  0  0  # atno 8008 bound_to 7997
  155.5298  140.0592  157.2908 H   0  0  0  0  0  0  0  0  0  0  0  0  # atno 8009 bound_to 7997
  154.4532  140.1929  156.0473 H   0  0  0  0  0  0  0  0  0  0  0  0  # atno 8010 bound_to 7997
  140.6684  143.7116  150.7873 H   0  0  0  0  0  0  0  0  0  0  0  0  # atno 10167 bound_to 10162
  156.0238  130.5432  150.7146 H   0  0  0  0  0  0  0  0  0  0  0  0  # atno 10718 bound_to 10713
  153.1221  135.6721  153.9318 H   0  0  0  0  0  0  0  0  0  0  0  0  # atno 10763 bound_to 10752
  153.8830  135.3056  155.3447 H   0  0  0  0  0  0  0  0  0  0  0  0  # atno 10764 bound_to 10752
  154.7631  135.4978  153.9582 H   0  0  0  0  0  0  0  0  0  0  0  0  # atno 10765 bound_to 10752
  140.7420  133.8663  155.8975 H   0  0  0  0  0  0  0  0  0  0  0  0  # atno 11005 bound_to 11000
  144.7769  139.6610  143.7171 LP  0  0  0  0  0  0  0  0  0  0  0  0  # atno 17320 bound_to 7965
  146.2214  139.5642  142.9616 LP  0  0  0  0  0  0  0  0  0  0  0  0  # atno 17321 bound_to 7965
  140.0797  143.4981  152.2537 LP  0  0  0  0  0  0  0  0  0  0  0  0  # atno 17342 bound_to 10162
  139.5942  144.7561  151.3326 LP  0  0  0  0  0  0  0  0  0  0  0  0  # atno 17343 bound_to 10162
  157.4776  131.0899  151.0572 LP  0  0  0  0  0  0  0  0  0  0  0  0  # atno 17370 bound_to 10713
  157.1015  130.5984  149.5461 LP  0  0  0  0  0  0  0  0  0  0  0  0  # atno 17371 bound_to 10713
  140.9828  134.1382  157.4479 LP  0  0  0  0  0  0  0  0  0  0  0  0  # atno 17394 bound_to 11000
  139.8804  135.0016  156.6077 LP  0  0  0  0  0  0  0  0  0  0  0  0  # atno 17395 bound_to 11000

$$$$
