AV-unprocessed.smi:798|AV-procd|sdf|3773|dock1
  -GOLD-   22720 1203D 1   1.00000     0.00000
 Structure written by MMmdl.
 34 36  0  0  0  0  0  0  0  0  1 V2000
  145.8556  138.7247  153.8288 O   0  0  0  0  0  0  0  0  0  0  0  0
  146.7369  137.9505  153.4548 C   0  0  0  0  0  0  0  0  0  0  0  0
  148.0589  138.1869  153.5177 N   0  0  0  0  0  0  0  0  0  0  0  0
  148.7243  139.3429  154.0050 C   0  0  0  0  0  0  0  0  0  0  0  0
  149.9805  139.3356  154.4779 N   0  0  0  0  0  0  0  0  0  0  0  0
  150.3876  140.5976  154.8911 N   0  0  0  0  0  0  0  0  0  0  0  0
  149.4238  141.5057  154.7140 C   0  0  0  0  0  0  0  0  0  0  0  0
  147.9241  140.9080  154.0252 S   0  0  0  0  0  0  0  0  0  0  0  0
  146.4858  136.7485  152.9165 N   0  0  0  0  0  0  0  0  0  0  0  0
  145.1548  136.1750  152.7068 C   0  0  2  0  0  0  0  0  0  0  0  0
  144.9901  134.7997  153.4004 C   0  0  2  0  0  0  0  0  0  0  0  0
  146.1471  133.8434  153.0390 C   0  0  0  0  0  0  0  0  0  0  0  0
  145.8693  133.5251  151.5590 C   0  0  0  0  0  0  0  0  0  0  0  0
  144.5737  134.3133  151.2735 C   0  0  1  0  0  0  0  0  0  0  0  0
  143.8457  134.1790  152.6057 C   0  0  0  0  0  0  0  0  0  0  0  0
  144.8205  135.8414  151.2232 C   0  0  2  0  0  0  0  0  0  0  0  0
  145.8083  136.3309  150.1397 C   0  0  0  0  0  0  0  0  0  0  0  0
  146.2329  137.6477  150.4203 O   0  0  0  0  0  0  0  0  0  0  0  0
  148.6614  137.4548  153.1720 H   0  0  0  0  0  0  0  0  0  0  0  0
  149.5971  142.5350  154.9913 H   0  0  0  0  0  0  0  0  0  0  0  0
  147.2708  136.1804  152.6336 H   0  0  0  0  0  0  0  0  0  0  0  0
  144.3967  136.8548  153.1012 H   0  0  0  0  0  0  0  0  0  0  0  0
  144.8105  134.8744  154.4733 H   0  0  0  0  0  0  0  0  0  0  0  0
  147.1378  134.2682  153.1995 H   0  0  0  0  0  0  0  0  0  0  0  0
  146.0873  132.9331  153.6368 H   0  0  0  0  0  0  0  0  0  0  0  0
  146.6959  133.8011  150.9061 H   0  0  0  0  0  0  0  0  0  0  0  0
  145.7005  132.4551  151.4298 H   0  0  0  0  0  0  0  0  0  0  0  0
  144.0160  133.9355  150.4159 H   0  0  0  0  0  0  0  0  0  0  0  0
  143.6344  133.1445  152.8830 H   0  0  0  0  0  0  0  0  0  0  0  0
  142.9202  134.7555  152.6565 H   0  0  0  0  0  0  0  0  0  0  0  0
  143.8620  136.3142  151.0003 H   0  0  0  0  0  0  0  0  0  0  0  0
  146.6912  135.6915  150.1235 H   0  0  0  0  0  0  0  0  0  0  0  0
  145.3762  136.2973  149.1403 H   0  0  0  0  0  0  0  0  0  0  0  0
  145.4855  138.2232  150.3616 H   0  0  0  0  0  0  0  0  0  0  0  0
  1  2  2  0  0  0  0
  2  3  1  0  0  0  0
  2  9  1  0  0  0  0
  3  4  1  0  0  0  0
  3 19  1  0  0  0  0
  4  8  1  0  0  0  0
  4  5  2  0  0  0  0
  5  6  1  0  0  0  0
  6  7  2  0  0  0  0
  7  8  1  0  0  0  0
  7 20  1  0  0  0  0
  9 10  1  0  0  0  0
  9 21  1  0  0  0  0
 10 16  1  0  0  0  0
 10 11  1  0  0  0  0
 10 22  1  0  0  0  0
 11 15  1  0  0  0  0
 11 12  1  0  0  0  0
 11 23  1  0  0  0  0
 12 13  1  0  0  0  0
 12 24  1  0  0  0  0
 12 25  1  0  0  0  0
 13 14  1  0  0  0  0
 13 26  1  0  0  0  0
 13 27  1  0  0  0  0
 14 15  1  0  0  0  0
 14 16  1  0  0  0  0
 14 28  1  0  0  0  0
 15 29  1  0  0  0  0
 15 30  1  0  0  0  0
 16 17  1  0  0  0  0
 16 31  1  0  0  0  0
 17 18  1  0  0  0  0
 17 32  1  0  0  0  0
 17 33  1  0  0  0  0
 18 34  1  0  0  0  0
M  END
> <s_m_source_file>
AV-unprocessed.smi

> <i_m_source_file_index>
798

> <i_lp_mmshare_version>
43012

> <i_f3d_flags>
0

> <s_epik_input>
W0NIMl0xW0NIMl1bQ0BASF0oW0NIMl0yKVtDQEBIXShbQ0gyXVtPSF0pW0NAQEhdKFtDQEhdMTIpW05IXUMoPU8pW05IXWMzbm5bY0hdczM=

> <s_epik_cmdline>
J2VwaWtfcHl0aG9uJywgJy1waCcsICc3LjAnLCAnLXRuJywgJzgnLCAnLW1hJywgJzIwMCcsICctbWV0YWxfYmluZGluZycsICctaW1hZScsICc8aW5maWxlLm1hZT4nLCAnLW9tYWUnLCAnPG91dGZpbGUubWFlPic=

> <r_lp_tautomer_probability>
1

> <r_epik_Ionization_Penalty>
0.000329046

> <r_epik_Ionization_Penalty_Charging>
0

> <r_epik_Ionization_Penalty_Neutral>
0.000329046

> <r_epik_State_Penalty>
-0

> <r_epik_Charging_Adjusted_Penalty>
0

> <i_epik_Tot_Q>
0

> <i_epik_Tot_abs_Q>
0

> <r_epik_Metal_State_Penalty>
0.173433

> <b_epik_Metal_Only>
0

> <s_lp_Force_Field>
OPLS_2005

> <r_lp_Energy>
50.5105

> <b_lp_Chiralities_Consistent>
1

> <s_lp_Variant>
AV-unprocessed.smi:798-5

> <Gold.Version>
5.8.1

> <Gold.Id.Protein>
6NUR|6NUR_protein|mol2

> <Gold.PLP.Fitness>
41.1302

> <Gold.PLP.PLP>
-25.0253

> <Gold.PLP.part.hbond>
-5.1457

> <Gold.PLP.part.metal>
0.0000

> <Gold.PLP.part.buried>
-0.4144

> <Gold.PLP.part.nonpolar>
-19.2848

> <Gold.PLP.part.repulsive>
0.4075

> <Gold.PLP.ligand.clash>
0.0000

> <Gold.PLP.ligand.torsion>
0.2775

> <Gold.PLP.Chemscore.Hbond>
4.5480

> <Gold.PLP.Chemscore.CHOScore>
1.0000

> <Gold.PLP.Chemscore.Metal>
0.0000

> <Gold.Chemscore.Hbonds>
donor molecule, donor type, donor heavy atom, donor atom, acceptor molecule, acceptor atom, score
      L1  H     3    19       P1  7948  0.93
      L1  H     9    21       P1  7948  0.88
      L1  H    18    34       P1 10171  1.00
      P1  H  7954  7966       L1    18  0.85
      P1  H  7989  7998       L1     6  0.80
      L1  C     7    20       P1  8028  1.00

> <Gold.PLP.Chemscore.Internal.Correction>
0.0159

> <Gold.Rescore>
     Score         DG    S(hbond)    S(metal)    S(lipo)     H(rot)  DE(clash)    DE(int)     intcor
     14.84     -17.99       3.42        0.00      51.99       1.94       0.33       2.82       ----

> <Gold.Chemscore.Fitness>
14.8358

> <Gold.Chemscore.DG>
-17.9948

> <Gold.Chemscore.ZeroCoef>
-5.4800

> <Gold.Chemscore.Hbond>
3.4160

> <Gold.Chemscore.Metal>
0.0000

> <Gold.Chemscore.Lipo>
51.9866

> <Gold.Chemscore.Internal_Hbond>
0.0000

> <Gold.Chemscore.DEClash>
0.3344

> <Gold.Chemscore.DEInternal>
2.8246

> <Gold.Chemscore.Rot>
1.9442

> <Gold.Chemscore.Internal.Correction>
   9.000000E+99

> <Gold.Chemscore.Hbonds>
donor molecule, donor type, donor heavy atom, donor atom, acceptor molecule, acceptor atom, score
      L1  H     3    19       P1  7948  0.91
      L1  H     9    21       P1  7948  0.87
      L1  H    18    34       P1 10171  0.96
      P1  H  7954  7966       L1    18  0.57
      P1  H  7989  7998       L1     6  0.07

> <Gold.Chemscore.Hbond.Weighted>
-11.4094

> <Gold.Chemscore.Metal.Weighted>
-0.0000

> <Gold.Chemscore.Lipo.Weighted>
-6.0824

> <Gold.Chemscore.Internal_Hbond.Weighted>
0.0000

> <Gold.Chemscore.DEClash.Weighted>
0.3344

> <Gold.Chemscore.DEInternal.Weighted>
2.8246

> <Gold.Chemscore.Rot.Weighted>
4.9771

> <Gold.Chemscore.Internal.Correction.Weighted>
   9.000000E+99

> <Gold.Protein.RotatedTorsions>
[ 6907 6896 6895 6894 ] final  154.31 input  -60.11 | X-H torsion
[ 7974 7965 7964 7962 ] final -149.68 input  175.53 | X-H torsion
[ 8008 7997 7996 7995 ] final   64.97 input   59.86 | X-H torsion
[ 10167 10162 10161 10158 ] final  145.07 input  -65.29 | X-H torsion
[ 10718 10713 10712 10709 ] final -168.94 input   66.30 | X-H torsion
[ 10763 10752 10751 10750 ] final  121.79 input  -60.55 | X-H torsion
[ 11005 11000 10999 10996 ] final  166.89 input  -57.11 | X-H torsion

> <Gold.Protein.ActiveResidues>
 VAL166  LYS551  ARG553  GLY616  TRP617  ASP618  TYR619  PRO620  LYS621  CYS622 
 ASP623  PHE694  ASN695  SER759  ASP760  ASP761  ALA762  ILE779  LEU786  VAL792 
 PHE793  MET794  SER795  GLU796  ALA797  LYS798  CYS799  TRP800  GLU811  SER814 

> <Gold.Protein.RotatedAtoms>
  152.0603  133.4059  159.4414 H   0  0  0  0  0  0  0  0  0  0  0  0  # atno 6907 bound_to 6896
  150.6866  134.3207  159.4795 H   0  0  0  0  0  0  0  0  0  0  0  0  # atno 6908 bound_to 6896
  152.1028  134.9329  160.0619 H   0  0  0  0  0  0  0  0  0  0  0  0  # atno 6909 bound_to 6896
  144.7953  140.5033  143.5744 H   0  0  0  0  0  0  0  0  0  0  0  0  # atno 7974 bound_to 7965
  155.6545  140.3497  155.4760 H   0  0  0  0  0  0  0  0  0  0  0  0  # atno 8008 bound_to 7997
  155.9820  140.1176  157.0740 H   0  0  0  0  0  0  0  0  0  0  0  0  # atno 8009 bound_to 7997
  154.4194  140.1136  156.5435 H   0  0  0  0  0  0  0  0  0  0  0  0  # atno 8010 bound_to 7997
  139.4933  144.5927  151.6647 H   0  0  0  0  0  0  0  0  0  0  0  0  # atno 10167 bound_to 10162
  156.7043  130.9208  151.3083 H   0  0  0  0  0  0  0  0  0  0  0  0  # atno 10718 bound_to 10713
  153.6197  135.3415  155.3006 H   0  0  0  0  0  0  0  0  0  0  0  0  # atno 10763 bound_to 10752
  154.8602  135.4270  154.2221 H   0  0  0  0  0  0  0  0  0  0  0  0  # atno 10764 bound_to 10752
  153.3091  135.7030  153.7205 H   0  0  0  0  0  0  0  0  0  0  0  0  # atno 10765 bound_to 10752
  140.2711  134.7826  157.3676 H   0  0  0  0  0  0  0  0  0  0  0  0  # atno 11005 bound_to 11000
  145.5690  139.1482  143.3299 LP  0  0  0  0  0  0  0  0  0  0  0  0  # atno 17320 bound_to 7965
  146.2219  140.5823  142.9013 LP  0  0  0  0  0  0  0  0  0  0  0  0  # atno 17321 bound_to 7965
  140.5558  144.0350  150.6147 LP  0  0  0  0  0  0  0  0  0  0  0  0  # atno 17342 bound_to 10162
  140.3420  143.3014  152.0578 LP  0  0  0  0  0  0  0  0  0  0  0  0  # atno 17343 bound_to 10162
  157.6961  130.9283  150.0649 LP  0  0  0  0  0  0  0  0  0  0  0  0  # atno 17370 bound_to 10713
  156.1707  130.3646  149.9170 LP  0  0  0  0  0  0  0  0  0  0  0  0  # atno 17371 bound_to 10713
  140.1372  134.5019  155.8059 LP  0  0  0  0  0  0  0  0  0  0  0  0  # atno 17394 bound_to 11000
  141.2177  133.6811  156.7145 LP  0  0  0  0  0  0  0  0  0  0  0  0  # atno 17395 bound_to 11000

$$$$
