AV-unprocessed.smi:314|AV-procd|sdf|2314|dock8
  -GOLD-   2262022213D 1   1.00000     0.00000
 Structure written by MMmdl.
 48 49  0  0  0  0  0  0  0  0  1 V2000
  146.2270  128.5914  152.4704 C   0  0  0  0  0  0  0  0  0  0  0  0
  147.3241  128.8619  153.3361 O   0  0  0  0  0  0  0  0  0  0  0  0
  147.7490  130.1683  153.4662 C   0  0  0  0  0  0  0  0  0  0  0  0
  148.8715  130.4345  154.2754 C   0  0  0  0  0  0  0  0  0  0  0  0
  149.3158  131.7639  154.4080 C   0  0  0  0  0  0  0  0  0  0  0  0
  148.6236  132.7874  153.7188 C   0  0  0  0  0  0  0  0  0  0  0  0
  148.9652  134.1640  153.7901 N   0  0  0  0  0  0  0  0  0  0  0  0
  149.6131  134.8066  154.7764 C   0  0  0  0  0  0  0  0  0  0  0  0
  150.0530  134.2802  155.7986 O   0  0  0  0  0  0  0  0  0  0  0  0
  149.7511  136.1106  154.4975 N   0  0  0  0  0  0  0  0  0  0  0  0
  150.4392  137.0769  155.3460 C   0  0  0  0  0  0  0  0  0  0  0  0
  150.9720  138.2661  154.5216 C   0  0  0  0  0  0  0  0  0  0  0  0
  151.7530  139.2998  155.3507 C   0  0  0  0  0  0  0  0  0  0  0  0
  152.9276  139.5342  155.0624 O   0  0  0  0  0  0  0  0  0  0  0  0
  151.1219  139.9290  156.3711 N   0  0  0  0  0  0  0  0  0  0  0  0
  149.7211  139.7504  156.7651 C   0  0  0  0  0  0  0  0  0  0  0  0
  148.9516  141.0641  156.5124 C   0  0  2  0  0  0  0  0  0  0  0  0
  148.7233  141.3767  155.0225 C   0  0  0  0  0  0  0  0  0  0  0  0
  149.6081  142.1462  157.1806 O   0  0  0  0  0  0  0  0  0  0  0  0
  150.9973  142.3073  156.8827 C   0  0  1  0  0  0  0  0  0  0  0  0
  151.5314  143.4678  157.7295 C   0  0  0  0  0  0  0  0  0  0  0  0
  151.7414  140.9885  157.1692 C   0  0  0  0  0  0  0  0  0  0  0  0
  147.5003  132.4191  152.9500 C   0  0  0  0  0  0  0  0  0  0  0  0
  147.0713  131.1466  152.8160 N   0  0  0  0  0  0  0  0  0  0  0  0
  146.0220  127.5209  152.4712 H   0  0  0  0  0  0  0  0  0  0  0  0
  146.4481  128.8847  151.4431 H   0  0  0  0  0  0  0  0  0  0  0  0
  145.3216  129.1017  152.8019 H   0  0  0  0  0  0  0  0  0  0  0  0
  149.3818  129.6328  154.7888 H   0  0  0  0  0  0  0  0  0  0  0  0
  150.1637  131.9733  155.0417 H   0  0  0  0  0  0  0  0  0  0  0  0
  148.7502  134.7084  152.9678 H   0  0  0  0  0  0  0  0  0  0  0  0
  149.3607  136.4586  153.6340 H   0  0  0  0  0  0  0  0  0  0  0  0
  149.7304  137.4276  156.0969 H   0  0  0  0  0  0  0  0  0  0  0  0
  151.2487  136.5827  155.8867 H   0  0  0  0  0  0  0  0  0  0  0  0
  151.6290  137.8912  153.7358 H   0  0  0  0  0  0  0  0  0  0  0  0
  150.1350  138.7666  154.0333 H   0  0  0  0  0  0  0  0  0  0  0  0
  149.2202  138.9241  156.2631 H   0  0  0  0  0  0  0  0  0  0  0  0
  149.6868  139.5051  157.8276 H   0  0  0  0  0  0  0  0  0  0  0  0
  147.9685  140.9706  156.9744 H   0  0  0  0  0  0  0  0  0  0  0  0
  148.1356  140.5902  154.5485 H   0  0  0  0  0  0  0  0  0  0  0  0
  149.6568  141.4621  154.4672 H   0  0  0  0  0  0  0  0  0  0  0  0
  148.1777  142.3128  154.9025 H   0  0  0  0  0  0  0  0  0  0  0  0
  151.1158  142.5726  155.8317 H   0  0  0  0  0  0  0  0  0  0  0  0
  152.5882  143.6461  157.5295 H   0  0  0  0  0  0  0  0  0  0  0  0
  151.4215  143.2629  158.7948 H   0  0  0  0  0  0  0  0  0  0  0  0
  150.9923  144.3897  157.5101 H   0  0  0  0  0  0  0  0  0  0  0  0
  151.6709  140.7324  158.2275 H   0  0  0  0  0  0  0  0  0  0  0  0
  152.8050  141.1083  156.9591 H   0  0  0  0  0  0  0  0  0  0  0  0
  146.9305  133.1671  152.4182 H   0  0  0  0  0  0  0  0  0  0  0  0
  1  2  1  0  0  0  0
  1 25  1  0  0  0  0
  1 26  1  0  0  0  0
  1 27  1  0  0  0  0
  2  3  1  0  0  0  0
  3 24  1  0  0  0  0
  3  4  2  0  0  0  0
  4  5  1  0  0  0  0
  4 28  1  0  0  0  0
  5  6  2  0  0  0  0
  5 29  1  0  0  0  0
  6  7  1  0  0  0  0
  6 23  1  0  0  0  0
  7  8  1  0  0  0  0
  7 30  1  0  0  0  0
  8  9  2  0  0  0  0
  8 10  1  0  0  0  0
 10 11  1  0  0  0  0
 10 31  1  0  0  0  0
 11 12  1  0  0  0  0
 11 32  1  0  0  0  0
 11 33  1  0  0  0  0
 12 13  1  0  0  0  0
 12 34  1  0  0  0  0
 12 35  1  0  0  0  0
 13 14  2  0  0  0  0
 13 15  1  0  0  0  0
 15 22  1  0  0  0  0
 15 16  1  0  0  0  0
 16 17  1  0  0  0  0
 16 36  1  0  0  0  0
 16 37  1  0  0  0  0
 17 18  1  0  0  0  0
 17 19  1  0  0  0  0
 17 38  1  0  0  0  0
 18 39  1  0  0  0  0
 18 40  1  0  0  0  0
 18 41  1  0  0  0  0
 19 20  1  0  0  0  0
 20 21  1  0  0  0  0
 20 22  1  0  0  0  0
 20 42  1  0  0  0  0
 21 43  1  0  0  0  0
 21 44  1  0  0  0  0
 21 45  1  0  0  0  0
 22 46  1  0  0  0  0
 22 47  1  0  0  0  0
 23 24  2  0  0  0  0
 23 48  1  0  0  0  0
M  END
> <s_m_source_file>
AV-unprocessed.smi

> <i_m_source_file_index>
314

> <i_lp_mmshare_version>
43012

> <i_f3d_flags>
0

> <s_epik_input>
W0NIM11PYzFbY0hdW2NIXWMoW2NIXW4xKVtOSF1DKD1PKVtOSF1bQ0gyXVtDSDJdQyg9TylOMltDSDJdW0NAQEhdKFtDSDNdKU9bQ0BASF0oW0NIM10pW0NIMl0y

> <s_epik_cmdline>
J2VwaWtfcHl0aG9uJywgJy1waCcsICc3LjAnLCAnLXRuJywgJzgnLCAnLW1hJywgJzIwMCcsICctbWV0YWxfYmluZGluZycsICctaW1hZScsICc8aW5maWxlLm1hZT4nLCAnLW9tYWUnLCAnPG91dGZpbGUubWFlPic=

> <r_lp_tautomer_probability>
1

> <r_epik_Ionization_Penalty>
8.55977e-05

> <r_epik_Ionization_Penalty_Charging>
0

> <r_epik_Ionization_Penalty_Neutral>
8.55977e-05

> <r_epik_State_Penalty>
-0

> <r_epik_Charging_Adjusted_Penalty>
0

> <i_epik_Tot_Q>
0

> <i_epik_Tot_abs_Q>
0

> <r_epik_Metal_State_Penalty>
-0

> <b_epik_Metal_Only>
0

> <s_lp_Force_Field>
OPLS_2005

> <r_lp_Energy>
25.8744

> <b_lp_Chiralities_Consistent>
1

> <s_lp_Variant>
AV-unprocessed.smi:314-2

> <Gold.Version>
5.8.1

> <Gold.Id.Protein>
6NUR|6NUR_protein|mol2

> <Gold.PLP.Fitness>
49.7232

> <Gold.PLP.PLP>
-41.8358

> <Gold.PLP.part.hbond>
-4.2039

> <Gold.PLP.part.metal>
0.0000

> <Gold.PLP.part.buried>
-5.2016

> <Gold.PLP.part.nonpolar>
-33.4204

> <Gold.PLP.part.repulsive>
0.4479

> <Gold.PLP.ligand.clash>
0.0000

> <Gold.PLP.ligand.torsion>
0.3350

> <Gold.PLP.Chemscore.Hbond>
2.8440

> <Gold.PLP.Chemscore.CHOScore>
0.0000

> <Gold.PLP.Chemscore.Metal>
0.0000

> <Gold.Chemscore.Hbonds>
donor molecule, donor type, donor heavy atom, donor atom, acceptor molecule, acceptor atom, score
      L1  H     7    30       P1  7948  0.85
      L1  H    10    31       P1  7948  0.99
      P1  H  7997  8010       L1    14  1.00

> <Gold.PLP.Chemscore.Internal.Correction>
0.0254

> <Gold.Rescore>
     Score         DG    S(hbond)    S(metal)    S(lipo)     H(rot)  DE(clash)    DE(int)     intcor
     17.22     -18.76       2.55        0.00      80.26       1.81       0.08       1.47       ----

> <Gold.Chemscore.Fitness>
17.2162

> <Gold.Chemscore.DG>
-18.7622

> <Gold.Chemscore.ZeroCoef>
-5.4800

> <Gold.Chemscore.Hbond>
2.5499

> <Gold.Chemscore.Metal>
0.0000

> <Gold.Chemscore.Lipo>
80.2611

> <Gold.Chemscore.Internal_Hbond>
0.0000

> <Gold.Chemscore.DEClash>
0.0764

> <Gold.Chemscore.DEInternal>
1.4696

> <Gold.Chemscore.Rot>
1.8067

> <Gold.Chemscore.Internal.Correction>
   9.000000E+99

> <Gold.Chemscore.Hbonds>
donor molecule, donor type, donor heavy atom, donor atom, acceptor molecule, acceptor atom, score
      L1  H     7    30       P1  7948  0.14
      L1  H    10    31       P1  7948  0.83
      P1  H  7997  8010       L1    14  1.00

> <Gold.Chemscore.Hbond.Weighted>
-8.5168

> <Gold.Chemscore.Metal.Weighted>
-0.0000

> <Gold.Chemscore.Lipo.Weighted>
-9.3906

> <Gold.Chemscore.Internal_Hbond.Weighted>
0.0000

> <Gold.Chemscore.DEClash.Weighted>
0.0764

> <Gold.Chemscore.DEInternal.Weighted>
1.4696

> <Gold.Chemscore.Rot.Weighted>
4.6252

> <Gold.Chemscore.Internal.Correction.Weighted>
   9.000000E+99

> <Gold.Protein.RotatedTorsions>
[ 6907 6896 6895 6894 ] final  -51.52 input  -60.11 | X-H torsion
[ 7974 7965 7964 7962 ] final -175.71 input  175.53 | X-H torsion
[ 8008 7997 7996 7995 ] final  106.27 input   59.86 | X-H torsion
[ 10167 10162 10161 10158 ] final   38.72 input  -65.29 | X-H torsion
[ 10718 10713 10712 10709 ] final   19.39 input   66.30 | X-H torsion
[ 10763 10752 10751 10750 ] final   45.87 input  -60.55 | X-H torsion
[ 11005 11000 10999 10996 ] final -165.99 input  -57.11 | X-H torsion

> <Gold.Protein.ActiveResidues>
 VAL166  LYS551  ARG553  GLY616  TRP617  ASP618  TYR619  PRO620  LYS621  CYS622 
 ASP623  PHE694  ASN695  SER759  ASP760  ASP761  ALA762  ILE779  LEU786  VAL792 
 PHE793  MET794  SER795  GLU796  ALA797  LYS798  CYS799  TRP800  GLU811  SER814 

> <Gold.Protein.RotatedAtoms>
  150.8604  134.7954  159.7077 H   0  0  0  0  0  0  0  0  0  0  0  0  # atno 6907 bound_to 6896
  152.4643  134.5109  159.9763 H   0  0  0  0  0  0  0  0  0  0  0  0  # atno 6908 bound_to 6896
  151.5214  133.3427  159.2937 H   0  0  0  0  0  0  0  0  0  0  0  0  # atno 6909 bound_to 6896
  144.7127  140.1280  143.6401 H   0  0  0  0  0  0  0  0  0  0  0  0  # atno 7974 bound_to 7965
  156.1728  140.3116  155.9005 H   0  0  0  0  0  0  0  0  0  0  0  0  # atno 8008 bound_to 7997
  155.3550  140.0473  157.3063 H   0  0  0  0  0  0  0  0  0  0  0  0  # atno 8009 bound_to 7997
  154.5259  140.2214  155.8901 H   0  0  0  0  0  0  0  0  0  0  0  0  # atno 8010 bound_to 7997
  140.3909  144.1854  150.6131 H   0  0  0  0  0  0  0  0  0  0  0  0  # atno 10167 bound_to 10162
  157.1098  130.6504  149.5894 H   0  0  0  0  0  0  0  0  0  0  0  0  # atno 10718 bound_to 10713
  152.9818  135.6026  154.3506 H   0  0  0  0  0  0  0  0  0  0  0  0  # atno 10763 bound_to 10752
  154.3196  135.2770  155.2528 H   0  0  0  0  0  0  0  0  0  0  0  0  # atno 10764 bound_to 10752
  154.4700  135.5944  153.6371 H   0  0  0  0  0  0  0  0  0  0  0  0  # atno 10765 bound_to 10752
  140.5695  134.5252  157.5159 H   0  0  0  0  0  0  0  0  0  0  0  0  # atno 11005 bound_to 11000
  145.9312  139.2608  143.1324 LP  0  0  0  0  0  0  0  0  0  0  0  0  # atno 17320 bound_to 7965
  145.9520  140.8901  143.0254 LP  0  0  0  0  0  0  0  0  0  0  0  0  # atno 17321 bound_to 7965
  140.4841  143.2369  151.8914 LP  0  0  0  0  0  0  0  0  0  0  0  0  # atno 17342 bound_to 10162
  139.4789  144.5238  151.8764 LP  0  0  0  0  0  0  0  0  0  0  0  0  # atno 17343 bound_to 10162
  155.9853  130.4882  150.7025 LP  0  0  0  0  0  0  0  0  0  0  0  0  # atno 17370 bound_to 10713
  157.4569  131.0879  151.0787 LP  0  0  0  0  0  0  0  0  0  0  0  0  # atno 17371 bound_to 10713
  139.9368  134.7860  156.0781 LP  0  0  0  0  0  0  0  0  0  0  0  0  # atno 17394 bound_to 11000
  141.1065  133.6658  156.2876 LP  0  0  0  0  0  0  0  0  0  0  0  0  # atno 17395 bound_to 11000

$$$$
