AV-unprocessed.smi:1005|AV-procd|sdf|4382|dock2
  -GOLD-   22720 2303D 1   1.00000     0.00000
 Structure written by MMmdl.
 58 60  0  0  0  0  0  0  0  0  4 V2000
  152.2289  143.8060  159.8136 C   0  0  0  0  0  0  0  0  0  0  0  0
  151.9004  142.8398  158.6882 C   0  0  0  0  0  0  0  0  0  0  0  0
  150.9353  143.2239  157.7298 C   0  0  0  0  0  0  0  0  0  0  0  0
  150.6584  142.3201  156.7111 C   0  0  0  0  0  0  0  0  0  0  0  0
  149.7755  142.3985  155.6319 N   0  3  0  0  0  0  0  0  0  0  0  0
  149.8558  141.2562  154.8946 C   0  0  0  0  0  0  0  0  0  0  0  0
  150.7799  140.4505  155.4860 N   0  0  0  0  0  0  0  0  0  0  0  0
  151.2538  139.1135  155.1037 C   0  0  0  0  0  0  0  0  0  0  0  0
  150.1095  138.0901  154.9606 C   0  0  2  0  0  0  0  0  0  0  0  0
  149.3271  138.4208  153.8294 O   0  0  0  0  0  0  0  0  0  0  0  0
  149.2014  138.0620  156.2061 C   0  0  0  0  0  0  0  0  0  0  0  0
  149.9012  137.5234  157.4041 N   0  3  1  0  0  0  0  0  0  0  0  0
  149.0048  137.1136  158.5152 C   0  0  0  0  0  0  0  0  0  0  0  0
  148.3688  135.7363  158.2495 C   0  0  0  0  0  0  0  0  0  0  0  0
  149.3873  134.7771  157.9935 O   0  0  0  0  0  0  0  0  0  0  0  0
  150.1671  135.0963  156.8454 C   0  0  2  0  0  0  0  0  0  0  0  0
  151.1802  133.9557  156.6325 C   0  0  0  0  0  0  0  0  0  0  0  0
  150.5321  132.6753  156.2478 N   0  3  0  0  0  0  0  0  0  0  0  0
  149.7309  132.7722  155.0057 C   0  0  0  0  0  0  0  0  0  0  0  0
  151.4998  131.5578  156.1825 C   0  0  0  0  0  0  0  0  0  0  0  0
  150.8742  136.4456  157.0973 C   0  0  0  0  0  0  0  0  0  0  0  0
  151.3033  141.0711  156.6253 C   0  0  0  0  0  0  0  0  0  0  0  0
  152.2538  140.6751  157.5630 C   0  0  0  0  0  0  0  0  0  0  0  0
  152.5510  141.5813  158.6060 C   0  0  0  0  0  0  0  0  0  0  0  0
  153.5874  141.1796  159.6416 C   0  0  0  0  0  0  0  0  0  0  0  0
  151.6583  144.7310  159.7251 H   0  0  0  0  0  0  0  0  0  0  0  0
  153.2877  144.0656  159.7990 H   0  0  0  0  0  0  0  0  0  0  0  0
  151.9942  143.3608  160.7808 H   0  0  0  0  0  0  0  0  0  0  0  0
  150.4356  144.1799  157.7868 H   0  0  0  0  0  0  0  0  0  0  0  0
  149.2910  141.0331  154.0008 H   0  0  0  0  0  0  0  0  0  0  0  0
  151.8162  139.2041  154.1735 H   0  0  0  0  0  0  0  0  0  0  0  0
  151.9642  138.7872  155.8648 H   0  0  0  0  0  0  0  0  0  0  0  0
  150.5423  137.1053  154.7894 H   0  0  0  0  0  0  0  0  0  0  0  0
  149.1874  137.6397  153.3155 H   0  0  0  0  0  0  0  0  0  0  0  0
  148.8210  139.0613  156.4182 H   0  0  0  0  0  0  0  0  0  0  0  0
  148.3261  137.4507  155.9810 H   0  0  0  0  0  0  0  0  0  0  0  0
  149.6008  137.0604  159.4273 H   0  0  0  0  0  0  0  0  0  0  0  0
  148.2340  137.8605  158.7011 H   0  0  0  0  0  0  0  0  0  0  0  0
  147.7989  135.4157  159.1218 H   0  0  0  0  0  0  0  0  0  0  0  0
  147.6676  135.7723  157.4152 H   0  0  0  0  0  0  0  0  0  0  0  0
  149.5188  135.1866  155.9734 H   0  0  0  0  0  0  0  0  0  0  0  0
  151.9157  134.2301  155.8744 H   0  0  0  0  0  0  0  0  0  0  0  0
  151.7370  133.8178  157.5607 H   0  0  0  0  0  0  0  0  0  0  0  0
  150.3595  133.0390  154.1549 H   0  0  0  0  0  0  0  0  0  0  0  0
  148.9414  133.5175  155.0941 H   0  0  0  0  0  0  0  0  0  0  0  0
  149.2508  131.8182  154.7845 H   0  0  0  0  0  0  0  0  0  0  0  0
  152.2515  131.7352  155.4124 H   0  0  0  0  0  0  0  0  0  0  0  0
  150.9924  130.6193  155.9561 H   0  0  0  0  0  0  0  0  0  0  0  0
  152.0104  131.4312  157.1377 H   0  0  0  0  0  0  0  0  0  0  0  0
  151.4966  136.7259  156.2468 H   0  0  0  0  0  0  0  0  0  0  0  0
  151.5504  136.3485  157.9480 H   0  0  0  0  0  0  0  0  0  0  0  0
  152.7485  139.7176  157.5008 H   0  0  0  0  0  0  0  0  0  0  0  0
  153.9793  140.1805  159.4480 H   0  0  0  0  0  0  0  0  0  0  0  0
  153.1512  141.1774  160.6408 H   0  0  0  0  0  0  0  0  0  0  0  0
  154.4275  141.8744  159.6314 H   0  0  0  0  0  0  0  0  0  0  0  0
  149.8925  132.4401  156.9938 H   0  0  0  0  0  0  0  0  0  0  0  0
  150.4509  138.2986  157.7486 H   0  0  0  0  0  0  0  0  0  0  0  0
  149.1628  143.1734  155.4117 H   0  0  0  0  0  0  0  0  0  0  0  0
  1  2  1  0  0  0  0
  1 26  1  0  0  0  0
  1 27  1  0  0  0  0
  1 28  1  0  0  0  0
  2 24  1  0  0  0  0
  2  3  2  0  0  0  0
  3  4  1  0  0  0  0
  3 29  1  0  0  0  0
  4 22  2  0  0  0  0
  4  5  1  0  0  0  0
  5  6  2  0  0  0  0
  5 58  1  0  0  0  0
  6  7  1  0  0  0  0
  6 30  1  0  0  0  0
  7  8  1  0  0  0  0
  7 22  1  0  0  0  0
  8  9  1  0  0  0  0
  8 31  1  0  0  0  0
  8 32  1  0  0  0  0
  9 10  1  0  0  0  0
  9 11  1  0  0  0  0
  9 33  1  0  0  0  0
 10 34  1  0  0  0  0
 11 12  1  0  0  0  0
 11 35  1  0  0  0  0
 11 36  1  0  0  0  0
 12 21  1  0  0  0  0
 12 13  1  0  0  0  0
 12 57  1  0  0  0  0
 13 14  1  0  0  0  0
 13 37  1  0  0  0  0
 13 38  1  0  0  0  0
 14 15  1  0  0  0  0
 14 39  1  0  0  0  0
 14 40  1  0  0  0  0
 15 16  1  0  0  0  0
 16 17  1  0  0  0  0
 16 21  1  0  0  0  0
 16 41  1  0  0  0  0
 17 18  1  0  0  0  0
 17 42  1  0  0  0  0
 17 43  1  0  0  0  0
 18 19  1  0  0  0  0
 18 20  1  0  0  0  0
 18 56  1  0  0  0  0
 19 44  1  0  0  0  0
 19 45  1  0  0  0  0
 19 46  1  0  0  0  0
 20 47  1  0  0  0  0
 20 48  1  0  0  0  0
 20 49  1  0  0  0  0
 21 50  1  0  0  0  0
 21 51  1  0  0  0  0
 22 23  1  0  0  0  0
 23 24  2  0  0  0  0
 23 52  1  0  0  0  0
 24 25  1  0  0  0  0
 25 53  1  0  0  0  0
 25 54  1  0  0  0  0
 25 55  1  0  0  0  0
M  CHG  1   5   1
M  CHG  1  12   1
M  CHG  1  18   1
M  END
> <s_m_source_file>
AV-unprocessed.smi

> <i_m_source_file_index>
1005

> <i_lp_mmshare_version>
43012

> <i_f3d_flags>
0

> <s_epik_input>
W0NIM11jKFtjSF0xKWMoW0NIM10pW2NIXWMoYzEyKW4oW2NIXW4yKVtDSDJdW0NASF0oW09IXSlbQ0gyXU4zW0NIMl1bQ0gyXU9bQ0BIXShbQ0gyXTMpW0NIMl1OKFtDSDNdKVtDSDNd

> <s_epik_cmdline>
J2VwaWtfcHl0aG9uJywgJy1waCcsICc3LjAnLCAnLXRuJywgJzgnLCAnLW1hJywgJzIwMCcsICctbWV0YWxfYmluZGluZycsICctaW1hZScsICc8aW5maWxlLm1hZT4nLCAnLW9tYWUnLCAnPG91dGZpbGUubWFlPic=

> <r_epik_Ionization_Penalty>
2.30802

> <r_epik_Ionization_Penalty_Charging>
2.30798

> <r_epik_Ionization_Penalty_Neutral>
3.4851e-05

> <r_epik_State_Penalty>
2.52618

> <r_epik_Charging_Adjusted_Penalty>
4.83416

> <i_epik_Tot_Q>
3

> <i_epik_Tot_abs_Q>
3

> <r_epik_Metal_State_Penalty>
6.53149

> <b_epik_Metal_Only>
0

> <s_lp_Force_Field>
OPLS_2005

> <r_lp_Energy>
46.1367

> <b_lp_Chiralities_Consistent>
1

> <s_lp_Variant>
AV-unprocessed.smi:1005-21

> <Gold.Version>
5.8.1

> <Gold.Id.Protein>
6NUR|6NUR_protein|mol2

> <Gold.PLP.Fitness>
53.9763

> <Gold.PLP.PLP>
-42.3957

> <Gold.PLP.part.hbond>
-3.6007

> <Gold.PLP.part.metal>
0.0000

> <Gold.PLP.part.buried>
-5.0771

> <Gold.PLP.part.nonpolar>
-34.8981

> <Gold.PLP.part.repulsive>
0.2340

> <Gold.PLP.ligand.clash>
0.0000

> <Gold.PLP.ligand.torsion>
0.3289

> <Gold.PLP.Chemscore.Hbond>
4.0000

> <Gold.PLP.Chemscore.CHOScore>
0.0000

> <Gold.PLP.Chemscore.Metal>
0.0000

> <Gold.Chemscore.Hbonds>
donor molecule, donor type, donor heavy atom, donor atom, acceptor molecule, acceptor atom, score
      L1  H     5    58       P1  8028  1.82
      L1  H    10    34       P1  7948  1.00
      P1  H  6896  6907       L1    15  0.96

> <Gold.PLP.Chemscore.Internal.Correction>
0.2384

> <Gold.Rescore>
     Score         DG    S(hbond)    S(metal)    S(lipo)     H(rot)  DE(clash)    DE(int)     intcor
     20.22     -20.74       2.63        0.00     111.29       2.56       0.12       0.40       ----

> <Gold.Chemscore.Fitness>
20.2188

> <Gold.Chemscore.DG>
-20.7379

> <Gold.Chemscore.ZeroCoef>
-5.4800

> <Gold.Chemscore.Hbond>
2.6294

> <Gold.Chemscore.Metal>
0.0000

> <Gold.Chemscore.Lipo>
111.2873

> <Gold.Chemscore.Internal_Hbond>
0.0000

> <Gold.Chemscore.DEClash>
0.1193

> <Gold.Chemscore.DEInternal>
0.3998

> <Gold.Chemscore.Rot>
2.5566

> <Gold.Chemscore.Internal.Correction>
   9.000000E+99

> <Gold.Chemscore.Hbonds>
donor molecule, donor type, donor heavy atom, donor atom, acceptor molecule, acceptor atom, score
      L1  H     5    58       P1  8028  0.88
      L1  H    10    34       P1  7948  0.95
      P1  H  6896  6907       L1    15  0.43

> <Gold.Chemscore.Hbond.Weighted>
-8.7823

> <Gold.Chemscore.Metal.Weighted>
-0.0000

> <Gold.Chemscore.Lipo.Weighted>
-13.0206

> <Gold.Chemscore.Internal_Hbond.Weighted>
0.0000

> <Gold.Chemscore.DEClash.Weighted>
0.1193

> <Gold.Chemscore.DEInternal.Weighted>
0.3998

> <Gold.Chemscore.Rot.Weighted>
6.5450

> <Gold.Chemscore.Internal.Correction.Weighted>
   9.000000E+99

> <Gold.Protein.RotatedTorsions>
[ 6907 6896 6895 6894 ] final -109.74 input  -60.11 | X-H torsion
[ 7974 7965 7964 7962 ] final   85.80 input  175.53 | X-H torsion
[ 8008 7997 7996 7995 ] final -125.95 input   59.86 | X-H torsion
[ 10167 10162 10161 10158 ] final  116.17 input  -65.29 | X-H torsion
[ 10718 10713 10712 10709 ] final   69.96 input   66.30 | X-H torsion
[ 10763 10752 10751 10750 ] final  -80.90 input  -60.55 | X-H torsion
[ 11005 11000 10999 10996 ] final   75.87 input  -57.11 | X-H torsion

> <Gold.Protein.ActiveResidues>
 VAL166  LYS551  ARG553  GLY616  TRP617  ASP618  TYR619  PRO620  LYS621  CYS622 
 ASP623  PHE694  ASN695  SER759  ASP760  ASP761  ALA762  ILE779  LEU786  VAL792 
 PHE793  MET794  SER795  GLU796  ALA797  LYS798  CYS799  TRP800  GLU811  SER814 

> <Gold.Protein.RotatedAtoms>
  150.7581  133.9484  159.3477 H   0  0  0  0  0  0  0  0  0  0  0  0  # atno 6907 bound_to 6896
  151.7399  135.0854  160.0323 H   0  0  0  0  0  0  0  0  0  0  0  0  # atno 6908 bound_to 6896
  152.3535  133.6171  159.5998 H   0  0  0  0  0  0  0  0  0  0  0  0  # atno 6909 bound_to 6896
  145.5807  139.2325  143.2354 H   0  0  0  0  0  0  0  0  0  0  0  0  # atno 7974 bound_to 7965
  155.2217  140.0422  157.2949 H   0  0  0  0  0  0  0  0  0  0  0  0  # atno 8008 bound_to 7997
  154.5945  140.2436  155.7846 H   0  0  0  0  0  0  0  0  0  0  0  0  # atno 8009 bound_to 7997
  156.2281  140.2947  156.0128 H   0  0  0  0  0  0  0  0  0  0  0  0  # atno 8010 bound_to 7997
  139.6266  144.7109  151.2521 H   0  0  0  0  0  0  0  0  0  0  0  0  # atno 10167 bound_to 10162
  157.6374  130.9453  150.0585 H   0  0  0  0  0  0  0  0  0  0  0  0  # atno 10718 bound_to 10713
  154.5569  135.5645  153.6972 H   0  0  0  0  0  0  0  0  0  0  0  0  # atno 10763 bound_to 10752
  153.0006  135.6264  154.2298 H   0  0  0  0  0  0  0  0  0  0  0  0  # atno 10764 bound_to 10752
  154.2235  135.2868  155.2896 H   0  0  0  0  0  0  0  0  0  0  0  0  # atno 10765 bound_to 10752
  139.9324  134.7553  156.1324 H   0  0  0  0  0  0  0  0  0  0  0  0  # atno 11005 bound_to 11000
  146.1718  140.6634  142.9229 LP  0  0  0  0  0  0  0  0  0  0  0  0  # atno 17320 bound_to 7965
  144.7395  140.4903  143.6879 LP  0  0  0  0  0  0  0  0  0  0  0  0  # atno 17321 bound_to 7965
  140.7414  143.6557  150.8209 LP  0  0  0  0  0  0  0  0  0  0  0  0  # atno 17342 bound_to 10162
  140.0176  143.5576  152.2814 LP  0  0  0  0  0  0  0  0  0  0  0  0  # atno 17343 bound_to 10162
  156.1625  130.3644  149.9279 LP  0  0  0  0  0  0  0  0  0  0  0  0  # atno 17370 bound_to 10713
  156.7273  130.9030  151.3623 LP  0  0  0  0  0  0  0  0  0  0  0  0  # atno 17371 bound_to 10713
  141.0920  133.6710  156.2561 LP  0  0  0  0  0  0  0  0  0  0  0  0  # atno 17394 bound_to 11000
  140.6166  134.5404  157.5541 LP  0  0  0  0  0  0  0  0  0  0  0  0  # atno 17395 bound_to 11000

$$$$
