AV-unprocessed.smi:3091|AV-procd|sdf|11780|dock9
  -GOLD-   2272017163D 1   1.00000     0.00000
 Structure written by MMmdl.
 28 29  0  0  0  0  0  0  0  0  1 V2000
  149.7863  144.3530  158.9762 N   0  0  0  0  0  0  0  0  0  0  0  0
  151.1957  144.6031  159.1989 C   0  0  0  0  0  0  0  0  0  0  0  0
  151.9801  143.3224  159.3910 C   0  0  0  0  0  0  0  0  0  0  0  0
  152.7557  143.1240  160.5505 C   0  0  0  0  0  0  0  0  0  0  0  0
  153.4745  141.9197  160.6767 C   0  0  0  0  0  0  0  0  0  0  0  0
  153.4593  140.9465  159.7414 N   0  0  0  0  0  0  0  0  0  0  0  0
  152.7164  141.1405  158.6228 C   0  0  0  0  0  0  0  0  0  0  0  0
  152.6903  140.1567  157.6542 O   0  0  0  0  0  0  0  0  0  0  0  0
  151.4360  139.7118  157.1329 C   0  0  2  0  0  0  0  0  0  0  0  0
  151.5957  138.4092  156.3593 C   0  0  0  0  0  0  0  0  0  0  0  0
  151.9498  138.8997  154.9636 C   0  0  0  0  0  0  0  0  0  0  0  0
  151.1024  140.0238  154.7988 O   0  0  0  0  0  0  0  0  0  0  0  0
  150.9964  140.7042  156.0459 C   0  0  0  0  0  0  0  0  0  0  0  0
  151.9631  142.3128  158.4075 C   0  0  0  0  0  0  0  0  0  0  0  0
  149.3573  144.0515  159.8396 H   0  0  0  0  0  0  0  0  0  0  0  0
  149.3258  145.2102  158.7063 H   0  0  0  0  0  0  0  0  0  0  0  0
  151.5994  145.1608  158.3533 H   0  0  0  0  0  0  0  0  0  0  0  0
  151.3089  145.2349  160.0804 H   0  0  0  0  0  0  0  0  0  0  0  0
  152.8004  143.8758  161.3246 H   0  0  0  0  0  0  0  0  0  0  0  0
  154.0788  141.7334  161.5521 H   0  0  0  0  0  0  0  0  0  0  0  0
  150.6766  139.6442  157.9136 H   0  0  0  0  0  0  0  0  0  0  0  0
  152.3445  137.7348  156.7747 H   0  0  0  0  0  0  0  0  0  0  0  0
  150.6438  137.8779  156.3297 H   0  0  0  0  0  0  0  0  0  0  0  0
  152.9930  139.2160  154.9148 H   0  0  0  0  0  0  0  0  0  0  0  0
  151.7781  138.1483  154.1930 H   0  0  0  0  0  0  0  0  0  0  0  0
  149.9649  141.0255  156.1909 H   0  0  0  0  0  0  0  0  0  0  0  0
  151.6237  141.5965  156.0388 H   0  0  0  0  0  0  0  0  0  0  0  0
  151.3854  142.4324  157.5026 H   0  0  0  0  0  0  0  0  0  0  0  0
  1  2  1  0  0  0  0
  1 15  1  0  0  0  0
  1 16  1  0  0  0  0
  2  3  1  0  0  0  0
  2 17  1  0  0  0  0
  2 18  1  0  0  0  0
  3 14  1  0  0  0  0
  3  4  2  0  0  0  0
  4  5  1  0  0  0  0
  4 19  1  0  0  0  0
  5  6  2  0  0  0  0
  5 20  1  0  0  0  0
  6  7  1  0  0  0  0
  7  8  1  0  0  0  0
  7 14  2  0  0  0  0
  8  9  1  0  0  0  0
  9 13  1  0  0  0  0
  9 10  1  0  0  0  0
  9 21  1  0  0  0  0
 10 11  1  0  0  0  0
 10 22  1  0  0  0  0
 10 23  1  0  0  0  0
 11 12  1  0  0  0  0
 11 24  1  0  0  0  0
 11 25  1  0  0  0  0
 12 13  1  0  0  0  0
 13 26  1  0  0  0  0
 13 27  1  0  0  0  0
 14 28  1  0  0  0  0
M  END
> <s_m_source_file>
AV-unprocessed.smi

> <i_m_source_file_index>
3091

> <i_lp_mmshare_version>
43012

> <i_f3d_flags>
0

> <s_epik_input>
W05IMl1bQ0gyXWMxW2NIXVtjSF1uYyhbY0hdMSlPW0NAQEhdMltDSDJdW0NIMl1PW0NIMl0y

> <s_epik_cmdline>
J2VwaWtfcHl0aG9uJywgJy1waCcsICc3LjAnLCAnLXRuJywgJzgnLCAnLW1hJywgJzIwMCcsICctbWV0YWxfYmluZGluZycsICctaW1hZScsICc8aW5maWxlLm1hZT4nLCAnLW9tYWUnLCAnPG91dGZpbGUubWFlPic=

> <r_lp_tautomer_probability>
1

> <r_epik_Ionization_Penalty>
1.24495

> <r_epik_Ionization_Penalty_Charging>
0

> <r_epik_Ionization_Penalty_Neutral>
1.24495

> <r_epik_State_Penalty>
1.3141

> <r_epik_Charging_Adjusted_Penalty>
1.3141

> <i_epik_Tot_Q>
0

> <i_epik_Tot_abs_Q>
0

> <r_epik_Metal_State_Penalty>
1.31398

> <b_epik_Metal_Only>
0

> <s_lp_Force_Field>
OPLS_2005

> <r_lp_Energy>
14.7712

> <b_lp_Chiralities_Consistent>
1

> <s_lp_Variant>
AV-unprocessed.smi:3091-3

> <Gold.Version>
5.8.1

> <Gold.Id.Protein>
6NUR|6NUR_protein|mol2

> <Gold.PLP.Fitness>
40.4051

> <Gold.PLP.PLP>
-32.3149

> <Gold.PLP.part.hbond>
-3.8312

> <Gold.PLP.part.metal>
0.0000

> <Gold.PLP.part.buried>
-4.0665

> <Gold.PLP.part.nonpolar>
-24.0432

> <Gold.PLP.part.repulsive>
0.0699

> <Gold.PLP.ligand.clash>
0.0000

> <Gold.PLP.ligand.torsion>
0.2836

> <Gold.PLP.Chemscore.Hbond>
2.8800

> <Gold.PLP.Chemscore.CHOScore>
0.0000

> <Gold.PLP.Chemscore.Metal>
0.0000

> <Gold.Chemscore.Hbonds>
donor molecule, donor type, donor heavy atom, donor atom, acceptor molecule, acceptor atom, score
      L1  H     1    16       P1  8029  0.58
      P1  H  7989  7998       L1    12  1.00
      P1  H  7997  8010       L1     8  1.00

> <Gold.PLP.Chemscore.Internal.Correction>
0.0174

> <Gold.Rescore>
     Score         DG    S(hbond)    S(metal)    S(lipo)     H(rot)  DE(clash)    DE(int)     intcor
     17.65     -18.95       2.48        0.00      78.15       1.54       0.02       1.28       ----

> <Gold.Chemscore.Fitness>
17.6476

> <Gold.Chemscore.DG>
-18.9460

> <Gold.Chemscore.ZeroCoef>
-5.4800

> <Gold.Chemscore.Hbond>
2.4762

> <Gold.Chemscore.Metal>
0.0000

> <Gold.Chemscore.Lipo>
78.1536

> <Gold.Chemscore.Internal_Hbond>
0.0000

> <Gold.Chemscore.DEClash>
0.0174

> <Gold.Chemscore.DEInternal>
1.2810

> <Gold.Chemscore.Rot>
1.5424

> <Gold.Chemscore.Internal.Correction>
   9.000000E+99

> <Gold.Chemscore.Hbonds>
donor molecule, donor type, donor heavy atom, donor atom, acceptor molecule, acceptor atom, score
      L1  H     1    16       P1  8029  0.54
      P1  H  7989  7998       L1    12  0.62
      P1  H  7997  8010       L1     8  0.67

> <Gold.Chemscore.Hbond.Weighted>
-8.2707

> <Gold.Chemscore.Metal.Weighted>
-0.0000

> <Gold.Chemscore.Lipo.Weighted>
-9.1440

> <Gold.Chemscore.Internal_Hbond.Weighted>
0.0000

> <Gold.Chemscore.DEClash.Weighted>
0.0174

> <Gold.Chemscore.DEInternal.Weighted>
1.2810

> <Gold.Chemscore.Rot.Weighted>
3.9487

> <Gold.Chemscore.Internal.Correction.Weighted>
   9.000000E+99

> <Gold.Protein.RotatedTorsions>
[ 6907 6896 6895 6894 ] final -119.28 input  -60.11 | X-H torsion
[ 7974 7965 7964 7962 ] final   39.47 input  175.53 | X-H torsion
[ 8008 7997 7996 7995 ] final   50.67 input   59.86 | X-H torsion
[ 10167 10162 10161 10158 ] final   49.28 input  -65.29 | X-H torsion
[ 10718 10713 10712 10709 ] final -156.84 input   66.30 | X-H torsion
[ 10763 10752 10751 10750 ] final  178.28 input  -60.55 | X-H torsion
[ 11005 11000 10999 10996 ] final  -88.43 input  -57.11 | X-H torsion

> <Gold.Protein.ActiveResidues>
 VAL166  LYS551  ARG553  GLY616  TRP617  ASP618  TYR619  PRO620  LYS621  CYS622 
 ASP623  PHE694  ASN695  SER759  ASP760  ASP761  ALA762  ILE779  LEU786  VAL792 
 PHE793  MET794  SER795  GLU796  ALA797  LYS798  CYS799  TRP800  GLU811  SER814 

> <Gold.Protein.RotatedAtoms>
  150.8291  133.8121  159.3105 H   0  0  0  0  0  0  0  0  0  0  0  0  # atno 6907 bound_to 6896
  151.5856  135.1054  160.0037 H   0  0  0  0  0  0  0  0  0  0  0  0  # atno 6908 bound_to 6896
  152.4373  133.7342  159.6661 H   0  0  0  0  0  0  0  0  0  0  0  0  # atno 6909 bound_to 6896
  146.0982  139.5648  142.9432 H   0  0  0  0  0  0  0  0  0  0  0  0  # atno 7974 bound_to 7965
  155.4227  140.3447  155.4273 H   0  0  0  0  0  0  0  0  0  0  0  0  # atno 8008 bound_to 7997
  156.1383  140.1534  156.8990 H   0  0  0  0  0  0  0  0  0  0  0  0  # atno 8009 bound_to 7997
  154.4950  140.0830  156.7658 H   0  0  0  0  0  0  0  0  0  0  0  0  # atno 8010 bound_to 7997
  140.2846  144.3117  150.6255 H   0  0  0  0  0  0  0  0  0  0  0  0  # atno 10167 bound_to 10162
  156.5321  130.8525  151.2720 H   0  0  0  0  0  0  0  0  0  0  0  0  # atno 10718 bound_to 10713
  154.5055  135.2786  155.1385 H   0  0  0  0  0  0  0  0  0  0  0  0  # atno 10763 bound_to 10752
  154.3002  135.6249  153.5425 H   0  0  0  0  0  0  0  0  0  0  0  0  # atno 10764 bound_to 10752
  152.9909  135.5695  154.5508 H   0  0  0  0  0  0  0  0  0  0  0  0  # atno 10765 bound_to 10752
  141.1602  133.7569  156.9450 H   0  0  0  0  0  0  0  0  0  0  0  0  # atno 11005 bound_to 11000
  145.5907  141.0370  143.2072 LP  0  0  0  0  0  0  0  0  0  0  0  0  # atno 17320 bound_to 7965
  144.7411  139.7445  143.7310 LP  0  0  0  0  0  0  0  0  0  0  0  0  # atno 17321 bound_to 7965
  140.5783  143.2174  151.7474 LP  0  0  0  0  0  0  0  0  0  0  0  0  # atno 17342 bound_to 10162
  139.4953  144.4117  152.0074 LP  0  0  0  0  0  0  0  0  0  0  0  0  # atno 17343 bound_to 10162
  157.7420  130.9881  150.2484 LP  0  0  0  0  0  0  0  0  0  0  0  0  # atno 17370 bound_to 10713
  156.3050  130.3764  149.7715 LP  0  0  0  0  0  0  0  0  0  0  0  0  # atno 17371 bound_to 10713
  140.1296  134.9365  157.2318 LP  0  0  0  0  0  0  0  0  0  0  0  0  # atno 17394 bound_to 11000
  140.2970  134.3175  155.7300 LP  0  0  0  0  0  0  0  0  0  0  0  0  # atno 17395 bound_to 11000

$$$$
