#       Name:                AV-unprocessed.smi:1088
#       Creating user name   scv26
#       Creation time:       Fri Mar 27 03:26:20 2020


#       File generated by GOLD software.
#

@<TRIPOS>MOLECULE
AV-unprocessed.smi:1088
    56    57     1
SMALL
NO_CHARGES


@<TRIPOS>ATOM
      1 ****        -1.3448   6.4609  -1.7835 C.3            1 S1                 0.0000
      2 ****        -0.9282   5.1100  -1.6891 O.3            1 S1                 0.0000
      3 ****        -0.0909   4.8771  -0.5693 C.3            1 S1                 0.0000
      4 ****         0.3182   3.3976  -0.5525 C.3            1 S1                 0.0000
      5 ****        -0.8453   2.5025  -0.3359 N.4            1 S1                 1.0000
      6 ****        -1.4759   2.5760   1.0028 C.3            1 S1                 0.0000
      7 ****        -2.0698   1.1891   1.2861 C.3            1 S1                 0.0000
      8 ****        -1.8754   0.4029  -0.0098 C.3            1 S1                 0.0000
      9 ****        -0.6613   1.0692  -0.6677 C.3            1 S1                 0.0000
     10 ****         0.6895   0.4892  -0.1701 C.3            1 S1                 0.0000
     11 ****         0.8166  -0.9347  -0.4565 N.am           1 S1                 0.0000
     12 ****         1.0915  -1.4661  -1.6596 C.2            1 S1                 0.0000
     13 ****         1.2806  -0.7772  -2.6613 O.2            1 S1                 0.0000
     14 ****         1.1554  -2.9982  -1.7814 C.3            1 S1                 0.0000
     15 ****         0.8925  -3.7274  -0.5314 N.am           1 S1                 0.0000
     16 ****        -0.3896  -4.1658  -0.2537 C.2            1 S1                 0.0000
     17 ****        -0.7231  -4.8242   0.8776 C.2            1 S1                 0.0000
     18 ****         0.2784  -5.1208   1.8947 C.2            1 S1                 0.0000
     19 ****         0.0123  -5.6981   2.9494 O.2            1 S1                 0.0000
     20 ****         1.5847  -4.6764   1.5780 N.am           1 S1                 0.0000
     21 ****         2.6484  -4.9087   2.5331 C.3            1 S1                 0.0000
     22 ****         1.9238  -3.9741   0.4002 C.2            1 S1                 0.0000
     23 ****         3.0704  -3.5726   0.1881 O.2            1 S1                 0.0000
     24 ****        -1.9835   6.5868  -2.6575 H              1 S1                 0.0000
     25 ****        -0.4907   7.1306  -1.8918 H              1 S1                 0.0000
     26 ****        -1.9158   6.7604  -0.9037 H              1 S1                 0.0000
     27 ****         0.8018   5.4991  -0.6469 H              1 S1                 0.0000
     28 ****        -0.5970   5.1539   0.3564 H              1 S1                 0.0000
     29 ****         0.7892   3.1513  -1.5051 H              1 S1                 0.0000
     30 ****         1.0650   3.2305   0.2247 H              1 S1                 0.0000
     31 ****        -0.7421   2.8311   1.7689 H              1 S1                 0.0000
     32 ****        -2.2441   3.3499   1.0049 H              1 S1                 0.0000
     33 ****        -1.5195   0.7103   2.0972 H              1 S1                 0.0000
     34 ****        -3.1181   1.2370   1.5824 H              1 S1                 0.0000
     35 ****        -1.7625  -0.6685   0.1578 H              1 S1                 0.0000
     36 ****        -2.7500   0.5388  -0.6476 H              1 S1                 0.0000
     37 ****        -0.7162   0.9569  -1.7513 H              1 S1                 0.0000
     38 ****         1.5341   1.0068  -0.6266 H              1 S1                 0.0000
     39 ****         0.7917   0.6250   0.9070 H              1 S1                 0.0000
     40 ****         0.6819  -1.5696   0.3172 H              1 S1                 0.0000
     41 ****         0.4317  -3.3058  -2.5375 H              1 S1                 0.0000
     42 ****         2.1295  -3.2771  -2.1867 H              1 S1                 0.0000
     43 ****        -1.1689  -3.9664  -0.9750 H              1 S1                 0.0000
     44 ****        -1.7463  -5.1330   1.0344 H              1 S1                 0.0000
     45 ****         3.5383  -5.2259   1.9868 H              1 S1                 0.0000
     46 ****         2.3748  -5.7017   3.2288 H              1 S1                 0.0000
     47 ****         2.8148  -3.9666   3.0571 H              1 S1                 0.0000
     48 ****        -1.5568   2.8179  -0.9803 H              1 S1                 0.0000
     49 ****        -0.4263   4.8703  -2.5202 LP             1 S1                 0.0000
     50 ****        -1.7385   4.5293  -1.6100 LP             1 S1                 0.0000
     51 ****         1.2323   0.2196  -2.5990 LP             1 S1                 0.0000
     52 ****         1.4826  -1.2142  -3.5378 LP             1 S1                 0.0000
     53 ****        -0.9264  -5.9860   3.1387 LP             1 S1                 0.0000
     54 ****         0.7350  -5.8791   3.6165 LP             1 S1                 0.0000
     55 ****         3.2762  -3.0673  -0.6500 LP             1 S1                 0.0000
     56 ****         3.7943  -3.7524   0.8541 LP             1 S1                 0.0000
@<TRIPOS>BOND
    1    1    2 1     
    2    1   24 1     
    3    1   25 1     
    4    1   26 1     
    5    2    3 1     
    6    3    4 1     
    7    3   27 1     
    8    3   28 1     
    9    4    5 1     
   10    4   29 1     
   11    4   30 1     
   12    5    9 1     
   13    5    6 1     
   14    5   48 1     
   15    6    7 1     
   16    6   31 1     
   17    6   32 1     
   18    7    8 1     
   19    7   33 1     
   20    7   34 1     
   21    8    9 1     
   22    8   35 1     
   23    8   36 1     
   24    9   10 1     
   25    9   37 1     
   26   10   11 1     
   27   10   38 1     
   28   10   39 1     
   29   11   12 am    
   30   11   40 1     
   31   12   13 2     
   32   12   14 1     
   33   14   15 1     
   34   14   41 1     
   35   14   42 1     
   36   15   22 am    
   37   15   16 1     
   38   16   17 2     
   39   16   43 1     
   40   17   18 1     
   41   17   44 1     
   42   18   19 2     
   43   18   20 am    
   44   20   21 1     
   45   20   22 am    
   46   21   45 1     
   47   21   46 1     
   48   21   47 1     
   49   22   23 2     
   50    2   49 1     
   51    2   50 1     
   52   13   51 1     
   53   13   52 1     
   54   19   53 1     
   55   19   54 1     
   56   23   55 1     
   57   23   56 1     
@<TRIPOS>SUBSTRUCTURE
      1 S1             1
@<TRIPOS>SET
LONE_PAIRS      STATIC     ATOMS    <user>   **** ""
8 49 50 51 52 53 54 55 56
DONOR_HYDROGENS      STATIC     ATOMS    <user>   **** ""
2 48 40
ATOM$BLUE        STATIC     ATOMS    COLORGROUP SYSTEM
8 49 50 51 52 53 54 55 56
ATOM$RED        STATIC     ATOMS    COLORGROUP SYSTEM
2 48 40
