#       Name:                AV-unprocessed.smi:1695
#       Creating user name   scv26
#       Creation time:       Fri Mar 27 07:55:52 2020


#       File generated by GOLD software.
#

@<TRIPOS>MOLECULE
AV-unprocessed.smi:1695
    56    58     1
SMALL
NO_CHARGES


@<TRIPOS>ATOM
      1 ****        -3.5964   4.9436  -2.3558 C.3            1 S1                 0.0000
      2 ****        -3.2926   3.8171  -1.3827 C.ar           1 S1                 0.0000
      3 ****        -3.6046   4.0031  -0.0169 C.ar           1 S1                 0.0000
      4 ****        -3.3132   2.9556   0.8486 C.ar           1 S1                 0.0000
      5 ****        -3.4971   2.8279   2.2273 N.pl3          1 S1                 1.0000
      6 ****        -3.0534   1.6063   2.6344 C.2            1 S1                 0.0000
      7 ****        -2.5828   0.9545   1.5360 N.pl3          1 S1                 0.0000
      8 ****        -1.9954  -0.3863   1.4108 C.3            1 S1                 0.0000
      9 ****        -0.4576  -0.3612   1.3026 C.3            1 S1                 0.0000
     10 ****         0.0781   0.2748   2.4469 O.3            1 S1                 0.0000
     11 ****         0.1302  -1.7828   1.2044 C.3            1 S1                 0.0000
     12 ****         1.5994  -1.7802   0.9831 N.4            1 S1                 1.0000
     13 ****         2.2430  -3.0259   1.4722 C.3            1 S1                 0.0000
     14 ****         3.7782  -2.9400   1.3718 C.3            1 S1                 0.0000
     15 ****         4.2780  -2.5894  -0.0454 C.3            1 S1                 0.0000
     16 ****         4.2156  -3.7864  -1.0126 C.2            1 S1                 0.0000
     17 ****         5.3749  -4.2235  -1.5105 N.am           1 S1                 0.0000
     18 ****         3.1455  -4.3123  -1.3109 O.2            1 S1                 0.0000
     19 ****         3.5118  -1.3559  -0.5687 C.3            1 S1                 0.0000
     20 ****         1.9828  -1.4796  -0.4217 C.3            1 S1                 0.0000
     21 ****        -2.7310   1.7548   0.3982 C.ar           1 S1                 0.0000
     22 ****        -2.4199   1.5535  -0.9444 C.ar           1 S1                 0.0000
     23 ****        -2.7082   2.6077  -1.8404 C.ar           1 S1                 0.0000
     24 ****        -2.3776   2.4194  -3.3112 C.3            1 S1                 0.0000
     25 ****        -4.0525   5.7957  -1.8507 H              1 S1                 0.0000
     26 ****        -4.2868   4.6066  -3.1295 H              1 S1                 0.0000
     27 ****        -2.6814   5.2919  -2.8355 H              1 S1                 0.0000
     28 ****        -4.0505   4.9211   0.3382 H              1 S1                 0.0000
     29 ****        -3.0697   1.2253   3.6457 H              1 S1                 0.0000
     30 ****        -2.3057  -0.9620   2.2842 H              1 S1                 0.0000
     31 ****        -2.4406  -0.8757   0.5434 H              1 S1                 0.0000
     32 ****        -0.1784   0.2266   0.4295 H              1 S1                 0.0000
     33 ****        -0.2681   1.1533   2.4923 H              1 S1                 0.0000
     34 ****        -0.1036  -2.3148   2.1284 H              1 S1                 0.0000
     35 ****        -0.3526  -2.3442   0.4028 H              1 S1                 0.0000
     36 ****         1.9711  -3.1898   2.5155 H              1 S1                 0.0000
     37 ****         1.8600  -3.8815   0.9155 H              1 S1                 0.0000
     38 ****         4.1345  -2.1793   2.0677 H              1 S1                 0.0000
     39 ****         4.2215  -3.8784   1.7078 H              1 S1                 0.0000
     40 ****         5.3289  -2.3077   0.0405 H              1 S1                 0.0000
     41 ****         5.3904  -5.0055  -2.1493 H              1 S1                 0.0000
     42 ****         6.2367  -3.7685  -1.2453 H              1 S1                 0.0000
     43 ****         3.8473  -0.4750  -0.0196 H              1 S1                 0.0000
     44 ****         3.7660  -1.1681  -1.6129 H              1 S1                 0.0000
     45 ****         1.5894  -2.2510  -1.0839 H              1 S1                 0.0000
     46 ****         1.5296  -0.5434  -0.7440 H              1 S1                 0.0000
     47 ****        -1.9761   0.6327  -1.2930 H              1 S1                 0.0000
     48 ****        -1.9311   1.4423  -3.4984 H              1 S1                 0.0000
     49 ****        -1.6694   3.1780  -3.6449 H              1 S1                 0.0000
     50 ****        -3.2794   2.4951  -3.9192 H              1 S1                 0.0000
     51 ****         1.9668  -1.0341   1.5565 H              1 S1                 0.0000
     52 ****        -3.8986   3.5208   2.8465 H              1 S1                 0.0000
     53 ****         1.0751   0.3085   2.3782 LP             1 S1                 0.0000
     54 ****        -0.1825  -0.2331   3.2680 LP             1 S1                 0.0000
     55 ****         2.2920  -3.9638  -0.9235 LP             1 S1                 0.0000
     56 ****         3.1284  -5.0886  -1.9410 LP             1 S1                 0.0000
@<TRIPOS>BOND
    1    1    2 1     
    2    1   25 1     
    3    1   26 1     
    4    1   27 1     
    5    2   23 ar    
    6    2    3 ar    
    7    3    4 ar    
    8    3   28 1     
    9    4   21 ar    
   10    4    5 1     
   11    5    6 2     
   12    5   52 1     
   13    6    7 1     
   14    6   29 1     
   15    7    8 1     
   16    7   21 1     
   17    8    9 1     
   18    8   30 1     
   19    8   31 1     
   20    9   10 1     
   21    9   11 1     
   22    9   32 1     
   23   10   33 1     
   24   11   12 1     
   25   11   34 1     
   26   11   35 1     
   27   12   20 1     
   28   12   13 1     
   29   12   51 1     
   30   13   14 1     
   31   13   36 1     
   32   13   37 1     
   33   14   15 1     
   34   14   38 1     
   35   14   39 1     
   36   15   16 1     
   37   15   19 1     
   38   15   40 1     
   39   16   17 am    
   40   16   18 2     
   41   17   41 1     
   42   17   42 1     
   43   19   20 1     
   44   19   43 1     
   45   19   44 1     
   46   20   45 1     
   47   20   46 1     
   48   21   22 ar    
   49   22   23 ar    
   50   22   47 1     
   51   23   24 1     
   52   24   48 1     
   53   24   49 1     
   54   24   50 1     
   55   10   53 1     
   56   10   54 1     
   57   18   55 1     
   58   18   56 1     
@<TRIPOS>SUBSTRUCTURE
      1 S1             1
@<TRIPOS>SET
LONE_PAIRS      STATIC     ATOMS    <user>   **** ""
4 53 54 55 56
DONOR_HYDROGENS      STATIC     ATOMS    <user>   **** ""
5 52 33 51 41 42
ATOM$BLUE        STATIC     ATOMS    COLORGROUP SYSTEM
4 53 54 55 56
ATOM$RED        STATIC     ATOMS    COLORGROUP SYSTEM
5 52 33 51 41 42
