AV-unprocessed.smi:230|AV-procd|sdf|1764|dock5
  -GOLD-   2262020293D 1   1.00000     0.00000
 Structure written by MMmdl.
 56 59  0  0  0  0  0  0  0  0  1 V2000
  146.8606  141.9945  154.1560 C   0  0  0  0  0  0  0  0  0  0  0  0
  147.1575  140.6489  154.8325 C   0  0  0  0  0  0  0  0  0  0  0  0
  148.5846  140.1013  154.5631 C   0  0  1  0  0  0  0  0  0  0  0  0
  149.6607  141.0956  155.0553 C   0  0  0  0  0  0  0  0  0  0  0  0
  150.9751  140.5772  154.8634 O   0  0  0  0  0  0  0  0  0  0  0  0
  151.2325  139.3173  155.4861 C   0  0  0  0  0  0  0  0  0  0  0  0
  152.6322  138.9012  155.0082 C   0  0  0  0  0  0  0  0  0  0  0  0
  151.2331  139.4379  157.0252 C   0  0  0  0  0  0  0  0  0  0  0  0
  150.1848  138.3041  154.9842 C   0  0  0  0  0  0  0  0  0  0  0  0
  148.8270  138.7980  155.1934 N   0  0  0  0  0  0  0  0  0  0  0  0
  147.8932  137.8503  154.9493 C   0  0  0  0  0  0  0  0  0  0  0  0
  147.6922  136.8422  155.8387 N   0  0  0  0  0  0  0  0  0  0  0  0
  146.7906  135.8913  155.5744 C   0  0  0  0  0  0  0  0  0  0  0  0
  146.0089  135.7564  154.5001 N   0  0  0  0  0  0  0  0  0  0  0  0
  146.2155  136.7662  153.6061 C   0  0  0  0  0  0  0  0  0  0  0  0
  147.1264  137.8480  153.7554 C   0  0  0  0  0  0  0  0  0  0  0  0
  147.0668  138.6820  152.6468 N   0  0  0  0  0  0  0  0  0  0  0  0
  146.1748  138.1188  151.8780 C   0  0  0  0  0  0  0  0  0  0  0  0
  145.6219  136.9577  152.3708 N   0  0  0  0  0  0  0  0  0  0  0  0
  144.6277  136.1210  151.7170 C   0  0  0  0  0  0  0  0  0  0  0  0
  145.2092  134.8172  151.1155 C   0  0  0  0  0  0  0  0  0  0  0  0
  146.2337  135.1835  150.2069 O   0  0  0  0  0  0  0  0  0  0  0  0
  145.8168  133.8846  152.1868 C   0  0  0  0  0  0  0  0  0  0  0  0
  146.2041  132.5117  151.6088 C   0  0  0  0  0  0  0  0  0  0  0  0
  145.0826  131.9138  150.9699 O   0  0  0  0  0  0  0  0  0  0  0  0
  144.6124  132.6714  149.8616 C   0  0  0  0  0  0  0  0  0  0  0  0
  144.1212  134.0502  150.3377 C   0  0  0  0  0  0  0  0  0  0  0  0
  145.8166  142.2732  154.3002 H   0  0  0  0  0  0  0  0  0  0  0  0
  147.0429  141.9427  153.0823 H   0  0  0  0  0  0  0  0  0  0  0  0
  147.4687  142.8004  154.5658 H   0  0  0  0  0  0  0  0  0  0  0  0
  146.9912  140.7365  155.9069 H   0  0  0  0  0  0  0  0  0  0  0  0
  146.4080  139.9466  154.4675 H   0  0  0  0  0  0  0  0  0  0  0  0
  148.7062  139.9710  153.4865 H   0  0  0  0  0  0  0  0  0  0  0  0
  149.6013  142.0289  154.4968 H   0  0  0  0  0  0  0  0  0  0  0  0
  149.5035  141.3563  156.1020 H   0  0  0  0  0  0  0  0  0  0  0  0
  152.9156  137.9270  155.4079 H   0  0  0  0  0  0  0  0  0  0  0  0
  153.3874  139.6218  155.3238 H   0  0  0  0  0  0  0  0  0  0  0  0
  152.6755  138.8377  153.9203 H   0  0  0  0  0  0  0  0  0  0  0  0
  151.5364  138.4987  157.4881 H   0  0  0  0  0  0  0  0  0  0  0  0
  150.2499  139.6834  157.4252 H   0  0  0  0  0  0  0  0  0  0  0  0
  151.9276  140.2092  157.3589 H   0  0  0  0  0  0  0  0  0  0  0  0
  150.3361  138.1222  153.9188 H   0  0  0  0  0  0  0  0  0  0  0  0
  150.3167  137.3467  155.4914 H   0  0  0  0  0  0  0  0  0  0  0  0
  146.6846  135.1255  156.3287 H   0  0  0  0  0  0  0  0  0  0  0  0
  145.9015  138.5302  150.9171 H   0  0  0  0  0  0  0  0  0  0  0  0
  143.8534  135.8832  152.4474 H   0  0  0  0  0  0  0  0  0  0  0  0
  144.1402  136.7134  150.9412 H   0  0  0  0  0  0  0  0  0  0  0  0
  146.0220  134.8279  149.3571 H   0  0  0  0  0  0  0  0  0  0  0  0
  146.6894  134.3426  152.6545 H   0  0  0  0  0  0  0  0  0  0  0  0
  145.0874  133.7310  152.9835 H   0  0  0  0  0  0  0  0  0  0  0  0
  147.0334  132.6007  150.9054 H   0  0  0  0  0  0  0  0  0  0  0  0
  146.5414  131.8541  152.4103 H   0  0  0  0  0  0  0  0  0  0  0  0
  145.3994  132.7693  149.1122 H   0  0  0  0  0  0  0  0  0  0  0  0
  143.7938  132.1287  149.3885 H   0  0  0  0  0  0  0  0  0  0  0  0
  143.2548  133.9014  150.9837 H   0  0  0  0  0  0  0  0  0  0  0  0
  143.7705  134.6375  149.4881 H   0  0  0  0  0  0  0  0  0  0  0  0
  1  2  1  0  0  0  0
  1 28  1  0  0  0  0
  1 29  1  0  0  0  0
  1 30  1  0  0  0  0
  2  3  1  0  0  0  0
  2 31  1  0  0  0  0
  2 32  1  0  0  0  0
  3 10  1  0  0  0  0
  3  4  1  0  0  0  0
  3 33  1  0  0  0  0
  4  5  1  0  0  0  0
  4 34  1  0  0  0  0
  4 35  1  0  0  0  0
  5  6  1  0  0  0  0
  6  7  1  0  0  0  0
  6  8  1  0  0  0  0
  6  9  1  0  0  0  0
  7 36  1  0  0  0  0
  7 37  1  0  0  0  0
  7 38  1  0  0  0  0
  8 39  1  0  0  0  0
  8 40  1  0  0  0  0
  8 41  1  0  0  0  0
  9 10  1  0  0  0  0
  9 42  1  0  0  0  0
  9 43  1  0  0  0  0
 10 11  1  0  0  0  0
 11 16  1  0  0  0  0
 11 12  2  0  0  0  0
 12 13  1  0  0  0  0
 13 14  2  0  0  0  0
 13 44  1  0  0  0  0
 14 15  1  0  0  0  0
 15 19  1  0  0  0  0
 15 16  2  0  0  0  0
 16 17  1  0  0  0  0
 17 18  2  0  0  0  0
 18 19  1  0  0  0  0
 18 45  1  0  0  0  0
 19 20  1  0  0  0  0
 20 21  1  0  0  0  0
 20 46  1  0  0  0  0
 20 47  1  0  0  0  0
 21 27  1  0  0  0  0
 21 22  1  0  0  0  0
 21 23  1  0  0  0  0
 22 48  1  0  0  0  0
 23 24  1  0  0  0  0
 23 49  1  0  0  0  0
 23 50  1  0  0  0  0
 24 25  1  0  0  0  0
 24 51  1  0  0  0  0
 24 52  1  0  0  0  0
 25 26  1  0  0  0  0
 26 27  1  0  0  0  0
 26 53  1  0  0  0  0
 26 54  1  0  0  0  0
 27 55  1  0  0  0  0
 27 56  1  0  0  0  0
M  END
> <s_m_source_file>
AV-unprocessed.smi

> <i_m_source_file_index>
230

> <i_lp_mmshare_version>
43012

> <i_f3d_flags>
0

> <s_epik_input>
W0NIM11DMShbQ0gzXSlPW0NIMl1bQ0BASF0oW0NIMl1bQ0gzXSlOKFtDSDJdMSljKG5bY0hdbjIpYyhjMjMpbltjSF1uM1tDSDJdQzQoW09IXSlbQ0gyXVtDSDJdT1tDSDJdW0NIMl00

> <s_epik_cmdline>
J2VwaWtfcHl0aG9uJywgJy1waCcsICc3LjAnLCAnLXRuJywgJzgnLCAnLW1hJywgJzIwMCcsICctbWV0YWxfYmluZGluZycsICctaW1hZScsICc8aW5maWxlLm1hZT4nLCAnLW9tYWUnLCAnPG91dGZpbGUubWFlPic=

> <r_lp_tautomer_probability>
1

> <r_epik_Ionization_Penalty>
0.000120535

> <r_epik_Ionization_Penalty_Charging>
0

> <r_epik_Ionization_Penalty_Neutral>
0.000120535

> <r_epik_State_Penalty>
-0

> <r_epik_Charging_Adjusted_Penalty>
0

> <i_epik_Tot_Q>
0

> <i_epik_Tot_abs_Q>
0

> <r_epik_Metal_State_Penalty>
-0

> <b_epik_Metal_Only>
0

> <s_lp_Force_Field>
OPLS_2005

> <r_lp_Energy>
34.4524

> <b_lp_Chiralities_Consistent>
1

> <s_lp_Variant>
AV-unprocessed.smi:230-2

> <Gold.Version>
5.8.1

> <Gold.Id.Protein>
6NUR|6NUR_protein|mol2

> <Gold.PLP.Fitness>
42.5569

> <Gold.PLP.PLP>
-34.9375

> <Gold.PLP.part.hbond>
-2.3960

> <Gold.PLP.part.metal>
0.0000

> <Gold.PLP.part.buried>
1.5300

> <Gold.PLP.part.nonpolar>
-35.1120

> <Gold.PLP.part.repulsive>
0.6516

> <Gold.PLP.ligand.clash>
0.0000

> <Gold.PLP.ligand.torsion>
0.7836

> <Gold.PLP.Chemscore.Hbond>
2.0000

> <Gold.PLP.Chemscore.CHOScore>
1.0000

> <Gold.PLP.Chemscore.Metal>
0.0000

> <Gold.Chemscore.Hbonds>
donor molecule, donor type, donor heavy atom, donor atom, acceptor molecule, acceptor atom, score
      L1  H    22    48       P1  7921  1.00
      P1  H  7989  7998       L1     5  0.99
      L1  C    18    45       P1 10171  1.00

> <Gold.PLP.Chemscore.Internal.Correction>
0.1865

> <Gold.Rescore>
     Score         DG    S(hbond)    S(metal)    S(lipo)     H(rot)  DE(clash)    DE(int)     intcor
     11.77     -16.11       1.84        0.00      86.79       2.21       1.45       2.89       ----

> <Gold.Chemscore.Fitness>
11.7733

> <Gold.Chemscore.DG>
-16.1100

> <Gold.Chemscore.ZeroCoef>
-5.4800

> <Gold.Chemscore.Hbond>
1.8369

> <Gold.Chemscore.Metal>
0.0000

> <Gold.Chemscore.Lipo>
86.7878

> <Gold.Chemscore.Internal_Hbond>
0.0000

> <Gold.Chemscore.DEClash>
1.4465

> <Gold.Chemscore.DEInternal>
2.8902

> <Gold.Chemscore.Rot>
2.2107

> <Gold.Chemscore.Internal.Correction>
   9.000000E+99

> <Gold.Chemscore.Hbonds>
donor molecule, donor type, donor heavy atom, donor atom, acceptor molecule, acceptor atom, score
      L1  H    22    48       P1  7921  0.67
      P1  H  7989  7998       L1     5  0.80

> <Gold.Chemscore.Hbond.Weighted>
-6.1354

> <Gold.Chemscore.Metal.Weighted>
-0.0000

> <Gold.Chemscore.Lipo.Weighted>
-10.1542

> <Gold.Chemscore.Internal_Hbond.Weighted>
0.0000

> <Gold.Chemscore.DEClash.Weighted>
1.4465

> <Gold.Chemscore.DEInternal.Weighted>
2.8902

> <Gold.Chemscore.Rot.Weighted>
5.6595

> <Gold.Chemscore.Internal.Correction.Weighted>
   9.000000E+99

> <Gold.Protein.RotatedTorsions>
[ 6907 6896 6895 6894 ] final -104.41 input  -60.11 | X-H torsion
[ 7974 7965 7964 7962 ] final   44.40 input  175.53 | X-H torsion
[ 8008 7997 7996 7995 ] final   29.83 input   59.86 | X-H torsion
[ 10167 10162 10161 10158 ] final -175.30 input  -65.29 | X-H torsion
[ 10718 10713 10712 10709 ] final   17.36 input   66.30 | X-H torsion
[ 10763 10752 10751 10750 ] final   85.10 input  -60.55 | X-H torsion
[ 11005 11000 10999 10996 ] final -135.25 input  -57.11 | X-H torsion

> <Gold.Protein.ActiveResidues>
 VAL166  LYS551  ARG553  GLY616  TRP617  ASP618  TYR619  PRO620  LYS621  CYS622 
 ASP623  PHE694  ASN695  SER759  ASP760  ASP761  ALA762  ILE779  LEU786  VAL792 
 PHE793  MET794  SER795  GLU796  ALA797  LYS798  CYS799  TRP800  GLU811  SER814 

> <Gold.Protein.RotatedAtoms>
  150.7286  134.0282  159.3724 H   0  0  0  0  0  0  0  0  0  0  0  0  # atno 6907 bound_to 6896
  151.8250  135.0637  160.0439 H   0  0  0  0  0  0  0  0  0  0  0  0  # atno 6908 bound_to 6896
  152.2975  133.5586  159.5633 H   0  0  0  0  0  0  0  0  0  0  0  0  # atno 6909 bound_to 6896
  146.0571  139.5078  142.9681 H   0  0  0  0  0  0  0  0  0  0  0  0  # atno 7974 bound_to 7965
  155.0807  140.3210  155.4602 H   0  0  0  0  0  0  0  0  0  0  0  0  # atno 8008 bound_to 7997
  156.2768  140.2095  156.5880 H   0  0  0  0  0  0  0  0  0  0  0  0  # atno 8009 bound_to 7997
  154.6981  140.0510  157.0418 H   0  0  0  0  0  0  0  0  0  0  0  0  # atno 8010 bound_to 7997
  139.5588  144.1922  152.1204 H   0  0  0  0  0  0  0  0  0  0  0  0  # atno 10167 bound_to 10162
  157.0810  130.6388  149.5826 H   0  0  0  0  0  0  0  0  0  0  0  0  # atno 10718 bound_to 10713
  153.1443  135.4630  154.9543 H   0  0  0  0  0  0  0  0  0  0  0  0  # atno 10763 bound_to 10752
  154.7773  135.3177  154.8067 H   0  0  0  0  0  0  0  0  0  0  0  0  # atno 10764 bound_to 10752
  153.8584  135.6915  153.4839 H   0  0  0  0  0  0  0  0  0  0  0  0  # atno 10765 bound_to 10752
  140.8915  134.1805  157.4524 H   0  0  0  0  0  0  0  0  0  0  0  0  # atno 11005 bound_to 11000
  145.6624  141.0237  143.1702 LP  0  0  0  0  0  0  0  0  0  0  0  0  # atno 17320 bound_to 7965
  144.7154  139.8216  143.7400 LP  0  0  0  0  0  0  0  0  0  0  0  0  # atno 17321 bound_to 7965
  140.1431  144.5183  150.6732 LP  0  0  0  0  0  0  0  0  0  0  0  0  # atno 17342 bound_to 10162
  140.6865  143.2353  151.5247 LP  0  0  0  0  0  0  0  0  0  0  0  0  # atno 17343 bound_to 10162
  155.9923  130.4981  150.7336 LP  0  0  0  0  0  0  0  0  0  0  0  0  # atno 17370 bound_to 10713
  157.4800  131.0901  151.0547 LP  0  0  0  0  0  0  0  0  0  0  0  0  # atno 17371 bound_to 10713
  139.8730  134.9860  156.5308 LP  0  0  0  0  0  0  0  0  0  0  0  0  # atno 17394 bound_to 11000
  140.8340  133.8256  155.9011 LP  0  0  0  0  0  0  0  0  0  0  0  0  # atno 17395 bound_to 11000

$$$$
