#       Name:                AV-unprocessed.smi:2480
#       Creating user name   scv26
#       Creation time:       Fri Mar 27 13:41:18 2020


#       File generated by GOLD software.
#

@<TRIPOS>MOLECULE
AV-unprocessed.smi:2480
    38    39     1
SMALL
NO_CHARGES


@<TRIPOS>ATOM
      1 ****         0.6262   2.9676   0.2093 O.2            1 S1                 0.0000
      2 ****         0.2878   1.7871   0.1581 C.2            1 S1                 0.0000
      3 ****         1.1377   0.7445   0.0788 N.am           1 S1                 0.0000
      4 ****         2.5617   0.7339   0.0893 C.ar           1 S1                 0.0000
      5 ****         3.3325   1.8427  -0.3386 C.ar           1 S1                 0.0000
      6 ****         4.7365   1.7579  -0.2893 C.ar           1 S1                 0.0000
      7 ****         5.3978   0.6657   0.1410 N.ar           1 S1                 0.0000
      8 ****         4.6659  -0.3979   0.5312 C.ar           1 S1                 0.0000
      9 ****         3.2526  -0.4332   0.5176 C.ar           1 S1                 0.0000
     10 ****         2.5588  -1.6591   0.9567 N.pl3          1 S1                 1.0000
     11 ****         1.5647  -2.0278   0.3392 O.2            1 S1                 0.0000
     12 ****         3.0325  -2.2668   1.9106 O.2            1 S1                -1.0000
     13 ****        -1.0113   1.4343   0.1829 N.am           1 S1                 0.0000
     14 ****        -2.1904   2.3003   0.2642 C.3            1 S1                 0.0000
     15 ****        -2.4490   2.7278   1.7038 C.2            1 S1                 0.0000
     16 ****        -3.6657   2.7306   2.2745 C.2            1 S1                 0.0000
     17 ****        -4.9320   2.3185   1.5473 C.3            1 S1                 0.0000
     18 ****        -4.7298   2.2602   0.0230 C.3            1 S1                 0.0000
     19 ****        -3.4071   1.5711  -0.3451 C.3            1 S1                 0.0000
     20 ****         0.7049  -0.1676   0.1056 H              1 S1                 0.0000
     21 ****         2.8795   2.7490  -0.7091 H              1 S1                 0.0000
     22 ****         5.3453   2.5914  -0.6077 H              1 S1                 0.0000
     23 ****         5.2332  -1.2578   0.8560 H              1 S1                 0.0000
     24 ****        -1.2051   0.4457   0.1117 H              1 S1                 0.0000
     25 ****        -2.0234   3.2096  -0.3157 H              1 S1                 0.0000
     26 ****        -1.5936   3.0440   2.2830 H              1 S1                 0.0000
     27 ****        -3.7727   3.0268   3.3077 H              1 S1                 0.0000
     28 ****        -5.2368   1.3421   1.9256 H              1 S1                 0.0000
     29 ****        -5.7323   3.0183   1.7897 H              1 S1                 0.0000
     30 ****        -5.5692   1.7450  -0.4446 H              1 S1                 0.0000
     31 ****        -4.7274   3.2733  -0.3814 H              1 S1                 0.0000
     32 ****        -3.3020   1.5136  -1.4290 H              1 S1                 0.0000
     33 ****        -3.4415   0.5413   0.0143 H              1 S1                 0.0000
     34 ****         1.5961   3.2109   0.1932 LP             1 S1                 0.0000
     35 ****        -0.0683   3.6848   0.2671 LP             1 S1                 0.0000
     36 ****         6.3972   0.6444   0.1701 LP             1 S1                 0.0000
     37 ****         1.2393  -1.5001  -0.4454 LP             1 S1                 0.0000
     38 ****         1.0800  -2.8560   0.6206 LP             1 S1                 0.0000
@<TRIPOS>BOND
    1    1    2 2     
    2    2    3 am    
    3    2   13 am    
    4    3    4 1     
    5    3   20 1     
    6    4    9 ar    
    7    4    5 ar    
    8    5    6 ar    
    9    5   21 1     
   10    6    7 ar    
   11    6   22 1     
   12    7    8 ar    
   13    8    9 ar    
   14    8   23 1     
   15    9   10 1     
   16   10   11 2     
   17   10   12 1     
   18   13   14 1     
   19   13   24 1     
   20   14   19 1     
   21   14   15 1     
   22   14   25 1     
   23   15   16 2     
   24   15   26 1     
   25   16   17 1     
   26   16   27 1     
   27   17   18 1     
   28   17   28 1     
   29   17   29 1     
   30   18   19 1     
   31   18   30 1     
   32   18   31 1     
   33   19   32 1     
   34   19   33 1     
   35    1   34 1     
   36    1   35 1     
   37    7   36 1     
   38   11   37 1     
   39   11   38 1     
@<TRIPOS>SUBSTRUCTURE
      1 S1             1
@<TRIPOS>SET
LONE_PAIRS      STATIC     ATOMS    <user>   **** ""
6 34 35 36 37 38 12
DONOR_HYDROGENS      STATIC     ATOMS    <user>   **** ""
2 20 24
ATOM$BLUE        STATIC     ATOMS    COLORGROUP SYSTEM
6 34 35 36 37 38 12
ATOM$RED        STATIC     ATOMS    COLORGROUP SYSTEM
2 20 24
