AV-unprocessed.smi:1513|AV-procd|sdf|6112|dock2
  -GOLD-   22720 6243D 1   1.00000     0.00000
 Structure written by MMmdl.
 32 33  0  0  0  0  0  0  0  0  3 V2000
  152.5208  136.6542  157.0133 N   0  5  0  0  0  0  0  0  0  0  0  0
  153.0614  136.8116  158.5261 S   0  0  0  0  0  0  0  0  0  0  0  0
  152.0933  136.2682  159.4934 O   0  0  0  0  0  0  0  0  0  0  0  0
  154.4357  136.2972  158.6412 O   0  0  0  0  0  0  0  0  0  0  0  0
  153.0310  138.4330  158.5000 N   0  5  0  0  0  0  0  0  0  0  0  0
  151.8531  139.1401  158.9762 C   0  0  0  0  0  0  0  0  0  0  0  0
  152.0748  140.6603  158.9876 C   0  0  0  0  0  0  0  0  0  0  0  0
  152.7578  141.2271  160.0907 C   0  0  0  0  0  0  0  0  0  0  0  0
  152.9929  142.6131  160.1293 C   0  0  0  0  0  0  0  0  0  0  0  0
  152.5350  143.3952  159.0571 C   0  0  0  0  0  0  0  0  0  0  0  0
  151.8807  142.8820  157.9973 N   0  0  0  0  0  0  0  0  0  0  0  0
  151.6435  141.5463  157.9460 C   0  0  0  0  0  0  0  0  0  0  0  0
  150.9230  141.1049  156.8146 N   0  0  0  0  0  0  0  0  0  0  0  0
  150.4836  142.1923  155.9489 C   0  0  0  0  0  0  0  0  0  0  0  0
  149.5246  141.6526  154.8739 C   0  0  0  0  0  0  0  0  0  0  0  0
  150.1538  140.5935  154.1562 O   0  0  0  0  0  0  0  0  0  0  0  0
  150.5009  139.5053  155.0086 C   0  0  0  0  0  0  0  0  0  0  0  0
  151.4977  139.9874  156.0761 C   0  0  0  0  0  0  0  0  0  0  0  0
  152.2189  137.5784  156.6832 H   0  0  0  0  0  0  0  0  0  0  0  0
  150.9772  138.9173  158.3653 H   0  0  0  0  0  0  0  0  0  0  0  0
  151.5755  138.8435  159.9883 H   0  0  0  0  0  0  0  0  0  0  0  0
  153.1098  140.6207  160.9146 H   0  0  0  0  0  0  0  0  0  0  0  0
  153.5122  143.0632  160.9621 H   0  0  0  0  0  0  0  0  0  0  0  0
  152.6971  144.4627  159.0499 H   0  0  0  0  0  0  0  0  0  0  0  0
  149.9875  142.9665  156.5351 H   0  0  0  0  0  0  0  0  0  0  0  0
  151.3529  142.6533  155.4785 H   0  0  0  0  0  0  0  0  0  0  0  0
  148.5961  141.2985  155.3238 H   0  0  0  0  0  0  0  0  0  0  0  0
  149.2571  142.4465  154.1771 H   0  0  0  0  0  0  0  0  0  0  0  0
  149.6032  139.0924  155.4724 H   0  0  0  0  0  0  0  0  0  0  0  0
  150.9454  138.7109  154.4091 H   0  0  0  0  0  0  0  0  0  0  0  0
  152.4276  140.2962  155.5972 H   0  0  0  0  0  0  0  0  0  0  0  0
  151.7369  139.1753  156.7637 H   0  0  0  0  0  0  0  0  0  0  0  0
  1  2  1  0  0  0  0
  1 19  1  0  0  0  0
  2  3  2  0  0  0  0
  2  4  2  0  0  0  0
  2  5  1  0  0  0  0
  5  6  1  0  0  0  0
  6  7  1  0  0  0  0
  6 20  1  0  0  0  0
  6 21  1  0  0  0  0
  7 12  1  0  0  0  0
  7  8  2  0  0  0  0
  8  9  1  0  0  0  0
  8 22  1  0  0  0  0
  9 10  2  0  0  0  0
  9 23  1  0  0  0  0
 10 11  1  0  0  0  0
 10 24  1  0  0  0  0
 11 12  2  0  0  0  0
 12 13  1  0  0  0  0
 13 18  1  0  0  0  0
 13 14  1  0  0  0  0
 14 15  1  0  0  0  0
 14 25  1  0  0  0  0
 14 26  1  0  0  0  0
 15 16  1  0  0  0  0
 15 27  1  0  0  0  0
 15 28  1  0  0  0  0
 16 17  1  0  0  0  0
 17 18  1  0  0  0  0
 17 29  1  0  0  0  0
 17 30  1  0  0  0  0
 18 31  1  0  0  0  0
 18 32  1  0  0  0  0
M  CHG  1   1  -1
M  CHG  1   5  -1
M  END
> <s_m_source_file>
AV-unprocessed.smi

> <i_m_source_file_index>
1513

> <i_lp_mmshare_version>
43012

> <i_f3d_flags>
0

> <s_epik_input>
W05IMl1TKD1PKSg9TylbTkhdW0NIMl1jMVtjSF1bY0hdW2NIXW5jMU4yW0NIMl1bQ0gyXU9bQ0gyXVtDSDJdMg==

> <s_epik_cmdline>
J2VwaWtfcHl0aG9uJywgJy1waCcsICc3LjAnLCAnLXRuJywgJzgnLCAnLW1hJywgJzIwMCcsICctbWV0YWxfYmluZGluZycsICctaW1hZScsICc8aW5maWxlLm1hZT4nLCAnLW9tYWUnLCAnPG91dGZpbGUubWFlPic=

> <r_lp_tautomer_probability>
1

> <r_epik_Ionization_Penalty>
9.15309

> <r_epik_Ionization_Penalty_Charging>
9.0542

> <r_epik_Ionization_Penalty_Neutral>
0.0988939

> <r_epik_State_Penalty>
4.65345

> <r_epik_Charging_Adjusted_Penalty>
13.7077

> <i_epik_Tot_Q>
-2

> <i_epik_Tot_abs_Q>
2

> <r_epik_Metal_State_Penalty>
1.24006

> <b_epik_Metal_Only>
1

> <s_lp_Force_Field>
OPLS_2005

> <r_lp_Energy>
26.0571

> <b_lp_Chiralities_Consistent>
1

> <s_lp_Variant>
AV-unprocessed.smi:1513-5

> <Gold.Version>
5.8.1

> <Gold.Id.Protein>
6NUR|6NUR_protein|mol2

> <Gold.PLP.Fitness>
49.8130

> <Gold.PLP.PLP>
-33.1914

> <Gold.PLP.part.hbond>
-3.9361

> <Gold.PLP.part.metal>
0.0000

> <Gold.PLP.part.buried>
-4.1041

> <Gold.PLP.part.nonpolar>
-25.7354

> <Gold.PLP.part.repulsive>
0.1800

> <Gold.PLP.ligand.clash>
0.0000

> <Gold.PLP.ligand.torsion>
0.9297

> <Gold.PLP.Chemscore.Hbond>
5.7600

> <Gold.PLP.Chemscore.CHOScore>
0.0000

> <Gold.PLP.Chemscore.Metal>
0.0000

> <Gold.Chemscore.Hbonds>
donor molecule, donor type, donor heavy atom, donor atom, acceptor molecule, acceptor atom, score
      P1  H  6896  6908       L1     3  0.45
      P1  H  7989  7998       L1    16  0.77
      P1  H 10752 10765       L1     1  0.09

> <Gold.PLP.Chemscore.Internal.Correction>
1.2009

> <Gold.Rescore>
     Score         DG    S(hbond)    S(metal)    S(lipo)     H(rot)  DE(clash)    DE(int)     intcor
     14.99     -17.09       2.27        0.00      75.13       1.86       0.01       2.10       ----

> <Gold.Chemscore.Fitness>
14.9907

> <Gold.Chemscore.DG>
-17.0942

> <Gold.Chemscore.ZeroCoef>
-5.4800

> <Gold.Chemscore.Hbond>
2.2716

> <Gold.Chemscore.Metal>
0.0000

> <Gold.Chemscore.Lipo>
75.1296

> <Gold.Chemscore.Internal_Hbond>
0.0000

> <Gold.Chemscore.DEClash>
0.0057

> <Gold.Chemscore.DEInternal>
2.0978

> <Gold.Chemscore.Rot>
1.8606

> <Gold.Chemscore.Internal.Correction>
   9.000000E+99

> <Gold.Chemscore.Hbonds>
donor molecule, donor type, donor heavy atom, donor atom, acceptor molecule, acceptor atom, score
      P1  H  6896  6908       L1     3  0.45
      P1  H  7989  7998       L1    16  0.18
      P1  H 10752 10765       L1     1  0.07

> <Gold.Chemscore.Hbond.Weighted>
-7.5871

> <Gold.Chemscore.Metal.Weighted>
-0.0000

> <Gold.Chemscore.Lipo.Weighted>
-8.7902

> <Gold.Chemscore.Internal_Hbond.Weighted>
0.0000

> <Gold.Chemscore.DEClash.Weighted>
0.0057

> <Gold.Chemscore.DEInternal.Weighted>
2.0978

> <Gold.Chemscore.Rot.Weighted>
4.7631

> <Gold.Chemscore.Internal.Correction.Weighted>
   9.000000E+99

> <Gold.Protein.RotatedTorsions>
[ 6907 6896 6895 6894 ] final  -85.90 input  -60.11 | X-H torsion
[ 7974 7965 7964 7962 ] final    8.14 input  175.53 | X-H torsion
[ 8008 7997 7996 7995 ] final   23.51 input   59.86 | X-H torsion
[ 10167 10162 10161 10158 ] final -160.59 input  -65.29 | X-H torsion
[ 10718 10713 10712 10709 ] final  -53.74 input   66.30 | X-H torsion
[ 10763 10752 10751 10750 ] final -108.21 input  -60.55 | X-H torsion
[ 11005 11000 10999 10996 ] final   40.88 input  -57.11 | X-H torsion

> <Gold.Protein.ActiveResidues>
 VAL166  LYS551  ARG553  GLY616  TRP617  ASP618  TYR619  PRO620  LYS621  CYS622 
 ASP623  PHE694  ASN695  SER759  ASP760  ASP761  ALA762  ILE779  LEU786  VAL792 
 PHE793  MET794  SER795  GLU796  ALA797  LYS798  CYS799  TRP800  GLU811  SER814 

> <Gold.Protein.RotatedAtoms>
  150.6868  134.3133  159.4755 H   0  0  0  0  0  0  0  0  0  0  0  0  # atno 6907 bound_to 6896
  152.1016  134.9335  160.0578 H   0  0  0  0  0  0  0  0  0  0  0  0  # atno 6908 bound_to 6896
  152.0612  133.4028  159.4455 H   0  0  0  0  0  0  0  0  0  0  0  0  # atno 6909 bound_to 6896
  146.2419  139.9978  142.8419 H   0  0  0  0  0  0  0  0  0  0  0  0  # atno 7974 bound_to 7965
  154.9820  140.3103  155.4942 H   0  0  0  0  0  0  0  0  0  0  0  0  # atno 8008 bound_to 7997
  156.2952  140.2265  156.4860 H   0  0  0  0  0  0  0  0  0  0  0  0  # atno 8009 bound_to 7997
  154.7780  140.0448  157.1093 H   0  0  0  0  0  0  0  0  0  0  0  0  # atno 8010 bound_to 7997
  139.6528  144.0053  152.2173 H   0  0  0  0  0  0  0  0  0  0  0  0  # atno 10167 bound_to 10162
  156.1509  130.4151  149.9946 H   0  0  0  0  0  0  0  0  0  0  0  0  # atno 10718 bound_to 10713
  154.8122  135.4646  154.0547 H   0  0  0  0  0  0  0  0  0  0  0  0  # atno 10763 bound_to 10752
  153.1968  135.6863  153.8288 H   0  0  0  0  0  0  0  0  0  0  0  0  # atno 10764 bound_to 10752
  153.7786  135.3260  155.3340 H   0  0  0  0  0  0  0  0  0  0  0  0  # atno 10765 bound_to 10752
  140.1888  134.4013  155.8158 H   0  0  0  0  0  0  0  0  0  0  0  0  # atno 11005 bound_to 11000
  145.1444  140.9589  143.4470 LP  0  0  0  0  0  0  0  0  0  0  0  0  # atno 17320 bound_to 7965
  145.0265  139.3378  143.6046 LP  0  0  0  0  0  0  0  0  0  0  0  0  # atno 17321 bound_to 7965
  139.9772  144.6453  150.7934 LP  0  0  0  0  0  0  0  0  0  0  0  0  # atno 17342 bound_to 10162
  140.7545  143.3029  151.3035 LP  0  0  0  0  0  0  0  0  0  0  0  0  # atno 17343 bound_to 10162
  156.7804  130.9219  151.3646 LP  0  0  0  0  0  0  0  0  0  0  0  0  # atno 17370 bound_to 10713
  157.6656  130.9005  149.9925 LP  0  0  0  0  0  0  0  0  0  0  0  0  # atno 17371 bound_to 10713
  141.2225  133.7036  156.8059 LP  0  0  0  0  0  0  0  0  0  0  0  0  # atno 17394 bound_to 11000
  140.2183  134.8776  157.3350 LP  0  0  0  0  0  0  0  0  0  0  0  0  # atno 17395 bound_to 11000

$$$$
