AV-unprocessed.smi:1610|AV-procd|sdf|6472|dock6
  -GOLD-   22720 7133D 1   1.00000     0.00000
 Structure written by MMmdl.
 43 44  0  0  0  0  0  0  0  0  2 V2000
  145.0406  136.7075  162.0233 C   0  0  0  0  0  0  0  0  0  0  0  0
  146.6180  136.1808  161.2442 S   0  0  0  0  0  0  0  0  0  0  0  0
  147.6654  136.4402  162.2451 O   0  0  0  0  0  0  0  0  0  0  0  0
  146.4122  134.7835  160.8311 O   0  0  0  0  0  0  0  0  0  0  0  0
  146.6821  137.2057  159.9898 N   0  5  0  0  0  0  0  0  0  0  0  0
  147.4778  136.8775  158.8154 C   0  0  0  0  0  0  0  0  0  0  0  0
  148.9884  137.0118  159.1528 C   0  0  0  0  0  0  0  0  0  0  0  0
  149.9138  136.9617  157.9053 C   0  0  0  0  0  0  0  0  0  0  0  0
  149.5207  138.0079  156.9387 N   0  0  0  0  0  0  0  0  0  0  0  0
  150.1138  139.2148  156.7653 C   0  0  0  0  0  0  0  0  0  0  0  0
  149.6603  140.0845  156.0199 O   0  0  0  0  0  0  0  0  0  0  0  0
  151.2094  139.4123  157.5196 N   0  0  0  0  0  0  0  0  0  0  0  0
  151.8657  140.6994  157.7417 C   0  0  0  0  0  0  0  0  0  0  0  0
  150.8440  141.8535  157.8146 C   0  0  0  0  0  0  0  0  0  0  0  0
  151.2043  142.9559  158.8017 C   0  0  0  0  0  0  0  0  0  0  0  0
  151.7845  142.6592  160.0536 C   0  0  0  0  0  0  0  0  0  0  0  0
  152.1395  143.7206  160.9080 C   0  0  0  0  0  0  0  0  0  0  0  0
  151.8852  145.0391  160.4820 C   0  0  0  0  0  0  0  0  0  0  0  0
  151.3078  145.3357  159.2982 N   0  0  0  0  0  0  0  0  0  0  0  0
  150.9811  144.3123  158.4803 C   0  0  0  0  0  0  0  0  0  0  0  0
  148.1581  137.7302  156.4524 C   0  0  0  0  0  0  0  0  0  0  0  0
  147.1436  137.8261  157.6280 C   0  0  0  0  0  0  0  0  0  0  0  0
  144.8570  136.1029  162.9107 H   0  0  0  0  0  0  0  0  0  0  0  0
  144.2234  136.5722  161.3154 H   0  0  0  0  0  0  0  0  0  0  0  0
  145.1079  137.7577  162.3061 H   0  0  0  0  0  0  0  0  0  0  0  0
  147.3073  135.8516  158.4869 H   0  0  0  0  0  0  0  0  0  0  0  0
  149.1631  137.9581  159.6639 H   0  0  0  0  0  0  0  0  0  0  0  0
  149.2787  136.2309  159.8564 H   0  0  0  0  0  0  0  0  0  0  0  0
  150.9548  137.0420  158.2183 H   0  0  0  0  0  0  0  0  0  0  0  0
  149.8498  135.9858  157.4194 H   0  0  0  0  0  0  0  0  0  0  0  0
  151.5234  138.6421  158.0919 H   0  0  0  0  0  0  0  0  0  0  0  0
  152.4417  140.6522  158.6659 H   0  0  0  0  0  0  0  0  0  0  0  0
  152.5859  140.9104  156.9501 H   0  0  0  0  0  0  0  0  0  0  0  0
  150.7434  142.2954  156.8225 H   0  0  0  0  0  0  0  0  0  0  0  0
  149.8599  141.4603  158.0710 H   0  0  0  0  0  0  0  0  0  0  0  0
  151.9754  141.6377  160.3470 H   0  0  0  0  0  0  0  0  0  0  0  0
  152.6032  143.5298  161.8642 H   0  0  0  0  0  0  0  0  0  0  0  0
  152.1498  145.8773  161.1095 H   0  0  0  0  0  0  0  0  0  0  0  0
  150.5377  144.5885  157.5352 H   0  0  0  0  0  0  0  0  0  0  0  0
  147.8590  138.4157  155.6584 H   0  0  0  0  0  0  0  0  0  0  0  0
  148.1301  136.7392  155.9942 H   0  0  0  0  0  0  0  0  0  0  0  0
  146.1420  137.6138  157.2541 H   0  0  0  0  0  0  0  0  0  0  0  0
  147.1221  138.8587  157.9811 H   0  0  0  0  0  0  0  0  0  0  0  0
  1  2  1  0  0  0  0
  1 23  1  0  0  0  0
  1 24  1  0  0  0  0
  1 25  1  0  0  0  0
  2  3  2  0  0  0  0
  2  4  2  0  0  0  0
  2  5  1  0  0  0  0
  5  6  1  0  0  0  0
  6 22  1  0  0  0  0
  6  7  1  0  0  0  0
  6 26  1  0  0  0  0
  7  8  1  0  0  0  0
  7 27  1  0  0  0  0
  7 28  1  0  0  0  0
  8  9  1  0  0  0  0
  8 29  1  0  0  0  0
  8 30  1  0  0  0  0
  9 10  1  0  0  0  0
  9 21  1  0  0  0  0
 10 11  2  0  0  0  0
 10 12  1  0  0  0  0
 12 13  1  0  0  0  0
 12 31  1  0  0  0  0
 13 14  1  0  0  0  0
 13 32  1  0  0  0  0
 13 33  1  0  0  0  0
 14 15  1  0  0  0  0
 14 34  1  0  0  0  0
 14 35  1  0  0  0  0
 15 20  1  0  0  0  0
 15 16  2  0  0  0  0
 16 17  1  0  0  0  0
 16 36  1  0  0  0  0
 17 18  2  0  0  0  0
 17 37  1  0  0  0  0
 18 19  1  0  0  0  0
 18 38  1  0  0  0  0
 19 20  2  0  0  0  0
 20 39  1  0  0  0  0
 21 22  1  0  0  0  0
 21 40  1  0  0  0  0
 21 41  1  0  0  0  0
 22 42  1  0  0  0  0
 22 43  1  0  0  0  0
M  CHG  1   5  -1
M  END
> <s_m_source_file>
AV-unprocessed.smi

> <i_m_source_file_index>
1610

> <i_lp_mmshare_version>
43012

> <i_f3d_flags>
0

> <s_epik_input>
W0NIM11TKD1PKSg9TylbTkhdW0NIXTFbQ0gyXVtDSDJdTihbQ0gyXVtDSDJdMSlDKD1PKVtOSF1bQ0gyXVtDSDJdYzJbY0hdW2NIXVtjSF1uW2NIXTI=

> <s_epik_cmdline>
J2VwaWtfcHl0aG9uJywgJy1waCcsICc3LjAnLCAnLXRuJywgJzgnLCAnLW1hJywgJzIwMCcsICctbWV0YWxfYmluZGluZycsICctaW1hZScsICc8aW5maWxlLm1hZT4nLCAnLW9tYWUnLCAnPG91dGZpbGUubWFlPic=

> <r_epik_Ionization_Penalty>
6.72257

> <r_epik_Ionization_Penalty_Charging>
6.70803

> <r_epik_Ionization_Penalty_Neutral>
0.0145361

> <r_epik_State_Penalty>
6.71933

> <r_epik_Charging_Adjusted_Penalty>
13.4274

> <i_epik_Tot_Q>
-1

> <i_epik_Tot_abs_Q>
1

> <r_epik_Metal_State_Penalty>
2.65475

> <b_epik_Metal_Only>
1

> <s_lp_Force_Field>
OPLS_2005

> <r_lp_Energy>
25.1746

> <b_lp_Chiralities_Consistent>
1

> <s_lp_Variant>
AV-unprocessed.smi:1610-3

> <Gold.Version>
5.8.1

> <Gold.Id.Protein>
6NUR|6NUR_protein|mol2

> <Gold.PLP.Fitness>
45.3990

> <Gold.PLP.PLP>
-35.3606

> <Gold.PLP.part.hbond>
-3.0000

> <Gold.PLP.part.metal>
0.0000

> <Gold.PLP.part.buried>
-5.7543

> <Gold.PLP.part.nonpolar>
-26.4734

> <Gold.PLP.part.repulsive>
0.2087

> <Gold.PLP.ligand.clash>
0.0000

> <Gold.PLP.ligand.torsion>
1.5116

> <Gold.PLP.Chemscore.Hbond>
3.0000

> <Gold.PLP.Chemscore.CHOScore>
1.0000

> <Gold.PLP.Chemscore.Metal>
0.0000

> <Gold.Chemscore.Hbonds>
donor molecule, donor type, donor heavy atom, donor atom, acceptor molecule, acceptor atom, score
      P1  H  6931  6943       L1     3  0.36
      P1  H  6934  6947       L1     5  1.66
      L1  C    20    39       P1  8028  1.00

> <Gold.PLP.Chemscore.Internal.Correction>
1.0616

> <Gold.Rescore>
     Score         DG    S(hbond)    S(metal)    S(lipo)     H(rot)  DE(clash)    DE(int)     intcor
     12.78     -15.71       1.32        0.00      86.57       1.68       0.00       2.93       ----

> <Gold.Chemscore.Fitness>
12.7756

> <Gold.Chemscore.DG>
-15.7079

> <Gold.Chemscore.ZeroCoef>
-5.4800

> <Gold.Chemscore.Hbond>
1.3184

> <Gold.Chemscore.Metal>
0.0000

> <Gold.Chemscore.Lipo>
86.5705

> <Gold.Chemscore.Internal_Hbond>
0.0000

> <Gold.Chemscore.DEClash>
0.0029

> <Gold.Chemscore.DEInternal>
2.9294

> <Gold.Chemscore.Rot>
1.6813

> <Gold.Chemscore.Internal.Correction>
   9.000000E+99

> <Gold.Chemscore.Hbonds>
donor molecule, donor type, donor heavy atom, donor atom, acceptor molecule, acceptor atom, score
      P1  H  6931  6943       L1     3  0.35
      P1  H  6934  6947       L1     5  0.29

> <Gold.Chemscore.Hbond.Weighted>
-4.4034

> <Gold.Chemscore.Metal.Weighted>
-0.0000

> <Gold.Chemscore.Lipo.Weighted>
-10.1287

> <Gold.Chemscore.Internal_Hbond.Weighted>
0.0000

> <Gold.Chemscore.DEClash.Weighted>
0.0029

> <Gold.Chemscore.DEInternal.Weighted>
2.9294

> <Gold.Chemscore.Rot.Weighted>
4.3042

> <Gold.Chemscore.Internal.Correction.Weighted>
   9.000000E+99

> <Gold.Protein.RotatedTorsions>
[ 6907 6896 6895 6894 ] final  142.62 input  -60.11 | X-H torsion
[ 7974 7965 7964 7962 ] final  -93.97 input  175.53 | X-H torsion
[ 8008 7997 7996 7995 ] final   20.16 input   59.86 | X-H torsion
[ 10167 10162 10161 10158 ] final  -16.33 input  -65.29 | X-H torsion
[ 10718 10713 10712 10709 ] final  -17.15 input   66.30 | X-H torsion
[ 10763 10752 10751 10750 ] final  -89.58 input  -60.55 | X-H torsion
[ 11005 11000 10999 10996 ] final   38.77 input  -57.11 | X-H torsion

> <Gold.Protein.ActiveResidues>
 VAL166  LYS551  ARG553  GLY616  TRP617  ASP618  TYR619  PRO620  LYS621  CYS622 
 ASP623  PHE694  ASN695  SER759  ASP760  ASP761  ALA762  ILE779  LEU786  VAL792 
 PHE793  MET794  SER795  GLU796  ALA797  LYS798  CYS799  TRP800  GLU811  SER814 

> <Gold.Protein.RotatedAtoms>
  152.2164  133.4950  159.5137 H   0  0  0  0  0  0  0  0  0  0  0  0  # atno 6907 bound_to 6896
  150.7002  134.1400  159.4110 H   0  0  0  0  0  0  0  0  0  0  0  0  # atno 6908 bound_to 6896
  151.9320  135.0252  160.0580 H   0  0  0  0  0  0  0  0  0  0  0  0  # atno 6909 bound_to 6896
  145.3795  140.9516  143.2402 H   0  0  0  0  0  0  0  0  0  0  0  0  # atno 7974 bound_to 7965
  154.9314  140.3041  155.5166 H   0  0  0  0  0  0  0  0  0  0  0  0  # atno 8008 bound_to 7997
  156.3003  140.2353  156.4311 H   0  0  0  0  0  0  0  0  0  0  0  0  # atno 8009 bound_to 7997
  154.8234  140.0422  157.1415 H   0  0  0  0  0  0  0  0  0  0  0  0  # atno 8010 bound_to 7997
  140.7232  143.5127  150.9730 H   0  0  0  0  0  0  0  0  0  0  0  0  # atno 10167 bound_to 10162
  156.5775  130.4765  149.6335 H   0  0  0  0  0  0  0  0  0  0  0  0  # atno 10718 bound_to 10713
  154.6567  135.5336  153.7968 H   0  0  0  0  0  0  0  0  0  0  0  0  # atno 10763 bound_to 10752
  153.0418  135.6496  154.0934 H   0  0  0  0  0  0  0  0  0  0  0  0  # atno 10764 bound_to 10752
  154.0847  135.2944  155.3263 H   0  0  0  0  0  0  0  0  0  0  0  0  # atno 10765 bound_to 10752
  140.2093  134.3774  155.8057 H   0  0  0  0  0  0  0  0  0  0  0  0  # atno 11005 bound_to 11000
  144.8518  139.5310  143.6853 LP  0  0  0  0  0  0  0  0  0  0  0  0  # atno 17320 bound_to 7965
  146.2848  139.6975  142.9203 LP  0  0  0  0  0  0  0  0  0  0  0  0  # atno 17321 bound_to 7965
  139.8841  143.7035  152.3153 LP  0  0  0  0  0  0  0  0  0  0  0  0  # atno 17342 bound_to 10162
  139.7328  144.7578  151.0775 LP  0  0  0  0  0  0  0  0  0  0  0  0  # atno 17343 bound_to 10162
  156.2660  130.6990  151.1773 LP  0  0  0  0  0  0  0  0  0  0  0  0  # atno 17370 bound_to 10713
  157.7334  131.0591  150.5578 LP  0  0  0  0  0  0  0  0  0  0  0  0  # atno 17371 bound_to 10713
  141.2226  133.7135  156.8391 LP  0  0  0  0  0  0  0  0  0  0  0  0  # atno 17394 bound_to 11000
  140.1968  134.8926  157.3123 LP  0  0  0  0  0  0  0  0  0  0  0  0  # atno 17395 bound_to 11000

$$$$
