#       Name:                AV-unprocessed.smi:3292
#       Creating user name   scv26
#       Creation time:       Fri Mar 27 18:55:59 2020


#       File generated by GOLD software.
#

@<TRIPOS>MOLECULE
AV-unprocessed.smi:3292
    43    44     1
SMALL
NO_CHARGES


@<TRIPOS>ATOM
      1 ****        -2.5653  -2.4427   2.6382 C.3            1 S1                 0.0000
      2 ****        -2.1990  -1.4168   1.5572 C.3            1 S1                 0.0000
      3 ****        -2.7491  -1.8350   0.1771 C.3            1 S1                 0.0000
      4 ****        -2.5559  -0.8153  -0.8379 N.pl3          1 S1                 0.0000
      5 ****        -3.2212   0.3991  -0.9439 C.2            1 S1                 0.0000
      6 ****        -2.7063   1.0342  -2.0513 C.2            1 S1                 0.0000
      7 ****        -1.7361   0.2297  -2.6444 N.2            1 S1                 0.0000
      8 ****        -1.7041  -0.8484  -1.8720 C.2            1 S1                 0.0000
      9 ****        -0.7443  -1.2688   1.5166 N.am           1 S1                 0.0000
     10 ****        -0.0818  -0.1108   1.3795 C.2            1 S1                 0.0000
     11 ****        -0.6255   0.9892   1.2801 O.2            1 S1                 0.0000
     12 ****         1.2448  -0.2988   1.3458 N.am           1 S1                 0.0000
     13 ****         2.2399   0.7529   1.1607 C.3            1 S1                 0.0000
     14 ****         2.7083   0.8432  -0.3037 C.3            1 S1                 0.0000
     15 ****         3.7580   1.9079  -0.5465 C.3            1 S1                 0.0000
     16 ****         3.6873   2.0787  -2.0606 C.3            1 S1                 0.0000
     17 ****         2.3311   1.8267  -2.4158 O.3            1 S1                 0.0000
     18 ****         1.6334   1.2592  -1.3109 C.3            1 S1                 0.0000
     19 ****        -3.6465  -2.5566   2.7197 H              1 S1                 0.0000
     20 ****        -2.1937  -2.1334   3.6158 H              1 S1                 0.0000
     21 ****        -2.1437  -3.4236   2.4159 H              1 S1                 0.0000
     22 ****        -2.6597  -0.4700   1.8455 H              1 S1                 0.0000
     23 ****        -2.2809  -2.7618  -0.1581 H              1 S1                 0.0000
     24 ****        -3.8192  -2.0342   0.2455 H              1 S1                 0.0000
     25 ****        -3.9789   0.7054  -0.2378 H              1 S1                 0.0000
     26 ****        -2.9586   1.9995  -2.4648 H              1 S1                 0.0000
     27 ****        -1.0390  -1.6789  -2.0590 H              1 S1                 0.0000
     28 ****        -0.2021  -2.1174   1.5871 H              1 S1                 0.0000
     29 ****         1.5934  -1.2418   1.4360 H              1 S1                 0.0000
     30 ****         1.8584   1.7166   1.5028 H              1 S1                 0.0000
     31 ****         3.0914   0.5201   1.8004 H              1 S1                 0.0000
     32 ****         3.1191  -0.1202  -0.6111 H              1 S1                 0.0000
     33 ****         3.4780   2.8397  -0.0524 H              1 S1                 0.0000
     34 ****         4.7505   1.6208  -0.1979 H              1 S1                 0.0000
     35 ****         4.0079   3.0691  -2.3842 H              1 S1                 0.0000
     36 ****         4.3183   1.3396  -2.5561 H              1 S1                 0.0000
     37 ****         1.0130   0.4201  -1.6251 H              1 S1                 0.0000
     38 ****         0.9796   2.0239  -0.8891 H              1 S1                 0.0000
     39 ****        -1.1914   0.4202  -3.4611 LP             1 S1                 0.0000
     40 ****        -1.6230   1.0574   1.2992 LP             1 S1                 0.0000
     41 ****        -0.0697   1.8144   1.1802 LP             1 S1                 0.0000
     42 ****         2.3037   1.1901  -3.1866 LP             1 S1                 0.0000
     43 ****         1.8925   2.6863  -2.6778 LP             1 S1                 0.0000
@<TRIPOS>BOND
    1    1    2 1     
    2    1   19 1     
    3    1   20 1     
    4    1   21 1     
    5    2    3 1     
    6    2    9 1     
    7    2   22 1     
    8    3    4 1     
    9    3   23 1     
   10    3   24 1     
   11    4    8 1     
   12    4    5 1     
   13    5    6 2     
   14    5   25 1     
   15    6    7 1     
   16    6   26 1     
   17    7    8 2     
   18    8   27 1     
   19    9   10 am    
   20    9   28 1     
   21   10   11 2     
   22   10   12 am    
   23   12   13 1     
   24   12   29 1     
   25   13   14 1     
   26   13   30 1     
   27   13   31 1     
   28   14   18 1     
   29   14   15 1     
   30   14   32 1     
   31   15   16 1     
   32   15   33 1     
   33   15   34 1     
   34   16   17 1     
   35   16   35 1     
   36   16   36 1     
   37   17   18 1     
   38   18   37 1     
   39   18   38 1     
   40    7   39 1     
   41   11   40 1     
   42   11   41 1     
   43   17   42 1     
   44   17   43 1     
@<TRIPOS>SUBSTRUCTURE
      1 S1             1
@<TRIPOS>SET
LONE_PAIRS      STATIC     ATOMS    <user>   **** ""
5 39 40 41 42 43
DONOR_HYDROGENS      STATIC     ATOMS    <user>   **** ""
2 28 29
ATOM$BLUE        STATIC     ATOMS    COLORGROUP SYSTEM
5 39 40 41 42 43
ATOM$RED        STATIC     ATOMS    COLORGROUP SYSTEM
2 28 29
