AV-unprocessed.smi:1509|AV-procd|sdf|6091|dock3
  -GOLD-   22720 6213D 1   1.00000     0.00000
 Structure written by MMmdl.
 42 43  0  0  0  0  0  0  0  0  2 V2000
  146.8285  131.6287  149.4096 C   0  0  0  0  0  0  0  0  0  0  0  0
  145.8376  132.3203  150.3622 C   0  0  1  0  0  0  0  0  0  0  0  0
  144.6547  131.4153  150.7527 C   0  0  0  0  0  0  0  0  0  0  0  0
  145.0879  130.3346  151.7528 C   0  0  0  0  0  0  0  0  0  0  0  0
  145.7906  130.9585  152.9687 C   0  0  0  0  0  0  0  0  0  0  0  0
  146.9475  131.7931  152.5531 N   0  3  2  0  0  0  0  0  0  0  0  0
  147.7271  132.2871  153.7165 C   0  0  0  0  0  0  0  0  0  0  0  0
  148.9712  133.0890  153.2970 C   0  0  0  0  0  0  0  0  0  0  0  0
  149.5652  133.8898  154.4679 C   0  0  0  0  0  0  0  0  0  0  0  0
  149.8938  135.2563  154.0794 N   0  0  0  0  0  0  0  0  0  0  0  0
  150.7181  136.0712  154.7567 C   0  0  0  0  0  0  0  0  0  0  0  0
  151.2676  135.7532  155.8111 O   0  0  0  0  0  0  0  0  0  0  0  0
  150.9608  137.4564  154.1559 C   0  0  0  0  0  0  0  0  0  0  0  0
  151.6982  138.3030  155.0750 N   0  0  0  0  0  0  0  0  0  0  0  0
  152.8824  138.9066  154.9542 C   0  0  0  0  0  0  0  0  0  0  0  0
  153.1987  139.5866  156.0454 N   0  0  0  0  0  0  0  0  0  0  0  0
  152.1139  139.3671  156.8779 N   0  0  0  0  0  0  0  0  0  0  0  0
  151.2205  138.6062  156.3076 N   0  0  0  0  0  0  0  0  0  0  0  0
  146.5319  132.8783  151.6223 C   0  0  0  0  0  0  0  0  0  0  0  0
  147.3166  130.7741  149.8778 H   0  0  0  0  0  0  0  0  0  0  0  0
  147.6101  132.3190  149.0912 H   0  0  0  0  0  0  0  0  0  0  0  0
  146.3234  131.2711  148.5119 H   0  0  0  0  0  0  0  0  0  0  0  0
  145.4277  133.1688  149.8131 H   0  0  0  0  0  0  0  0  0  0  0  0
  143.8712  132.0246  151.2053 H   0  0  0  0  0  0  0  0  0  0  0  0
  144.2116  130.9582  149.8673 H   0  0  0  0  0  0  0  0  0  0  0  0
  144.2178  129.7647  152.0801 H   0  0  0  0  0  0  0  0  0  0  0  0
  145.7541  129.6207  151.2673 H   0  0  0  0  0  0  0  0  0  0  0  0
  145.0878  131.5678  153.5393 H   0  0  0  0  0  0  0  0  0  0  0  0
  146.1287  130.1602  153.6306 H   0  0  0  0  0  0  0  0  0  0  0  0
  147.0845  132.8799  154.3695 H   0  0  0  0  0  0  0  0  0  0  0  0
  148.0645  131.4353  154.3089 H   0  0  0  0  0  0  0  0  0  0  0  0
  149.7269  132.4080  152.9032 H   0  0  0  0  0  0  0  0  0  0  0  0
  148.7214  133.7743  152.4877 H   0  0  0  0  0  0  0  0  0  0  0  0
  148.8749  133.8999  155.3133 H   0  0  0  0  0  0  0  0  0  0  0  0
  150.4791  133.4113  154.8210 H   0  0  0  0  0  0  0  0  0  0  0  0
  149.4816  135.5997  153.2237 H   0  0  0  0  0  0  0  0  0  0  0  0
  151.5224  137.3696  153.2250 H   0  0  0  0  0  0  0  0  0  0  0  0
  150.0094  137.9333  153.9151 H   0  0  0  0  0  0  0  0  0  0  0  0
  153.5088  138.8458  154.0763 H   0  0  0  0  0  0  0  0  0  0  0  0
  147.3900  133.4783  151.3214 H   0  0  0  0  0  0  0  0  0  0  0  0
  145.8538  133.5538  152.1467 H   0  0  0  0  0  0  0  0  0  0  0  0
  147.5621  131.1808  152.0356 H   0  0  0  0  0  0  0  0  0  0  0  0
  1  2  1  0  0  0  0
  1 20  1  0  0  0  0
  1 21  1  0  0  0  0
  1 22  1  0  0  0  0
  2 19  1  0  0  0  0
  2  3  1  0  0  0  0
  2 23  1  0  0  0  0
  3  4  1  0  0  0  0
  3 24  1  0  0  0  0
  3 25  1  0  0  0  0
  4  5  1  0  0  0  0
  4 26  1  0  0  0  0
  4 27  1  0  0  0  0
  5  6  1  0  0  0  0
  5 28  1  0  0  0  0
  5 29  1  0  0  0  0
  6  7  1  0  0  0  0
  6 19  1  0  0  0  0
  6 42  1  0  0  0  0
  7  8  1  0  0  0  0
  7 30  1  0  0  0  0
  7 31  1  0  0  0  0
  8  9  1  0  0  0  0
  8 32  1  0  0  0  0
  8 33  1  0  0  0  0
  9 10  1  0  0  0  0
  9 34  1  0  0  0  0
  9 35  1  0  0  0  0
 10 11  1  0  0  0  0
 10 36  1  0  0  0  0
 11 12  2  0  0  0  0
 11 13  1  0  0  0  0
 13 14  1  0  0  0  0
 13 37  1  0  0  0  0
 13 38  1  0  0  0  0
 14 18  1  0  0  0  0
 14 15  1  0  0  0  0
 15 16  2  0  0  0  0
 15 39  1  0  0  0  0
 16 17  1  0  0  0  0
 17 18  2  0  0  0  0
 19 40  1  0  0  0  0
 19 41  1  0  0  0  0
M  CHG  1   6   1
M  END
> <s_m_source_file>
AV-unprocessed.smi

> <i_m_source_file_index>
1509

> <i_lp_mmshare_version>
43012

> <i_f3d_flags>
0

> <s_epik_input>
W0NIM11bQ0BASF0xW0NIMl1bQ0gyXVtDSDJdTihbQ0gyXTEpW0NIMl1bQ0gyXVtDSDJdW05IXUMoPU8pW0NIMl1uMltjSF1ubm4y

> <s_epik_cmdline>
J2VwaWtfcHl0aG9uJywgJy1waCcsICc3LjAnLCAnLXRuJywgJzgnLCAnLW1hJywgJzIwMCcsICctbWV0YWxfYmluZGluZycsICctaW1hZScsICc8aW5maWxlLm1hZT4nLCAnLW9tYWUnLCAnPG91dGZpbGUubWFlPic=

> <r_lp_tautomer_probability>
1

> <r_epik_Ionization_Penalty>
0.00044216

> <r_epik_Ionization_Penalty_Charging>
0.000440775

> <r_epik_Ionization_Penalty_Neutral>
1.38512e-06

> <r_epik_State_Penalty>
0.000271914

> <r_epik_Charging_Adjusted_Penalty>
0.000712689

> <i_epik_Tot_Q>
1

> <i_epik_Tot_abs_Q>
1

> <r_epik_Metal_State_Penalty>
-0

> <b_epik_Metal_Only>
0

> <s_lp_Force_Field>
OPLS_2005

> <r_lp_Energy>
22.736

> <b_lp_Chiralities_Consistent>
1

> <s_lp_Variant>
AV-unprocessed.smi:1509-2

> <Gold.Version>
5.8.1

> <Gold.Id.Protein>
6NUR|6NUR_protein|mol2

> <Gold.PLP.Fitness>
45.5946

> <Gold.PLP.PLP>
-34.6510

> <Gold.PLP.part.hbond>
-4.9459

> <Gold.PLP.part.metal>
0.0000

> <Gold.PLP.part.buried>
0.7577

> <Gold.PLP.part.nonpolar>
-30.7403

> <Gold.PLP.part.repulsive>
0.1080

> <Gold.PLP.ligand.clash>
0.0000

> <Gold.PLP.ligand.torsion>
0.5749

> <Gold.PLP.Chemscore.Hbond>
4.0000

> <Gold.PLP.Chemscore.CHOScore>
0.0000

> <Gold.PLP.Chemscore.Metal>
0.0000

> <Gold.Chemscore.Hbonds>
donor molecule, donor type, donor heavy atom, donor atom, acceptor molecule, acceptor atom, score
      L1  H     6    42       P1 10747  0.39
      L1  H    10    36       P1  7948  0.75
      P1  H  7997  8008       L1    16  0.42
      P1  H 10752 10764       L1    12  0.70

> <Gold.PLP.Chemscore.Internal.Correction>
0.0935

> <Gold.Rescore>
     Score         DG    S(hbond)    S(metal)    S(lipo)     H(rot)  DE(clash)    DE(int)     intcor
     14.94     -18.97       3.45        0.00      81.82       2.97       2.20       1.83       ----

> <Gold.Chemscore.Fitness>
14.9437

> <Gold.Chemscore.DG>
-18.9737

> <Gold.Chemscore.ZeroCoef>
-5.4800

> <Gold.Chemscore.Hbond>
3.4487

> <Gold.Chemscore.Metal>
0.0000

> <Gold.Chemscore.Lipo>
81.8211

> <Gold.Chemscore.Internal_Hbond>
0.0000

> <Gold.Chemscore.DEClash>
2.2047

> <Gold.Chemscore.DEInternal>
1.8253

> <Gold.Chemscore.Rot>
2.9680

> <Gold.Chemscore.Internal.Correction>
   9.000000E+99

> <Gold.Chemscore.Hbonds>
donor molecule, donor type, donor heavy atom, donor atom, acceptor molecule, acceptor atom, score
      L1  H     6    42       P1 10747  0.37
      L1  H    10    36       P1  7948  0.09
      P1  H  7997  8008       L1    16  0.42
      P1  H 10752 10764       L1    12  0.07

> <Gold.Chemscore.Hbond.Weighted>
-11.5186

> <Gold.Chemscore.Metal.Weighted>
-0.0000

> <Gold.Chemscore.Lipo.Weighted>
-9.5731

> <Gold.Chemscore.Internal_Hbond.Weighted>
0.0000

> <Gold.Chemscore.DEClash.Weighted>
2.2047

> <Gold.Chemscore.DEInternal.Weighted>
1.8253

> <Gold.Chemscore.Rot.Weighted>
7.5980

> <Gold.Chemscore.Internal.Correction.Weighted>
   9.000000E+99

> <Gold.Protein.RotatedTorsions>
[ 6907 6896 6895 6894 ] final  -99.97 input  -60.11 | X-H torsion
[ 7974 7965 7964 7962 ] final  -88.58 input  175.53 | X-H torsion
[ 8008 7997 7996 7995 ] final  -28.66 input   59.86 | X-H torsion
[ 10167 10162 10161 10158 ] final  -31.18 input  -65.29 | X-H torsion
[ 10718 10713 10712 10709 ] final  -42.20 input   66.30 | X-H torsion
[ 10763 10752 10751 10750 ] final  -35.17 input  -60.55 | X-H torsion
[ 11005 11000 10999 10996 ] final -125.27 input  -57.11 | X-H torsion

> <Gold.Protein.ActiveResidues>
 VAL166  LYS551  ARG553  GLY616  TRP617  ASP618  TYR619  PRO620  LYS621  CYS622 
 ASP623  PHE694  ASN695  SER759  ASP760  ASP761  ALA762  ILE779  LEU786  VAL792 
 PHE793  MET794  SER795  GLU796  ALA797  LYS798  CYS799  TRP800  GLU811  SER814 

> <Gold.Protein.RotatedAtoms>
  150.7099  134.0958  159.3947 H   0  0  0  0  0  0  0  0  0  0  0  0  # atno 6907 bound_to 6896
  151.8944  135.0401  160.0510 H   0  0  0  0  0  0  0  0  0  0  0  0  # atno 6908 bound_to 6896
  152.2465  133.5143  159.5337 H   0  0  0  0  0  0  0  0  0  0  0  0  # atno 6909 bound_to 6896
  145.4513  140.9560  143.2020 H   0  0  0  0  0  0  0  0  0  0  0  0  # atno 7974 bound_to 7965
  154.4323  140.1839  156.1124 H   0  0  0  0  0  0  0  0  0  0  0  0  # atno 8008 bound_to 7997
  156.0207  140.3341  155.7010 H   0  0  0  0  0  0  0  0  0  0  0  0  # atno 8009 bound_to 7997
  155.5980  140.0637  157.2731 H   0  0  0  0  0  0  0  0  0  0  0  0  # atno 8010 bound_to 7997
  140.7240  143.3791  151.1635 H   0  0  0  0  0  0  0  0  0  0  0  0  # atno 10167 bound_to 10162
  156.2621  130.4198  149.8531 H   0  0  0  0  0  0  0  0  0  0  0  0  # atno 10718 bound_to 10713
  153.8588  135.6842  153.4785 H   0  0  0  0  0  0  0  0  0  0  0  0  # atno 10763 bound_to 10752
  153.1354  135.4680  154.9412 H   0  0  0  0  0  0  0  0  0  0  0  0  # atno 10764 bound_to 10752
  154.7768  135.3256  154.8024 H   0  0  0  0  0  0  0  0  0  0  0  0  # atno 10765 bound_to 10752
  140.9776  134.0719  157.3801 H   0  0  0  0  0  0  0  0  0  0  0  0  # atno 11005 bound_to 11000
  144.8060  139.6051  143.7051 LP  0  0  0  0  0  0  0  0  0  0  0  0  # atno 17320 bound_to 7965
  146.2502  139.6184  142.9432 LP  0  0  0  0  0  0  0  0  0  0  0  0  # atno 17321 bound_to 7965
  139.7376  143.8974  152.3040 LP  0  0  0  0  0  0  0  0  0  0  0  0  # atno 17342 bound_to 10162
  139.8784  144.7031  150.8906 LP  0  0  0  0  0  0  0  0  0  0  0  0  # atno 17343 bound_to 10162
  156.6042  130.8559  151.3439 LP  0  0  0  0  0  0  0  0  0  0  0  0  # atno 17370 bound_to 10713
  157.7254  130.9616  150.1614 LP  0  0  0  0  0  0  0  0  0  0  0  0  # atno 17371 bound_to 10713
  139.8937  135.0131  156.6911 LP  0  0  0  0  0  0  0  0  0  0  0  0  # atno 17394 bound_to 11000
  140.7236  133.9119  155.8163 LP  0  0  0  0  0  0  0  0  0  0  0  0  # atno 17395 bound_to 11000

$$$$
