AV-unprocessed.smi:32|AV-procd|sdf|197|dock4
  -GOLD-   2262015463D 1   1.00000     0.00000
 Structure written by MMmdl.
 49 51  0  0  0  0  0  0  0  0  1 V2000
  153.7312  139.5320  158.7660 O   0  0  0  0  0  0  0  0  0  0  0  0
  152.6616  139.5586  158.1552 C   0  0  0  0  0  0  0  0  0  0  0  0
  152.0722  138.2841  157.5316 C   0  0  0  0  0  0  0  0  0  0  0  0
  150.6416  138.0793  157.8477 N   0  0  0  0  0  0  0  0  0  0  0  0
  149.6702  138.5979  156.9559 C   0  0  0  0  0  0  0  0  0  0  0  0
  149.9993  139.2139  155.9411 O   0  0  0  0  0  0  0  0  0  0  0  0
  148.2810  138.3460  157.3221 C   0  0  0  0  0  0  0  0  0  0  0  0
  147.2925  138.8110  156.5396 F   0  0  0  0  0  0  0  0  0  0  0  0
  147.9702  137.6527  158.4366 C   0  0  0  0  0  0  0  0  0  0  0  0
  148.9299  137.1396  159.2911 N   0  0  0  0  0  0  0  0  0  0  0  0
  148.5649  136.3582  160.5355 C   0  0  2  0  0  0  0  0  0  0  0  0
  147.8928  135.0239  160.1603 C   0  0  0  0  0  0  0  0  0  0  0  0
  146.6337  135.0352  161.0041 C   0  0  0  0  0  0  0  0  0  0  0  0
  146.3463  136.5248  161.1183 C   0  0  0  0  0  0  0  0  0  0  0  0
  147.6418  137.0822  161.2989 O   0  0  0  0  0  0  0  0  0  0  0  0
  150.2975  137.3477  159.0091 C   0  0  0  0  0  0  0  0  0  0  0  0
  151.1675  136.8943  159.7559 O   0  0  0  0  0  0  0  0  0  0  0  0
  151.9365  140.6757  157.9902 N   0  0  0  0  0  0  0  0  0  0  0  0
  152.2917  142.0030  158.4873 C   0  0  0  0  0  0  0  0  0  0  0  0
  152.1309  142.0157  160.0218 C   0  0  0  0  0  0  0  0  0  0  0  0
  152.7892  143.2338  160.6916 C   0  0  0  0  0  0  0  0  0  0  0  0
  151.9090  144.4915  160.7949 C   0  0  0  0  0  0  0  0  0  0  0  0
  151.0347  144.8209  159.5723 C   0  0  0  0  0  0  0  0  0  0  0  0
  151.6704  144.5158  158.2065 C   0  0  0  0  0  0  0  0  0  0  0  0
  151.4429  143.0629  157.7544 C   0  0  0  0  0  0  0  0  0  0  0  0
  152.2377  138.3224  156.4541 H   0  0  0  0  0  0  0  0  0  0  0  0
  152.6651  137.4281  157.8585 H   0  0  0  0  0  0  0  0  0  0  0  0
  146.9232  137.5037  158.6509 H   0  0  0  0  0  0  0  0  0  0  0  0
  149.4927  136.2491  161.0998 H   0  0  0  0  0  0  0  0  0  0  0  0
  147.6393  135.0140  159.0990 H   0  0  0  0  0  0  0  0  0  0  0  0
  148.5491  134.1802  160.3764 H   0  0  0  0  0  0  0  0  0  0  0  0
  145.8132  134.4743  160.5562 H   0  0  0  0  0  0  0  0  0  0  0  0
  146.8381  134.6171  161.9907 H   0  0  0  0  0  0  0  0  0  0  0  0
  145.8968  136.9041  160.1995 H   0  0  0  0  0  0  0  0  0  0  0  0
  145.6856  136.7662  161.9510 H   0  0  0  0  0  0  0  0  0  0  0  0
  151.0709  140.6026  157.4753 H   0  0  0  0  0  0  0  0  0  0  0  0
  153.3445  142.1819  158.2603 H   0  0  0  0  0  0  0  0  0  0  0  0
  151.0818  141.9345  160.3097 H   0  0  0  0  0  0  0  0  0  0  0  0
  152.6178  141.1242  160.4199 H   0  0  0  0  0  0  0  0  0  0  0  0
  153.0932  142.9583  161.7021 H   0  0  0  0  0  0  0  0  0  0  0  0
  153.7174  143.4771  160.1728 H   0  0  0  0  0  0  0  0  0  0  0  0
  151.2569  144.4015  161.6644 H   0  0  0  0  0  0  0  0  0  0  0  0
  152.5599  145.3409  161.0062 H   0  0  0  0  0  0  0  0  0  0  0  0
  150.0820  144.2958  159.6532 H   0  0  0  0  0  0  0  0  0  0  0  0
  150.7807  145.8806  159.6179 H   0  0  0  0  0  0  0  0  0  0  0  0
  151.2017  145.1663  157.4672 H   0  0  0  0  0  0  0  0  0  0  0  0
  152.7305  144.7718  158.1976 H   0  0  0  0  0  0  0  0  0  0  0  0
  151.6661  143.0055  156.6882 H   0  0  0  0  0  0  0  0  0  0  0  0
  150.3837  142.8166  157.8432 H   0  0  0  0  0  0  0  0  0  0  0  0
  1  2  2  0  0  0  0
  2  3  1  0  0  0  0
  2 18  1  0  0  0  0
  3  4  1  0  0  0  0
  3 26  1  0  0  0  0
  3 27  1  0  0  0  0
  4 16  1  0  0  0  0
  4  5  1  0  0  0  0
  5  6  2  0  0  0  0
  5  7  1  0  0  0  0
  7  8  1  0  0  0  0
  7  9  2  0  0  0  0
  9 10  1  0  0  0  0
  9 28  1  0  0  0  0
 10 11  1  0  0  0  0
 10 16  1  0  0  0  0
 11 15  1  0  0  0  0
 11 12  1  0  0  0  0
 11 29  1  0  0  0  0
 12 13  1  0  0  0  0
 12 30  1  0  0  0  0
 12 31  1  0  0  0  0
 13 14  1  0  0  0  0
 13 32  1  0  0  0  0
 13 33  1  0  0  0  0
 14 15  1  0  0  0  0
 14 34  1  0  0  0  0
 14 35  1  0  0  0  0
 16 17  2  0  0  0  0
 18 19  1  0  0  0  0
 18 36  1  0  0  0  0
 19 25  1  0  0  0  0
 19 20  1  0  0  0  0
 19 37  1  0  0  0  0
 20 21  1  0  0  0  0
 20 38  1  0  0  0  0
 20 39  1  0  0  0  0
 21 22  1  0  0  0  0
 21 40  1  0  0  0  0
 21 41  1  0  0  0  0
 22 23  1  0  0  0  0
 22 42  1  0  0  0  0
 22 43  1  0  0  0  0
 23 24  1  0  0  0  0
 23 44  1  0  0  0  0
 23 45  1  0  0  0  0
 24 25  1  0  0  0  0
 24 46  1  0  0  0  0
 24 47  1  0  0  0  0
 25 48  1  0  0  0  0
 25 49  1  0  0  0  0
M  END
> <s_m_source_file>
AV-unprocessed.smi

> <i_m_source_file_index>
32

> <i_lp_mmshare_version>
43012

> <i_f3d_flags>
0

> <s_epik_input>
W0NIMl0xW0NIMl1bQ0gyXVtDSDJdW0NIMl1bQ0gyXVtDSF0xW05IXUMoPU8pW0NIMl1uMmMoPU8pYyhGKVtjSF1uKGMyPU8pW0NAQEhdM1tDSDJdW0NIMl1bQ0gyXU8z

> <s_epik_cmdline>
J2VwaWtfcHl0aG9uJywgJy1waCcsICc3LjAnLCAnLXRuJywgJzgnLCAnLW1hJywgJzIwMCcsICctbWV0YWxfYmluZGluZycsICctaW1hZScsICc8aW5maWxlLm1hZT4nLCAnLW9tYWUnLCAnPG91dGZpbGUubWFlPic=

> <r_lp_tautomer_probability>
1

> <r_epik_Ionization_Penalty>
2.43741e-08

> <r_epik_Ionization_Penalty_Charging>
4.15308e-09

> <r_epik_Ionization_Penalty_Neutral>
2.0221e-08

> <r_epik_State_Penalty>
-0

> <r_epik_Charging_Adjusted_Penalty>
4.15308e-09

> <i_epik_Tot_Q>
0

> <i_epik_Tot_abs_Q>
0

> <r_epik_Metal_State_Penalty>
-0

> <b_epik_Metal_Only>
0

> <s_epik_Chemistry_Notes>
This compound contains an acetal/aminal-like group ( X-CH(R)-Y where X, Y are N, S, or O) that may be acid/base labile, releasing an aldehyde.

> <s_lp_Force_Field>
OPLS_2005

> <r_lp_Energy>
35.2261

> <b_lp_Chiralities_Consistent>
1

> <s_lp_Variant>
AV-unprocessed.smi:32-1

> <Gold.Version>
5.8.1

> <Gold.Id.Protein>
6NUR|6NUR_protein|mol2

> <Gold.PLP.Fitness>
49.8666

> <Gold.PLP.PLP>
-40.9247

> <Gold.PLP.part.hbond>
-4.0000

> <Gold.PLP.part.metal>
0.0000

> <Gold.PLP.part.buried>
-6.1597

> <Gold.PLP.part.nonpolar>
-30.4134

> <Gold.PLP.part.repulsive>
0.0820

> <Gold.PLP.ligand.clash>
0.0000

> <Gold.PLP.ligand.torsion>
0.7749

> <Gold.PLP.Chemscore.Hbond>
3.4881

> <Gold.PLP.Chemscore.CHOScore>
0.0000

> <Gold.PLP.Chemscore.Metal>
0.0000

> <Gold.Chemscore.Hbonds>
donor molecule, donor type, donor heavy atom, donor atom, acceptor molecule, acceptor atom, score
      P1  H  6896  6908       L1    17  1.00
      P1  H  6931  6943       L1    15  0.55
      P1  H  6934  6947       L1    15  0.82
      P1  H  7997  8008       L1     1  0.12

> <Gold.PLP.Chemscore.Internal.Correction>
0.0272

> <Gold.Rescore>
     Score         DG    S(hbond)    S(metal)    S(lipo)     H(rot)  DE(clash)    DE(int)     intcor
     21.23     -22.14       2.71        0.00     104.96       1.82       0.04       0.87       ----

> <Gold.Chemscore.Fitness>
21.2315

> <Gold.Chemscore.DG>
-22.1354

> <Gold.Chemscore.ZeroCoef>
-5.4800

> <Gold.Chemscore.Hbond>
2.7084

> <Gold.Chemscore.Metal>
0.0000

> <Gold.Chemscore.Lipo>
104.9642

> <Gold.Chemscore.Internal_Hbond>
0.0000

> <Gold.Chemscore.DEClash>
0.0363

> <Gold.Chemscore.DEInternal>
0.8676

> <Gold.Chemscore.Rot>
1.8248

> <Gold.Chemscore.Internal.Correction>
   9.000000E+99

> <Gold.Chemscore.Hbonds>
donor molecule, donor type, donor heavy atom, donor atom, acceptor molecule, acceptor atom, score
      P1  H  6896  6908       L1    17  0.90
      P1  H  6931  6943       L1    15  0.03
      P1  H  6934  6947       L1    15  0.17

> <Gold.Chemscore.Hbond.Weighted>
-9.0460

> <Gold.Chemscore.Metal.Weighted>
-0.0000

> <Gold.Chemscore.Lipo.Weighted>
-12.2808

> <Gold.Chemscore.Internal_Hbond.Weighted>
0.0000

> <Gold.Chemscore.DEClash.Weighted>
0.0363

> <Gold.Chemscore.DEInternal.Weighted>
0.8676

> <Gold.Chemscore.Rot.Weighted>
4.6714

> <Gold.Chemscore.Internal.Correction.Weighted>
   9.000000E+99

> <Gold.Protein.RotatedTorsions>
[ 6907 6896 6895 6894 ] final -143.49 input  -60.11 | X-H torsion
[ 7974 7965 7964 7962 ] final  176.13 input  175.53 | X-H torsion
[ 8008 7997 7996 7995 ] final  -75.71 input   59.86 | X-H torsion
[ 10167 10162 10161 10158 ] final   13.57 input  -65.29 | X-H torsion
[ 10718 10713 10712 10709 ] final  -67.83 input   66.30 | X-H torsion
[ 10763 10752 10751 10750 ] final -175.70 input  -60.55 | X-H torsion
[ 11005 11000 10999 10996 ] final -137.19 input  -57.11 | X-H torsion

> <Gold.Protein.ActiveResidues>
 VAL166  LYS551  ARG553  GLY616  TRP617  ASP618  TYR619  PRO620  LYS621  CYS622 
 ASP623  PHE694  ASN695  SER759  ASP760  ASP761  ALA762  ILE779  LEU786  VAL792 
 PHE793  MET794  SER795  GLU796  ALA797  LYS798  CYS799  TRP800  GLU811  SER814 

> <Gold.Protein.RotatedAtoms>
  151.1011  133.5242  159.2609 H   0  0  0  0  0  0  0  0  0  0  0  0  # atno 6907 bound_to 6896
  151.2073  135.0466  159.8906 H   0  0  0  0  0  0  0  0  0  0  0  0  # atno 6908 bound_to 6896
  152.5443  134.0832  159.8298 H   0  0  0  0  0  0  0  0  0  0  0  0  # atno 6909 bound_to 6896
  144.7189  140.0051  143.6440 H   0  0  0  0  0  0  0  0  0  0  0  0  # atno 7974 bound_to 7965
  154.5440  140.0739  156.8558 H   0  0  0  0  0  0  0  0  0  0  0  0  # atno 8008 bound_to 7997
  155.3123  140.3391  155.4225 H   0  0  0  0  0  0  0  0  0  0  0  0  # atno 8009 bound_to 7997
  156.1901  140.1683  156.8095 H   0  0  0  0  0  0  0  0  0  0  0  0  # atno 8010 bound_to 7997
  140.5993  143.8636  150.6949 H   0  0  0  0  0  0  0  0  0  0  0  0  # atno 10167 bound_to 10162
  156.0537  130.4284  150.1912 H   0  0  0  0  0  0  0  0  0  0  0  0  # atno 10718 bound_to 10713
  154.5812  135.2836  155.0730 H   0  0  0  0  0  0  0  0  0  0  0  0  # atno 10763 bound_to 10752
  154.2066  135.6415  153.5106 H   0  0  0  0  0  0  0  0  0  0  0  0  # atno 10764 bound_to 10752
  153.0089  135.5481  154.6467 H   0  0  0  0  0  0  0  0  0  0  0  0  # atno 10765 bound_to 10752
  140.8734  134.2022  157.4637 H   0  0  0  0  0  0  0  0  0  0  0  0  # atno 11005 bound_to 11000
  146.0304  139.3330  143.0759 LP  0  0  0  0  0  0  0  0  0  0  0  0  # atno 17320 bound_to 7965
  145.8460  140.9555  143.0774 LP  0  0  0  0  0  0  0  0  0  0  0  0  # atno 17321 bound_to 7965
  140.2178  143.3832  152.1667 LP  0  0  0  0  0  0  0  0  0  0  0  0  # atno 17342 bound_to 10162
  139.5280  144.7126  151.5158 LP  0  0  0  0  0  0  0  0  0  0  0  0  # atno 17343 bound_to 10162
  156.9991  130.9917  151.3395 LP  0  0  0  0  0  0  0  0  0  0  0  0  # atno 17370 bound_to 10713
  157.5487  130.8168  149.8118 LP  0  0  0  0  0  0  0  0  0  0  0  0  # atno 17371 bound_to 10713
  139.8714  134.9784  156.4998 LP  0  0  0  0  0  0  0  0  0  0  0  0  # atno 17394 bound_to 11000
  140.8547  133.8105  155.9204 LP  0  0  0  0  0  0  0  0  0  0  0  0  # atno 17395 bound_to 11000

$$$$
