AV-unprocessed.smi:34|AV-procd|sdf|241|dock8
  -GOLD-   2262015593D 1   1.00000     0.00000
 Structure written by MMmdl.
 54 58  0  0  0  0  0  0  0  0  2 V2000
  152.4590  131.6677  158.5752 O   0  0  0  0  0  0  0  0  0  0  0  0
  151.9403  131.2340  157.5441 C   0  0  0  0  0  0  0  0  0  0  0  0
  150.6294  131.2703  157.1939 N   0  5  0  0  0  0  0  0  0  0  0  0
  150.2014  132.1734  156.2989 C   0  0  0  0  0  0  0  0  0  0  0  0
  149.3696  131.7989  155.2932 N   0  0  0  0  0  0  0  0  0  0  0  0
  148.9424  132.6974  154.3980 C   0  0  0  0  0  0  0  0  0  0  0  0
  149.2192  134.0032  154.3191 N   0  0  0  0  0  0  0  0  0  0  0  0
  150.0625  134.3877  155.3207 C   0  0  0  0  0  0  0  0  0  0  0  0
  150.5947  133.5397  156.3337 C   0  0  0  0  0  0  0  0  0  0  0  0
  151.4208  134.2561  157.1873 N   0  0  0  0  0  0  0  0  0  0  0  0
  151.3492  135.4804  156.6681 C   0  0  0  0  0  0  0  0  0  0  0  0
  150.5670  135.6490  155.5814 N   0  0  0  0  0  0  0  0  0  0  0  0
  150.3000  136.8877  154.7820 C   0  0  2  0  0  0  0  0  0  0  0  0
  151.5209  137.4869  154.4489 O   0  0  0  0  0  0  0  0  0  0  0  0
  151.6633  138.7493  155.0946 C   0  0  2  0  0  0  0  0  0  0  0  0
  152.4713  138.5832  156.3923 C   0  0  0  0  0  0  0  0  0  0  0  0
  152.2499  139.7045  157.2320 O   0  0  0  0  0  0  0  0  0  0  0  0
  152.7147  139.7047  158.4960 C   0  0  0  0  0  0  0  0  0  0  0  0
  153.1277  138.6958  159.0713 O   0  0  0  0  0  0  0  0  0  0  0  0
  152.6743  141.0554  159.1275 C   0  0  0  0  0  0  0  0  0  0  0  0
  152.0292  142.1178  158.4520 C   0  0  0  0  0  0  0  0  0  0  0  0
  151.9791  143.4049  159.0218 C   0  0  0  0  0  0  0  0  0  0  0  0
  152.5734  143.6456  160.2742 C   0  0  0  0  0  0  0  0  0  0  0  0
  153.2179  142.5972  160.9565 C   0  0  0  0  0  0  0  0  0  0  0  0
  153.2692  141.3093  160.3883 C   0  0  0  0  0  0  0  0  0  0  0  0
  150.2233  139.2166  155.3140 C   0  0  1  0  0  0  0  0  0  0  0  0
  149.7748  139.7994  154.2009 F   0  0  0  0  0  0  0  0  0  0  0  0
  149.4567  137.9281  155.5540 C   0  0  2  0  0  0  0  0  0  0  0  0
  149.3270  137.6793  156.9432 O   0  0  0  0  0  0  0  0  0  0  0  0
  152.8057  130.5109  156.5461 C   0  0  0  0  0  0  0  0  0  0  0  0
  154.1973  130.4066  156.7724 C   0  0  0  0  0  0  0  0  0  0  0  0
  155.0291  129.7592  155.8382 C   0  0  0  0  0  0  0  0  0  0  0  0
  154.4794  129.2153  154.6626 C   0  0  0  0  0  0  0  0  0  0  0  0
  153.0976  129.3236  154.4197 C   0  0  0  0  0  0  0  0  0  0  0  0
  152.2652  129.9721  155.3526 C   0  0  0  0  0  0  0  0  0  0  0  0
  148.2810  132.3147  153.6350 H   0  0  0  0  0  0  0  0  0  0  0  0
  151.9002  136.2983  157.1074 H   0  0  0  0  0  0  0  0  0  0  0  0
  149.8120  136.5250  153.8765 H   0  0  0  0  0  0  0  0  0  0  0  0
  152.1986  139.4313  154.4328 H   0  0  0  0  0  0  0  0  0  0  0  0
  152.1918  137.6661  156.9114 H   0  0  0  0  0  0  0  0  0  0  0  0
  153.5346  138.5144  156.1590 H   0  0  0  0  0  0  0  0  0  0  0  0
  151.5667  141.9570  157.4887 H   0  0  0  0  0  0  0  0  0  0  0  0
  151.4843  144.2083  158.4961 H   0  0  0  0  0  0  0  0  0  0  0  0
  152.5353  144.6328  160.7105 H   0  0  0  0  0  0  0  0  0  0  0  0
  153.6749  142.7806  161.9178 H   0  0  0  0  0  0  0  0  0  0  0  0
  153.7732  140.5279  160.9380 H   0  0  0  0  0  0  0  0  0  0  0  0
  150.1152  139.9497  156.1147 H   0  0  0  0  0  0  0  0  0  0  0  0
  148.4542  137.9702  155.1265 H   0  0  0  0  0  0  0  0  0  0  0  0
  149.5063  138.4822  157.4093 H   0  0  0  0  0  0  0  0  0  0  0  0
  154.6360  130.8207  157.6687 H   0  0  0  0  0  0  0  0  0  0  0  0
  156.0900  129.6822  156.0240 H   0  0  0  0  0  0  0  0  0  0  0  0
  155.1172  128.7195  153.9459 H   0  0  0  0  0  0  0  0  0  0  0  0
  152.6745  128.9128  153.5148 H   0  0  0  0  0  0  0  0  0  0  0  0
  151.2090  130.0543  155.1402 H   0  0  0  0  0  0  0  0  0  0  0  0
  1  2  2  0  0  0  0
  2  3  1  0  0  0  0
  2 30  1  0  0  0  0
  3  4  1  0  0  0  0
  4  9  1  0  0  0  0
  4  5  2  0  0  0  0
  5  6  1  0  0  0  0
  6  7  2  0  0  0  0
  6 36  1  0  0  0  0
  7  8  1  0  0  0  0
  8 12  1  0  0  0  0
  8  9  2  0  0  0  0
  9 10  1  0  0  0  0
 10 11  2  0  0  0  0
 11 12  1  0  0  0  0
 11 37  1  0  0  0  0
 12 13  1  0  0  0  0
 13 28  1  0  0  0  0
 13 14  1  0  0  0  0
 13 38  1  0  0  0  0
 14 15  1  0  0  0  0
 15 16  1  0  0  0  0
 15 26  1  0  0  0  0
 15 39  1  0  0  0  0
 16 17  1  0  0  0  0
 16 40  1  0  0  0  0
 16 41  1  0  0  0  0
 17 18  1  0  0  0  0
 18 19  2  0  0  0  0
 18 20  1  0  0  0  0
 20 25  1  0  0  0  0
 20 21  2  0  0  0  0
 21 22  1  0  0  0  0
 21 42  1  0  0  0  0
 22 23  2  0  0  0  0
 22 43  1  0  0  0  0
 23 24  1  0  0  0  0
 23 44  1  0  0  0  0
 24 25  2  0  0  0  0
 24 45  1  0  0  0  0
 25 46  1  0  0  0  0
 26 27  1  0  0  0  0
 26 28  1  0  0  0  0
 26 47  1  0  0  0  0
 28 29  1  0  0  0  0
 28 48  1  0  0  0  0
 29 49  1  0  0  0  0
 30 35  1  0  0  0  0
 30 31  2  0  0  0  0
 31 32  1  0  0  0  0
 31 50  1  0  0  0  0
 32 33  2  0  0  0  0
 32 51  1  0  0  0  0
 33 34  1  0  0  0  0
 33 52  1  0  0  0  0
 34 35  2  0  0  0  0
 34 53  1  0  0  0  0
 35 54  1  0  0  0  0
M  CHG  1   3  -1
M  END
> <s_m_source_file>
AV-unprocessed.smi

> <i_m_source_file_index>
34

> <i_lp_mmshare_version>
43012

> <i_f3d_flags>
0

> <s_epik_input>
W2NIXTFbY0hdW2NIXVtjSF1bY0hdYzFDKD1PKVtOSF1jKG5bY0hdbjIpYyhjMjMpbltjSF1uM1tDQEBIXTRPW0NASF0oW0NAQEhdKEYpW0NASF00W09IXSlbQ0gyXU9DKD1PKWM1W2NIXVtjSF1bY0hdW2NIXVtjSF01

> <s_epik_cmdline>
J2VwaWtfcHl0aG9uJywgJy1waCcsICc3LjAnLCAnLXRuJywgJzgnLCAnLW1hJywgJzIwMCcsICctbWV0YWxfYmluZGluZycsICctaW1hZScsICc8aW5maWxlLm1hZT4nLCAnLW9tYWUnLCAnPG91dGZpbGUubWFlPic=

> <r_lp_tautomer_probability>
1

> <r_epik_Ionization_Penalty>
4.33227

> <r_epik_Ionization_Penalty_Charging>
3.41027

> <r_epik_Ionization_Penalty_Neutral>
0.922001

> <r_epik_State_Penalty>
3.41358

> <r_epik_Charging_Adjusted_Penalty>
6.82385

> <i_epik_Tot_Q>
-1

> <i_epik_Tot_abs_Q>
1

> <r_epik_Metal_State_Penalty>
0.496292

> <b_epik_Metal_Only>
1

> <s_epik_Chemistry_Notes>
This compound has an ester and may undergo hydrolysis at high or low pH. This compound contains an acetal/aminal-like group ( X-CH(R)-Y where X, Y are N, S, or O) that may be acid/base labile, releasing an aldehyde.

> <s_lp_Force_Field>
OPLS_2005

> <r_lp_Energy>
50.7645

> <b_lp_Chiralities_Consistent>
1

> <s_lp_Variant>
AV-unprocessed.smi:34-27

> <Gold.Version>
5.8.1

> <Gold.Id.Protein>
6NUR|6NUR_protein|mol2

> <Gold.PLP.Fitness>
57.6567

> <Gold.PLP.PLP>
-56.4004

> <Gold.PLP.part.hbond>
-3.4196

> <Gold.PLP.part.metal>
0.0000

> <Gold.PLP.part.buried>
-2.9880

> <Gold.PLP.part.nonpolar>
-50.5844

> <Gold.PLP.part.repulsive>
0.3241

> <Gold.PLP.ligand.clash>
0.0012

> <Gold.PLP.ligand.torsion>
1.5849

> <Gold.PLP.Chemscore.Hbond>
1.4341

> <Gold.PLP.Chemscore.CHOScore>
0.0000

> <Gold.PLP.Chemscore.Metal>
0.0000

> <Gold.Chemscore.Hbonds>
donor molecule, donor type, donor heavy atom, donor atom, acceptor molecule, acceptor atom, score
      P1  H  6896  6907       L1     1  0.82
      P1  H  6896  6908       L1    10  0.05
      P1  H 10752 10764       L1    14  0.28

> <Gold.PLP.Chemscore.Internal.Correction>
0.1250

> <Gold.Rescore>
     Score         DG    S(hbond)    S(metal)    S(lipo)     H(rot)  DE(clash)    DE(int)     intcor
     14.34     -17.14       1.61        0.00     112.67       2.69       0.06       2.75       ----

> <Gold.Chemscore.Fitness>
14.3370

> <Gold.Chemscore.DG>
-17.1449

> <Gold.Chemscore.ZeroCoef>
-5.4800

> <Gold.Chemscore.Hbond>
1.6108

> <Gold.Chemscore.Metal>
0.0000

> <Gold.Chemscore.Lipo>
112.6692

> <Gold.Chemscore.Internal_Hbond>
0.0000

> <Gold.Chemscore.DEClash>
0.0607

> <Gold.Chemscore.DEInternal>
2.7472

> <Gold.Chemscore.Rot>
2.6944

> <Gold.Chemscore.Internal.Correction>
   9.000000E+99

> <Gold.Chemscore.Hbonds>
donor molecule, donor type, donor heavy atom, donor atom, acceptor molecule, acceptor atom, score
      P1  H  6896  6907       L1     1  0.77
      P1  H  6896  6908       L1    10  0.04
      P1  H 10752 10764       L1    14  0.11

> <Gold.Chemscore.Hbond.Weighted>
-5.3802

> <Gold.Chemscore.Metal.Weighted>
-0.0000

> <Gold.Chemscore.Lipo.Weighted>
-13.1823

> <Gold.Chemscore.Internal_Hbond.Weighted>
0.0000

> <Gold.Chemscore.DEClash.Weighted>
0.0607

> <Gold.Chemscore.DEInternal.Weighted>
2.7472

> <Gold.Chemscore.Rot.Weighted>
6.8975

> <Gold.Chemscore.Internal.Correction.Weighted>
   9.000000E+99

> <Gold.Protein.RotatedTorsions>
[ 6907 6896 6895 6894 ] final  140.47 input  -60.11 | X-H torsion
[ 7974 7965 7964 7962 ] final  -55.12 input  175.53 | X-H torsion
[ 8008 7997 7996 7995 ] final  167.20 input   59.86 | X-H torsion
[ 10167 10162 10161 10158 ] final -161.97 input  -65.29 | X-H torsion
[ 10718 10713 10712 10709 ] final -111.94 input   66.30 | X-H torsion
[ 10763 10752 10751 10750 ] final  -81.05 input  -60.55 | X-H torsion
[ 11005 11000 10999 10996 ] final  111.16 input  -57.11 | X-H torsion

> <Gold.Protein.ActiveResidues>
 VAL166  LYS551  ARG553  GLY616  TRP617  ASP618  TYR619  PRO620  LYS621  CYS622 
 ASP623  PHE694  ASN695  SER759  ASP760  ASP761  ALA762  ILE779  LEU786  VAL792 
 PHE793  MET794  SER795  GLU796  ALA797  LYS798  CYS799  TRP800  GLU811  SER814 

> <Gold.Protein.RotatedAtoms>
  152.2426  133.5148  159.5278 H   0  0  0  0  0  0  0  0  0  0  0  0  # atno 6907 bound_to 6896
  150.7069  134.1068  159.3995 H   0  0  0  0  0  0  0  0  0  0  0  0  # atno 6908 bound_to 6896
  151.8989  135.0386  160.0555 H   0  0  0  0  0  0  0  0  0  0  0  0  # atno 6909 bound_to 6896
  145.8778  140.8167  142.9855 H   0  0  0  0  0  0  0  0  0  0  0  0  # atno 7974 bound_to 7965
  156.1654  140.1623  156.8540 H   0  0  0  0  0  0  0  0  0  0  0  0  # atno 8008 bound_to 7997
  154.5202  140.0780  156.8193 H   0  0  0  0  0  0  0  0  0  0  0  0  # atno 8009 bound_to 7997
  155.3622  140.3396  155.4243 H   0  0  0  0  0  0  0  0  0  0  0  0  # atno 8010 bound_to 7997
  139.6426  144.0231  152.2103 H   0  0  0  0  0  0  0  0  0  0  0  0  # atno 10167 bound_to 10162
  156.0676  130.5894  150.8442 H   0  0  0  0  0  0  0  0  0  0  0  0  # atno 10718 bound_to 10713
  154.5588  135.5640  153.6988 H   0  0  0  0  0  0  0  0  0  0  0  0  # atno 10763 bound_to 10752
  153.0011  135.6268  154.2274 H   0  0  0  0  0  0  0  0  0  0  0  0  # atno 10764 bound_to 10752
  154.2211  135.2869  155.2904 H   0  0  0  0  0  0  0  0  0  0  0  0  # atno 10765 bound_to 10752
  139.8897  134.9501  156.6389 H   0  0  0  0  0  0  0  0  0  0  0  0  # atno 11005 bound_to 11000
  144.6726  140.1337  143.7442 LP  0  0  0  0  0  0  0  0  0  0  0  0  # atno 17320 bound_to 7965
  145.9060  139.2458  143.1466 LP  0  0  0  0  0  0  0  0  0  0  0  0  # atno 17321 bound_to 7965
  139.9925  144.6351  150.7802 LP  0  0  0  0  0  0  0  0  0  0  0  0  # atno 17342 bound_to 10162
  140.7498  143.2945  151.3241 LP  0  0  0  0  0  0  0  0  0  0  0  0  # atno 17343 bound_to 10162
  157.5728  131.0946  150.9391 LP  0  0  0  0  0  0  0  0  0  0  0  0  # atno 17370 bound_to 10713
  156.9604  130.5453  149.5285 LP  0  0  0  0  0  0  0  0  0  0  0  0  # atno 17371 bound_to 10713
  140.7609  133.8818  155.8417 LP  0  0  0  0  0  0  0  0  0  0  0  0  # atno 17394 bound_to 11000
  140.9923  134.1262  157.4396 LP  0  0  0  0  0  0  0  0  0  0  0  0  # atno 17395 bound_to 11000

$$$$
