AV-unprocessed.smi:3069|AV-procd|sdf|11710|dock6
  -GOLD-   2272017113D 1   1.00000     0.00000
 Structure written by MMmdl.
 39 40  0  0  0  0  0  0  0  0  1 V2000
  151.5440  136.9010  154.7980 N   0  0  0  0  0  0  0  0  0  0  0  0
  151.1582  137.9882  154.8879 C   0  0  0  0  0  0  0  0  0  0  0  0
  150.6742  139.3584  154.9992 C   0  0  0  0  0  0  0  0  0  0  0  0
  149.5821  139.6797  154.2679 N   0  0  0  0  0  0  0  0  0  0  0  0
  149.1102  140.9393  154.3833 C   0  0  0  0  0  0  0  0  0  0  0  0
  149.7236  141.8831  155.2300 C   0  0  0  0  0  0  0  0  0  0  0  0
  150.8130  141.5721  155.9640 N   0  0  0  0  0  0  0  0  0  0  0  0
  151.2974  140.3102  155.8543 C   0  0  0  0  0  0  0  0  0  0  0  0
  152.4277  139.9750  156.6196 N   0  0  0  0  0  0  0  0  0  0  0  0
  152.2494  139.0920  157.7673 C   0  0  0  0  0  0  0  0  0  0  0  0
  152.6158  139.7848  159.0886 C   0  0  0  0  0  0  0  0  0  0  0  0
  151.8983  141.0090  159.1601 O   0  0  0  0  0  0  0  0  0  0  0  0
  152.6965  142.1851  159.1125 C   0  0  0  0  0  0  0  0  0  0  0  0
  153.4295  142.2700  160.4649 C   0  0  0  0  0  0  0  0  0  0  0  0
  152.5718  142.7579  161.6448 C   0  0  0  0  0  0  0  0  0  0  0  0
  152.5835  144.2875  161.7997 C   0  0  0  0  0  0  0  0  0  0  0  0
  151.8109  145.0496  160.7133 C   0  0  0  0  0  0  0  0  0  0  0  0
  152.2776  144.7680  159.2741 C   0  0  0  0  0  0  0  0  0  0  0  0
  151.8073  143.4001  158.7524 C   0  0  0  0  0  0  0  0  0  0  0  0
  148.2387  141.1948  153.7989 H   0  0  0  0  0  0  0  0  0  0  0  0
  149.3403  142.8888  155.3185 H   0  0  0  0  0  0  0  0  0  0  0  0
  153.2726  139.8096  156.0911 H   0  0  0  0  0  0  0  0  0  0  0  0
  151.2048  138.7813  157.7954 H   0  0  0  0  0  0  0  0  0  0  0  0
  152.8372  138.1830  157.6371 H   0  0  0  0  0  0  0  0  0  0  0  0
  152.3448  139.1533  159.9353 H   0  0  0  0  0  0  0  0  0  0  0  0
  153.6929  139.9423  159.1396 H   0  0  0  0  0  0  0  0  0  0  0  0
  153.4613  142.0601  158.3440 H   0  0  0  0  0  0  0  0  0  0  0  0
  153.8232  141.2804  160.6998 H   0  0  0  0  0  0  0  0  0  0  0  0
  154.3094  142.9070  160.3671 H   0  0  0  0  0  0  0  0  0  0  0  0
  151.5523  142.3778  161.5712 H   0  0  0  0  0  0  0  0  0  0  0  0
  152.9832  142.3307  162.5599 H   0  0  0  0  0  0  0  0  0  0  0  0
  152.1509  144.5423  162.7677 H   0  0  0  0  0  0  0  0  0  0  0  0
  153.6135  144.6445  161.8350 H   0  0  0  0  0  0  0  0  0  0  0  0
  150.7446  144.8385  160.8042 H   0  0  0  0  0  0  0  0  0  0  0  0
  151.9161  146.1169  160.9101 H   0  0  0  0  0  0  0  0  0  0  0  0
  151.8417  145.5355  158.6336 H   0  0  0  0  0  0  0  0  0  0  0  0
  153.3579  144.8794  159.1763 H   0  0  0  0  0  0  0  0  0  0  0  0
  151.7299  143.4556  157.6664 H   0  0  0  0  0  0  0  0  0  0  0  0
  150.7894  143.2254  159.1015 H   0  0  0  0  0  0  0  0  0  0  0  0
  1  2  3  0  0  0  0
  2  3  1  0  0  0  0
  3  8  1  0  0  0  0
  3  4  2  0  0  0  0
  4  5  1  0  0  0  0
  5  6  2  0  0  0  0
  5 20  1  0  0  0  0
  6  7  1  0  0  0  0
  6 21  1  0  0  0  0
  7  8  2  0  0  0  0
  8  9  1  0  0  0  0
  9 10  1  0  0  0  0
  9 22  1  0  0  0  0
 10 11  1  0  0  0  0
 10 23  1  0  0  0  0
 10 24  1  0  0  0  0
 11 12  1  0  0  0  0
 11 25  1  0  0  0  0
 11 26  1  0  0  0  0
 12 13  1  0  0  0  0
 13 19  1  0  0  0  0
 13 14  1  0  0  0  0
 13 27  1  0  0  0  0
 14 15  1  0  0  0  0
 14 28  1  0  0  0  0
 14 29  1  0  0  0  0
 15 16  1  0  0  0  0
 15 30  1  0  0  0  0
 15 31  1  0  0  0  0
 16 17  1  0  0  0  0
 16 32  1  0  0  0  0
 16 33  1  0  0  0  0
 17 18  1  0  0  0  0
 17 34  1  0  0  0  0
 17 35  1  0  0  0  0
 18 19  1  0  0  0  0
 18 36  1  0  0  0  0
 18 37  1  0  0  0  0
 19 38  1  0  0  0  0
 19 39  1  0  0  0  0
M  END
> <s_m_source_file>
AV-unprocessed.smi

> <i_m_source_file_index>
3069

> <i_lp_mmshare_version>
43012

> <i_f3d_flags>
0

> <s_epik_input>
TiNDYzFuW2NIXVtjSF1uYzFbTkhdW0NIMl1bQ0gyXU9bQ0hdMltDSDJdW0NIMl1bQ0gyXVtDSDJdW0NIMl1bQ0gyXTI=

> <s_epik_cmdline>
J2VwaWtfcHl0aG9uJywgJy1waCcsICc3LjAnLCAnLXRuJywgJzgnLCAnLW1hJywgJzIwMCcsICctbWV0YWxfYmluZGluZycsICctaW1hZScsICc8aW5maWxlLm1hZT4nLCAnLW9tYWUnLCAnPG91dGZpbGUubWFlPic=

> <r_lp_tautomer_probability>
1

> <r_epik_Ionization_Penalty>
5.57718e-05

> <r_epik_Ionization_Penalty_Charging>
0

> <r_epik_Ionization_Penalty_Neutral>
5.57718e-05

> <r_epik_State_Penalty>
-0

> <r_epik_Charging_Adjusted_Penalty>
0

> <i_epik_Tot_Q>
0

> <i_epik_Tot_abs_Q>
0

> <r_epik_Metal_State_Penalty>
-0

> <b_epik_Metal_Only>
0

> <s_lp_Force_Field>
OPLS_2005

> <r_lp_Energy>
28.0763

> <b_lp_Chiralities_Consistent>
1

> <s_lp_Variant>
AV-unprocessed.smi:3069-1

> <Gold.Version>
5.8.1

> <Gold.Id.Protein>
6NUR|6NUR_protein|mol2

> <Gold.PLP.Fitness>
49.5140

> <Gold.PLP.PLP>
-45.4760

> <Gold.PLP.part.hbond>
-2.2392

> <Gold.PLP.part.metal>
0.0000

> <Gold.PLP.part.buried>
-5.4178

> <Gold.PLP.part.nonpolar>
-38.9528

> <Gold.PLP.part.repulsive>
1.0354

> <Gold.PLP.ligand.clash>
0.0000

> <Gold.PLP.ligand.torsion>
0.9957

> <Gold.PLP.Chemscore.Hbond>
0.9920

> <Gold.PLP.Chemscore.CHOScore>
1.0000

> <Gold.PLP.Chemscore.Metal>
0.0000

> <Gold.Chemscore.Hbonds>
donor molecule, donor type, donor heavy atom, donor atom, acceptor molecule, acceptor atom, score
      P1  H 10752 10764       L1     1  1.00
      L1  C     6    21       P1  8028  0.70

> <Gold.PLP.Chemscore.Internal.Correction>
0.0534

> <Gold.Rescore>
     Score         DG    S(hbond)    S(metal)    S(lipo)     H(rot)  DE(clash)    DE(int)     intcor
     15.88     -16.91       1.00        0.00     113.66       2.04       0.12       0.91       ----

> <Gold.Chemscore.Fitness>
15.8766

> <Gold.Chemscore.DG>
-16.9059

> <Gold.Chemscore.ZeroCoef>
-5.4800

> <Gold.Chemscore.Hbond>
1.0000

> <Gold.Chemscore.Metal>
0.0000

> <Gold.Chemscore.Lipo>
113.6564

> <Gold.Chemscore.Internal_Hbond>
0.0000

> <Gold.Chemscore.DEClash>
0.1176

> <Gold.Chemscore.DEInternal>
0.9117

> <Gold.Chemscore.Rot>
2.0359

> <Gold.Chemscore.Internal.Correction>
   9.000000E+99

> <Gold.Chemscore.Hbonds>
donor molecule, donor type, donor heavy atom, donor atom, acceptor molecule, acceptor atom, score
      P1  H 10752 10764       L1     1  0.99

> <Gold.Chemscore.Hbond.Weighted>
-3.3399

> <Gold.Chemscore.Metal.Weighted>
-0.0000

> <Gold.Chemscore.Lipo.Weighted>
-13.2978

> <Gold.Chemscore.Internal_Hbond.Weighted>
0.0000

> <Gold.Chemscore.DEClash.Weighted>
0.1176

> <Gold.Chemscore.DEInternal.Weighted>
0.9117

> <Gold.Chemscore.Rot.Weighted>
5.2119

> <Gold.Chemscore.Internal.Correction.Weighted>
   9.000000E+99

> <Gold.Protein.RotatedTorsions>
[ 6907 6896 6895 6894 ] final   95.44 input  -60.11 | X-H torsion
[ 7974 7965 7964 7962 ] final  116.81 input  175.53 | X-H torsion
[ 8008 7997 7996 7995 ] final  -55.20 input   59.86 | X-H torsion
[ 10167 10162 10161 10158 ] final   -9.46 input  -65.29 | X-H torsion
[ 10718 10713 10712 10709 ] final  -92.19 input   66.30 | X-H torsion
[ 10763 10752 10751 10750 ] final  -57.50 input  -60.55 | X-H torsion
[ 11005 11000 10999 10996 ] final  -28.40 input  -57.11 | X-H torsion

> <Gold.Protein.ActiveResidues>
 VAL166  LYS551  ARG553  GLY616  TRP617  ASP618  TYR619  PRO620  LYS621  CYS622 
 ASP623  PHE694  ASN695  SER759  ASP760  ASP761  ALA762  ILE779  LEU786  VAL792 
 PHE793  MET794  SER795  GLU796  ALA797  LYS798  CYS799  TRP800  GLU811  SER814 

> <Gold.Protein.RotatedAtoms>
  152.5443  134.1040  159.8329 H   0  0  0  0  0  0  0  0  0  0  0  0  # atno 6907 bound_to 6896
  151.1114  133.5163  159.2613 H   0  0  0  0  0  0  0  0  0  0  0  0  # atno 6908 bound_to 6896
  151.1880  135.0399  159.8875 H   0  0  0  0  0  0  0  0  0  0  0  0  # atno 6909 bound_to 6896
  145.1751  139.3080  143.4447 H   0  0  0  0  0  0  0  0  0  0  0  0  # atno 7974 bound_to 7965
  154.4187  140.1158  156.5438 H   0  0  0  0  0  0  0  0  0  0  0  0  # atno 8008 bound_to 7997
  155.6480  140.3496  155.4719 H   0  0  0  0  0  0  0  0  0  0  0  0  # atno 8009 bound_to 7997
  155.9816  140.1161  157.0711 H   0  0  0  0  0  0  0  0  0  0  0  0  # atno 8010 bound_to 7997
  140.7088  143.5856  150.8947 H   0  0  0  0  0  0  0  0  0  0  0  0  # atno 10167 bound_to 10162
  156.0000  130.4977  150.5587 H   0  0  0  0  0  0  0  0  0  0  0  0  # atno 10718 bound_to 10713
  154.2234  135.6373  153.5152 H   0  0  0  0  0  0  0  0  0  0  0  0  # atno 10763 bound_to 10752
  152.9964  135.5502  154.6090 H   0  0  0  0  0  0  0  0  0  0  0  0  # atno 10764 bound_to 10752
  154.5555  135.2905  155.0942 H   0  0  0  0  0  0  0  0  0  0  0  0  # atno 10765 bound_to 10752
  140.9205  133.7402  156.0794 H   0  0  0  0  0  0  0  0  0  0  0  0  # atno 11005 bound_to 11000
  146.3462  140.1910  142.8589 LP  0  0  0  0  0  0  0  0  0  0  0  0  # atno 17320 bound_to 7965
  145.0193  140.8780  143.5176 LP  0  0  0  0  0  0  0  0  0  0  0  0  # atno 17321 bound_to 7965
  139.9581  143.6194  152.3010 LP  0  0  0  0  0  0  0  0  0  0  0  0  # atno 17342 bound_to 10162
  139.6737  144.7659  151.1735 LP  0  0  0  0  0  0  0  0  0  0  0  0  # atno 17343 bound_to 10162
  157.3500  131.0732  151.1721 LP  0  0  0  0  0  0  0  0  0  0  0  0  # atno 17370 bound_to 10713
  157.2540  130.6627  149.5944 LP  0  0  0  0  0  0  0  0  0  0  0  0  # atno 17371 bound_to 10713
  140.7994  134.3526  157.5443 LP  0  0  0  0  0  0  0  0  0  0  0  0  # atno 17394 bound_to 11000
  139.8774  134.9189  156.3213 LP  0  0  0  0  0  0  0  0  0  0  0  0  # atno 17395 bound_to 11000

$$$$
