AV-unprocessed.smi:3259|AV-procd|sdf|12474|dock6
  -GOLD-   2272018373D 1   1.00000     0.00000
 Structure written by MMmdl.
 39 40  0  0  0  0  0  0  0  0  1 V2000
  151.7886  138.3907  154.5258 C   0  0  0  0  0  0  0  0  0  0  0  0
  150.9898  139.5481  154.7388 O   0  0  0  0  0  0  0  0  0  0  0  0
  150.3373  139.6733  156.0100 C   0  0  1  0  0  0  0  0  0  0  0  0
  149.4748  138.4370  156.2940 C   0  0  0  0  0  0  0  0  0  0  0  0
  151.3371  140.1604  157.0764 C   0  0  0  0  0  0  0  0  0  0  0  0
  151.0705  141.5770  156.5714 C   0  0  2  0  0  0  0  0  0  0  0  0
  151.0443  142.5613  157.6476 N   0  0  0  0  0  0  0  0  0  0  0  0
  151.7268  143.7163  157.6370 C   0  0  0  0  0  0  0  0  0  0  0  0
  152.4374  144.0738  156.6981 O   0  0  0  0  0  0  0  0  0  0  0  0
  151.5790  144.6094  158.8700 C   0  0  0  0  0  0  0  0  0  0  0  0
  152.1047  143.9611  160.0587 N   0  0  0  0  0  0  0  0  0  0  0  0
  152.7007  142.7215  160.1672 C   0  0  0  0  0  0  0  0  0  0  0  0
  153.0377  142.5451  161.4786 C   0  0  0  0  0  0  0  0  0  0  0  0
  152.6021  143.7466  162.1039 C   0  0  0  0  0  0  0  0  0  0  0  0
  152.0435  144.5914  161.2523 N   0  0  0  0  0  0  0  0  0  0  0  0
  149.6792  141.0901  156.0902 C   0  0  0  0  0  0  0  0  0  0  0  0
  149.1776  141.6882  154.7709 C   0  0  0  0  0  0  0  0  0  0  0  0
  148.5128  141.2386  157.0856 C   0  0  0  0  0  0  0  0  0  0  0  0
  152.3371  138.5057  153.5912 H   0  0  0  0  0  0  0  0  0  0  0  0
  151.1784  137.4928  154.4315 H   0  0  0  0  0  0  0  0  0  0  0  0
  152.5187  138.2365  155.3195 H   0  0  0  0  0  0  0  0  0  0  0  0
  148.8817  138.5553  157.2002 H   0  0  0  0  0  0  0  0  0  0  0  0
  150.0796  137.5430  156.4444 H   0  0  0  0  0  0  0  0  0  0  0  0
  148.7837  138.2408  155.4741 H   0  0  0  0  0  0  0  0  0  0  0  0
  150.9877  139.9858  158.0958 H   0  0  0  0  0  0  0  0  0  0  0  0
  152.3686  139.8309  156.9569 H   0  0  0  0  0  0  0  0  0  0  0  0
  151.7373  141.8410  155.7470 H   0  0  0  0  0  0  0  0  0  0  0  0
  150.4795  142.3453  158.4559 H   0  0  0  0  0  0  0  0  0  0  0  0
  152.1007  145.5549  158.7146 H   0  0  0  0  0  0  0  0  0  0  0  0
  150.5268  144.8475  159.0325 H   0  0  0  0  0  0  0  0  0  0  0  0
  152.8352  142.0765  159.3116 H   0  0  0  0  0  0  0  0  0  0  0  0
  153.5226  141.6888  161.9231 H   0  0  0  0  0  0  0  0  0  0  0  0
  152.6745  144.0282  163.1440 H   0  0  0  0  0  0  0  0  0  0  0  0
  148.8073  142.7049  154.9062 H   0  0  0  0  0  0  0  0  0  0  0  0
  148.3668  141.0947  154.3475 H   0  0  0  0  0  0  0  0  0  0  0  0
  149.9666  141.7424  154.0205 H   0  0  0  0  0  0  0  0  0  0  0  0
  148.2233  142.2823  157.2131 H   0  0  0  0  0  0  0  0  0  0  0  0
  148.7636  140.8559  158.0747 H   0  0  0  0  0  0  0  0  0  0  0  0
  147.6277  140.6991  156.7469 H   0  0  0  0  0  0  0  0  0  0  0  0
  1  2  1  0  0  0  0
  1 19  1  0  0  0  0
  1 20  1  0  0  0  0
  1 21  1  0  0  0  0
  2  3  1  0  0  0  0
  3 16  1  0  0  0  0
  3  4  1  0  0  0  0
  3  5  1  0  0  0  0
  4 22  1  0  0  0  0
  4 23  1  0  0  0  0
  4 24  1  0  0  0  0
  5  6  1  0  0  0  0
  5 25  1  0  0  0  0
  5 26  1  0  0  0  0
  6  7  1  0  0  0  0
  6 16  1  0  0  0  0
  6 27  1  0  0  0  0
  7  8  1  0  0  0  0
  7 28  1  0  0  0  0
  8  9  2  0  0  0  0
  8 10  1  0  0  0  0
 10 11  1  0  0  0  0
 10 29  1  0  0  0  0
 10 30  1  0  0  0  0
 11 15  1  0  0  0  0
 11 12  1  0  0  0  0
 12 13  2  0  0  0  0
 12 31  1  0  0  0  0
 13 14  1  0  0  0  0
 13 32  1  0  0  0  0
 14 15  2  0  0  0  0
 14 33  1  0  0  0  0
 16 17  1  0  0  0  0
 16 18  1  0  0  0  0
 17 34  1  0  0  0  0
 17 35  1  0  0  0  0
 17 36  1  0  0  0  0
 18 37  1  0  0  0  0
 18 38  1  0  0  0  0
 18 39  1  0  0  0  0
M  END
> <s_m_source_file>
AV-unprocessed.smi

> <i_m_source_file_index>
3259

> <i_lp_mmshare_version>
43012

> <i_f3d_flags>
0

> <s_epik_input>
W0NIM11PW0NAQF0xKFtDSDNdKVtDSDJdW0NASF0oQzEoW0NIM10pW0NIM10pW05IXUMoPU8pW0NIMl1uMltjSF1bY0hdW2NIXW4y

> <s_epik_cmdline>
J2VwaWtfcHl0aG9uJywgJy1waCcsICc3LjAnLCAnLXRuJywgJzgnLCAnLW1hJywgJzIwMCcsICctbWV0YWxfYmluZGluZycsICctaW1hZScsICc8aW5maWxlLm1hZT4nLCAnLW9tYWUnLCAnPG91dGZpbGUubWFlPic=

> <r_lp_tautomer_probability>
1

> <r_epik_Ionization_Penalty>
1.78399e-05

> <r_epik_Ionization_Penalty_Charging>
0

> <r_epik_Ionization_Penalty_Neutral>
1.78399e-05

> <r_epik_State_Penalty>
-0

> <r_epik_Charging_Adjusted_Penalty>
0

> <i_epik_Tot_Q>
0

> <i_epik_Tot_abs_Q>
0

> <r_epik_Metal_State_Penalty>
-0

> <b_epik_Metal_Only>
0

> <s_lp_Force_Field>
OPLS_2005

> <r_lp_Energy>
23.5096

> <b_lp_Chiralities_Consistent>
1

> <s_lp_Variant>
AV-unprocessed.smi:3259-3

> <Gold.Version>
5.8.1

> <Gold.Id.Protein>
6NUR|6NUR_protein|mol2

> <Gold.PLP.Fitness>
39.4577

> <Gold.PLP.PLP>
-36.5191

> <Gold.PLP.part.hbond>
-1.0000

> <Gold.PLP.part.metal>
0.0000

> <Gold.PLP.part.buried>
-1.7015

> <Gold.PLP.part.nonpolar>
-34.1430

> <Gold.PLP.part.repulsive>
0.5460

> <Gold.PLP.ligand.clash>
0.0000

> <Gold.PLP.ligand.torsion>
0.2180

> <Gold.PLP.Chemscore.Hbond>
1.0000

> <Gold.PLP.Chemscore.CHOScore>
0.0000

> <Gold.PLP.Chemscore.Metal>
0.0000

> <Gold.Chemscore.Hbonds>
donor molecule, donor type, donor heavy atom, donor atom, acceptor molecule, acceptor atom, score
      P1  H  7989  7998       L1     2  1.00

> <Gold.PLP.Chemscore.Internal.Correction>
0.3747

> <Gold.Rescore>
     Score         DG    S(hbond)    S(metal)    S(lipo)     H(rot)  DE(clash)    DE(int)     intcor
     13.04     -15.50       0.92        0.00      94.42       1.60       1.99       0.47       ----

> <Gold.Chemscore.Fitness>
13.0441

> <Gold.Chemscore.DG>
-15.4996

> <Gold.Chemscore.ZeroCoef>
-5.4800

> <Gold.Chemscore.Hbond>
0.9158

> <Gold.Chemscore.Metal>
0.0000

> <Gold.Chemscore.Lipo>
94.4180

> <Gold.Chemscore.Internal_Hbond>
0.0000

> <Gold.Chemscore.DEClash>
1.9857

> <Gold.Chemscore.DEInternal>
0.4698

> <Gold.Chemscore.Rot>
1.5962

> <Gold.Chemscore.Internal.Correction>
   9.000000E+99

> <Gold.Chemscore.Hbonds>
donor molecule, donor type, donor heavy atom, donor atom, acceptor molecule, acceptor atom, score
      P1  H  7989  7998       L1     2  0.50

> <Gold.Chemscore.Hbond.Weighted>
-3.0589

> <Gold.Chemscore.Metal.Weighted>
-0.0000

> <Gold.Chemscore.Lipo.Weighted>
-11.0469

> <Gold.Chemscore.Internal_Hbond.Weighted>
0.0000

> <Gold.Chemscore.DEClash.Weighted>
1.9857

> <Gold.Chemscore.DEInternal.Weighted>
0.4698

> <Gold.Chemscore.Rot.Weighted>
4.0862

> <Gold.Chemscore.Internal.Correction.Weighted>
   9.000000E+99

> <Gold.Protein.RotatedTorsions>
[ 6907 6896 6895 6894 ] final   61.54 input  -60.11 | X-H torsion
[ 7974 7965 7964 7962 ] final  -52.97 input  175.53 | X-H torsion
[ 8008 7997 7996 7995 ] final   -8.99 input   59.86 | X-H torsion
[ 10167 10162 10161 10158 ] final -179.25 input  -65.29 | X-H torsion
[ 10718 10713 10712 10709 ] final   49.57 input   66.30 | X-H torsion
[ 10763 10752 10751 10750 ] final    8.72 input  -60.55 | X-H torsion
[ 11005 11000 10999 10996 ] final   33.87 input  -57.11 | X-H torsion

> <Gold.Protein.ActiveResidues>
 VAL166  LYS551  ARG553  GLY616  TRP617  ASP618  TYR619  PRO620  LYS621  CYS622 
 ASP623  PHE694  ASN695  SER759  ASP760  ASP761  ALA762  ILE779  LEU786  VAL792 
 PHE793  MET794  SER795  GLU796  ALA797  LYS798  CYS799  TRP800  GLU811  SER814 

> <Gold.Protein.RotatedAtoms>
  152.4097  134.6146  160.0034 H   0  0  0  0  0  0  0  0  0  0  0  0  # atno 6907 bound_to 6896
  151.6327  133.3325  159.3120 H   0  0  0  0  0  0  0  0  0  0  0  0  # atno 6908 bound_to 6896
  150.7989  134.7109  159.6648 H   0  0  0  0  0  0  0  0  0  0  0  0  # atno 6909 bound_to 6896
  145.9021  140.7986  142.9738 H   0  0  0  0  0  0  0  0  0  0  0  0  # atno 7974 bound_to 7965
  154.5688  140.2366  155.8222 H   0  0  0  0  0  0  0  0  0  0  0  0  # atno 8008 bound_to 7997
  156.2090  140.3031  155.9649 H   0  0  0  0  0  0  0  0  0  0  0  0  # atno 8009 bound_to 7997
  155.2750  140.0420  157.3001 H   0  0  0  0  0  0  0  0  0  0  0  0  # atno 8010 bound_to 7997
  139.5395  144.2403  152.0865 H   0  0  0  0  0  0  0  0  0  0  0  0  # atno 10167 bound_to 10162
  157.4800  130.8309  149.8082 H   0  0  0  0  0  0  0  0  0  0  0  0  # atno 10718 bound_to 10713
  153.2219  135.6882  153.7990 H   0  0  0  0  0  0  0  0  0  0  0  0  # atno 10763 bound_to 10752
  153.7186  135.3271  155.3263 H   0  0  0  0  0  0  0  0  0  0  0  0  # atno 10764 bound_to 10752
  154.8273  135.4607  154.1069 H   0  0  0  0  0  0  0  0  0  0  0  0  # atno 10765 bound_to 10752
  140.2587  134.3218  155.7865 H   0  0  0  0  0  0  0  0  0  0  0  0  # atno 11005 bound_to 11000
  144.6736  140.1693  143.7416 LP  0  0  0  0  0  0  0  0  0  0  0  0  # atno 17320 bound_to 7965
  145.8778  139.2306  143.1623 LP  0  0  0  0  0  0  0  0  0  0  0  0  # atno 17321 bound_to 7965
  140.1879  144.4780  150.6494 LP  0  0  0  0  0  0  0  0  0  0  0  0  # atno 17342 bound_to 10162
  140.6618  143.2254  151.5838 LP  0  0  0  0  0  0  0  0  0  0  0  0  # atno 17343 bound_to 10162
  156.0116  130.3831  150.2245 LP  0  0  0  0  0  0  0  0  0  0  0  0  # atno 17370 bound_to 10713
  157.0431  131.0041  151.3277 LP  0  0  0  0  0  0  0  0  0  0  0  0  # atno 17371 bound_to 10713
  141.2193  133.7396  156.9152 LP  0  0  0  0  0  0  0  0  0  0  0  0  # atno 17394 bound_to 11000
  140.1486  134.9245  157.2563 LP  0  0  0  0  0  0  0  0  0  0  0  0  # atno 17395 bound_to 11000

$$$$
