#       Name:                AV-unprocessed.smi:2820
#       Creating user name   scv26
#       Creation time:       Fri Mar 27 15:29:55 2020


#       File generated by GOLD software.
#

@<TRIPOS>MOLECULE
AV-unprocessed.smi:2820
    33    34     1
SMALL
NO_CHARGES


@<TRIPOS>ATOM
      1 ****        -4.7436   1.5204  -0.0050 C.3            1 S1                 0.0000
      2 ****        -4.0123   0.2643  -0.0029 N.pl3          1 S1                 0.0000
      3 ****        -2.6103   0.2471  -0.0046 C.ar           1 S1                 0.0000
      4 ****        -1.8190   1.4192  -0.0040 C.ar           1 S1                 0.0000
      5 ****        -0.4161   1.2964  -0.0052 C.ar           1 S1                 0.0000
      6 ****         0.1534   0.0064  -0.0075 C.ar           1 S1                 0.0000
      7 ****         1.5497  -0.1213  -0.0064 N.3            1 S1                 0.0000
      8 ****         2.0757  -0.7166   1.2158 C.3            1 S1                 0.0000
      9 ****         3.6139  -0.7032   1.1879 C.3            1 S1                 0.0000
     10 ****         4.0770  -1.3712   0.0175 O.3            1 S1                 0.0000
     11 ****         3.6166  -0.7423  -1.1754 C.3            1 S1                 0.0000
     12 ****         2.0785  -0.7583  -1.2064 C.3            1 S1                 0.0000
     13 ****        -0.5967  -1.1207  -0.0082 N.ar           1 S1                 0.0000
     14 ****        -1.9405  -0.9946  -0.0067 C.ar           1 S1                 0.0000
     15 ****        -5.8159   1.3246  -0.0057 H              1 S1                 0.0000
     16 ****        -4.5052   2.1069  -0.8928 H              1 S1                 0.0000
     17 ****        -4.5067   2.1090   0.8818 H              1 S1                 0.0000
     18 ****        -4.5285  -0.6040  -0.0045 H              1 S1                 0.0000
     19 ****        -2.2631   2.4035  -0.0024 H              1 S1                 0.0000
     20 ****         0.2089   2.1774  -0.0044 H              1 S1                 0.0000
     21 ****         1.7110  -0.1651   2.0833 H              1 S1                 0.0000
     22 ****         1.7173  -1.7426   1.3106 H              1 S1                 0.0000
     23 ****         3.9946   0.3191   1.2103 H              1 S1                 0.0000
     24 ****         4.0107  -1.2106   2.0672 H              1 S1                 0.0000
     25 ****         3.9964   0.2791  -1.2303 H              1 S1                 0.0000
     26 ****         4.0160  -1.2779  -2.0366 H              1 S1                 0.0000
     27 ****         1.7218  -1.7874  -1.2667 H              1 S1                 0.0000
     28 ****         1.7151  -0.2371  -2.0928 H              1 S1                 0.0000
     29 ****        -2.4991  -1.9193  -0.0070 H              1 S1                 0.0000
     30 ****         1.8892   0.8191  -0.0245 LP             1 S1                 0.0000
     31 ****         3.7467  -2.3150   0.0328 LP             1 S1                 0.0000
     32 ****         5.0770  -1.3680   0.0186 LP             1 S1                 0.0000
     33 ****        -0.1662  -2.0233  -0.0097 LP             1 S1                 0.0000
@<TRIPOS>BOND
    1    1    2 1     
    2    1   15 1     
    3    1   16 1     
    4    1   17 1     
    5    2    3 1     
    6    2   18 1     
    7    3   14 ar    
    8    3    4 ar    
    9    4    5 ar    
   10    4   19 1     
   11    5    6 ar    
   12    5   20 1     
   13    6    7 1     
   14    6   13 ar    
   15    7   12 1     
   16    7    8 1     
   17    8    9 1     
   18    8   21 1     
   19    8   22 1     
   20    9   10 1     
   21    9   23 1     
   22    9   24 1     
   23   10   11 1     
   24   11   12 1     
   25   11   25 1     
   26   11   26 1     
   27   12   27 1     
   28   12   28 1     
   29   13   14 ar    
   30   14   29 1     
   31    7   30 1     
   32   10   31 1     
   33   10   32 1     
   34   13   33 1     
@<TRIPOS>SUBSTRUCTURE
      1 S1             1
@<TRIPOS>SET
LONE_PAIRS      STATIC     ATOMS    <user>   **** ""
4 30 31 32 33
DONOR_HYDROGENS      STATIC     ATOMS    <user>   **** ""
1 18
ATOM$BLUE        STATIC     ATOMS    COLORGROUP SYSTEM
4 30 31 32 33
ATOM$RED        STATIC     ATOMS    COLORGROUP SYSTEM
1 18
