AV-unprocessed.smi:54|AV-procd|sdf|529|dock4
  -GOLD-   2262016403D 1   1.00000     0.00000
 Structure written by MMmdl.
 44 46  0  0  0  0  0  0  0  0  1 V2000
  155.7502  135.2898  159.9810 C   0  0  0  0  0  0  0  0  0  0  0  0
  155.4426  136.5013  160.8761 C   0  0  0  0  0  0  0  0  0  0  0  0
  155.1751  136.0700  162.3272 C   0  0  0  0  0  0  0  0  0  0  0  0
  154.2532  137.2941  160.3234 C   0  0  0  0  0  0  0  0  0  0  0  0
  153.1395  136.7884  160.1848 O   0  0  0  0  0  0  0  0  0  0  0  0
  154.5339  138.6711  159.9640 N   0  0  0  0  0  0  0  0  0  0  0  0
  153.6590  139.5837  159.4832 C   0  0  0  0  0  0  0  0  0  0  0  0
  153.1393  139.5169  158.2653 N   0  0  0  0  0  0  0  0  0  0  0  0
  152.2446  140.5101  157.9702 C   0  0  0  0  0  0  0  0  0  0  0  0
  151.8597  141.5377  158.8085 C   0  0  0  0  0  0  0  0  0  0  0  0
  150.9361  142.3589  158.1729 N   0  0  0  0  0  0  0  0  0  0  0  0
  150.7858  141.8144  156.9987 C   0  0  0  0  0  0  0  0  0  0  0  0
  151.5427  140.6868  156.7920 N   0  0  0  0  0  0  0  0  0  0  0  0
  151.5896  139.8414  155.5597 C   0  0  2  0  0  0  0  0  0  0  0  0
  150.5768  140.2646  154.6992 O   0  0  0  0  0  0  0  0  0  0  0  0
  149.9151  139.1351  154.1414 C   0  0  2  0  0  0  0  0  0  0  0  0
  148.4901  139.5261  153.7195 C   0  0  0  0  0  0  0  0  0  0  0  0
  148.0472  138.6903  152.6716 O   0  0  0  0  0  0  0  0  0  0  0  0
  149.9646  138.1212  155.2859 C   0  0  1  0  0  0  0  0  0  0  0  0
  149.7699  136.7884  154.8507 O   0  0  0  0  0  0  0  0  0  0  0  0
  151.3399  138.3638  155.9008 C   0  0  1  0  0  0  0  0  0  0  0  0
  152.3385  137.5390  155.3278 O   0  0  0  0  0  0  0  0  0  0  0  0
  152.4148  141.6233  160.1283 C   0  0  0  0  0  0  0  0  0  0  0  0
  152.1890  142.4629  160.9970 O   0  0  0  0  0  0  0  0  0  0  0  0
  153.3167  140.5852  160.3902 N   0  0  0  0  0  0  0  0  0  0  0  0
  152.5730  140.0345  155.1280 H   0  0  0  0  0  0  0  0  0  0  0  0
  150.4934  138.7592  153.2947 H   0  0  0  0  0  0  0  0  0  0  0  0
  149.2008  138.3588  156.0247 H   0  0  0  0  0  0  0  0  0  0  0  0
  151.3331  138.2035  156.9800 H   0  0  0  0  0  0  0  0  0  0  0  0
  155.9349  135.5948  158.9501 H   0  0  0  0  0  0  0  0  0  0  0  0
  154.9259  134.5754  159.9743 H   0  0  0  0  0  0  0  0  0  0  0  0
  156.6394  134.7640  160.3299 H   0  0  0  0  0  0  0  0  0  0  0  0
  156.3174  137.1532  160.8736 H   0  0  0  0  0  0  0  0  0  0  0  0
  154.9491  136.9285  162.9611 H   0  0  0  0  0  0  0  0  0  0  0  0
  156.0470  135.5715  162.7521 H   0  0  0  0  0  0  0  0  0  0  0  0
  154.3347  135.3773  162.3929 H   0  0  0  0  0  0  0  0  0  0  0  0
  155.4960  138.9642  160.0496 H   0  0  0  0  0  0  0  0  0  0  0  0
  150.1199  142.2213  156.2515 H   0  0  0  0  0  0  0  0  0  0  0  0
  147.8006  139.3982  154.5545 H   0  0  0  0  0  0  0  0  0  0  0  0
  148.4392  140.5713  153.4140 H   0  0  0  0  0  0  0  0  0  0  0  0
  148.5552  138.8835  151.8986 H   0  0  0  0  0  0  0  0  0  0  0  0
  149.6494  136.7952  153.9134 H   0  0  0  0  0  0  0  0  0  0  0  0
  153.0886  138.0768  155.1239 H   0  0  0  0  0  0  0  0  0  0  0  0
  153.7421  140.5780  161.3057 H   0  0  0  0  0  0  0  0  0  0  0  0
  1  2  1  0  0  0  0
  1 30  1  0  0  0  0
  1 31  1  0  0  0  0
  1 32  1  0  0  0  0
  2  3  1  0  0  0  0
  2  4  1  0  0  0  0
  2 33  1  0  0  0  0
  3 34  1  0  0  0  0
  3 35  1  0  0  0  0
  3 36  1  0  0  0  0
  4  5  2  0  0  0  0
  4  6  1  0  0  0  0
  6 37  1  0  0  0  0
  6  7  1  0  0  0  0
  7 25  1  0  0  0  0
  7  8  2  0  0  0  0
  8  9  1  0  0  0  0
  9 13  1  0  0  0  0
  9 10  2  0  0  0  0
 10 11  1  0  0  0  0
 10 23  1  0  0  0  0
 11 12  2  0  0  0  0
 12 13  1  0  0  0  0
 12 38  1  0  0  0  0
 13 14  1  0  0  0  0
 14 26  1  0  0  0  0
 14 21  1  0  0  0  0
 14 15  1  0  0  0  0
 15 16  1  0  0  0  0
 16 27  1  0  0  0  0
 16 17  1  0  0  0  0
 16 19  1  0  0  0  0
 17 18  1  0  0  0  0
 17 39  1  0  0  0  0
 17 40  1  0  0  0  0
 18 41  1  0  0  0  0
 19 28  1  0  0  0  0
 19 20  1  0  0  0  0
 19 21  1  0  0  0  0
 20 42  1  0  0  0  0
 21 29  1  0  0  0  0
 21 22  1  0  0  0  0
 22 43  1  0  0  0  0
 23 24  2  0  0  0  0
 23 25  1  0  0  0  0
 25 44  1  0  0  0  0
M  END
> <s_m_source_file>
AV-unprocessed.smi

> <i_m_source_file_index>
54

> <i_lp_mmshare_version>
43012

> <i_f3d_flags>
0

> <s_epik_input>
W0NIM11bQ0hdKFtDSDNdKUMoPU8pW05IXWMobjEpW25IXWMoPU8pYyhjMTIpbltjSF1uMltDQEBIXTNPW0NASF0oW0NIMl1bT0hdKVtDQEBIXShbT0hdKVtDQEhdM1tPSF0=

> <s_epik_cmdline>
J2VwaWtfcHl0aG9uJywgJy1waCcsICc3LjAnLCAnLXRuJywgJzgnLCAnLW1hJywgJzIwMCcsICctbWV0YWxfYmluZGluZycsICctaW1hZScsICc8aW5maWxlLm1hZT4nLCAnLW9tYWUnLCAnPG91dGZpbGUubWFlPic=

> <r_lp_tautomer_probability>
0.85571

> <r_epik_Ionization_Penalty>
0.0316551

> <r_epik_Ionization_Penalty_Charging>
0.0316043

> <r_epik_Ionization_Penalty_Neutral>
5.07097e-05

> <r_epik_State_Penalty>
3.15494e-07

> <r_epik_Charging_Adjusted_Penalty>
0.0316047

> <i_epik_Tot_Q>
0

> <i_epik_Tot_abs_Q>
0

> <r_epik_Metal_State_Penalty>
0.421206

> <b_epik_Metal_Only>
0

> <s_epik_Chemistry_Notes>
This compound contains an acetal/aminal-like group ( X-CH(R)-Y where X, Y are N, S, or O) that may be acid/base labile, releasing an aldehyde.

> <s_lp_Force_Field>
OPLS_2005

> <r_lp_Energy>
41.8927

> <b_lp_Chiralities_Consistent>
1

> <s_lp_Variant>
AV-unprocessed.smi:54-1

> <Gold.Version>
5.8.1

> <Gold.Id.Protein>
6NUR|6NUR_protein|mol2

> <Gold.PLP.Fitness>
47.5199

> <Gold.PLP.PLP>
-33.9772

> <Gold.PLP.part.hbond>
-7.1940

> <Gold.PLP.part.metal>
0.0000

> <Gold.PLP.part.buried>
-2.3400

> <Gold.PLP.part.nonpolar>
-24.4304

> <Gold.PLP.part.repulsive>
0.3513

> <Gold.PLP.ligand.clash>
0.0000

> <Gold.PLP.ligand.torsion>
1.1773

> <Gold.PLP.Chemscore.Hbond>
4.9053

> <Gold.PLP.Chemscore.CHOScore>
0.3847

> <Gold.PLP.Chemscore.Metal>
0.0000

> <Gold.Chemscore.Hbonds>
donor molecule, donor type, donor heavy atom, donor atom, acceptor molecule, acceptor atom, score
      L1  H    18    41       P1  7957  0.93
      L1  H    20    42       P1  7948  0.55
      P1  H  6896  6909       L1     5  0.93
      P1  H  7989  7998       L1    15  0.80
      P1  H  7997  8009       L1     8  0.85
      P1  H 10752 10765       L1    22  0.50
      L1  C    12    38       P1  8028  0.20

> <Gold.PLP.Chemscore.Internal.Correction>
0.0272

> <Gold.Rescore>
     Score         DG    S(hbond)    S(metal)    S(lipo)     H(rot)  DE(clash)    DE(int)     intcor
      9.12     -10.49       3.32        0.00      36.75       4.05       0.18       1.19       ----

> <Gold.Chemscore.Fitness>
9.1231

> <Gold.Chemscore.DG>
-10.4905

> <Gold.Chemscore.ZeroCoef>
-5.4800

> <Gold.Chemscore.Hbond>
3.3166

> <Gold.Chemscore.Metal>
0.0000

> <Gold.Chemscore.Lipo>
36.7467

> <Gold.Chemscore.Internal_Hbond>
0.0000

> <Gold.Chemscore.DEClash>
0.1764

> <Gold.Chemscore.DEInternal>
1.1910

> <Gold.Chemscore.Rot>
4.0493

> <Gold.Chemscore.Internal.Correction>
   9.000000E+99

> <Gold.Chemscore.Hbonds>
donor molecule, donor type, donor heavy atom, donor atom, acceptor molecule, acceptor atom, score
      L1  H    18    41       P1  7957  0.76
      L1  H    20    42       P1  7948  0.42
      P1  H  6896  6909       L1     5  0.89
      P1  H  7989  7998       L1    15  0.07
      P1  H  7997  8009       L1     8  0.09
      P1  H 10752 10765       L1    22  0.17

> <Gold.Chemscore.Hbond.Weighted>
-11.0773

> <Gold.Chemscore.Metal.Weighted>
-0.0000

> <Gold.Chemscore.Lipo.Weighted>
-4.2994

> <Gold.Chemscore.Internal_Hbond.Weighted>
0.0000

> <Gold.Chemscore.DEClash.Weighted>
0.1764

> <Gold.Chemscore.DEInternal.Weighted>
1.1910

> <Gold.Chemscore.Rot.Weighted>
10.3662

> <Gold.Chemscore.Internal.Correction.Weighted>
   9.000000E+99

> <Gold.Protein.RotatedTorsions>
[ 6907 6896 6895 6894 ] final  154.88 input  -60.11 | X-H torsion
[ 7974 7965 7964 7962 ] final  105.79 input  175.53 | X-H torsion
[ 8008 7997 7996 7995 ] final  159.19 input   59.86 | X-H torsion
[ 10167 10162 10161 10158 ] final  164.72 input  -65.29 | X-H torsion
[ 10718 10713 10712 10709 ] final  -66.87 input   66.30 | X-H torsion
[ 10763 10752 10751 10750 ] final -178.14 input  -60.55 | X-H torsion
[ 11005 11000 10999 10996 ] final -142.07 input  -57.11 | X-H torsion

> <Gold.Protein.ActiveResidues>
 VAL166  LYS551  ARG553  GLY616  TRP617  ASP618  TYR619  PRO620  LYS621  CYS622 
 ASP623  PHE694  ASN695  SER759  ASP760  ASP761  ALA762  ILE779  LEU786  VAL792 
 PHE793  MET794  SER795  GLU796  ALA797  LYS798  CYS799  TRP800  GLU811  SER814 

> <Gold.Protein.RotatedAtoms>
  152.0522  133.4024  159.4381 H   0  0  0  0  0  0  0  0  0  0  0  0  # atno 6907 bound_to 6896
  150.6869  134.3295  159.4830 H   0  0  0  0  0  0  0  0  0  0  0  0  # atno 6908 bound_to 6896
  152.1107  134.9276  160.0617 H   0  0  0  0  0  0  0  0  0  0  0  0  # atno 6909 bound_to 6896
  145.3150  139.2529  143.3742 H   0  0  0  0  0  0  0  0  0  0  0  0  # atno 7974 bound_to 7965
  156.2255  140.1838  156.7374 H   0  0  0  0  0  0  0  0  0  0  0  0  # atno 8008 bound_to 7997
  154.5934  140.0647  156.9298 H   0  0  0  0  0  0  0  0  0  0  0  0  # atno 8009 bound_to 7997
  155.2298  140.3314  155.4307 H   0  0  0  0  0  0  0  0  0  0  0  0  # atno 8010 bound_to 7997
  139.4893  144.4206  151.9191 H   0  0  0  0  0  0  0  0  0  0  0  0  # atno 10167 bound_to 10162
  156.0588  130.4269  150.1772 H   0  0  0  0  0  0  0  0  0  0  0  0  # atno 10718 bound_to 10713
  154.5514  135.2813  155.1004 H   0  0  0  0  0  0  0  0  0  0  0  0  # atno 10763 bound_to 10752
  154.2448  135.6350  153.5223 H   0  0  0  0  0  0  0  0  0  0  0  0  # atno 10764 bound_to 10752
  153.0004  135.5568  154.6082 H   0  0  0  0  0  0  0  0  0  0  0  0  # atno 10765 bound_to 10752
  140.8262  134.2572  157.4878 H   0  0  0  0  0  0  0  0  0  0  0  0  # atno 11005 bound_to 11000
  146.3103  140.3695  142.8673 LP  0  0  0  0  0  0  0  0  0  0  0  0  # atno 17320 bound_to 7965
  144.8985  140.7613  143.5882 LP  0  0  0  0  0  0  0  0  0  0  0  0  # atno 17321 bound_to 7965
  140.3650  144.2926  150.5928 LP  0  0  0  0  0  0  0  0  0  0  0  0  # atno 17342 bound_to 10162
  140.5369  143.2231  151.8147 LP  0  0  0  0  0  0  0  0  0  0  0  0  # atno 17343 bound_to 10162
  156.9844  130.9874  151.3430 LP  0  0  0  0  0  0  0  0  0  0  0  0  # atno 17370 bound_to 10713
  157.5581  130.8227  149.8230 LP  0  0  0  0  0  0  0  0  0  0  0  0  # atno 17371 bound_to 10713
  139.8706  134.9562  156.4229 LP  0  0  0  0  0  0  0  0  0  0  0  0  # atno 17394 bound_to 11000
  140.9047  133.7755  155.9720 LP  0  0  0  0  0  0  0  0  0  0  0  0  # atno 17395 bound_to 11000

$$$$
