AV-unprocessed.smi:1240|AV-procd|sdf|5203|dock8
  -GOLD-   22720 4293D 1   1.00000     0.00000
 Structure written by MMmdl.
 48 50  0  0  0  0  0  0  0  0  2 V2000
  147.2238  132.5695  153.9347 O   0  0  0  0  0  0  0  0  0  0  0  0
  147.6975  133.6041  153.4661 C   0  0  0  0  0  0  0  0  0  0  0  0
  148.8633  134.1308  153.8683 N   0  0  0  0  0  0  0  0  0  0  0  0
  149.7231  133.5743  154.9085 C   0  0  0  0  0  0  0  0  0  0  0  0
  149.8318  134.4472  156.2059 C   0  0  2  0  0  0  0  0  0  0  0  0
  148.7170  134.0054  157.2252 C   0  0  2  0  0  0  0  0  0  0  0  0
  148.7315  132.5676  157.7218 C   0  0  0  0  0  0  0  0  0  0  0  0
  147.3652  132.4285  158.3767 C   0  0  0  0  0  0  0  0  0  0  0  0
  146.4945  133.1795  157.5460 O   0  0  0  0  0  0  0  0  0  0  0  0
  147.2571  134.0732  156.7409 C   0  0  0  0  0  0  0  0  0  0  0  0
  149.7790  135.9170  155.9493 N   0  0  0  0  0  0  0  0  0  0  0  0
  150.6838  136.4192  154.9073 C   0  0  0  0  0  0  0  0  0  0  0  0
  150.5469  137.9360  154.6815 C   0  0  0  0  0  0  0  0  0  0  0  0
  150.7851  138.6298  155.8984 O   0  0  0  0  0  0  0  0  0  0  0  0
  149.9034  138.2162  156.9330 C   0  0  0  0  0  0  0  0  0  0  0  0
  150.0555  136.7030  157.1603 C   0  0  0  0  0  0  0  0  0  0  0  0
  147.1226  134.3646  152.5182 N   0  0  0  0  0  0  0  0  0  0  0  0
  145.8807  134.1703  151.8538 C   0  0  0  0  0  0  0  0  0  0  0  0
  145.3874  135.2378  151.0708 C   0  0  0  0  0  0  0  0  0  0  0  0
  144.1670  135.0897  150.3808 C   0  0  0  0  0  0  0  0  0  0  0  0
  143.4836  133.9284  150.4651 N   0  3  0  0  0  0  0  0  0  0  0  0
  143.9205  132.8755  151.1890 C   0  0  0  0  0  0  0  0  0  0  0  0
  145.1346  132.9646  151.9005 C   0  0  0  0  0  0  0  0  0  0  0  0
  149.1768  134.9861  153.4329 H   0  0  0  0  0  0  0  0  0  0  0  0
  149.3023  132.5896  155.1097 H   0  0  0  0  0  0  0  0  0  0  0  0
  150.7135  133.4034  154.4852 H   0  0  0  0  0  0  0  0  0  0  0  0
  150.8040  134.2236  156.6475 H   0  0  0  0  0  0  0  0  0  0  0  0
  148.8029  134.6454  158.1052 H   0  0  0  0  0  0  0  0  0  0  0  0
  148.7976  131.8713  156.8845 H   0  0  0  0  0  0  0  0  0  0  0  0
  149.5377  132.3603  158.4262 H   0  0  0  0  0  0  0  0  0  0  0  0
  147.0430  131.3907  158.4642 H   0  0  0  0  0  0  0  0  0  0  0  0
  147.3723  132.8710  159.3737 H   0  0  0  0  0  0  0  0  0  0  0  0
  146.8375  135.0763  156.8172 H   0  0  0  0  0  0  0  0  0  0  0  0
  147.1752  133.7435  155.7045 H   0  0  0  0  0  0  0  0  0  0  0  0
  151.7177  136.1824  155.1632 H   0  0  0  0  0  0  0  0  0  0  0  0
  150.4652  135.9412  153.9529 H   0  0  0  0  0  0  0  0  0  0  0  0
  151.2645  138.2740  153.9340 H   0  0  0  0  0  0  0  0  0  0  0  0
  149.5528  138.1812  154.3044 H   0  0  0  0  0  0  0  0  0  0  0  0
  150.1463  138.7625  157.8442 H   0  0  0  0  0  0  0  0  0  0  0  0
  148.8740  138.4675  156.6723 H   0  0  0  0  0  0  0  0  0  0  0  0
  149.4089  136.4300  157.9847 H   0  0  0  0  0  0  0  0  0  0  0  0
  151.0714  136.4978  157.5020 H   0  0  0  0  0  0  0  0  0  0  0  0
  147.6041  135.2224  152.2908 H   0  0  0  0  0  0  0  0  0  0  0  0
  145.9348  136.1668  151.0009 H   0  0  0  0  0  0  0  0  0  0  0  0
  143.7216  135.8591  149.7671 H   0  0  0  0  0  0  0  0  0  0  0  0
  143.2932  131.9961  151.1728 H   0  0  0  0  0  0  0  0  0  0  0  0
  145.4721  132.1033  152.4558 H   0  0  0  0  0  0  0  0  0  0  0  0
  142.6029  133.8405  149.9571 H   0  0  0  0  0  0  0  0  0  0  0  0
  1  2  2  0  0  0  0
  2  3  1  0  0  0  0
  2 17  1  0  0  0  0
  3  4  1  0  0  0  0
  3 24  1  0  0  0  0
  4  5  1  0  0  0  0
  4 25  1  0  0  0  0
  4 26  1  0  0  0  0
  5  6  1  0  0  0  0
  5 11  1  0  0  0  0
  5 27  1  0  0  0  0
  6 10  1  0  0  0  0
  6  7  1  0  0  0  0
  6 28  1  0  0  0  0
  7  8  1  0  0  0  0
  7 29  1  0  0  0  0
  7 30  1  0  0  0  0
  8  9  1  0  0  0  0
  8 31  1  0  0  0  0
  8 32  1  0  0  0  0
  9 10  1  0  0  0  0
 10 33  1  0  0  0  0
 10 34  1  0  0  0  0
 11 16  1  0  0  0  0
 11 12  1  0  0  0  0
 12 13  1  0  0  0  0
 12 35  1  0  0  0  0
 12 36  1  0  0  0  0
 13 14  1  0  0  0  0
 13 37  1  0  0  0  0
 13 38  1  0  0  0  0
 14 15  1  0  0  0  0
 15 16  1  0  0  0  0
 15 39  1  0  0  0  0
 15 40  1  0  0  0  0
 16 41  1  0  0  0  0
 16 42  1  0  0  0  0
 17 18  1  0  0  0  0
 17 43  1  0  0  0  0
 18 23  1  0  0  0  0
 18 19  2  0  0  0  0
 19 20  1  0  0  0  0
 19 44  1  0  0  0  0
 20 21  2  0  0  0  0
 20 45  1  0  0  0  0
 21 22  1  0  0  0  0
 21 48  1  0  0  0  0
 22 23  2  0  0  0  0
 22 46  1  0  0  0  0
 23 47  1  0  0  0  0
M  CHG  1  21   1
M  END
> <s_m_source_file>
AV-unprocessed.smi

> <i_m_source_file_index>
1240

> <i_lp_mmshare_version>
43012

> <i_f3d_flags>
0

> <s_epik_input>
W2NIXTFbY0hdbltjSF1bY0hdYzFbTkhdQyg9TylbTkhdW0NIMl1bQ0BIXShbQ0BASF0yW0NIMl1bQ0gyXU9bQ0gyXTIpTjNbQ0gyXVtDSDJdT1tDSDJdW0NIMl0z

> <s_epik_cmdline>
J2VwaWtfcHl0aG9uJywgJy1waCcsICc3LjAnLCAnLXRuJywgJzgnLCAnLW1hJywgJzIwMCcsICctbWV0YWxfYmluZGluZycsICctaW1hZScsICc8aW5maWxlLm1hZT4nLCAnLW9tYWUnLCAnPG91dGZpbGUubWFlPic=

> <r_epik_Ionization_Penalty>
1.15944

> <r_epik_Ionization_Penalty_Charging>
1.0344

> <r_epik_Ionization_Penalty_Neutral>
0.125034

> <r_epik_State_Penalty>
1.2199

> <r_epik_Charging_Adjusted_Penalty>
2.25431

> <i_epik_Tot_Q>
1

> <i_epik_Tot_abs_Q>
1

> <r_epik_Metal_State_Penalty>
1.3155

> <b_epik_Metal_Only>
0

> <s_lp_Force_Field>
OPLS_2005

> <r_lp_Energy>
66.7815

> <b_lp_Chiralities_Consistent>
1

> <s_lp_Variant>
AV-unprocessed.smi:1240-9

> <Gold.Version>
5.8.1

> <Gold.Id.Protein>
6NUR|6NUR_protein|mol2

> <Gold.PLP.Fitness>
37.7276

> <Gold.PLP.PLP>
-27.4540

> <Gold.PLP.part.hbond>
-3.0000

> <Gold.PLP.part.metal>
0.0000

> <Gold.PLP.part.buried>
-4.8822

> <Gold.PLP.part.nonpolar>
-20.4380

> <Gold.PLP.part.repulsive>
0.1656

> <Gold.PLP.ligand.clash>
0.0000

> <Gold.PLP.ligand.torsion>
0.4890

> <Gold.PLP.Chemscore.Hbond>
3.7168

> <Gold.PLP.Chemscore.CHOScore>
0.0000

> <Gold.PLP.Chemscore.Metal>
0.0000

> <Gold.Chemscore.Hbonds>
donor molecule, donor type, donor heavy atom, donor atom, acceptor molecule, acceptor atom, score
      L1  H     3    24       P1  7948  0.78
      L1  H    17    43       P1  7948  1.00
      L1  H    21    48       P1 10186  2.00

> <Gold.PLP.Chemscore.Internal.Correction>
0.1010

> <Gold.Rescore>
     Score         DG    S(hbond)    S(metal)    S(lipo)     H(rot)  DE(clash)    DE(int)     intcor
     14.09     -15.70       2.08        0.00      65.09       1.69       0.01       1.60       ----

> <Gold.Chemscore.Fitness>
14.0916

> <Gold.Chemscore.DG>
-15.7001

> <Gold.Chemscore.ZeroCoef>
-5.4800

> <Gold.Chemscore.Hbond>
2.0759

> <Gold.Chemscore.Metal>
0.0000

> <Gold.Chemscore.Lipo>
65.0946

> <Gold.Chemscore.Internal_Hbond>
0.0000

> <Gold.Chemscore.DEClash>
0.0118

> <Gold.Chemscore.DEInternal>
1.5968

> <Gold.Chemscore.Rot>
1.6912

> <Gold.Chemscore.Internal.Correction>
   9.000000E+99

> <Gold.Chemscore.Hbonds>
donor molecule, donor type, donor heavy atom, donor atom, acceptor molecule, acceptor atom, score
      L1  H     3    24       P1  7948  0.13
      L1  H    17    43       P1  7948  0.97
      L1  H    21    48       P1 10186  0.95

> <Gold.Chemscore.Hbond.Weighted>
-6.9335

> <Gold.Chemscore.Metal.Weighted>
-0.0000

> <Gold.Chemscore.Lipo.Weighted>
-7.6161

> <Gold.Chemscore.Internal_Hbond.Weighted>
0.0000

> <Gold.Chemscore.DEClash.Weighted>
0.0118

> <Gold.Chemscore.DEInternal.Weighted>
1.5968

> <Gold.Chemscore.Rot.Weighted>
4.3295

> <Gold.Chemscore.Internal.Correction.Weighted>
   9.000000E+99

> <Gold.Protein.RotatedTorsions>
[ 6907 6896 6895 6894 ] final  -90.50 input  -60.11 | X-H torsion
[ 7974 7965 7964 7962 ] final  125.34 input  175.53 | X-H torsion
[ 8008 7997 7996 7995 ] final  -18.06 input   59.86 | X-H torsion
[ 10167 10162 10161 10158 ] final  119.45 input  -65.29 | X-H torsion
[ 10718 10713 10712 10709 ] final -137.27 input   66.30 | X-H torsion
[ 10763 10752 10751 10750 ] final  168.33 input  -60.55 | X-H torsion
[ 11005 11000 10999 10996 ] final -167.78 input  -57.11 | X-H torsion

> <Gold.Protein.ActiveResidues>
 VAL166  LYS551  ARG553  GLY616  TRP617  ASP618  TYR619  PRO620  LYS621  CYS622 
 ASP623  PHE694  ASN695  SER759  ASP760  ASP761  ALA762  ILE779  LEU786  VAL792 
 PHE793  MET794  SER795  GLU796  ALA797  LYS798  CYS799  TRP800  GLU811  SER814 

> <Gold.Protein.RotatedAtoms>
  150.6882  134.2422  159.4476 H   0  0  0  0  0  0  0  0  0  0  0  0  # atno 6907 bound_to 6896
  152.0365  134.9734  160.0582 H   0  0  0  0  0  0  0  0  0  0  0  0  # atno 6908 bound_to 6896
  152.1252  133.4341  159.4731 H   0  0  0  0  0  0  0  0  0  0  0  0  # atno 6909 bound_to 6896
  145.0741  139.3707  143.4943 H   0  0  0  0  0  0  0  0  0  0  0  0  # atno 7974 bound_to 7965
  154.4933  140.2126  155.9500 H   0  0  0  0  0  0  0  0  0  0  0  0  # atno 8008 bound_to 7997
  156.1336  140.3192  155.8355 H   0  0  0  0  0  0  0  0  0  0  0  0  # atno 8009 bound_to 7997
  155.4251  140.0499  157.3013 H   0  0  0  0  0  0  0  0  0  0  0  0  # atno 8010 bound_to 7997
  139.6045  144.7066  151.2985 H   0  0  0  0  0  0  0  0  0  0  0  0  # atno 10167 bound_to 10162
  156.2862  130.7349  151.1361 H   0  0  0  0  0  0  0  0  0  0  0  0  # atno 10718 bound_to 10713
  154.3670  135.2753  155.2288 H   0  0  0  0  0  0  0  0  0  0  0  0  # atno 10763 bound_to 10752
  154.4452  135.5944  153.6158 H   0  0  0  0  0  0  0  0  0  0  0  0  # atno 10764 bound_to 10752
  152.9840  135.6028  154.3897 H   0  0  0  0  0  0  0  0  0  0  0  0  # atno 10765 bound_to 10752
  140.5493  134.5444  157.5119 H   0  0  0  0  0  0  0  0  0  0  0  0  # atno 11005 bound_to 11000
  146.3529  140.0500  142.8636 LP  0  0  0  0  0  0  0  0  0  0  0  0  # atno 17320 bound_to 7965
  145.1257  140.9489  143.4574 LP  0  0  0  0  0  0  0  0  0  0  0  0  # atno 17321 bound_to 7965
  140.7275  143.6962  150.7881 LP  0  0  0  0  0  0  0  0  0  0  0  0  # atno 17342 bound_to 10162
  140.0545  143.5216  152.2657 LP  0  0  0  0  0  0  0  0  0  0  0  0  # atno 17343 bound_to 10162
  157.7329  131.0595  150.5603 LP  0  0  0  0  0  0  0  0  0  0  0  0  # atno 17370 bound_to 10713
  156.5715  130.4281  149.6017 LP  0  0  0  0  0  0  0  0  0  0  0  0  # atno 17371 bound_to 10713
  139.9463  134.7696  156.0554 LP  0  0  0  0  0  0  0  0  0  0  0  0  # atno 17394 bound_to 11000
  141.1181  133.6621  156.3144 LP  0  0  0  0  0  0  0  0  0  0  0  0  # atno 17395 bound_to 11000

$$$$
