AV-unprocessed.smi:1613|AV-procd|sdf|6478|dock5
  -GOLD-   22720 7143D 1   1.00000     0.00000
 Structure written by MMmdl.
 53 55  0  0  0  0  0  0  0  0  2 V2000
  147.8516  140.2613  155.6844 O   0  0  0  0  0  0  0  0  0  0  0  0
  148.4475  140.5861  154.6565 C   0  0  0  0  0  0  0  0  0  0  0  0
  149.6403  141.5514  154.7084 C   0  0  0  0  0  0  0  0  0  0  0  0
  150.5391  141.3020  155.8469 N   0  0  0  0  0  0  0  0  0  0  0  0
  150.3755  142.1009  156.9910 C   0  0  0  0  0  0  0  0  0  0  0  0
  151.1524  141.9257  158.0696 C   0  0  0  0  0  0  0  0  0  0  0  0
  152.1655  140.8665  157.9792 C   0  0  0  0  0  0  0  0  0  0  0  0
  152.3154  140.1345  156.9389 N   0  0  0  0  0  0  0  0  0  0  0  0
  151.4953  140.3174  155.8094 C   0  0  0  0  0  0  0  0  0  0  0  0
  151.6280  139.6122  154.8086 O   0  0  0  0  0  0  0  0  0  0  0  0
  148.1011  140.1433  153.4384 N   0  0  0  0  0  0  0  0  0  0  0  0
  147.0067  139.2178  153.1633 C   0  0  2  0  0  0  0  0  0  0  0  0
  147.1168  137.9605  154.0432 C   0  0  0  0  0  0  0  0  0  0  0  0
  146.0180  136.9443  153.6942 C   0  0  0  0  0  0  0  0  0  0  0  0
  146.0541  136.5716  152.2554 N   0  3  1  0  0  0  0  0  0  0  0  0
  145.0746  135.4963  151.9446 C   0  0  0  0  0  0  0  0  0  0  0  0
  145.7288  134.1233  151.6532 C   0  0  0  0  0  0  0  0  0  0  0  0
  144.9349  133.3154  150.6011 C   0  0  0  0  0  0  0  0  0  0  0  0
  145.6010  131.9622  150.3055 C   0  0  0  0  0  0  0  0  0  0  0  0
  145.7654  131.1333  151.5879 C   0  0  0  0  0  0  0  0  0  0  0  0
  146.5326  131.9207  152.6607 C   0  0  0  0  0  0  0  0  0  0  0  0
  145.8692  133.2800  152.9392 C   0  0  0  0  0  0  0  0  0  0  0  0
  145.9326  137.7676  151.3788 C   0  0  0  0  0  0  0  0  0  0  0  0
  147.0268  138.8045  151.6847 C   0  0  0  0  0  0  0  0  0  0  0  0
  150.2001  141.4900  153.7733 H   0  0  0  0  0  0  0  0  0  0  0  0
  149.2516  142.5699  154.7438 H   0  0  0  0  0  0  0  0  0  0  0  0
  149.5910  142.8415  156.9360 H   0  0  0  0  0  0  0  0  0  0  0  0
  151.0773  142.5009  158.9805 H   0  0  0  0  0  0  0  0  0  0  0  0
  152.7902  140.7409  158.8672 H   0  0  0  0  0  0  0  0  0  0  0  0
  148.6389  140.4670  152.6474 H   0  0  0  0  0  0  0  0  0  0  0  0
  146.0568  139.7166  153.3670 H   0  0  0  0  0  0  0  0  0  0  0  0
  148.0958  137.4974  153.9112 H   0  0  0  0  0  0  0  0  0  0  0  0
  147.0417  138.2290  155.0977 H   0  0  0  0  0  0  0  0  0  0  0  0
  146.1503  136.0542  154.3106 H   0  0  0  0  0  0  0  0  0  0  0  0
  145.0371  137.3555  153.9389 H   0  0  0  0  0  0  0  0  0  0  0  0
  144.4196  135.3931  152.8111 H   0  0  0  0  0  0  0  0  0  0  0  0
  144.4260  135.8071  151.1237 H   0  0  0  0  0  0  0  0  0  0  0  0
  146.7386  134.2895  151.2743 H   0  0  0  0  0  0  0  0  0  0  0  0
  143.9191  133.1435  150.9599 H   0  0  0  0  0  0  0  0  0  0  0  0
  144.8339  133.8754  149.6726 H   0  0  0  0  0  0  0  0  0  0  0  0
  145.0078  131.4065  149.5784 H   0  0  0  0  0  0  0  0  0  0  0  0
  146.5769  132.1271  149.8474 H   0  0  0  0  0  0  0  0  0  0  0  0
  144.7829  130.8549  151.9713 H   0  0  0  0  0  0  0  0  0  0  0  0
  146.2863  130.2014  151.3653 H   0  0  0  0  0  0  0  0  0  0  0  0
  146.5859  131.3377  153.5806 H   0  0  0  0  0  0  0  0  0  0  0  0
  147.5618  132.0763  152.3346 H   0  0  0  0  0  0  0  0  0  0  0  0
  146.4603  133.8207  153.6792 H   0  0  0  0  0  0  0  0  0  0  0  0
  144.8869  133.1204  153.3865 H   0  0  0  0  0  0  0  0  0  0  0  0
  146.0263  137.4791  150.3332 H   0  0  0  0  0  0  0  0  0  0  0  0
  144.9442  138.2133  151.5021 H   0  0  0  0  0  0  0  0  0  0  0  0
  146.8902  139.6805  151.0495 H   0  0  0  0  0  0  0  0  0  0  0  0
  148.0019  138.3868  151.4285 H   0  0  0  0  0  0  0  0  0  0  0  0
  146.9697  136.1795  152.0873 H   0  0  0  0  0  0  0  0  0  0  0  0
  1  2  2  0  0  0  0
  2  3  1  0  0  0  0
  2 11  1  0  0  0  0
  3  4  1  0  0  0  0
  3 25  1  0  0  0  0
  3 26  1  0  0  0  0
  4  9  1  0  0  0  0
  4  5  1  0  0  0  0
  5  6  2  0  0  0  0
  5 27  1  0  0  0  0
  6  7  1  0  0  0  0
  6 28  1  0  0  0  0
  7  8  2  0  0  0  0
  7 29  1  0  0  0  0
  8  9  1  0  0  0  0
  9 10  2  0  0  0  0
 11 12  1  0  0  0  0
 11 30  1  0  0  0  0
 12 24  1  0  0  0  0
 12 13  1  0  0  0  0
 12 31  1  0  0  0  0
 13 14  1  0  0  0  0
 13 32  1  0  0  0  0
 13 33  1  0  0  0  0
 14 15  1  0  0  0  0
 14 34  1  0  0  0  0
 14 35  1  0  0  0  0
 15 16  1  0  0  0  0
 15 23  1  0  0  0  0
 15 53  1  0  0  0  0
 16 17  1  0  0  0  0
 16 36  1  0  0  0  0
 16 37  1  0  0  0  0
 17 22  1  0  0  0  0
 17 18  1  0  0  0  0
 17 38  1  0  0  0  0
 18 19  1  0  0  0  0
 18 39  1  0  0  0  0
 18 40  1  0  0  0  0
 19 20  1  0  0  0  0
 19 41  1  0  0  0  0
 19 42  1  0  0  0  0
 20 21  1  0  0  0  0
 20 43  1  0  0  0  0
 20 44  1  0  0  0  0
 21 22  1  0  0  0  0
 21 45  1  0  0  0  0
 21 46  1  0  0  0  0
 22 47  1  0  0  0  0
 22 48  1  0  0  0  0
 23 24  1  0  0  0  0
 23 49  1  0  0  0  0
 23 50  1  0  0  0  0
 24 51  1  0  0  0  0
 24 52  1  0  0  0  0
M  CHG  1  15   1
M  END
> <s_m_source_file>
AV-unprocessed.smi

> <i_m_source_file_index>
1613

> <i_lp_mmshare_version>
43012

> <i_f3d_flags>
0

> <s_epik_input>
Tz1jMW5bY0hdW2NIXVtjSF1uMVtDSDJdQyg9TylbTkhdW0NIXTJbQ0gyXVtDSDJdTihbQ0gyXVtDSDJdMilbQ0gyXVtDSF0zW0NIMl1bQ0gyXVtDSDJdW0NIMl1bQ0gyXTM=

> <s_epik_cmdline>
J2VwaWtfcHl0aG9uJywgJy1waCcsICc3LjAnLCAnLXRuJywgJzgnLCAnLW1hJywgJzIwMCcsICctbWV0YWxfYmluZGluZycsICctaW1hZScsICc8aW5maWxlLm1hZT4nLCAnLW9tYWUnLCAnPG91dGZpbGUubWFlPic=

> <r_lp_tautomer_probability>
1

> <r_epik_Ionization_Penalty>
0.00530026

> <r_epik_Ionization_Penalty_Charging>
0.00529416

> <r_epik_Ionization_Penalty_Neutral>
6.10215e-06

> <r_epik_State_Penalty>
0.00386377

> <r_epik_Charging_Adjusted_Penalty>
0.00915793

> <i_epik_Tot_Q>
1

> <i_epik_Tot_abs_Q>
1

> <r_epik_Metal_State_Penalty>
-0

> <b_epik_Metal_Only>
0

> <s_lp_Force_Field>
OPLS_2005

> <r_lp_Energy>
30.7073

> <b_lp_Chiralities_Consistent>
1

> <s_lp_Variant>
AV-unprocessed.smi:1613-1

> <Gold.Version>
5.8.1

> <Gold.Id.Protein>
6NUR|6NUR_protein|mol2

> <Gold.PLP.Fitness>
56.6722

> <Gold.PLP.PLP>
-42.6059

> <Gold.PLP.part.hbond>
-4.0000

> <Gold.PLP.part.metal>
0.0000

> <Gold.PLP.part.buried>
2.8735

> <Gold.PLP.part.nonpolar>
-41.0644

> <Gold.PLP.part.repulsive>
0.2108

> <Gold.PLP.ligand.clash>
0.0000

> <Gold.PLP.ligand.torsion>
1.7689

> <Gold.PLP.Chemscore.Hbond>
4.8388

> <Gold.PLP.Chemscore.CHOScore>
1.0000

> <Gold.PLP.Chemscore.Metal>
0.0000

> <Gold.Chemscore.Hbonds>
donor molecule, donor type, donor heavy atom, donor atom, acceptor molecule, acceptor atom, score
      L1  H    11    30       P1  7957  0.96
      L1  H    15    53       P1  7948  2.00
      P1  H  7989  7998       L1    10  1.00
      P1  H  7997  8010       L1     8  0.86
      L1  C     5    27       P1  8028  1.00

> <Gold.PLP.Chemscore.Internal.Correction>
0.0878

> <Gold.Rescore>
     Score         DG    S(hbond)    S(metal)    S(lipo)     H(rot)  DE(clash)    DE(int)     intcor
     18.65     -23.32       3.25        0.00      99.87       1.84       1.77       2.90       ----

> <Gold.Chemscore.Fitness>
18.6481

> <Gold.Chemscore.DG>
-23.3167

> <Gold.Chemscore.ZeroCoef>
-5.4800

> <Gold.Chemscore.Hbond>
3.2533

> <Gold.Chemscore.Metal>
0.0000

> <Gold.Chemscore.Lipo>
99.8739

> <Gold.Chemscore.Internal_Hbond>
0.0000

> <Gold.Chemscore.DEClash>
1.7667

> <Gold.Chemscore.DEInternal>
2.9019

> <Gold.Chemscore.Rot>
1.8417

> <Gold.Chemscore.Internal.Correction>
   9.000000E+99

> <Gold.Chemscore.Hbonds>
donor molecule, donor type, donor heavy atom, donor atom, acceptor molecule, acceptor atom, score
      L1  H    11    30       P1  7957  0.92
      L1  H    15    53       P1  7948  0.96
      P1  H  7989  7998       L1    10  0.30
      P1  H  7997  8010       L1     8  0.31

> <Gold.Chemscore.Hbond.Weighted>
-10.8661

> <Gold.Chemscore.Metal.Weighted>
-0.0000

> <Gold.Chemscore.Lipo.Weighted>
-11.6852

> <Gold.Chemscore.Internal_Hbond.Weighted>
0.0000

> <Gold.Chemscore.DEClash.Weighted>
1.7667

> <Gold.Chemscore.DEInternal.Weighted>
2.9019

> <Gold.Chemscore.Rot.Weighted>
4.7147

> <Gold.Chemscore.Internal.Correction.Weighted>
   9.000000E+99

> <Gold.Protein.RotatedTorsions>
[ 6907 6896 6895 6894 ] final -110.91 input  -60.11 | X-H torsion
[ 7974 7965 7964 7962 ] final  -81.99 input  175.53 | X-H torsion
[ 8008 7997 7996 7995 ] final   56.88 input   59.86 | X-H torsion
[ 10167 10162 10161 10158 ] final  -11.79 input  -65.29 | X-H torsion
[ 10718 10713 10712 10709 ] final  -94.47 input   66.30 | X-H torsion
[ 10763 10752 10751 10750 ] final   46.32 input  -60.55 | X-H torsion
[ 11005 11000 10999 10996 ] final -158.39 input  -57.11 | X-H torsion

> <Gold.Protein.ActiveResidues>
 VAL166  LYS551  ARG553  GLY616  TRP617  ASP618  TYR619  PRO620  LYS621  CYS622 
 ASP623  PHE694  ASN695  SER759  ASP760  ASP761  ALA762  ILE779  LEU786  VAL792 
 PHE793  MET794  SER795  GLU796  ALA797  LYS798  CYS799  TRP800  GLU811  SER814 

> <Gold.Protein.RotatedAtoms>
  150.7655  133.9313  159.3427 H   0  0  0  0  0  0  0  0  0  0  0  0  # atno 6907 bound_to 6896
  151.7212  135.0892  160.0294 H   0  0  0  0  0  0  0  0  0  0  0  0  # atno 6908 bound_to 6896
  152.3649  133.6306  159.6078 H   0  0  0  0  0  0  0  0  0  0  0  0  # atno 6909 bound_to 6896
  145.5392  140.9512  143.1560 H   0  0  0  0  0  0  0  0  0  0  0  0  # atno 7974 bound_to 7965
  155.5247  140.3480  155.4414 H   0  0  0  0  0  0  0  0  0  0  0  0  # atno 8008 bound_to 7997
  156.0760  140.1374  156.9798 H   0  0  0  0  0  0  0  0  0  0  0  0  # atno 8009 bound_to 7997
  154.4553  140.0956  156.6716 H   0  0  0  0  0  0  0  0  0  0  0  0  # atno 8010 bound_to 7997
  140.7146  143.5602  150.9204 H   0  0  0  0  0  0  0  0  0  0  0  0  # atno 10167 bound_to 10162
  156.0027  130.5069  150.5931 H   0  0  0  0  0  0  0  0  0  0  0  0  # atno 10718 bound_to 10713
  152.9812  135.6012  154.3580 H   0  0  0  0  0  0  0  0  0  0  0  0  # atno 10763 bound_to 10752
  154.3264  135.2769  155.2496 H   0  0  0  0  0  0  0  0  0  0  0  0  # atno 10764 bound_to 10752
  154.4639  135.5959  153.6330 H   0  0  0  0  0  0  0  0  0  0  0  0  # atno 10765 bound_to 10752
  140.6541  134.4419  157.5235 H   0  0  0  0  0  0  0  0  0  0  0  0  # atno 11005 bound_to 11000
  144.7585  139.7014  143.7244 LP  0  0  0  0  0  0  0  0  0  0  0  0  # atno 17320 bound_to 7965
  146.1992  139.5277  142.9754 LP  0  0  0  0  0  0  0  0  0  0  0  0  # atno 17321 bound_to 7965
  139.9327  143.6474  152.3072 LP  0  0  0  0  0  0  0  0  0  0  0  0  # atno 17342 bound_to 10162
  139.6930  144.7644  151.1404 LP  0  0  0  0  0  0  0  0  0  0  0  0  # atno 17343 bound_to 10162
  157.3792  131.0778  151.1491 LP  0  0  0  0  0  0  0  0  0  0  0  0  # atno 17370 bound_to 10713
  157.2219  130.6485  149.5814 LP  0  0  0  0  0  0  0  0  0  0  0  0  # atno 17371 bound_to 10713
  139.9035  134.8501  156.1797 LP  0  0  0  0  0  0  0  0  0  0  0  0  # atno 17394 bound_to 11000
  141.0515  133.6886  156.1780 LP  0  0  0  0  0  0  0  0  0  0  0  0  # atno 17395 bound_to 11000

$$$$
