AV-unprocessed.smi:2352|AV-procd|sdf|9378|dock4
  -GOLD-   2272013 03D 1   1.00000     0.00000
 Structure written by MMmdl.
 37 38  0  0  0  0  0  0  0  0  1 V2000
  149.9036  134.1931  154.0818 C   0  0  0  0  0  0  0  0  0  0  0  0
  150.0691  135.1485  155.2505 C   0  0  0  0  0  0  0  0  0  0  0  0
  150.7882  136.3159  154.9784 N   0  0  0  0  0  0  0  0  0  0  0  0
  150.9822  137.1866  155.9142 C   0  0  0  0  0  0  0  0  0  0  0  0
  150.4880  136.9945  157.2148 N   0  0  0  0  0  0  0  0  0  0  0  0
  150.7795  138.0611  158.1878 C   0  0  0  0  0  0  0  0  0  0  0  0
  152.0507  138.8588  157.8209 C   0  0  2  0  0  0  0  0  0  0  0  0
  153.1813  138.1499  158.2893 O   0  0  0  0  0  0  0  0  0  0  0  0
  151.9983  140.2641  158.4017 C   0  0  0  0  0  0  0  0  0  0  0  0
  152.9240  140.6750  159.3856 C   0  0  0  0  0  0  0  0  0  0  0  0
  152.8627  141.9763  159.9207 C   0  0  0  0  0  0  0  0  0  0  0  0
  151.8758  142.8841  159.4789 C   0  0  0  0  0  0  0  0  0  0  0  0
  151.8002  144.2885  160.0600 C   0  0  0  0  0  0  0  0  0  0  0  0
  152.3348  145.1749  159.2194 F   0  0  0  0  0  0  0  0  0  0  0  0
  150.5236  144.6091  160.2672 F   0  0  0  0  0  0  0  0  0  0  0  0
  152.4553  144.3664  161.2190 F   0  0  0  0  0  0  0  0  0  0  0  0
  150.9432  142.4677  158.5048 C   0  0  0  0  0  0  0  0  0  0  0  0
  151.0041  141.1665  157.9693 C   0  0  0  0  0  0  0  0  0  0  0  0
  149.7679  135.8888  157.5627 C   0  0  0  0  0  0  0  0  0  0  0  0
  149.3259  135.7376  158.7034 O   0  0  0  0  0  0  0  0  0  0  0  0
  149.5591  134.9044  156.4886 C   0  0  0  0  0  0  0  0  0  0  0  0
  148.7682  133.6515  156.8434 C   0  0  0  0  0  0  0  0  0  0  0  0
  150.3474  133.2246  154.3139 H   0  0  0  0  0  0  0  0  0  0  0  0
  150.3893  134.5762  153.1835 H   0  0  0  0  0  0  0  0  0  0  0  0
  148.8474  134.0476  153.8536 H   0  0  0  0  0  0  0  0  0  0  0  0
  151.5320  138.1155  155.7525 H   0  0  0  0  0  0  0  0  0  0  0  0
  149.9242  138.7397  158.2058 H   0  0  0  0  0  0  0  0  0  0  0  0
  150.8446  137.6852  159.2113 H   0  0  0  0  0  0  0  0  0  0  0  0
  152.1433  138.9440  156.7374 H   0  0  0  0  0  0  0  0  0  0  0  0
  153.4071  137.4914  157.6500 H   0  0  0  0  0  0  0  0  0  0  0  0
  153.6837  139.9919  159.7367 H   0  0  0  0  0  0  0  0  0  0  0  0
  153.5768  142.2717  160.6752 H   0  0  0  0  0  0  0  0  0  0  0  0
  150.1737  143.1454  158.1655 H   0  0  0  0  0  0  0  0  0  0  0  0
  150.2809  140.8635  157.2261 H   0  0  0  0  0  0  0  0  0  0  0  0
  147.7649  133.9216  157.1746 H   0  0  0  0  0  0  0  0  0  0  0  0
  149.2593  133.1138  157.6552 H   0  0  0  0  0  0  0  0  0  0  0  0
  148.6630  132.9597  156.0094 H   0  0  0  0  0  0  0  0  0  0  0  0
  1  2  1  0  0  0  0
  1 23  1  0  0  0  0
  1 24  1  0  0  0  0
  1 25  1  0  0  0  0
  2 21  2  0  0  0  0
  2  3  1  0  0  0  0
  3  4  2  0  0  0  0
  4  5  1  0  0  0  0
  4 26  1  0  0  0  0
  5  6  1  0  0  0  0
  5 19  1  0  0  0  0
  6  7  1  0  0  0  0
  6 27  1  0  0  0  0
  6 28  1  0  0  0  0
  7  8  1  0  0  0  0
  7  9  1  0  0  0  0
  7 29  1  0  0  0  0
  8 30  1  0  0  0  0
  9 18  1  0  0  0  0
  9 10  2  0  0  0  0
 10 11  1  0  0  0  0
 10 31  1  0  0  0  0
 11 12  2  0  0  0  0
 11 32  1  0  0  0  0
 12 13  1  0  0  0  0
 12 17  1  0  0  0  0
 13 14  1  0  0  0  0
 13 15  1  0  0  0  0
 13 16  1  0  0  0  0
 17 18  2  0  0  0  0
 17 33  1  0  0  0  0
 18 34  1  0  0  0  0
 19 20  2  0  0  0  0
 19 21  1  0  0  0  0
 21 22  1  0  0  0  0
 22 35  1  0  0  0  0
 22 36  1  0  0  0  0
 22 37  1  0  0  0  0
M  END
> <s_m_source_file>
AV-unprocessed.smi

> <i_m_source_file_index>
2352

> <i_lp_mmshare_version>
43012

> <i_f3d_flags>
0

> <s_epik_input>
W0NIM11jMW5bY0hdbihjKD1PKWMxW0NIM10pW0NIMl1bQ0BIXShbT0hdKWMyW2NIXVtjSF1jKEMoRikoRilGKVtjSF1bY0hdMg==

> <s_epik_cmdline>
J2VwaWtfcHl0aG9uJywgJy1waCcsICc3LjAnLCAnLXRuJywgJzgnLCAnLW1hJywgJzIwMCcsICctbWV0YWxfYmluZGluZycsICctaW1hZScsICc8aW5maWxlLm1hZT4nLCAnLW9tYWUnLCAnPG91dGZpbGUubWFlPic=

> <r_lp_tautomer_probability>
1

> <r_epik_Ionization_Penalty>
5.07001e-05

> <r_epik_Ionization_Penalty_Charging>
7.56727e-08

> <r_epik_Ionization_Penalty_Neutral>
5.06244e-05

> <r_epik_State_Penalty>
-0

> <r_epik_Charging_Adjusted_Penalty>
7.56727e-08

> <i_epik_Tot_Q>
0

> <i_epik_Tot_abs_Q>
0

> <r_epik_Metal_State_Penalty>
-0

> <b_epik_Metal_Only>
0

> <s_lp_Force_Field>
OPLS_2005

> <r_lp_Energy>
21.4473

> <b_lp_Chiralities_Consistent>
1

> <s_lp_Variant>
AV-unprocessed.smi:2352-1

> <Gold.Version>
5.8.1

> <Gold.Id.Protein>
6NUR|6NUR_protein|mol2

> <Gold.PLP.Fitness>
41.9001

> <Gold.PLP.PLP>
-37.8224

> <Gold.PLP.part.hbond>
-1.9766

> <Gold.PLP.part.metal>
0.0000

> <Gold.PLP.part.buried>
-7.1989

> <Gold.PLP.part.nonpolar>
-28.9053

> <Gold.PLP.part.repulsive>
0.1422

> <Gold.PLP.ligand.clash>
0.0000

> <Gold.PLP.ligand.torsion>
1.4586

> <Gold.PLP.Chemscore.Hbond>
1.9913

> <Gold.PLP.Chemscore.CHOScore>
0.0000

> <Gold.PLP.Chemscore.Metal>
0.0000

> <Gold.Chemscore.Hbonds>
donor molecule, donor type, donor heavy atom, donor atom, acceptor molecule, acceptor atom, score
      P1  H  6896  6907       L1    20  1.00
      P1  H 10752 10765       L1     3  0.32

> <Gold.PLP.Chemscore.Internal.Correction>
1.0211

> <Gold.Rescore>
     Score         DG    S(hbond)    S(metal)    S(lipo)     H(rot)  DE(clash)    DE(int)     intcor
     11.22     -12.69       0.86        0.00      83.63       2.13       0.29       1.18       ----

> <Gold.Chemscore.Fitness>
11.2231

> <Gold.Chemscore.DG>
-12.6891

> <Gold.Chemscore.ZeroCoef>
-5.4800

> <Gold.Chemscore.Hbond>
0.8650

> <Gold.Chemscore.Metal>
0.0000

> <Gold.Chemscore.Lipo>
83.6317

> <Gold.Chemscore.Internal_Hbond>
0.0000

> <Gold.Chemscore.DEClash>
0.2885

> <Gold.Chemscore.DEInternal>
1.1775

> <Gold.Chemscore.Rot>
2.1347

> <Gold.Chemscore.Internal.Correction>
   9.000000E+99

> <Gold.Chemscore.Hbonds>
donor molecule, donor type, donor heavy atom, donor atom, acceptor molecule, acceptor atom, score
      P1  H  6896  6907       L1    20  0.39
      P1  H 10752 10765       L1     3  0.04

> <Gold.Chemscore.Hbond.Weighted>
-2.8890

> <Gold.Chemscore.Metal.Weighted>
-0.0000

> <Gold.Chemscore.Lipo.Weighted>
-9.7849

> <Gold.Chemscore.Internal_Hbond.Weighted>
0.0000

> <Gold.Chemscore.DEClash.Weighted>
0.2885

> <Gold.Chemscore.DEInternal.Weighted>
1.1775

> <Gold.Chemscore.Rot.Weighted>
5.4649

> <Gold.Chemscore.Internal.Correction.Weighted>
   9.000000E+99

> <Gold.Protein.RotatedTorsions>
[ 6907 6896 6895 6894 ] final  -62.47 input  -60.11 | X-H torsion
[ 7974 7965 7964 7962 ] final -142.92 input  175.53 | X-H torsion
[ 8008 7997 7996 7995 ] final  -68.40 input   59.86 | X-H torsion
[ 10167 10162 10161 10158 ] final   52.02 input  -65.29 | X-H torsion
[ 10718 10713 10712 10709 ] final    6.59 input   66.30 | X-H torsion
[ 10763 10752 10751 10750 ] final -177.19 input  -60.55 | X-H torsion
[ 11005 11000 10999 10996 ] final   52.55 input  -57.11 | X-H torsion

> <Gold.Protein.ActiveResidues>
 VAL166  LYS551  ARG553  GLY616  TRP617  ASP618  TYR619  PRO620  LYS621  CYS622 
 ASP623  PHE694  ASN695  SER759  ASP760  ASP761  ALA762  ILE779  LEU786  VAL792 
 PHE793  MET794  SER795  GLU796  ALA797  LYS798  CYS799  TRP800  GLU811  SER814 

> <Gold.Protein.RotatedAtoms>
  150.7713  134.6565  159.6316 H   0  0  0  0  0  0  0  0  0  0  0  0  # atno 6907 bound_to 6896
  152.3767  134.6650  160.0166 H   0  0  0  0  0  0  0  0  0  0  0  0  # atno 6908 bound_to 6896
  151.6993  133.3274  159.3299 H   0  0  0  0  0  0  0  0  0  0  0  0  # atno 6909 bound_to 6896
  144.8407  140.5898  143.5454 H   0  0  0  0  0  0  0  0  0  0  0  0  # atno 7974 bound_to 7965
  154.4865  140.0873  156.7499 H   0  0  0  0  0  0  0  0  0  0  0  0  # atno 8008 bound_to 7997
  155.4336  140.3451  155.4264 H   0  0  0  0  0  0  0  0  0  0  0  0  # atno 8009 bound_to 7997
  156.1269  140.1490  156.9111 H   0  0  0  0  0  0  0  0  0  0  0  0  # atno 8010 bound_to 7997
  140.2558  144.3428  150.6333 H   0  0  0  0  0  0  0  0  0  0  0  0  # atno 10167 bound_to 10162
  156.9245  130.5803  149.5648 H   0  0  0  0  0  0  0  0  0  0  0  0  # atno 10718 bound_to 10713
  154.5632  135.2822  155.0899 H   0  0  0  0  0  0  0  0  0  0  0  0  # atno 10763 bound_to 10752
  154.2300  135.6376  153.5176 H   0  0  0  0  0  0  0  0  0  0  0  0  # atno 10764 bound_to 10752
  153.0035  135.5535  154.6232 H   0  0  0  0  0  0  0  0  0  0  0  0  # atno 10765 bound_to 10752
  140.0840  134.5299  155.8918 H   0  0  0  0  0  0  0  0  0  0  0  0  # atno 11005 bound_to 11000
  145.4699  139.1504  143.3820 LP  0  0  0  0  0  0  0  0  0  0  0  0  # atno 17320 bound_to 7965
  146.2700  140.4832  142.8818 LP  0  0  0  0  0  0  0  0  0  0  0  0  # atno 17321 bound_to 7965
  140.6005  143.2167  151.7082 LP  0  0  0  0  0  0  0  0  0  0  0  0  # atno 17342 bound_to 10162
  139.5032  144.3800  152.0385 LP  0  0  0  0  0  0  0  0  0  0  0  0  # atno 17343 bound_to 10162
  156.0476  130.5550  150.8915 LP  0  0  0  0  0  0  0  0  0  0  0  0  # atno 17370 bound_to 10713
  157.5887  131.0945  150.9155 LP  0  0  0  0  0  0  0  0  0  0  0  0  # atno 17371 bound_to 10713
  141.2056  133.6648  156.6192 LP  0  0  0  0  0  0  0  0  0  0  0  0  # atno 17394 bound_to 11000
  140.3447  134.7819  157.4423 LP  0  0  0  0  0  0  0  0  0  0  0  0  # atno 17395 bound_to 11000

$$$$
