AV-unprocessed.smi:1032|AV-procd|sdf|4486|dock2
  -GOLD-   22720 2463D 1   1.00000     0.00000
 Structure written by MMmdl.
 47 48  0  0  0  0  0  0  0  0  3 V2000
  151.5103  139.7297  156.2185 C   0  0  0  0  0  0  0  0  0  0  0  0
  150.0611  139.4062  155.8285 C   0  0  2  0  0  0  0  0  0  0  0  0
  149.9738  138.1557  154.9377 C   0  0  0  0  0  0  0  0  0  0  0  0
  148.5200  137.8596  154.5313 C   0  0  0  0  0  0  0  0  0  0  0  0
  147.9080  139.0267  153.8415 N   0  3  1  0  0  0  0  0  0  0  0  0
  146.5436  138.7579  153.3173 C   0  0  0  0  0  0  0  0  0  0  0  0
  146.5345  137.7658  152.1353 C   0  0  2  0  0  0  0  0  0  0  0  0
  146.6062  138.5212  150.9419 O   0  0  0  0  0  0  0  0  0  0  0  0
  145.2296  136.9435  152.1028 C   0  0  0  0  0  0  0  0  0  0  0  0
  144.0685  137.7413  152.4871 N   0  0  0  0  0  0  0  0  0  0  0  0
  142.8555  137.2438  152.7683 C   0  0  0  0  0  0  0  0  0  0  0  0
  142.5829  136.0454  152.6973 O   0  0  0  0  0  0  0  0  0  0  0  0
  141.9916  138.2163  153.1072 N   0  0  0  0  0  0  0  0  0  0  0  0
  140.6394  138.0848  153.5251 C   0  0  0  0  0  0  0  0  0  0  0  0
  139.9511  139.2589  153.9040 C   0  0  0  0  0  0  0  0  0  0  0  0
  138.6144  139.1700  154.3434 C   0  0  0  0  0  0  0  0  0  0  0  0
  138.0072  137.9658  154.4105 N   0  3  0  0  0  0  0  0  0  0  0  0
  138.6286  136.8152  154.0749 C   0  0  0  0  0  0  0  0  0  0  0  0
  139.9651  136.8414  153.6264 C   0  0  0  0  0  0  0  0  0  0  0  0
  147.9486  140.2426  154.6943 C   0  0  0  0  0  0  0  0  0  0  0  0
  149.3890  140.5867  155.1082 C   0  0  0  0  0  0  0  0  0  0  0  0
  152.1203  139.9460  155.3406 H   0  0  0  0  0  0  0  0  0  0  0  0
  151.9712  138.8946  156.7465 H   0  0  0  0  0  0  0  0  0  0  0  0
  151.5544  140.5982  156.8762 H   0  0  0  0  0  0  0  0  0  0  0  0
  149.5074  139.2078  156.7475 H   0  0  0  0  0  0  0  0  0  0  0  0
  150.5811  138.2948  154.0421 H   0  0  0  0  0  0  0  0  0  0  0  0
  150.3902  137.2944  155.4615 H   0  0  0  0  0  0  0  0  0  0  0  0
  148.5111  136.9834  153.8847 H   0  0  0  0  0  0  0  0  0  0  0  0
  147.9296  137.6054  155.4131 H   0  0  0  0  0  0  0  0  0  0  0  0
  145.9177  138.3896  154.1316 H   0  0  0  0  0  0  0  0  0  0  0  0
  146.0879  139.6921  152.9842 H   0  0  0  0  0  0  0  0  0  0  0  0
  147.3935  137.0982  152.1911 H   0  0  0  0  0  0  0  0  0  0  0  0
  145.7560  138.5131  150.5283 H   0  0  0  0  0  0  0  0  0  0  0  0
  145.0590  136.5532  151.0978 H   0  0  0  0  0  0  0  0  0  0  0  0
  145.3007  136.0690  152.7512 H   0  0  0  0  0  0  0  0  0  0  0  0
  144.2075  138.7384  152.5656 H   0  0  0  0  0  0  0  0  0  0  0  0
  142.3292  139.1635  153.0185 H   0  0  0  0  0  0  0  0  0  0  0  0
  140.4377  140.2223  153.8544 H   0  0  0  0  0  0  0  0  0  0  0  0
  138.0185  140.0194  154.6442 H   0  0  0  0  0  0  0  0  0  0  0  0
  138.0446  135.9125  154.1804 H   0  0  0  0  0  0  0  0  0  0  0  0
  140.4503  135.9082  153.3831 H   0  0  0  0  0  0  0  0  0  0  0  0
  147.5239  141.0884  154.1521 H   0  0  0  0  0  0  0  0  0  0  0  0
  147.3283  140.0889  155.5790 H   0  0  0  0  0  0  0  0  0  0  0  0
  149.3839  141.4648  155.7550 H   0  0  0  0  0  0  0  0  0  0  0  0
  149.9660  140.8586  154.2232 H   0  0  0  0  0  0  0  0  0  0  0  0
  148.4823  139.2294  153.0354 H   0  0  0  0  0  0  0  0  0  0  0  0
  137.0400  137.9228  154.7335 H   0  0  0  0  0  0  0  0  0  0  0  0
  1  2  1  0  0  0  0
  1 22  1  0  0  0  0
  1 23  1  0  0  0  0
  1 24  1  0  0  0  0
  2 21  1  0  0  0  0
  2  3  1  0  0  0  0
  2 25  1  0  0  0  0
  3  4  1  0  0  0  0
  3 26  1  0  0  0  0
  3 27  1  0  0  0  0
  4  5  1  0  0  0  0
  4 28  1  0  0  0  0
  4 29  1  0  0  0  0
  5  6  1  0  0  0  0
  5 20  1  0  0  0  0
  5 46  1  0  0  0  0
  6  7  1  0  0  0  0
  6 30  1  0  0  0  0
  6 31  1  0  0  0  0
  7  8  1  0  0  0  0
  7  9  1  0  0  0  0
  7 32  1  0  0  0  0
  8 33  1  0  0  0  0
  9 10  1  0  0  0  0
  9 34  1  0  0  0  0
  9 35  1  0  0  0  0
 10 11  1  0  0  0  0
 10 36  1  0  0  0  0
 11 12  2  0  0  0  0
 11 13  1  0  0  0  0
 13 14  1  0  0  0  0
 13 37  1  0  0  0  0
 14 19  1  0  0  0  0
 14 15  2  0  0  0  0
 15 16  1  0  0  0  0
 15 38  1  0  0  0  0
 16 17  2  0  0  0  0
 16 39  1  0  0  0  0
 17 18  1  0  0  0  0
 17 47  1  0  0  0  0
 18 19  2  0  0  0  0
 18 40  1  0  0  0  0
 19 41  1  0  0  0  0
 20 21  1  0  0  0  0
 20 42  1  0  0  0  0
 20 43  1  0  0  0  0
 21 44  1  0  0  0  0
 21 45  1  0  0  0  0
M  CHG  1   5   1
M  CHG  1  17   1
M  END
> <s_m_source_file>
AV-unprocessed.smi

> <i_m_source_file_index>
1032

> <i_lp_mmshare_version>
43012

> <i_f3d_flags>
0

> <s_epik_input>
W0NIM11bQ0hdMVtDSDJdW0NIMl1OKFtDSDJdW0NIMl0xKVtDSDJdW0NASF0oW09IXSlbQ0gyXVtOSF1DKD1PKVtOSF1jMltjSF1bY0hdbltjSF1bY0hdMg==

> <s_epik_cmdline>
J2VwaWtfcHl0aG9uJywgJy1waCcsICc3LjAnLCAnLXRuJywgJzgnLCAnLW1hJywgJzIwMCcsICctbWV0YWxfYmluZGluZycsICctaW1hZScsICc8aW5maWxlLm1hZT4nLCAnLW9tYWUnLCAnPG91dGZpbGUubWFlPic=

> <r_epik_Ionization_Penalty>
1.02509

> <r_epik_Ionization_Penalty_Charging>
1.02507

> <r_epik_Ionization_Penalty_Neutral>
1.85474e-05

> <r_epik_State_Penalty>
1.07411

> <r_epik_Charging_Adjusted_Penalty>
2.09917

> <i_epik_Tot_Q>
2

> <i_epik_Tot_abs_Q>
2

> <r_epik_Metal_State_Penalty>
1.1725

> <b_epik_Metal_Only>
0

> <s_lp_Force_Field>
OPLS_2005

> <r_lp_Energy>
32.4913

> <b_lp_Chiralities_Consistent>
1

> <s_lp_Variant>
AV-unprocessed.smi:1032-5

> <Gold.Version>
5.8.1

> <Gold.Id.Protein>
6NUR|6NUR_protein|mol2

> <Gold.PLP.Fitness>
52.6171

> <Gold.PLP.PLP>
-39.0937

> <Gold.PLP.part.hbond>
-6.2168

> <Gold.PLP.part.metal>
0.0000

> <Gold.PLP.part.buried>
-0.9627

> <Gold.PLP.part.nonpolar>
-33.1392

> <Gold.PLP.part.repulsive>
0.2828

> <Gold.PLP.ligand.clash>
0.0000

> <Gold.PLP.ligand.torsion>
0.7652

> <Gold.PLP.Chemscore.Hbond>
4.9920

> <Gold.PLP.Chemscore.CHOScore>
0.0000

> <Gold.PLP.Chemscore.Metal>
0.0000

> <Gold.Chemscore.Hbonds>
donor molecule, donor type, donor heavy atom, donor atom, acceptor molecule, acceptor atom, score
      L1  H     5    46       P1  7957  0.26
      L1  H     8    33       P1 10171  1.00
      L1  H    10    36       P1 10175  1.00
      L1  H    13    37       P1 10175  1.00
      P1  H  7954  7966       L1     8  0.99

> <Gold.PLP.Chemscore.Internal.Correction>
0.0777

> <Gold.Rescore>
     Score         DG    S(hbond)    S(metal)    S(lipo)     H(rot)  DE(clash)    DE(int)     intcor
     22.32     -25.03       4.51        0.00      89.68       2.34       0.80       1.92       ----

> <Gold.Chemscore.Fitness>
22.3218

> <Gold.Chemscore.DG>
-25.0344

> <Gold.Chemscore.ZeroCoef>
-5.4800

> <Gold.Chemscore.Hbond>
4.5062

> <Gold.Chemscore.Metal>
0.0000

> <Gold.Chemscore.Lipo>
89.6788

> <Gold.Chemscore.Internal_Hbond>
0.0000

> <Gold.Chemscore.DEClash>
0.7959

> <Gold.Chemscore.DEInternal>
1.9166

> <Gold.Chemscore.Rot>
2.3393

> <Gold.Chemscore.Internal.Correction>
   9.000000E+99

> <Gold.Chemscore.Hbonds>
donor molecule, donor type, donor heavy atom, donor atom, acceptor molecule, acceptor atom, score
      L1  H     5    46       P1  7957  0.27
      L1  H     8    33       P1 10171  0.96
      L1  H    10    36       P1 10175  0.97
      L1  H    13    37       P1 10175  0.96
      P1  H  7954  7966       L1     8  0.62

> <Gold.Chemscore.Hbond.Weighted>
-15.0506

> <Gold.Chemscore.Metal.Weighted>
-0.0000

> <Gold.Chemscore.Lipo.Weighted>
-10.4924

> <Gold.Chemscore.Internal_Hbond.Weighted>
0.0000

> <Gold.Chemscore.DEClash.Weighted>
0.7959

> <Gold.Chemscore.DEInternal.Weighted>
1.9166

> <Gold.Chemscore.Rot.Weighted>
5.9886

> <Gold.Chemscore.Internal.Correction.Weighted>
   9.000000E+99

> <Gold.Protein.RotatedTorsions>
[ 6907 6896 6895 6894 ] final  122.03 input  -60.11 | X-H torsion
[ 7974 7965 7964 7962 ] final -140.13 input  175.53 | X-H torsion
[ 8008 7997 7996 7995 ] final  145.84 input   59.86 | X-H torsion
[ 10167 10162 10161 10158 ] final  -53.23 input  -65.29 | X-H torsion
[ 10718 10713 10712 10709 ] final  101.50 input   66.30 | X-H torsion
[ 10763 10752 10751 10750 ] final  128.03 input  -60.55 | X-H torsion
[ 11005 11000 10999 10996 ] final -165.22 input  -57.11 | X-H torsion

> <Gold.Protein.ActiveResidues>
 VAL166  LYS551  ARG553  GLY616  TRP617  ASP618  TYR619  PRO620  LYS621  CYS622 
 ASP623  PHE694  ASN695  SER759  ASP760  ASP761  ALA762  ILE779  LEU786  VAL792 
 PHE793  MET794  SER795  GLU796  ALA797  LYS798  CYS799  TRP800  GLU811  SER814 

> <Gold.Protein.RotatedAtoms>
  152.4275  133.7220  159.6538 H   0  0  0  0  0  0  0  0  0  0  0  0  # atno 6907 bound_to 6896
  150.8152  133.8339  159.3169 H   0  0  0  0  0  0  0  0  0  0  0  0  # atno 6908 bound_to 6896
  151.6037  135.1047  160.0117 H   0  0  0  0  0  0  0  0  0  0  0  0  # atno 6909 bound_to 6896
  144.8622  140.6237  143.5321 H   0  0  0  0  0  0  0  0  0  0  0  0  # atno 7974 bound_to 7965
  156.2872  140.2198  156.5281 H   0  0  0  0  0  0  0  0  0  0  0  0  # atno 8008 bound_to 7997
  154.7472  140.0483  157.0884 H   0  0  0  0  0  0  0  0  0  0  0  0  # atno 8009 bound_to 7997
  155.0155  140.3118  155.4816 H   0  0  0  0  0  0  0  0  0  0  0  0  # atno 8010 bound_to 7997
  140.6496  143.2557  151.4762 H   0  0  0  0  0  0  0  0  0  0  0  0  # atno 10167 bound_to 10162
  157.6827  131.0728  150.5262 H   0  0  0  0  0  0  0  0  0  0  0  0  # atno 10718 bound_to 10713
  153.7190  135.3256  155.3262 H   0  0  0  0  0  0  0  0  0  0  0  0  # atno 10763 bound_to 10752
  154.8362  135.4495  154.1237 H   0  0  0  0  0  0  0  0  0  0  0  0  # atno 10764 bound_to 10752
  153.2352  135.6964  153.7925 H   0  0  0  0  0  0  0  0  0  0  0  0  # atno 10765 bound_to 10752
  140.5782  134.5169  157.5174 H   0  0  0  0  0  0  0  0  0  0  0  0  # atno 11005 bound_to 11000
  145.4290  139.1552  143.4032 LP  0  0  0  0  0  0  0  0  0  0  0  0  # atno 17320 bound_to 7965
  146.2869  140.4405  142.8754 LP  0  0  0  0  0  0  0  0  0  0  0  0  # atno 17321 bound_to 7965
  139.5709  144.1930  152.1835 LP  0  0  0  0  0  0  0  0  0  0  0  0  # atno 17342 bound_to 10162
  140.1226  144.5360  150.6853 LP  0  0  0  0  0  0  0  0  0  0  0  0  # atno 17343 bound_to 10162
  156.5573  130.4247  149.6079 LP  0  0  0  0  0  0  0  0  0  0  0  0  # atno 17370 bound_to 10713
  156.2851  130.7092  151.1927 LP  0  0  0  0  0  0  0  0  0  0  0  0  # atno 17371 bound_to 10713
  139.9330  134.7929  156.0880 LP  0  0  0  0  0  0  0  0  0  0  0  0  # atno 17394 bound_to 11000
  141.1013  133.6676  156.2761 LP  0  0  0  0  0  0  0  0  0  0  0  0  # atno 17395 bound_to 11000

$$$$
