AV-unprocessed.smi:1378|AV-procd|sdf|5597|dock9
  -GOLD-   22720 5203D 1   1.00000     0.00000
 Structure written by MMmdl.
 47 49  0  0  0  0  0  0  0  0  2 V2000
  153.0521  137.8493  160.0927 C   0  0  0  0  0  0  0  0  0  0  0  0
  152.1932  137.8382  158.9654 O   0  0  0  0  0  0  0  0  0  0  0  0
  151.4472  139.0356  158.8434 C   0  0  0  0  0  0  0  0  0  0  0  0
  152.4157  140.2034  158.6034 C   0  0  0  0  0  0  0  0  0  0  0  0
  151.7236  141.4456  158.2306 N   0  0  0  0  0  0  0  0  0  0  0  0
  150.9351  141.7460  157.1590 C   0  0  0  0  0  0  0  0  0  0  0  0
  150.5182  140.6922  155.8070 S   0  0  0  0  0  0  0  0  0  0  0  0
  149.4951  141.6986  154.6942 C   0  0  0  0  0  0  0  0  0  0  0  0
  148.0030  141.3945  154.8249 C   0  0  0  0  0  0  0  0  0  0  0  0
  147.5939  140.2394  154.7192 O   0  0  0  0  0  0  0  0  0  0  0  0
  147.2086  142.4443  155.0783 N   0  0  0  0  0  0  0  0  0  0  0  0
  145.7674  142.3990  155.2950 C   0  0  0  0  0  0  0  0  0  0  0  0
  145.0364  143.4146  154.3929 C   0  0  0  0  0  0  0  0  0  0  0  0
  144.2632  144.3482  155.3299 C   0  0  0  0  0  0  0  0  0  0  0  0
  145.0009  144.2647  156.6633 C   0  0  0  0  0  0  0  0  0  0  0  0
  145.4471  142.8065  156.7425 C   0  0  0  0  0  0  0  0  0  0  0  0
  150.5277  143.0374  157.2926 N   0  3  0  0  0  0  0  0  0  0  0  0
  151.0590  143.5750  158.4652 C   0  0  0  0  0  0  0  0  0  0  0  0
  150.9344  144.8431  159.0238 C   0  0  0  0  0  0  0  0  0  0  0  0
  151.6079  145.0666  160.2425 C   0  0  0  0  0  0  0  0  0  0  0  0
  152.3661  144.0506  160.8596 C   0  0  0  0  0  0  0  0  0  0  0  0
  152.4855  142.7686  160.2839 C   0  0  0  0  0  0  0  0  0  0  0  0
  151.8203  142.5566  159.0768 C   0  0  0  0  0  0  0  0  0  0  0  0
  153.5999  136.9085  160.1454 H   0  0  0  0  0  0  0  0  0  0  0  0
  152.4867  137.9620  161.0186 H   0  0  0  0  0  0  0  0  0  0  0  0
  153.7798  138.6594  160.0266 H   0  0  0  0  0  0  0  0  0  0  0  0
  150.7375  138.9453  158.0202 H   0  0  0  0  0  0  0  0  0  0  0  0
  150.8724  139.2009  159.7533 H   0  0  0  0  0  0  0  0  0  0  0  0
  153.0013  140.3980  159.5023 H   0  0  0  0  0  0  0  0  0  0  0  0
  153.1287  139.9607  157.8145 H   0  0  0  0  0  0  0  0  0  0  0  0
  149.6805  142.7533  154.8984 H   0  0  0  0  0  0  0  0  0  0  0  0
  149.8131  141.5187  153.6670 H   0  0  0  0  0  0  0  0  0  0  0  0
  147.6422  143.3540  155.1389 H   0  0  0  0  0  0  0  0  0  0  0  0
  145.3975  141.3875  155.1173 H   0  0  0  0  0  0  0  0  0  0  0  0
  145.7467  143.9965  153.8030 H   0  0  0  0  0  0  0  0  0  0  0  0
  144.3684  142.9201  153.6873 H   0  0  0  0  0  0  0  0  0  0  0  0
  144.2018  145.3676  154.9480 H   0  0  0  0  0  0  0  0  0  0  0  0
  143.2443  143.9794  155.4542 H   0  0  0  0  0  0  0  0  0  0  0  0
  145.8749  144.9172  156.6444 H   0  0  0  0  0  0  0  0  0  0  0  0
  144.3786  144.5613  157.5080 H   0  0  0  0  0  0  0  0  0  0  0  0
  144.6199  142.1994  157.1127 H   0  0  0  0  0  0  0  0  0  0  0  0
  146.2817  142.6644  157.4299 H   0  0  0  0  0  0  0  0  0  0  0  0
  150.3523  145.6227  158.5544 H   0  0  0  0  0  0  0  0  0  0  0  0
  151.5402  146.0362  160.7142 H   0  0  0  0  0  0  0  0  0  0  0  0
  152.8671  144.2584  161.7941 H   0  0  0  0  0  0  0  0  0  0  0  0
  153.0699  141.9976  160.7640 H   0  0  0  0  0  0  0  0  0  0  0  0
  149.9342  143.5139  156.6256 H   0  0  0  0  0  0  0  0  0  0  0  0
  1  2  1  0  0  0  0
  1 24  1  0  0  0  0
  1 25  1  0  0  0  0
  1 26  1  0  0  0  0
  2  3  1  0  0  0  0
  3  4  1  0  0  0  0
  3 27  1  0  0  0  0
  3 28  1  0  0  0  0
  4  5  1  0  0  0  0
  4 29  1  0  0  0  0
  4 30  1  0  0  0  0
  5 23  1  0  0  0  0
  5  6  1  0  0  0  0
  6  7  1  0  0  0  0
  6 17  2  0  0  0  0
  7  8  1  0  0  0  0
  8  9  1  0  0  0  0
  8 31  1  0  0  0  0
  8 32  1  0  0  0  0
  9 10  2  0  0  0  0
  9 11  1  0  0  0  0
 11 12  1  0  0  0  0
 11 33  1  0  0  0  0
 12 16  1  0  0  0  0
 12 13  1  0  0  0  0
 12 34  1  0  0  0  0
 13 14  1  0  0  0  0
 13 35  1  0  0  0  0
 13 36  1  0  0  0  0
 14 15  1  0  0  0  0
 14 37  1  0  0  0  0
 14 38  1  0  0  0  0
 15 16  1  0  0  0  0
 15 39  1  0  0  0  0
 15 40  1  0  0  0  0
 16 41  1  0  0  0  0
 16 42  1  0  0  0  0
 17 18  1  0  0  0  0
 17 47  1  0  0  0  0
 18 23  2  0  0  0  0
 18 19  1  0  0  0  0
 19 20  2  0  0  0  0
 19 43  1  0  0  0  0
 20 21  1  0  0  0  0
 20 44  1  0  0  0  0
 21 22  2  0  0  0  0
 21 45  1  0  0  0  0
 22 23  1  0  0  0  0
 22 46  1  0  0  0  0
M  CHG  1  17   1
M  END
> <s_m_source_file>
AV-unprocessed.smi

> <i_m_source_file_index>
1378

> <i_lp_mmshare_version>
43012

> <i_f3d_flags>
0

> <s_epik_input>
W2NIXTFbY0hdW2NIXVtjSF1jKGMxMiluKFtDSDJdW0NIMl1PW0NIM10pYyhuMilTW0NIMl1DKD1PKVtOSF1bQ0hdM1tDSDJdW0NIMl1bQ0gyXVtDSDJdMw==

> <s_epik_cmdline>
J2VwaWtfcHl0aG9uJywgJy1waCcsICc3LjAnLCAnLXRuJywgJzgnLCAnLW1hJywgJzIwMCcsICctbWV0YWxfYmluZGluZycsICctaW1hZScsICc8aW5maWxlLm1hZT4nLCAnLW9tYWUnLCAnPG91dGZpbGUubWFlPic=

> <r_epik_Ionization_Penalty>
1.66257

> <r_epik_Ionization_Penalty_Charging>
1.66257

> <r_epik_Ionization_Penalty_Neutral>
9.72138e-08

> <r_epik_State_Penalty>
1.76557

> <r_epik_Charging_Adjusted_Penalty>
3.42813

> <i_epik_Tot_Q>
1

> <i_epik_Tot_abs_Q>
1

> <r_epik_Metal_State_Penalty>
1.80074

> <b_epik_Metal_Only>
0

> <s_lp_Force_Field>
OPLS_2005

> <r_lp_Energy>
23.1428

> <b_lp_Chiralities_Consistent>
1

> <s_lp_Variant>
AV-unprocessed.smi:1378-2

> <Gold.Version>
5.8.1

> <Gold.Id.Protein>
6NUR|6NUR_protein|mol2

> <Gold.PLP.Fitness>
55.7471

> <Gold.PLP.PLP>
-47.4778

> <Gold.PLP.part.hbond>
-2.0000

> <Gold.PLP.part.metal>
0.0000

> <Gold.PLP.part.buried>
-6.0227

> <Gold.PLP.part.nonpolar>
-39.2069

> <Gold.PLP.part.repulsive>
0.1828

> <Gold.PLP.ligand.clash>
0.0000

> <Gold.PLP.ligand.torsion>
0.4256

> <Gold.PLP.Chemscore.Hbond>
3.0000

> <Gold.PLP.Chemscore.CHOScore>
0.0000

> <Gold.PLP.Chemscore.Metal>
0.0000

> <Gold.Chemscore.Hbonds>
donor molecule, donor type, donor heavy atom, donor atom, acceptor molecule, acceptor atom, score
      L1  H    11    33       P1  8028  1.00
      L1  H    17    47       P1  8028  2.00

> <Gold.PLP.Chemscore.Internal.Correction>
0.1205

> <Gold.Rescore>
     Score         DG    S(hbond)    S(metal)    S(lipo)     H(rot)  DE(clash)    DE(int)     intcor
     18.43     -19.82       1.73        0.00     118.14       2.06       0.86       0.52       ----

> <Gold.Chemscore.Fitness>
18.4340

> <Gold.Chemscore.DG>
-19.8156

> <Gold.Chemscore.ZeroCoef>
-5.4800

> <Gold.Chemscore.Hbond>
1.7301

> <Gold.Chemscore.Metal>
0.0000

> <Gold.Chemscore.Lipo>
118.1380

> <Gold.Chemscore.Internal_Hbond>
0.0000

> <Gold.Chemscore.DEClash>
0.8571

> <Gold.Chemscore.DEInternal>
0.5245

> <Gold.Chemscore.Rot>
2.0567

> <Gold.Chemscore.Internal.Correction>
   9.000000E+99

> <Gold.Chemscore.Hbonds>
donor molecule, donor type, donor heavy atom, donor atom, acceptor molecule, acceptor atom, score
      L1  H    11    33       P1  8028  0.30
      L1  H    17    47       P1  8028  1.00

> <Gold.Chemscore.Hbond.Weighted>
-5.7787

> <Gold.Chemscore.Metal.Weighted>
-0.0000

> <Gold.Chemscore.Lipo.Weighted>
-13.8221

> <Gold.Chemscore.Internal_Hbond.Weighted>
0.0000

> <Gold.Chemscore.DEClash.Weighted>
0.8571

> <Gold.Chemscore.DEInternal.Weighted>
0.5245

> <Gold.Chemscore.Rot.Weighted>
5.2652

> <Gold.Chemscore.Internal.Correction.Weighted>
   9.000000E+99

> <Gold.Protein.RotatedTorsions>
[ 6907 6896 6895 6894 ] final  -66.69 input  -60.11 | X-H torsion
[ 7974 7965 7964 7962 ] final -130.67 input  175.53 | X-H torsion
[ 8008 7997 7996 7995 ] final -151.21 input   59.86 | X-H torsion
[ 10167 10162 10161 10158 ] final -131.19 input  -65.29 | X-H torsion
[ 10718 10713 10712 10709 ] final  146.57 input   66.30 | X-H torsion
[ 10763 10752 10751 10750 ] final -147.61 input  -60.55 | X-H torsion
[ 11005 11000 10999 10996 ] final -177.87 input  -57.11 | X-H torsion

> <Gold.Protein.ActiveResidues>
 VAL166  LYS551  ARG553  GLY616  TRP617  ASP618  TYR619  PRO620  LYS621  CYS622 
 ASP623  PHE694  ASN695  SER759  ASP760  ASP761  ALA762  ILE779  LEU786  VAL792 
 PHE793  MET794  SER795  GLU796  ALA797  LYS798  CYS799  TRP800  GLU811  SER814 

> <Gold.Protein.RotatedAtoms>
  150.7451  134.5985  159.6024 H   0  0  0  0  0  0  0  0  0  0  0  0  # atno 6907 bound_to 6896
  152.3353  134.7203  160.0287 H   0  0  0  0  0  0  0  0  0  0  0  0  # atno 6908 bound_to 6896
  151.7673  133.3302  159.3471 H   0  0  0  0  0  0  0  0  0  0  0  0  # atno 6909 bound_to 6896
  144.9453  140.7284  143.4821 H   0  0  0  0  0  0  0  0  0  0  0  0  # atno 7974 bound_to 7965
  155.6358  140.0696  157.2634 H   0  0  0  0  0  0  0  0  0  0  0  0  # atno 8008 bound_to 7997
  154.4195  140.1759  156.1569 H   0  0  0  0  0  0  0  0  0  0  0  0  # atno 8009 bound_to 7997
  155.9896  140.3346  155.6743 H   0  0  0  0  0  0  0  0  0  0  0  0  # atno 8010 bound_to 7997
  139.9215  143.6377  152.2552 H   0  0  0  0  0  0  0  0  0  0  0  0  # atno 10167 bound_to 10162
  157.3316  131.0921  151.1158 H   0  0  0  0  0  0  0  0  0  0  0  0  # atno 10718 bound_to 10713
  154.8277  135.3356  154.6845 H   0  0  0  0  0  0  0  0  0  0  0  0  # atno 10763 bound_to 10752
  153.7469  135.6942  153.4959 H   0  0  0  0  0  0  0  0  0  0  0  0  # atno 10764 bound_to 10752
  153.2204  135.4451  155.0433 H   0  0  0  0  0  0  0  0  0  0  0  0  # atno 10765 bound_to 10752
  140.4361  134.6474  157.4735 H   0  0  0  0  0  0  0  0  0  0  0  0  # atno 11005 bound_to 11000
  145.2928  139.1877  143.4731 LP  0  0  0  0  0  0  0  0  0  0  0  0  # atno 17320 bound_to 7965
  146.3301  140.2907  142.8615 LP  0  0  0  0  0  0  0  0  0  0  0  0  # atno 17321 bound_to 7965
  139.6858  144.7651  151.1527 LP  0  0  0  0  0  0  0  0  0  0  0  0  # atno 17342 bound_to 10162
  140.7661  143.5659  150.9048 LP  0  0  0  0  0  0  0  0  0  0  0  0  # atno 17343 bound_to 10162
  157.2404  130.6567  149.5887 LP  0  0  0  0  0  0  0  0  0  0  0  0  # atno 17370 bound_to 10713
  155.9696  130.4570  150.5946 LP  0  0  0  0  0  0  0  0  0  0  0  0  # atno 17371 bound_to 10713
  140.0101  134.6703  155.9394 LP  0  0  0  0  0  0  0  0  0  0  0  0  # atno 17394 bound_to 11000
  141.1725  133.6538  156.4705 LP  0  0  0  0  0  0  0  0  0  0  0  0  # atno 17395 bound_to 11000

$$$$
