#       Name:                AV-unprocessed.smi:1554
#       Creating user name   scv26
#       Creation time:       Fri Mar 27 06:42:36 2020


#       File generated by GOLD software.
#

@<TRIPOS>MOLECULE
AV-unprocessed.smi:1554
    53    55     1
SMALL
NO_CHARGES


@<TRIPOS>ATOM
      1 ****        -3.7424   4.4486   3.6389 C.3            1 S1                 0.0000
      2 ****        -3.2712   3.4535   2.5930 C.ar           1 S1                 0.0000
      3 ****        -3.3960   3.7838   1.2247 C.ar           1 S1                 0.0000
      4 ****        -2.9683   2.8870   0.2211 C.ar           1 S1                 0.0000
      5 ****        -2.9914   3.0044  -1.1582 N.2            1 S1                 0.0000
      6 ****        -2.4598   1.8449  -1.5344 C.2            1 S1                 0.0000
      7 ****        -2.0964   0.9879  -0.5611 N.pl3          1 S1                 0.0000
      8 ****        -1.5056  -0.3278  -0.7325 C.3            1 S1                 0.0000
      9 ****         0.0302  -0.2792  -0.8455 C.3            1 S1                 0.0000
     10 ****         0.5710   0.2459   0.3511 O.3            1 S1                 0.0000
     11 ****         0.6226  -1.6847  -1.0710 C.3            1 S1                 0.0000
     12 ****         2.0630  -1.7313  -1.3306 N.3            1 S1                 0.0000
     13 ****         2.4262  -1.1486  -2.6208 C.3            1 S1                 0.0000
     14 ****         3.9387  -1.2396  -2.8856 C.3            1 S1                 0.0000
     15 ****         4.3596  -2.5968  -2.8005 O.3            1 S1                 0.0000
     16 ****         4.0709  -3.1898  -1.5378 C.3            1 S1                 0.0000
     17 ****         4.5744  -4.6369  -1.5580 C.3            1 S1                 0.0000
     18 ****         2.5541  -3.1044  -1.2793 C.3            1 S1                 0.0000
     19 ****        -2.4124   1.6386   0.6268 C.ar           1 S1                 0.0000
     20 ****        -2.2823   1.2991   1.9850 C.ar           1 S1                 0.0000
     21 ****        -2.7093   2.2087   2.9749 C.ar           1 S1                 0.0000
     22 ****        -2.5568   1.8348   4.4387 C.3            1 S1                 0.0000
     23 ****        -4.2318   5.3074   3.1787 H              1 S1                 0.0000
     24 ****        -2.8977   4.8157   4.2221 H              1 S1                 0.0000
     25 ****        -4.4571   3.9836   4.3180 H              1 S1                 0.0000
     26 ****        -3.8215   4.7328   0.9335 H              1 S1                 0.0000
     27 ****        -2.3279   1.6029  -2.5788 H              1 S1                 0.0000
     28 ****        -1.8100  -0.9592   0.1033 H              1 S1                 0.0000
     29 ****        -1.9328  -0.7760  -1.6304 H              1 S1                 0.0000
     30 ****         0.2922   0.3881  -1.6657 H              1 S1                 0.0000
     31 ****         1.5131   0.2531   0.2728 H              1 S1                 0.0000
     32 ****         0.3972  -2.2881  -0.1902 H              1 S1                 0.0000
     33 ****         0.0978  -2.1653  -1.8981 H              1 S1                 0.0000
     34 ****         1.8888  -1.6583  -3.4219 H              1 S1                 0.0000
     35 ****         2.1332  -0.1008  -2.6640 H              1 S1                 0.0000
     36 ****         4.1736  -0.8552  -3.8783 H              1 S1                 0.0000
     37 ****         4.4934  -0.6335  -2.1677 H              1 S1                 0.0000
     38 ****         4.6062  -2.6429  -0.7595 H              1 S1                 0.0000
     39 ****         4.3848  -5.1320  -0.6053 H              1 S1                 0.0000
     40 ****         5.6480  -4.6734  -1.7435 H              1 S1                 0.0000
     41 ****         4.0814  -5.2150  -2.3400 H              1 S1                 0.0000
     42 ****         2.3316  -3.5376  -0.3032 H              1 S1                 0.0000
     43 ****         2.0261  -3.7118  -2.0164 H              1 S1                 0.0000
     44 ****        -1.8516   0.3479   2.2611 H              1 S1                 0.0000
     45 ****        -2.0551   0.8735   4.5531 H              1 S1                 0.0000
     46 ****        -3.5334   1.7627   4.9177 H              1 S1                 0.0000
     47 ****        -1.9660   2.5842   4.9657 H              1 S1                 0.0000
     48 ****        -3.3209   3.7613  -1.7226 LP             1 S1                 0.0000
     49 ****         0.3003  -0.3272   1.1246 LP             1 S1                 0.0000
     50 ****         0.2363   1.1774   0.4932 LP             1 S1                 0.0000
     51 ****         2.4906  -1.1836  -0.6115 LP             1 S1                 0.0000
     52 ****         5.3473  -2.6345  -2.9521 LP             1 S1                 0.0000
     53 ****         3.8928  -3.1207  -3.5130 LP             1 S1                 0.0000
@<TRIPOS>BOND
    1    1    2 1     
    2    1   23 1     
    3    1   24 1     
    4    1   25 1     
    5    2   21 ar    
    6    2    3 ar    
    7    3    4 ar    
    8    3   26 1     
    9    4   19 ar    
   10    4    5 1     
   11    5    6 2     
   12    6    7 1     
   13    6   27 1     
   14    7    8 1     
   15    7   19 1     
   16    8    9 1     
   17    8   28 1     
   18    8   29 1     
   19    9   10 1     
   20    9   11 1     
   21    9   30 1     
   22   10   31 1     
   23   11   12 1     
   24   11   32 1     
   25   11   33 1     
   26   12   18 1     
   27   12   13 1     
   28   13   14 1     
   29   13   34 1     
   30   13   35 1     
   31   14   15 1     
   32   14   36 1     
   33   14   37 1     
   34   15   16 1     
   35   16   17 1     
   36   16   18 1     
   37   16   38 1     
   38   17   39 1     
   39   17   40 1     
   40   17   41 1     
   41   18   42 1     
   42   18   43 1     
   43   19   20 ar    
   44   20   21 ar    
   45   20   44 1     
   46   21   22 1     
   47   22   45 1     
   48   22   46 1     
   49   22   47 1     
   50    5   48 1     
   51   10   49 1     
   52   10   50 1     
   53   12   51 1     
   54   15   52 1     
   55   15   53 1     
@<TRIPOS>SUBSTRUCTURE
      1 S1             1
@<TRIPOS>SET
LONE_PAIRS      STATIC     ATOMS    <user>   **** ""
6 48 49 50 51 52 53
DONOR_HYDROGENS      STATIC     ATOMS    <user>   **** ""
1 31
ATOM$BLUE        STATIC     ATOMS    COLORGROUP SYSTEM
6 48 49 50 51 52 53
ATOM$RED        STATIC     ATOMS    COLORGROUP SYSTEM
1 31
