AV-unprocessed.smi:3284|AV-procd|sdf|12573|dock7
  -GOLD-   2272018493D 1   1.00000     0.00000
 Structure written by MMmdl.
 44 45  0  0  0  0  0  0  0  0  2 V2000
  151.3019  145.4790  159.9739 C   0  0  0  0  0  0  0  0  0  0  0  0
  151.7949  144.0882  160.3373 C   0  0  0  0  0  0  0  0  0  0  0  0
  152.2319  143.8400  161.5868 C   0  0  0  0  0  0  0  0  0  0  0  0
  152.8147  142.5215  162.0401 C   0  0  0  0  0  0  0  0  0  0  0  0
  153.3103  141.7012  160.8470 C   0  0  0  0  0  0  0  0  0  0  0  0
  152.2423  141.6095  159.7449 C   0  0  2  0  0  0  0  0  0  0  0  0
  152.7554  140.7017  158.6100 C   0  0  0  0  0  0  0  0  0  0  0  0
  151.7952  143.0135  159.2306 C   0  0  1  0  0  0  0  0  0  0  0  0
  150.4296  142.9004  158.5022 C   0  0  0  0  0  0  0  0  0  0  0  0
  150.5583  142.8727  157.0306 N   0  3  0  0  0  0  0  0  0  0  0  0
  150.1444  141.5967  156.4163 C   0  0  0  0  0  0  0  0  0  0  0  0
  149.9264  141.7534  154.9060 C   0  0  0  0  0  0  0  0  0  0  0  0
  149.0109  140.7054  154.3542 C   0  0  0  0  0  0  0  0  0  0  0  0
  149.3744  139.4409  154.1642 N   0  0  0  0  0  0  0  0  0  0  0  0
  148.2507  138.8257  153.6224 C   0  0  0  0  0  0  0  0  0  0  0  0
  147.2421  139.7501  153.4961 C   0  0  0  0  0  0  0  0  0  0  0  0
  147.7459  140.9565  153.9642 N   0  0  0  0  0  0  0  0  0  0  0  0
  147.0295  142.2165  154.0110 C   0  0  0  0  0  0  0  0  0  0  0  0
  151.7946  145.8351  159.0690 H   0  0  0  0  0  0  0  0  0  0  0  0
  151.5160  146.1950  160.7683 H   0  0  0  0  0  0  0  0  0  0  0  0
  150.2232  145.4822  159.8174 H   0  0  0  0  0  0  0  0  0  0  0  0
  152.1914  144.6169  162.3367 H   0  0  0  0  0  0  0  0  0  0  0  0
  153.6420  142.7126  162.7239 H   0  0  0  0  0  0  0  0  0  0  0  0
  152.0545  141.9758  162.5997 H   0  0  0  0  0  0  0  0  0  0  0  0
  154.2145  142.1579  160.4417 H   0  0  0  0  0  0  0  0  0  0  0  0
  153.5942  140.7049  161.1876 H   0  0  0  0  0  0  0  0  0  0  0  0
  151.3736  141.1217  160.1907 H   0  0  0  0  0  0  0  0  0  0  0  0
  153.6204  141.1419  158.1127 H   0  0  0  0  0  0  0  0  0  0  0  0
  151.9980  140.5138  157.8504 H   0  0  0  0  0  0  0  0  0  0  0  0
  153.0607  139.7291  158.9972 H   0  0  0  0  0  0  0  0  0  0  0  0
  152.5421  143.3435  158.5070 H   0  0  0  0  0  0  0  0  0  0  0  0
  149.9068  141.9901  158.7907 H   0  0  0  0  0  0  0  0  0  0  0  0
  149.7847  143.7293  158.7977 H   0  0  0  0  0  0  0  0  0  0  0  0
  149.9862  143.6123  156.6484 H   0  0  0  0  0  0  0  0  0  0  0  0
  150.9081  140.8415  156.6074 H   0  0  0  0  0  0  0  0  0  0  0  0
  149.2241  141.2527  156.8903 H   0  0  0  0  0  0  0  0  0  0  0  0
  149.4928  142.7319  154.6951 H   0  0  0  0  0  0  0  0  0  0  0  0
  150.8797  141.7239  154.3774 H   0  0  0  0  0  0  0  0  0  0  0  0
  148.2557  137.7766  153.3658 H   0  0  0  0  0  0  0  0  0  0  0  0
  146.2350  139.6512  153.1181 H   0  0  0  0  0  0  0  0  0  0  0  0
  146.0766  142.1263  153.4886 H   0  0  0  0  0  0  0  0  0  0  0  0
  147.6185  142.9987  153.5318 H   0  0  0  0  0  0  0  0  0  0  0  0
  146.8383  142.4927  155.0482 H   0  0  0  0  0  0  0  0  0  0  0  0
  151.5223  143.0519  156.7884 H   0  0  0  0  0  0  0  0  0  0  0  0
  1  2  1  0  0  0  0
  1 19  1  0  0  0  0
  1 20  1  0  0  0  0
  1 21  1  0  0  0  0
  2  8  1  0  0  0  0
  2  3  2  0  0  0  0
  3  4  1  0  0  0  0
  3 22  1  0  0  0  0
  4  5  1  0  0  0  0
  4 23  1  0  0  0  0
  4 24  1  0  0  0  0
  5  6  1  0  0  0  0
  5 25  1  0  0  0  0
  5 26  1  0  0  0  0
  6  7  1  0  0  0  0
  6  8  1  0  0  0  0
  6 27  1  0  0  0  0
  7 28  1  0  0  0  0
  7 29  1  0  0  0  0
  7 30  1  0  0  0  0
  8  9  1  0  0  0  0
  8 31  1  0  0  0  0
  9 10  1  0  0  0  0
  9 32  1  0  0  0  0
  9 33  1  0  0  0  0
 10 11  1  0  0  0  0
 10 34  1  0  0  0  0
 10 44  1  0  0  0  0
 11 12  1  0  0  0  0
 11 35  1  0  0  0  0
 11 36  1  0  0  0  0
 12 13  1  0  0  0  0
 12 37  1  0  0  0  0
 12 38  1  0  0  0  0
 13 17  1  0  0  0  0
 13 14  2  0  0  0  0
 14 15  1  0  0  0  0
 15 16  2  0  0  0  0
 15 39  1  0  0  0  0
 16 17  1  0  0  0  0
 16 40  1  0  0  0  0
 17 18  1  0  0  0  0
 18 41  1  0  0  0  0
 18 42  1  0  0  0  0
 18 43  1  0  0  0  0
M  CHG  1  10   1
M  END
> <s_m_source_file>
AV-unprocessed.smi

> <i_m_source_file_index>
3284

> <i_lp_mmshare_version>
43012

> <i_f3d_flags>
0

> <s_epik_input>
W0NIM11DMT1bQ0hdW0NIMl1bQ0gyXVtDQEBIXShbQ0gzXSlbQ0BIXTFbQ0gyXVtOSF1bQ0gyXVtDSDJdYzJuW2NIXVtjSF1uMltDSDNd

> <s_epik_cmdline>
J2VwaWtfcHl0aG9uJywgJy1waCcsICc3LjAnLCAnLXRuJywgJzgnLCAnLW1hJywgJzIwMCcsICctbWV0YWxfYmluZGluZycsICctaW1hZScsICc8aW5maWxlLm1hZT4nLCAnLW9tYWUnLCAnPG91dGZpbGUubWFlPic=

> <r_lp_tautomer_probability>
1

> <r_epik_Ionization_Penalty>
0.150779

> <r_epik_Ionization_Penalty_Charging>
0.150779

> <r_epik_Ionization_Penalty_Neutral>
1.39452e-13

> <r_epik_State_Penalty>
0.349447

> <r_epik_Charging_Adjusted_Penalty>
0.500226

> <i_epik_Tot_Q>
1

> <i_epik_Tot_abs_Q>
1

> <r_epik_Metal_State_Penalty>
0.000470967

> <b_epik_Metal_Only>
0

> <s_lp_Force_Field>
OPLS_2005

> <r_lp_Energy>
12.7039

> <b_lp_Chiralities_Consistent>
1

> <s_lp_Variant>
AV-unprocessed.smi:3284-2

> <Gold.Version>
5.8.1

> <Gold.Id.Protein>
6NUR|6NUR_protein|mol2

> <Gold.PLP.Fitness>
55.4868

> <Gold.PLP.PLP>
-46.1333

> <Gold.PLP.part.hbond>
-1.0000

> <Gold.PLP.part.metal>
0.0000

> <Gold.PLP.part.buried>
-4.3914

> <Gold.PLP.part.nonpolar>
-40.9376

> <Gold.PLP.part.repulsive>
0.1657

> <Gold.PLP.ligand.clash>
0.0000

> <Gold.PLP.ligand.torsion>
1.3296

> <Gold.PLP.Chemscore.Hbond>
2.0000

> <Gold.PLP.Chemscore.CHOScore>
1.9856

> <Gold.PLP.Chemscore.Metal>
0.0000

> <Gold.Chemscore.Hbonds>
donor molecule, donor type, donor heavy atom, donor atom, acceptor molecule, acceptor atom, score
      L1  H    10    34       P1  8028  2.00
      L1  C    15    39       P1  7948  1.00
      L1  C    16    40       P1 10175  0.43

> <Gold.PLP.Chemscore.Internal.Correction>
0.0557

> <Gold.Rescore>
     Score         DG    S(hbond)    S(metal)    S(lipo)     H(rot)  DE(clash)    DE(int)     intcor
     18.34     -19.70       1.00        0.00     128.26       1.61       0.23       1.13       ----

> <Gold.Chemscore.Fitness>
18.3361

> <Gold.Chemscore.DG>
-19.6972

> <Gold.Chemscore.ZeroCoef>
-5.4800

> <Gold.Chemscore.Hbond>
0.9982

> <Gold.Chemscore.Metal>
0.0000

> <Gold.Chemscore.Lipo>
128.2568

> <Gold.Chemscore.Internal_Hbond>
0.0000

> <Gold.Chemscore.DEClash>
0.2337

> <Gold.Chemscore.DEInternal>
1.1274

> <Gold.Chemscore.Rot>
1.6105

> <Gold.Chemscore.Internal.Correction>
   9.000000E+99

> <Gold.Chemscore.Hbonds>
donor molecule, donor type, donor heavy atom, donor atom, acceptor molecule, acceptor atom, score
      L1  H    10    34       P1  8028  1.00

> <Gold.Chemscore.Hbond.Weighted>
-3.3341

> <Gold.Chemscore.Metal.Weighted>
-0.0000

> <Gold.Chemscore.Lipo.Weighted>
-15.0060

> <Gold.Chemscore.Internal_Hbond.Weighted>
0.0000

> <Gold.Chemscore.DEClash.Weighted>
0.2337

> <Gold.Chemscore.DEInternal.Weighted>
1.1274

> <Gold.Chemscore.Rot.Weighted>
4.1230

> <Gold.Chemscore.Internal.Correction.Weighted>
   9.000000E+99

> <Gold.Protein.RotatedTorsions>
[ 6907 6896 6895 6894 ] final  -34.36 input  -60.11 | X-H torsion
[ 7974 7965 7964 7962 ] final -178.34 input  175.53 | X-H torsion
[ 8008 7997 7996 7995 ] final   91.54 input   59.86 | X-H torsion
[ 10167 10162 10161 10158 ] final  -64.48 input  -65.29 | X-H torsion
[ 10718 10713 10712 10709 ] final  155.46 input   66.30 | X-H torsion
[ 10763 10752 10751 10750 ] final   35.01 input  -60.55 | X-H torsion
[ 11005 11000 10999 10996 ] final  146.52 input  -57.11 | X-H torsion

> <Gold.Protein.ActiveResidues>
 VAL166  LYS551  ARG553  GLY616  TRP617  ASP618  TYR619  PRO620  LYS621  CYS622 
 ASP623  PHE694  ASN695  SER759  ASP760  ASP761  ALA762  ILE779  LEU786  VAL792 
 PHE793  MET794  SER795  GLU796  ALA797  LYS798  CYS799  TRP800  GLU811  SER814 

> <Gold.Protein.RotatedAtoms>
  151.0537  134.9690  159.8224 H   0  0  0  0  0  0  0  0  0  0  0  0  # atno 6907 bound_to 6896
  152.5385  134.2505  159.8907 H   0  0  0  0  0  0  0  0  0  0  0  0  # atno 6908 bound_to 6896
  151.2522  133.4301  159.2646 H   0  0  0  0  0  0  0  0  0  0  0  0  # atno 6909 bound_to 6896
  144.7130  140.0883  143.6422 H   0  0  0  0  0  0  0  0  0  0  0  0  # atno 7974 bound_to 7965
  156.0249  140.3336  155.7078 H   0  0  0  0  0  0  0  0  0  0  0  0  # atno 8008 bound_to 7997
  155.5969  140.0652  157.2761 H   0  0  0  0  0  0  0  0  0  0  0  0  # atno 8009 bound_to 7997
  154.4330  140.1817  156.1120 H   0  0  0  0  0  0  0  0  0  0  0  0  # atno 8010 bound_to 7997
  140.5798  143.2326  151.6367 H   0  0  0  0  0  0  0  0  0  0  0  0  # atno 10167 bound_to 10162
  157.2180  131.0712  151.1929 H   0  0  0  0  0  0  0  0  0  0  0  0  # atno 10718 bound_to 10713
  153.0138  135.6345  154.1759 H   0  0  0  0  0  0  0  0  0  0  0  0  # atno 10763 bound_to 10752
  154.1499  135.2829  155.3140 H   0  0  0  0  0  0  0  0  0  0  0  0  # atno 10764 bound_to 10752
  154.6061  135.5571  153.7485 H   0  0  0  0  0  0  0  0  0  0  0  0  # atno 10765 bound_to 10752
  140.0800  134.9102  157.1485 H   0  0  0  0  0  0  0  0  0  0  0  0  # atno 11005 bound_to 11000
  145.9642  139.2822  143.1137 LP  0  0  0  0  0  0  0  0  0  0  0  0  # atno 17320 bound_to 7965
  145.9187  140.9130  143.0416 LP  0  0  0  0  0  0  0  0  0  0  0  0  # atno 17321 bound_to 7965
  139.5163  144.3351  152.0791 LP  0  0  0  0  0  0  0  0  0  0  0  0  # atno 17342 bound_to 10162
  140.2500  144.4179  150.6226 LP  0  0  0  0  0  0  0  0  0  0  0  0  # atno 17343 bound_to 10162
  157.3605  130.7129  149.6499 LP  0  0  0  0  0  0  0  0  0  0  0  0  # atno 17370 bound_to 10713
  155.9684  130.4227  150.4527 LP  0  0  0  0  0  0  0  0  0  0  0  0  # atno 17371 bound_to 10713
  140.3501  134.2608  155.7199 LP  0  0  0  0  0  0  0  0  0  0  0  0  # atno 17394 bound_to 11000
  141.2043  133.7889  157.0293 LP  0  0  0  0  0  0  0  0  0  0  0  0  # atno 17395 bound_to 11000

$$$$
