#       Name:                AV-unprocessed.smi:3166
#       Creating user name   scv26
#       Creation time:       Fri Mar 27 17:52:49 2020


#       File generated by GOLD software.
#

@<TRIPOS>MOLECULE
AV-unprocessed.smi:3166
    44    45     1
SMALL
NO_CHARGES


@<TRIPOS>ATOM
      1 ****        -3.1394  -1.0617  -1.0803 C.3            1 S1                 0.0000
      2 ****        -2.4873  -0.3587   0.1219 C.3            1 S1                 0.0000
      3 ****        -2.9403  -1.0129   1.4432 C.3            1 S1                 0.0000
      4 ****        -2.4077  -0.3462   2.6197 N.pl3          1 S1                 0.0000
      5 ****        -1.6120  -0.8729   3.6157 C.2            1 S1                 0.0000
      6 ****        -1.3815   0.1226   4.5214 C.2            1 S1                 0.0000
      7 ****        -2.0945   1.2339   3.9917 C.2            1 S1                 0.0000
      8 ****        -2.7108   0.9488   2.8559 N.2            1 S1                 0.0000
      9 ****        -1.0102  -0.3872   0.0221 N.4            1 S1                 1.0000
     10 ****        -0.4206   0.5280  -0.9797 C.3            1 S1                 0.0000
     11 ****         1.1232   0.5325  -0.9272 C.3            1 S1                 0.0000
     12 ****         1.4956   0.9766   0.3656 O.3            1 S1                 0.0000
     13 ****         1.7176  -0.8760  -1.1792 C.3            1 S1                 0.0000
     14 ****         3.2546  -0.8703  -1.2619 C.3            1 S1                 0.0000
     15 ****         3.7548   0.1241  -2.3184 C.3            1 S1                 0.0000
     16 ****         3.2173   1.5349  -2.0423 C.3            1 S1                 0.0000
     17 ****         1.6803   1.5427  -1.9585 C.3            1 S1                 0.0000
     18 ****        -4.2256  -1.0678  -0.9850 H              1 S1                 0.0000
     19 ****        -2.8092  -2.0979  -1.1616 H              1 S1                 0.0000
     20 ****        -2.9058  -0.5612  -2.0196 H              1 S1                 0.0000
     21 ****        -2.8118   0.6831   0.1263 H              1 S1                 0.0000
     22 ****        -4.0286  -0.9998   1.5163 H              1 S1                 0.0000
     23 ****        -2.6389  -2.0613   1.4701 H              1 S1                 0.0000
     24 ****        -1.2792  -1.9004   3.5991 H              1 S1                 0.0000
     25 ****        -0.7969   0.0649   5.4277 H              1 S1                 0.0000
     26 ****        -2.1839   2.2309   4.3973 H              1 S1                 0.0000
     27 ****        -0.6411  -0.1084   0.9207 H              1 S1                 0.0000
     28 ****        -0.7520   0.2354  -1.9761 H              1 S1                 0.0000
     29 ****        -0.7997   1.5361  -0.8044 H              1 S1                 0.0000
     30 ****         2.4389   1.0314   0.4030 H              1 S1                 0.0000
     31 ****         1.4048  -1.5718  -0.4000 H              1 S1                 0.0000
     32 ****         1.3195  -1.2718  -2.1148 H              1 S1                 0.0000
     33 ****         3.6768  -0.6146  -0.2892 H              1 S1                 0.0000
     34 ****         3.6156  -1.8719  -1.4975 H              1 S1                 0.0000
     35 ****         4.8451   0.1368  -2.3309 H              1 S1                 0.0000
     36 ****         3.4374  -0.2027  -3.3095 H              1 S1                 0.0000
     37 ****         3.6420   1.9142  -1.1122 H              1 S1                 0.0000
     38 ****         3.5470   2.2153  -2.8280 H              1 S1                 0.0000
     39 ****         1.2796   1.3056  -2.9452 H              1 S1                 0.0000
     40 ****         1.3324   2.5508  -1.7287 H              1 S1                 0.0000
     41 ****        -0.7071  -1.3313  -0.1681 H              1 S1                 0.0000
     42 ****        -3.2750   1.5565   2.2971 LP             1 S1                 0.0000
     43 ****         1.1677   0.3282   1.0527 LP             1 S1                 0.0000
     44 ****         1.0980   1.8773   0.5406 LP             1 S1                 0.0000
@<TRIPOS>BOND
    1    1    2 1     
    2    1   18 1     
    3    1   19 1     
    4    1   20 1     
    5    2    3 1     
    6    2    9 1     
    7    2   21 1     
    8    3    4 1     
    9    3   22 1     
   10    3   23 1     
   11    4    8 1     
   12    4    5 1     
   13    5    6 2     
   14    5   24 1     
   15    6    7 1     
   16    6   25 1     
   17    7    8 2     
   18    7   26 1     
   19    9   10 1     
   20    9   27 1     
   21    9   41 1     
   22   10   11 1     
   23   10   28 1     
   24   10   29 1     
   25   11   17 1     
   26   11   12 1     
   27   11   13 1     
   28   12   30 1     
   29   13   14 1     
   30   13   31 1     
   31   13   32 1     
   32   14   15 1     
   33   14   33 1     
   34   14   34 1     
   35   15   16 1     
   36   15   35 1     
   37   15   36 1     
   38   16   17 1     
   39   16   37 1     
   40   16   38 1     
   41   17   39 1     
   42   17   40 1     
   43    8   42 1     
   44   12   43 1     
   45   12   44 1     
@<TRIPOS>SUBSTRUCTURE
      1 S1             1
@<TRIPOS>SET
LONE_PAIRS      STATIC     ATOMS    <user>   **** ""
3 42 43 44
DONOR_HYDROGENS      STATIC     ATOMS    <user>   **** ""
3 27 41 30
ATOM$BLUE        STATIC     ATOMS    COLORGROUP SYSTEM
3 42 43 44
ATOM$RED        STATIC     ATOMS    COLORGROUP SYSTEM
3 27 41 30
