#       Name:                AV-unprocessed.smi:99
#       Creating user name   scv26
#       Creation time:       Thu Mar 26 17:36:59 2020


#       File generated by GOLD software.
#

@<TRIPOS>MOLECULE
AV-unprocessed.smi:99
    65    68     1
SMALL
NO_CHARGES


@<TRIPOS>ATOM
      1 ****        -4.0893   0.1335  -0.2269 O.2            1 S1                 0.0000
      2 ****        -3.3656   1.0145  -0.6961 C.2            1 S1                 0.0000
      3 ****        -2.0203   0.9511  -0.6972 O.3            1 S1                 0.0000
      4 ****        -1.3634  -0.1749  -0.1396 C.3            1 S1                 0.0000
      5 ****         0.1484  -0.0253  -0.3335 C.3            1 S1                 0.0000
      6 ****         0.4979  -0.2855  -1.6822 O.3            1 S1                 0.0000
      7 ****         1.8507  -0.6126  -1.7362 C.3            1 S1                 0.0000
      8 ****         2.0619  -1.5920  -2.8702 N.am           1 S1                 0.0000
      9 ****         1.0838  -2.5202  -3.1842 C.2            1 S1                 0.0000
     10 ****         1.2536  -3.4061  -4.1872 C.2            1 S1                 0.0000
     11 ****         2.4950  -3.3885  -4.9561 C.2            1 S1                 0.0000
     12 ****         2.6368  -4.1912  -5.8769 O.2            1 S1                 0.0000
     13 ****         3.4499  -2.4753  -4.6142 N.pl3          1 S1                -1.0000
     14 ****         3.2847  -1.5830  -3.5941 C.2            1 S1                 0.0000
     15 ****         4.1494  -0.7709  -3.2632 O.2            1 S1                 0.0000
     16 ****         2.2536  -1.1733  -0.3531 C.3            1 S1                 0.0000
     17 ****         2.7075  -2.5150  -0.3642 O.3            1 S1                 0.0000
     18 ****         0.9589  -1.0597   0.4476 C.3            1 S1                 0.0000
     19 ****         1.2007  -0.5686   1.7608 O.3            1 S1                 0.0000
     20 ****         1.4610  -1.4169   2.7781 C.2            1 S1                 0.0000
     21 ****         1.5282  -2.6407   2.6480 O.2            1 S1                 0.0000
     22 ****         1.6623  -0.7169   4.0794 C.ar           1 S1                 0.0000
     23 ****         1.9796  -1.4739   5.2314 C.ar           1 S1                 0.0000
     24 ****         2.1735  -0.8414   6.4747 C.ar           1 S1                 0.0000
     25 ****         2.0512   0.5562   6.5817 C.ar           1 S1                 0.0000
     26 ****         1.7354   1.3206   5.4434 C.ar           1 S1                 0.0000
     27 ****         1.5423   0.6899   4.1987 C.ar           1 S1                 0.0000
     28 ****        -3.8887   2.2640  -1.3201 C.ar           1 S1                 0.0000
     29 ****        -5.2854   2.4836  -1.3655 C.ar           1 S1                 0.0000
     30 ****        -5.8090   3.6546  -1.9472 C.ar           1 S1                 0.0000
     31 ****        -4.9421   4.6199  -2.4916 C.ar           1 S1                 0.0000
     32 ****        -3.5510   4.4126  -2.4541 C.ar           1 S1                 0.0000
     33 ****        -3.0254   3.2427  -1.8719 C.ar           1 S1                 0.0000
     34 ****        -1.5960  -0.2247   0.9251 H              1 S1                 0.0000
     35 ****        -1.7181  -1.0991  -0.5985 H              1 S1                 0.0000
     36 ****         0.4790   0.9822  -0.0724 H              1 S1                 0.0000
     37 ****         2.3940   0.2973  -1.9960 H              1 S1                 0.0000
     38 ****         0.1669  -2.5471  -2.6143 H              1 S1                 0.0000
     39 ****         0.4813  -4.1253  -4.4172 H              1 S1                 0.0000
     40 ****         3.0327  -0.5270   0.0538 H              1 S1                 0.0000
     41 ****         2.9095  -2.7719   0.5226 H              1 S1                 0.0000
     42 ****         0.4195  -2.0089   0.4496 H              1 S1                 0.0000
     43 ****         2.0781  -2.5485   5.1745 H              1 S1                 0.0000
     44 ****         2.4158  -1.4300   7.3474 H              1 S1                 0.0000
     45 ****         2.1991   1.0412   7.5354 H              1 S1                 0.0000
     46 ****         1.6402   2.3934   5.5246 H              1 S1                 0.0000
     47 ****         1.2997   1.3063   3.3454 H              1 S1                 0.0000
     48 ****        -5.9708   1.7565  -0.9538 H              1 S1                 0.0000
     49 ****        -6.8772   3.8116  -1.9754 H              1 S1                 0.0000
     50 ****        -5.3435   5.5179  -2.9374 H              1 S1                 0.0000
     51 ****        -2.8844   5.1520  -2.8728 H              1 S1                 0.0000
     52 ****        -1.9528   3.1151  -1.8603 H              1 S1                 0.0000
     53 ****        -3.6819  -0.6835   0.1813 LP             1 S1                 0.0000
     54 ****        -5.0836   0.2358  -0.2545 LP             1 S1                 0.0000
     55 ****         0.3257   0.5280  -2.2377 LP             1 S1                 0.0000
     56 ****        -0.0471  -1.0483  -2.0302 LP             1 S1                 0.0000
     57 ****         1.9083  -4.8425  -6.0891 LP             1 S1                 0.0000
     58 ****         3.4807  -4.1927  -6.4134 LP             1 S1                 0.0000
     59 ****         4.3053  -2.4591  -5.1318 LP             1 S1                 0.0000
     60 ****         3.9805  -0.1421  -2.5042 LP             1 S1                 0.0000
     61 ****         5.0204  -0.7403  -3.7535 LP             1 S1                 0.0000
     62 ****         3.5277  -2.5886  -0.9315 LP             1 S1                 0.0000
     63 ****         1.9929  -3.1095  -0.7328 LP             1 S1                 0.0000
     64 ****         1.3862  -3.0566   1.7498 LP             1 S1                 0.0000
     65 ****         1.7247  -3.2178   3.4407 LP             1 S1                 0.0000
@<TRIPOS>BOND
    1    1    2 2     
    2    2    3 1     
    3    2   28 1     
    4    3    4 1     
    5    4    5 1     
    6    4   34 1     
    7    4   35 1     
    8    5   18 1     
    9    5    6 1     
   10    5   36 1     
   11    6    7 1     
   12    7    8 1     
   13    7   16 1     
   14    7   37 1     
   15    8   14 am    
   16    8    9 1     
   17    9   10 2     
   18    9   38 1     
   19   10   11 1     
   20   10   39 1     
   21   11   12 2     
   22   11   13 1     
   23   13   14 1     
   24   14   15 2     
   25   16   17 1     
   26   16   18 1     
   27   16   40 1     
   28   17   41 1     
   29   18   19 1     
   30   18   42 1     
   31   19   20 1     
   32   20   21 2     
   33   20   22 1     
   34   22   27 ar    
   35   22   23 ar    
   36   23   24 ar    
   37   23   43 1     
   38   24   25 ar    
   39   24   44 1     
   40   25   26 ar    
   41   25   45 1     
   42   26   27 ar    
   43   26   46 1     
   44   27   47 1     
   45   28   33 ar    
   46   28   29 ar    
   47   29   30 ar    
   48   29   48 1     
   49   30   31 ar    
   50   30   49 1     
   51   31   32 ar    
   52   31   50 1     
   53   32   33 ar    
   54   32   51 1     
   55   33   52 1     
   56    1   53 1     
   57    1   54 1     
   58    6   55 1     
   59    6   56 1     
   60   12   57 1     
   61   12   58 1     
   62   13   59 1     
   63   15   60 1     
   64   15   61 1     
   65   17   62 1     
   66   17   63 1     
   67   21   64 1     
   68   21   65 1     
@<TRIPOS>SUBSTRUCTURE
      1 S1             1
@<TRIPOS>SET
LONE_PAIRS      STATIC     ATOMS    <user>   **** ""
13 53 54 55 56 57 58 59 60 61 62 63 64 65
DONOR_HYDROGENS      STATIC     ATOMS    <user>   **** ""
1 41
ATOM$BLUE        STATIC     ATOMS    COLORGROUP SYSTEM
13 53 54 55 56 57 58 59 60 61 62 63 64 65
ATOM$RED        STATIC     ATOMS    COLORGROUP SYSTEM
1 41
