#       Name:                AV-unprocessed.smi:1565
#       Creating user name   scv26
#       Creation time:       Fri Mar 27 06:50:10 2020


#       File generated by GOLD software.
#

@<TRIPOS>MOLECULE
AV-unprocessed.smi:1565
    46    47     1
SMALL
NO_CHARGES


@<TRIPOS>ATOM
      1 ****        -4.4796  -1.9454   1.6888 C.3            1 S1                 0.0000
      2 ****        -3.7740  -0.9675   0.7434 C.3            1 S1                 0.0000
      3 ****        -2.2505  -0.9444   0.9686 C.3            1 S1                 0.0000
      4 ****        -1.6266   0.0807   0.1369 N.3            1 S1                 0.0000
      5 ****        -0.2189   0.0158   0.0552 C.ar           1 S1                 0.0000
      6 ****         0.4134  -1.1867  -0.3382 C.ar           1 S1                 0.0000
      7 ****         1.8193  -1.2361  -0.4003 C.ar           1 S1                 0.0000
      8 ****         2.5656  -0.0798  -0.0782 C.ar           1 S1                 0.0000
      9 ****         4.0706  -0.0715  -0.0814 C.2            1 S1                 0.0000
     10 ****         4.6474   0.6006   0.7808 O.2            1 S1                 0.0000
     11 ****         4.5940  -0.8009  -1.1073 N.pl3          1 S1                -1.0000
     12 ****         6.0290  -0.9783  -1.3433 C.3            1 S1                 0.0000
     13 ****         6.5904   0.1282  -2.2593 C.3            1 S1                 0.0000
     14 ****         7.8847  -0.1052  -2.4769 F              1 S1                 0.0000
     15 ****         5.9604   0.1329  -3.4351 F              1 S1                 0.0000
     16 ****         6.4711   1.3301  -1.6933 F              1 S1                 0.0000
     17 ****         1.8446   1.0715   0.3052 C.ar           1 S1                 0.0000
     18 ****         0.4964   1.1248   0.3649 N.ar           1 S1                 0.0000
     19 ****        -2.2420   1.3973   0.2885 C.3            1 S1                 0.0000
     20 ****        -3.7650   1.3066   0.0796 C.3            1 S1                 0.0000
     21 ****        -4.4631   2.6442   0.3465 C.3            1 S1                 0.0000
     22 ****        -4.3023   0.3357   0.9735 O.3            1 S1                 0.0000
     23 ****        -4.1164  -2.9633   1.5434 H              1 S1                 0.0000
     24 ****        -5.5557  -1.9483   1.5138 H              1 S1                 0.0000
     25 ****        -4.3121  -1.6758   2.7320 H              1 S1                 0.0000
     26 ****        -3.9884  -1.2643  -0.2850 H              1 S1                 0.0000
     27 ****        -2.0281  -0.7277   2.0143 H              1 S1                 0.0000
     28 ****        -1.8456  -1.9333   0.7577 H              1 S1                 0.0000
     29 ****        -0.1587  -2.0643  -0.5987 H              1 S1                 0.0000
     30 ****         2.3068  -2.1562  -0.6882 H              1 S1                 0.0000
     31 ****         6.5995  -0.9968  -0.4134 H              1 S1                 0.0000
     32 ****         6.2203  -1.9453  -1.8099 H              1 S1                 0.0000
     33 ****         2.3587   1.9833   0.5729 H              1 S1                 0.0000
     34 ****        -2.0213   1.7850   1.2841 H              1 S1                 0.0000
     35 ****        -1.8173   2.0941  -0.4354 H              1 S1                 0.0000
     36 ****        -3.9779   1.0037  -0.9473 H              1 S1                 0.0000
     37 ****        -4.0923   3.4208  -0.3229 H              1 S1                 0.0000
     38 ****        -4.2982   2.9782   1.3712 H              1 S1                 0.0000
     39 ****        -5.5392   2.5594   0.1931 H              1 S1                 0.0000
     40 ****        -1.8550  -0.1542  -0.8079 LP             1 S1                 0.0000
     41 ****         4.1148   1.1165   1.4517 LP             1 S1                 0.0000
     42 ****         5.6467   0.6283   0.8074 LP             1 S1                 0.0000
     43 ****         3.9577  -1.2433  -1.7393 LP             1 S1                 0.0000
     44 ****         0.0331   1.9693   0.6334 LP             1 S1                 0.0000
     45 ****        -4.0865   0.6085   1.9111 LP             1 S1                 0.0000
     46 ****        -5.2948   0.3051   0.8553 LP             1 S1                 0.0000
@<TRIPOS>BOND
    1    1    2 1     
    2    1   23 1     
    3    1   24 1     
    4    1   25 1     
    5    2   22 1     
    6    2    3 1     
    7    2   26 1     
    8    3    4 1     
    9    3   27 1     
   10    3   28 1     
   11    4    5 1     
   12    4   19 1     
   13    5   18 ar    
   14    5    6 ar    
   15    6    7 ar    
   16    6   29 1     
   17    7    8 ar    
   18    7   30 1     
   19    8    9 1     
   20    8   17 ar    
   21    9   10 2     
   22    9   11 1     
   23   11   12 1     
   24   12   13 1     
   25   12   31 1     
   26   12   32 1     
   27   13   14 1     
   28   13   15 1     
   29   13   16 1     
   30   17   18 ar    
   31   17   33 1     
   32   19   20 1     
   33   19   34 1     
   34   19   35 1     
   35   20   21 1     
   36   20   22 1     
   37   20   36 1     
   38   21   37 1     
   39   21   38 1     
   40   21   39 1     
   41    4   40 1     
   42   10   41 1     
   43   10   42 1     
   44   11   43 1     
   45   18   44 1     
   46   22   45 1     
   47   22   46 1     
@<TRIPOS>SUBSTRUCTURE
      1 S1             1
@<TRIPOS>SET
LONE_PAIRS      STATIC     ATOMS    <user>   **** ""
7 40 41 42 43 44 45 46
ATOM$BLUE        STATIC     ATOMS    COLORGROUP SYSTEM
7 40 41 42 43 44 45 46
