AV-unprocessed.smi:1433|AV-procd|sdf|5848|dock8
  -GOLD-   22720 5513D 1   1.00000     0.00000
 Structure written by MMmdl.
 45 46  0  0  0  0  0  0  0  0  2 V2000
  152.6849  144.6871  158.0702 C   0  0  0  0  0  0  0  0  0  0  0  0
  151.5646  144.0529  158.9141 C   0  0  1  0  0  0  0  0  0  0  0  0
  151.2719  142.5858  158.5493 C   0  0  0  0  0  0  0  0  0  0  0  0
  152.3500  141.6725  159.0171 N   0  3  2  0  0  0  0  0  0  0  0  0
  152.1313  140.2559  158.5749 C   0  0  1  0  0  0  0  0  0  0  0  0
  151.7086  140.2225  157.0873 C   0  0  0  0  0  0  0  0  0  0  0  0
  153.3565  139.3262  158.8072 C   0  0  0  0  0  0  0  0  0  0  0  0
  153.4774  138.8921  160.1948 N   0  0  0  0  0  0  0  0  0  0  0  0
  153.0714  137.7033  160.6673 C   0  0  0  0  0  0  0  0  0  0  0  0
  152.4822  136.8669  159.9833 O   0  0  0  0  0  0  0  0  0  0  0  0
  153.4050  137.4030  162.1282 C   0  0  0  0  0  0  0  0  0  0  0  0
  153.9161  136.0512  162.2699 N   0  0  0  0  0  0  0  0  0  0  0  0
  154.2457  135.3771  163.4275 C   0  0  0  0  0  0  0  0  0  0  0  0
  154.6662  134.1294  163.0656 C   0  0  0  0  0  0  0  0  0  0  0  0
  154.5569  134.1337  161.6469 C   0  0  0  0  0  0  0  0  0  0  0  0
  154.1049  135.2839  161.1734 N   0  0  0  0  0  0  0  0  0  0  0  0
  152.5617  141.8689  160.4767 C   0  0  0  0  0  0  0  0  0  0  0  0
  152.8536  143.3451  160.8041 C   0  0  2  0  0  0  0  0  0  0  0  0
  152.9703  143.5829  162.3139 C   0  0  0  0  0  0  0  0  0  0  0  0
  151.8015  144.1681  160.3145 O   0  0  0  0  0  0  0  0  0  0  0  0
  152.4088  144.7073  157.0157 H   0  0  0  0  0  0  0  0  0  0  0  0
  153.6241  144.1398  158.1467 H   0  0  0  0  0  0  0  0  0  0  0  0
  152.8697  145.7157  158.3807 H   0  0  0  0  0  0  0  0  0  0  0  0
  150.6600  144.6289  158.7164 H   0  0  0  0  0  0  0  0  0  0  0  0
  150.3295  142.2829  159.0084 H   0  0  0  0  0  0  0  0  0  0  0  0
  151.1259  142.5162  157.4729 H   0  0  0  0  0  0  0  0  0  0  0  0
  151.3097  139.8557  159.1712 H   0  0  0  0  0  0  0  0  0  0  0  0
  151.5021  139.2082  156.7457 H   0  0  0  0  0  0  0  0  0  0  0  0
  152.4919  140.6309  156.4478 H   0  0  0  0  0  0  0  0  0  0  0  0
  150.7991  140.7885  156.8953 H   0  0  0  0  0  0  0  0  0  0  0  0
  153.2779  138.4364  158.1817 H   0  0  0  0  0  0  0  0  0  0  0  0
  154.2915  139.8203  158.5396 H   0  0  0  0  0  0  0  0  0  0  0  0
  153.9523  139.5165  160.8317 H   0  0  0  0  0  0  0  0  0  0  0  0
  154.1421  138.1149  162.5035 H   0  0  0  0  0  0  0  0  0  0  0  0
  152.5116  137.5087  162.7452 H   0  0  0  0  0  0  0  0  0  0  0  0
  154.1522  135.8356  164.4010 H   0  0  0  0  0  0  0  0  0  0  0  0
  155.0014  133.3345  163.7154 H   0  0  0  0  0  0  0  0  0  0  0  0
  154.7894  133.3404  160.9520 H   0  0  0  0  0  0  0  0  0  0  0  0
  151.6831  141.5211  161.0227 H   0  0  0  0  0  0  0  0  0  0  0  0
  153.4168  141.2909  160.8256 H   0  0  0  0  0  0  0  0  0  0  0  0
  153.7966  143.6416  160.3443 H   0  0  0  0  0  0  0  0  0  0  0  0
  153.7706  142.9816  162.7462 H   0  0  0  0  0  0  0  0  0  0  0  0
  152.0435  143.3249  162.8273 H   0  0  0  0  0  0  0  0  0  0  0  0
  153.1891  144.6293  162.5280 H   0  0  0  0  0  0  0  0  0  0  0  0
  153.2057  141.9751  158.5739 H   0  0  0  0  0  0  0  0  0  0  0  0
  1  2  1  0  0  0  0
  1 21  1  0  0  0  0
  1 22  1  0  0  0  0
  1 23  1  0  0  0  0
  2 20  1  0  0  0  0
  2  3  1  0  0  0  0
  2 24  1  0  0  0  0
  3  4  1  0  0  0  0
  3 25  1  0  0  0  0
  3 26  1  0  0  0  0
  4  5  1  0  0  0  0
  4 17  1  0  0  0  0
  4 45  1  0  0  0  0
  5  6  1  0  0  0  0
  5  7  1  0  0  0  0
  5 27  1  0  0  0  0
  6 28  1  0  0  0  0
  6 29  1  0  0  0  0
  6 30  1  0  0  0  0
  7  8  1  0  0  0  0
  7 31  1  0  0  0  0
  7 32  1  0  0  0  0
  8  9  1  0  0  0  0
  8 33  1  0  0  0  0
  9 10  2  0  0  0  0
  9 11  1  0  0  0  0
 11 12  1  0  0  0  0
 11 34  1  0  0  0  0
 11 35  1  0  0  0  0
 12 16  1  0  0  0  0
 12 13  1  0  0  0  0
 13 14  2  0  0  0  0
 13 36  1  0  0  0  0
 14 15  1  0  0  0  0
 14 37  1  0  0  0  0
 15 16  2  0  0  0  0
 15 38  1  0  0  0  0
 17 18  1  0  0  0  0
 17 39  1  0  0  0  0
 17 40  1  0  0  0  0
 18 19  1  0  0  0  0
 18 20  1  0  0  0  0
 18 41  1  0  0  0  0
 19 42  1  0  0  0  0
 19 43  1  0  0  0  0
 19 44  1  0  0  0  0
M  CHG  1   4   1
M  END
> <s_m_source_file>
AV-unprocessed.smi

> <i_m_source_file_index>
1433

> <i_lp_mmshare_version>
43012

> <i_f3d_flags>
0

> <s_epik_input>
W0NIM11bQ0BASF0xW0NIMl1OKFtDSDJdW0NASF0oTzEpW0NIM10pW0NASF0oW0NIM10pW0NIMl1bTkhdQyg9TylbQ0gyXW4yW2NIXVtjSF1bY0hdbjI=

> <s_epik_cmdline>
J2VwaWtfcHl0aG9uJywgJy1waCcsICc3LjAnLCAnLXRuJywgJzgnLCAnLW1hJywgJzIwMCcsICctbWV0YWxfYmluZGluZycsICctaW1hZScsICc8aW5maWxlLm1hZT4nLCAnLW9tYWUnLCAnPG91dGZpbGUubWFlPic=

> <r_lp_tautomer_probability>
1

> <r_epik_Ionization_Penalty>
0.748405

> <r_epik_Ionization_Penalty_Charging>
0.748396

> <r_epik_Ionization_Penalty_Neutral>
8.54426e-06

> <r_epik_State_Penalty>
0.775162

> <r_epik_Charging_Adjusted_Penalty>
1.52356

> <i_epik_Tot_Q>
1

> <i_epik_Tot_abs_Q>
1

> <r_epik_Metal_State_Penalty>
0.775167

> <b_epik_Metal_Only>
0

> <s_lp_Force_Field>
OPLS_2005

> <r_lp_Energy>
21.4141

> <b_lp_Chiralities_Consistent>
1

> <s_lp_Variant>
AV-unprocessed.smi:1433-14

> <Gold.Version>
5.8.1

> <Gold.Id.Protein>
6NUR|6NUR_protein|mol2

> <Gold.PLP.Fitness>
42.0625

> <Gold.PLP.PLP>
-40.3651

> <Gold.PLP.part.hbond>
-0.9922

> <Gold.PLP.part.metal>
0.0000

> <Gold.PLP.part.buried>
-4.3530

> <Gold.PLP.part.nonpolar>
-33.7599

> <Gold.PLP.part.repulsive>
0.2174

> <Gold.PLP.ligand.clash>
0.0000

> <Gold.PLP.ligand.torsion>
0.6795

> <Gold.PLP.Chemscore.Hbond>
1.0000

> <Gold.PLP.Chemscore.CHOScore>
0.0000

> <Gold.PLP.Chemscore.Metal>
0.0000

> <Gold.Chemscore.Hbonds>
donor molecule, donor type, donor heavy atom, donor atom, acceptor molecule, acceptor atom, score
      P1  H  6896  6908       L1    10  1.00

> <Gold.PLP.Chemscore.Internal.Correction>
0.0565

> <Gold.Rescore>
     Score         DG    S(hbond)    S(metal)    S(lipo)     H(rot)  DE(clash)    DE(int)     intcor
     15.14     -17.38       0.99        0.00     114.20       1.87       0.26       1.98       ----

> <Gold.Chemscore.Fitness>
15.1373

> <Gold.Chemscore.DG>
-17.3777

> <Gold.Chemscore.ZeroCoef>
-5.4800

> <Gold.Chemscore.Hbond>
0.9918

> <Gold.Chemscore.Metal>
0.0000

> <Gold.Chemscore.Lipo>
114.1997

> <Gold.Chemscore.Internal_Hbond>
0.0000

> <Gold.Chemscore.DEClash>
0.2560

> <Gold.Chemscore.DEInternal>
1.9845

> <Gold.Chemscore.Rot>
1.8657

> <Gold.Chemscore.Internal.Correction>
   9.000000E+99

> <Gold.Chemscore.Hbonds>
donor molecule, donor type, donor heavy atom, donor atom, acceptor molecule, acceptor atom, score
      P1  H  6896  6908       L1    10  1.00

> <Gold.Chemscore.Hbond.Weighted>
-3.3125

> <Gold.Chemscore.Metal.Weighted>
-0.0000

> <Gold.Chemscore.Lipo.Weighted>
-13.3614

> <Gold.Chemscore.Internal_Hbond.Weighted>
0.0000

> <Gold.Chemscore.DEClash.Weighted>
0.2560

> <Gold.Chemscore.DEInternal.Weighted>
1.9845

> <Gold.Chemscore.Rot.Weighted>
4.7761

> <Gold.Chemscore.Internal.Correction.Weighted>
   9.000000E+99

> <Gold.Protein.RotatedTorsions>
[ 6907 6896 6895 6894 ] final  -97.67 input  -60.11 | X-H torsion
[ 7974 7965 7964 7962 ] final  115.13 input  175.53 | X-H torsion
[ 8008 7997 7996 7995 ] final -142.94 input   59.86 | X-H torsion
[ 10167 10162 10161 10158 ] final  158.67 input  -65.29 | X-H torsion
[ 10718 10713 10712 10709 ] final -171.27 input   66.30 | X-H torsion
[ 10763 10752 10751 10750 ] final  -87.73 input  -60.55 | X-H torsion
[ 11005 11000 10999 10996 ] final  167.18 input  -57.11 | X-H torsion

> <Gold.Protein.ActiveResidues>
 VAL166  LYS551  ARG553  GLY616  TRP617  ASP618  TYR619  PRO620  LYS621  CYS622 
 ASP623  PHE694  ASN695  SER759  ASP760  ASP761  ALA762  ILE779  LEU786  VAL792 
 PHE793  MET794  SER795  GLU796  ALA797  LYS798  CYS799  TRP800  GLU811  SER814 

> <Gold.Protein.RotatedAtoms>
  150.7023  134.1312  159.4070 H   0  0  0  0  0  0  0  0  0  0  0  0  # atno 6907 bound_to 6896
  151.9298  135.0259  160.0537 H   0  0  0  0  0  0  0  0  0  0  0  0  # atno 6908 bound_to 6896
  152.2185  133.4930  159.5186 H   0  0  0  0  0  0  0  0  0  0  0  0  # atno 6909 bound_to 6896
  145.1958  139.2977  143.4344 H   0  0  0  0  0  0  0  0  0  0  0  0  # atno 7974 bound_to 7965
  155.5025  140.0576  157.2937 H   0  0  0  0  0  0  0  0  0  0  0  0  # atno 8008 bound_to 7997
  154.4582  140.1983  156.0270 H   0  0  0  0  0  0  0  0  0  0  0  0  # atno 8009 bound_to 7997
  156.0839  140.3243  155.7733 H   0  0  0  0  0  0  0  0  0  0  0  0  # atno 8010 bound_to 7997
  139.4828  144.4802  151.8455 H   0  0  0  0  0  0  0  0  0  0  0  0  # atno 10167 bound_to 10162
  156.7384  130.9333  151.3109 H   0  0  0  0  0  0  0  0  0  0  0  0  # atno 10718 bound_to 10713
  154.6368  135.5402  153.7743 H   0  0  0  0  0  0  0  0  0  0  0  0  # atno 10763 bound_to 10752
  153.0313  135.6449  154.1219 H   0  0  0  0  0  0  0  0  0  0  0  0  # atno 10764 bound_to 10752
  154.1146  135.2924  155.3202 H   0  0  0  0  0  0  0  0  0  0  0  0  # atno 10765 bound_to 10752
  140.2741  134.7803  157.3701 H   0  0  0  0  0  0  0  0  0  0  0  0  # atno 11005 bound_to 11000
  146.3427  140.2186  142.8591 LP  0  0  0  0  0  0  0  0  0  0  0  0  # atno 17320 bound_to 7965
  144.9996  140.8620  143.5290 LP  0  0  0  0  0  0  0  0  0  0  0  0  # atno 17321 bound_to 7965
  140.4278  144.2157  150.5887 LP  0  0  0  0  0  0  0  0  0  0  0  0  # atno 17342 bound_to 10162
  140.4810  143.2379  151.8955 LP  0  0  0  0  0  0  0  0  0  0  0  0  # atno 17343 bound_to 10162
  157.6829  130.9157  150.0312 LP  0  0  0  0  0  0  0  0  0  0  0  0  # atno 17370 bound_to 10713
  156.1481  130.3642  149.9480 LP  0  0  0  0  0  0  0  0  0  0  0  0  # atno 17371 bound_to 10713
  140.1345  134.5051  155.8079 LP  0  0  0  0  0  0  0  0  0  0  0  0  # atno 17394 bound_to 11000
  141.2173  133.6802  156.7100 LP  0  0  0  0  0  0  0  0  0  0  0  0  # atno 17395 bound_to 11000

$$$$
