AV-unprocessed.smi:1741|AV-procd|sdf|7019|dock6
  -GOLD-   22720 8233D 1   1.00000     0.00000
 Structure written by MMmdl.
 38 39  0  0  0  0  0  0  0  0  1 V2000
  146.8212  129.6012  153.5290 C   0  0  0  0  0  0  0  0  0  0  0  0
  148.3004  129.9835  153.4015 C   0  0  0  0  0  0  0  0  0  0  0  0
  148.5645  131.2928  153.9652 N   0  0  0  0  0  0  0  0  0  0  0  0
  148.9144  132.4528  153.3029 C   0  0  0  0  0  0  0  0  0  0  0  0
  149.0424  133.4067  154.2671 C   0  0  0  0  0  0  0  0  0  0  0  0
  149.3880  134.7598  154.0258 N   0  0  0  0  0  0  0  0  0  0  0  0
  149.9236  135.6295  154.8972 C   0  0  0  0  0  0  0  0  0  0  0  0
  150.2361  135.3651  156.0580 O   0  0  0  0  0  0  0  0  0  0  0  0
  150.0789  136.8389  154.3401 N   0  0  0  0  0  0  0  0  0  0  0  0
  150.6155  138.0238  155.0069 C   0  0  1  0  0  0  0  0  0  0  0  0
  152.1434  138.0499  154.8486 C   0  0  0  0  0  0  0  0  0  0  0  0
  149.9505  139.2912  154.4355 C   0  0  1  0  0  0  0  0  0  0  0  0
  148.4734  139.4542  154.8041 C   0  0  0  0  0  0  0  0  0  0  0  0
  148.2925  140.9505  154.7008 C   0  0  0  0  0  0  0  0  0  0  0  0
  149.6149  141.4585  155.2648 C   0  0  0  0  0  0  0  0  0  0  0  0
  150.5842  140.4639  154.9442 O   0  0  0  0  0  0  0  0  0  0  0  0
  148.7532  132.7553  155.4995 C   0  0  0  0  0  0  0  0  0  0  0  0
  148.4647  131.4773  155.3046 N   0  0  0  0  0  0  0  0  0  0  0  0
  146.6360  128.6183  153.0957 H   0  0  0  0  0  0  0  0  0  0  0  0
  146.1832  130.3190  153.0124 H   0  0  0  0  0  0  0  0  0  0  0  0
  146.5110  129.5678  154.5739 H   0  0  0  0  0  0  0  0  0  0  0  0
  148.9280  129.2482  153.9073 H   0  0  0  0  0  0  0  0  0  0  0  0
  148.6003  129.9883  152.3531 H   0  0  0  0  0  0  0  0  0  0  0  0
  149.0354  132.4956  152.2304 H   0  0  0  0  0  0  0  0  0  0  0  0
  149.1932  135.1059  153.0979 H   0  0  0  0  0  0  0  0  0  0  0  0
  149.7954  136.9549  153.3785 H   0  0  0  0  0  0  0  0  0  0  0  0
  150.3860  137.9829  156.0733 H   0  0  0  0  0  0  0  0  0  0  0  0
  152.5769  138.9119  155.3562 H   0  0  0  0  0  0  0  0  0  0  0  0
  152.4336  138.1018  153.7988 H   0  0  0  0  0  0  0  0  0  0  0  0
  152.5979  137.1560  155.2770 H   0  0  0  0  0  0  0  0  0  0  0  0
  150.0464  139.3106  153.3483 H   0  0  0  0  0  0  0  0  0  0  0  0
  147.8053  138.8971  154.1469 H   0  0  0  0  0  0  0  0  0  0  0  0
  148.2938  139.1279  155.8299 H   0  0  0  0  0  0  0  0  0  0  0  0
  148.1901  141.2444  153.6553 H   0  0  0  0  0  0  0  0  0  0  0  0
  147.4247  141.3191  155.2482 H   0  0  0  0  0  0  0  0  0  0  0  0
  149.8928  142.4322  154.8608 H   0  0  0  0  0  0  0  0  0  0  0  0
  149.5567  141.5465  156.3503 H   0  0  0  0  0  0  0  0  0  0  0  0
  148.7377  133.1465  156.5059 H   0  0  0  0  0  0  0  0  0  0  0  0
  1  2  1  0  0  0  0
  1 19  1  0  0  0  0
  1 20  1  0  0  0  0
  1 21  1  0  0  0  0
  2  3  1  0  0  0  0
  2 22  1  0  0  0  0
  2 23  1  0  0  0  0
  3 18  1  0  0  0  0
  3  4  1  0  0  0  0
  4  5  2  0  0  0  0
  4 24  1  0  0  0  0
  5  6  1  0  0  0  0
  5 17  1  0  0  0  0
  6  7  1  0  0  0  0
  6 25  1  0  0  0  0
  7  8  2  0  0  0  0
  7  9  1  0  0  0  0
  9 10  1  0  0  0  0
  9 26  1  0  0  0  0
 10 11  1  0  0  0  0
 10 12  1  0  0  0  0
 10 27  1  0  0  0  0
 11 28  1  0  0  0  0
 11 29  1  0  0  0  0
 11 30  1  0  0  0  0
 12 16  1  0  0  0  0
 12 13  1  0  0  0  0
 12 31  1  0  0  0  0
 13 14  1  0  0  0  0
 13 32  1  0  0  0  0
 13 33  1  0  0  0  0
 14 15  1  0  0  0  0
 14 34  1  0  0  0  0
 14 35  1  0  0  0  0
 15 16  1  0  0  0  0
 15 36  1  0  0  0  0
 15 37  1  0  0  0  0
 17 18  2  0  0  0  0
 17 38  1  0  0  0  0
M  END
> <s_m_source_file>
AV-unprocessed.smi

> <i_m_source_file_index>
1741

> <i_lp_mmshare_version>
43012

> <i_f3d_flags>
0

> <s_epik_input>
W0NIM11bQ0gyXW4xW2NIXWMoW2NIXW4xKVtOSF1DKD1PKVtOSF1bQ0BIXShbQ0gzXSlbQ0BASF0yW0NIMl1bQ0gyXVtDSDJdTzI=

> <s_epik_cmdline>
J2VwaWtfcHl0aG9uJywgJy1waCcsICc3LjAnLCAnLXRuJywgJzgnLCAnLW1hJywgJzIwMCcsICctbWV0YWxfYmluZGluZycsICctaW1hZScsICc8aW5maWxlLm1hZT4nLCAnLW9tYWUnLCAnPG91dGZpbGUubWFlPic=

> <r_lp_tautomer_probability>
1

> <r_epik_Ionization_Penalty>
0.000179292

> <r_epik_Ionization_Penalty_Charging>
0

> <r_epik_Ionization_Penalty_Neutral>
0.000179292

> <r_epik_State_Penalty>
-0

> <r_epik_Charging_Adjusted_Penalty>
0

> <i_epik_Tot_Q>
0

> <i_epik_Tot_abs_Q>
0

> <r_epik_Metal_State_Penalty>
-0

> <b_epik_Metal_Only>
0

> <s_lp_Force_Field>
OPLS_2005

> <r_lp_Energy>
21.0752

> <b_lp_Chiralities_Consistent>
1

> <s_lp_Variant>
AV-unprocessed.smi:1741-4

> <Gold.Version>
5.8.1

> <Gold.Id.Protein>
6NUR|6NUR_protein|mol2

> <Gold.PLP.Fitness>
39.1126

> <Gold.PLP.PLP>
-29.6172

> <Gold.PLP.part.hbond>
-3.6803

> <Gold.PLP.part.metal>
0.0000

> <Gold.PLP.part.buried>
-2.1557

> <Gold.PLP.part.nonpolar>
-24.9126

> <Gold.PLP.part.repulsive>
0.2038

> <Gold.PLP.ligand.clash>
0.0000

> <Gold.PLP.ligand.torsion>
0.6425

> <Gold.PLP.Chemscore.Hbond>
2.7000

> <Gold.PLP.Chemscore.CHOScore>
0.8888

> <Gold.PLP.Chemscore.Metal>
0.0000

> <Gold.Chemscore.Hbonds>
donor molecule, donor type, donor heavy atom, donor atom, acceptor molecule, acceptor atom, score
      L1  H     6    25       P1  7948  0.70
      L1  H     9    26       P1  7948  0.98
      P1  H  7989  7998       L1    16  0.95
      L1  C     4    24       P1 10747  1.00

> <Gold.PLP.Chemscore.Internal.Correction>
0.0140

> <Gold.Rescore>
     Score         DG    S(hbond)    S(metal)    S(lipo)     H(rot)  DE(clash)    DE(int)     intcor
     14.96     -16.99       2.44        0.00      58.97       1.38       0.05       1.97       ----

> <Gold.Chemscore.Fitness>
14.9627

> <Gold.Chemscore.DG>
-16.9895

> <Gold.Chemscore.ZeroCoef>
-5.4800

> <Gold.Chemscore.Hbond>
2.4373

> <Gold.Chemscore.Metal>
0.0000

> <Gold.Chemscore.Lipo>
58.9660

> <Gold.Chemscore.Internal_Hbond>
0.0000

> <Gold.Chemscore.DEClash>
0.0529

> <Gold.Chemscore.DEInternal>
1.9739

> <Gold.Chemscore.Rot>
1.3790

> <Gold.Chemscore.Internal.Correction>
   9.000000E+99

> <Gold.Chemscore.Hbonds>
donor molecule, donor type, donor heavy atom, donor atom, acceptor molecule, acceptor atom, score
      L1  H     6    25       P1  7948  0.07
      L1  H     9    26       P1  7948  0.42
      P1  H  7989  7998       L1    16  0.18

> <Gold.Chemscore.Hbond.Weighted>
-8.1406

> <Gold.Chemscore.Metal.Weighted>
-0.0000

> <Gold.Chemscore.Lipo.Weighted>
-6.8990

> <Gold.Chemscore.Internal_Hbond.Weighted>
0.0000

> <Gold.Chemscore.DEClash.Weighted>
0.0529

> <Gold.Chemscore.DEInternal.Weighted>
1.9739

> <Gold.Chemscore.Rot.Weighted>
3.5302

> <Gold.Chemscore.Internal.Correction.Weighted>
   9.000000E+99

> <Gold.Protein.RotatedTorsions>
[ 6907 6896 6895 6894 ] final  -61.27 input  -60.11 | X-H torsion
[ 7974 7965 7964 7962 ] final  -74.35 input  175.53 | X-H torsion
[ 8008 7997 7996 7995 ] final   13.24 input   59.86 | X-H torsion
[ 10167 10162 10161 10158 ] final -132.40 input  -65.29 | X-H torsion
[ 10718 10713 10712 10709 ] final -164.57 input   66.30 | X-H torsion
[ 10763 10752 10751 10750 ] final -119.19 input  -60.55 | X-H torsion
[ 11005 11000 10999 10996 ] final  -94.67 input  -57.11 | X-H torsion

> <Gold.Protein.ActiveResidues>
 VAL166  LYS551  ARG553  GLY616  TRP617  ASP618  TYR619  PRO620  LYS621  CYS622 
 ASP623  PHE694  ASN695  SER759  ASP760  ASP761  ALA762  ILE779  LEU786  VAL792 
 PHE793  MET794  SER795  GLU796  ALA797  LYS798  CYS799  TRP800  GLU811  SER814 

> <Gold.Protein.RotatedAtoms>
  150.7797  134.6727  159.6400 H   0  0  0  0  0  0  0  0  0  0  0  0  # atno 6907 bound_to 6896
  152.3877  134.6488  160.0128 H   0  0  0  0  0  0  0  0  0  0  0  0  # atno 6908 bound_to 6896
  151.6798  133.3275  159.3253 H   0  0  0  0  0  0  0  0  0  0  0  0  # atno 6909 bound_to 6896
  145.6403  140.9313  143.1039 H   0  0  0  0  0  0  0  0  0  0  0  0  # atno 7974 bound_to 7965
  154.8317  140.2900  155.5718 H   0  0  0  0  0  0  0  0  0  0  0  0  # atno 8008 bound_to 7997
  156.3006  140.2531  156.3174 H   0  0  0  0  0  0  0  0  0  0  0  0  # atno 8009 bound_to 7997
  154.9224  140.0385  157.1994 H   0  0  0  0  0  0  0  0  0  0  0  0  # atno 8010 bound_to 7997
  139.9089  143.6518  152.2579 H   0  0  0  0  0  0  0  0  0  0  0  0  # atno 10167 bound_to 10162
  156.6410  130.8968  151.2996 H   0  0  0  0  0  0  0  0  0  0  0  0  # atno 10718 bound_to 10713
  154.8610  135.4247  154.2259 H   0  0  0  0  0  0  0  0  0  0  0  0  # atno 10763 bound_to 10752
  153.3254  135.6985  153.6999 H   0  0  0  0  0  0  0  0  0  0  0  0  # atno 10764 bound_to 10752
  153.6037  135.3532  155.2928 H   0  0  0  0  0  0  0  0  0  0  0  0  # atno 10765 bound_to 10752
  141.1464  133.7972  157.0330 H   0  0  0  0  0  0  0  0  0  0  0  0  # atno 11005 bound_to 11000
  144.7160  139.8196  143.7398 LP  0  0  0  0  0  0  0  0  0  0  0  0  # atno 17320 bound_to 7965
  146.1286  139.4317  143.0183 LP  0  0  0  0  0  0  0  0  0  0  0  0  # atno 17321 bound_to 7965
  139.6960  144.7641  151.1356 LP  0  0  0  0  0  0  0  0  0  0  0  0  # atno 17342 bound_to 10162
  140.7690  143.5524  150.9190 LP  0  0  0  0  0  0  0  0  0  0  0  0  # atno 17343 bound_to 10162
  157.7171  130.9511  150.1296 LP  0  0  0  0  0  0  0  0  0  0  0  0  # atno 17370 bound_to 10713
  156.2159  130.3670  149.8614 LP  0  0  0  0  0  0  0  0  0  0  0  0  # atno 17371 bound_to 10713
  140.0741  134.9685  157.1517 LP  0  0  0  0  0  0  0  0  0  0  0  0  # atno 17394 bound_to 11000
  140.3668  134.2433  155.7181 LP  0  0  0  0  0  0  0  0  0  0  0  0  # atno 17395 bound_to 11000

$$$$
