AV-unprocessed.smi:3032|AV-procd|sdf|11571|dock9
  -GOLD-   2272016533D 1   1.00000     0.00000
 Structure written by MMmdl.
 36 37  0  0  0  0  0  0  0  0  2 V2000
  153.6609  142.0087  160.8397 C   0  0  0  0  0  0  0  0  0  0  0  0
  152.9704  142.7646  159.6954 C   0  0  2  0  0  0  0  0  0  0  0  0
  152.2703  144.0396  160.2042 C   0  0  0  0  0  0  0  0  0  0  0  0
  151.5719  144.7935  159.0615 C   0  0  0  0  0  0  0  0  0  0  0  0
  150.5779  143.8851  158.3215 C   0  0  0  0  0  0  0  0  0  0  0  0
  151.2710  142.6121  157.7934 C   0  0  2  0  0  0  0  0  0  0  0  0
  150.2656  141.7030  157.0740 C   0  0  0  0  0  0  0  0  0  0  0  0
  150.1837  140.5100  157.3699 O   0  0  0  0  0  0  0  0  0  0  0  0
  149.5035  142.2808  156.1336 N   0  0  0  0  0  0  0  0  0  0  0  0
  148.4494  141.6096  155.3803 C   0  0  0  0  0  0  0  0  0  0  0  0
  148.9871  140.8976  154.1251 C   0  0  0  0  0  0  0  0  0  0  0  0
  149.8008  139.6586  154.4426 C   0  0  0  0  0  0  0  0  0  0  0  0
  149.2965  138.4658  154.8205 N   0  5  0  0  0  0  0  0  0  0  0  0
  150.2745  137.6126  155.0540 N   0  0  0  0  0  0  0  0  0  0  0  0
  151.3870  138.3174  154.8171 C   0  0  0  0  0  0  0  0  0  0  0  0
  151.1295  139.5761  154.4466 N   0  0  0  0  0  0  0  0  0  0  0  0
  151.9684  141.8616  158.9487 C   0  0  0  0  0  0  0  0  0  0  0  0
  152.9387  141.6682  161.5825 H   0  0  0  0  0  0  0  0  0  0  0  0
  154.3880  142.6430  161.3476 H   0  0  0  0  0  0  0  0  0  0  0  0
  154.1927  141.1327  160.4665 H   0  0  0  0  0  0  0  0  0  0  0  0
  153.7437  143.0659  158.9872 H   0  0  0  0  0  0  0  0  0  0  0  0
  151.5364  143.7781  160.9679 H   0  0  0  0  0  0  0  0  0  0  0  0
  152.9948  144.6974  160.6853 H   0  0  0  0  0  0  0  0  0  0  0  0
  151.0528  145.6676  159.4556 H   0  0  0  0  0  0  0  0  0  0  0  0
  152.3181  145.1675  158.3593 H   0  0  0  0  0  0  0  0  0  0  0  0
  149.7636  143.6184  158.9975 H   0  0  0  0  0  0  0  0  0  0  0  0
  150.1254  144.4362  157.4957 H   0  0  0  0  0  0  0  0  0  0  0  0
  152.0351  142.9149  157.0747 H   0  0  0  0  0  0  0  0  0  0  0  0
  149.6245  143.2689  155.9641 H   0  0  0  0  0  0  0  0  0  0  0  0
  147.9840  140.8777  156.0410 H   0  0  0  0  0  0  0  0  0  0  0  0
  147.6671  142.3194  155.1075 H   0  0  0  0  0  0  0  0  0  0  0  0
  148.1565  140.6125  153.4789 H   0  0  0  0  0  0  0  0  0  0  0  0
  149.6075  141.5811  153.5445 H   0  0  0  0  0  0  0  0  0  0  0  0
  152.3864  137.9128  154.9178 H   0  0  0  0  0  0  0  0  0  0  0  0
  152.4880  140.9856  158.5573 H   0  0  0  0  0  0  0  0  0  0  0  0
  151.2249  141.4870  159.6546 H   0  0  0  0  0  0  0  0  0  0  0  0
  1  2  1  0  0  0  0
  1 18  1  0  0  0  0
  1 19  1  0  0  0  0
  1 20  1  0  0  0  0
  2 17  1  0  0  0  0
  2  3  1  0  0  0  0
  2 21  1  0  0  0  0
  3  4  1  0  0  0  0
  3 22  1  0  0  0  0
  3 23  1  0  0  0  0
  4  5  1  0  0  0  0
  4 24  1  0  0  0  0
  4 25  1  0  0  0  0
  5  6  1  0  0  0  0
  5 26  1  0  0  0  0
  5 27  1  0  0  0  0
  6  7  1  0  0  0  0
  6 17  1  0  0  0  0
  6 28  1  0  0  0  0
  7  8  2  0  0  0  0
  7  9  1  0  0  0  0
  9 10  1  0  0  0  0
  9 29  1  0  0  0  0
 10 11  1  0  0  0  0
 10 30  1  0  0  0  0
 10 31  1  0  0  0  0
 11 32  1  0  0  0  0
 11 33  1  0  0  0  0
 11 12  1  0  0  0  0
 12 16  2  0  0  0  0
 12 13  1  0  0  0  0
 13 14  1  0  0  0  0
 14 15  2  0  0  0  0
 15 16  1  0  0  0  0
 15 34  1  0  0  0  0
 17 35  1  0  0  0  0
 17 36  1  0  0  0  0
M  CHG  1  13  -1
M  END
> <s_m_source_file>
AV-unprocessed.smi

> <i_m_source_file_index>
3032

> <i_lp_mmshare_version>
43012

> <i_f3d_flags>
0

> <s_epik_input>
W0NIM11bQ0BASF0xW0NIMl1bQ0gyXVtDSDJdW0NASF0oW0NIMl0xKUMoPU8pW05IXVtDSDJdW0NIMl1jMm5uW2NIXVtuSF0y

> <s_epik_cmdline>
J2VwaWtfcHl0aG9uJywgJy1waCcsICc3LjAnLCAnLXRuJywgJzgnLCAnLW1hJywgJzIwMCcsICctbWV0YWxfYmluZGluZycsICctaW1hZScsICc8aW5maWxlLm1hZT4nLCAnLW9tYWUnLCAnPG91dGZpbGUubWFlPic=

> <r_lp_tautomer_probability>
0.948284

> <r_epik_Ionization_Penalty>
12.042

> <r_epik_Ionization_Penalty_Charging>
12.042

> <r_epik_Ionization_Penalty_Neutral>
4.36781e-08

> <r_epik_State_Penalty>
4.67286

> <r_epik_Charging_Adjusted_Penalty>
16.7149

> <i_epik_Tot_Q>
-1

> <i_epik_Tot_abs_Q>
1

> <r_epik_Metal_State_Penalty>
0.981637

> <b_epik_Metal_Only>
1

> <s_lp_Force_Field>
OPLS_2005

> <r_lp_Energy>
10.3443

> <b_lp_Chiralities_Consistent>
1

> <s_lp_Variant>
AV-unprocessed.smi:3032-15

> <Gold.Version>
5.8.1

> <Gold.Id.Protein>
6NUR|6NUR_protein|mol2

> <Gold.PLP.Fitness>
42.0645

> <Gold.PLP.PLP>
-37.2408

> <Gold.PLP.part.hbond>
-2.0000

> <Gold.PLP.part.metal>
0.0000

> <Gold.PLP.part.buried>
-2.7867

> <Gold.PLP.part.nonpolar>
-32.4573

> <Gold.PLP.part.repulsive>
0.5189

> <Gold.PLP.ligand.clash>
0.0000

> <Gold.PLP.ligand.torsion>
0.5618

> <Gold.PLP.Chemscore.Hbond>
1.9760

> <Gold.PLP.Chemscore.CHOScore>
0.0000

> <Gold.PLP.Chemscore.Metal>
0.0000

> <Gold.Chemscore.Hbonds>
donor molecule, donor type, donor heavy atom, donor atom, acceptor molecule, acceptor atom, score
      L1  H     9    29       P1  8028  0.94
      P1  H  7989  7998       L1    16  1.00

> <Gold.PLP.Chemscore.Internal.Correction>
0.0193

> <Gold.Rescore>
     Score         DG    S(hbond)    S(metal)    S(lipo)     H(rot)  DE(clash)    DE(int)     intcor
     16.23     -16.91       1.95        0.00      90.56       2.21       0.12       0.56       ----

> <Gold.Chemscore.Fitness>
16.2316

> <Gold.Chemscore.DG>
-16.9126

> <Gold.Chemscore.ZeroCoef>
-5.4800

> <Gold.Chemscore.Hbond>
1.9481

> <Gold.Chemscore.Metal>
0.0000

> <Gold.Chemscore.Lipo>
90.5639

> <Gold.Chemscore.Internal_Hbond>
0.0000

> <Gold.Chemscore.DEClash>
0.1243

> <Gold.Chemscore.DEInternal>
0.5566

> <Gold.Chemscore.Rot>
2.2149

> <Gold.Chemscore.Internal.Correction>
   9.000000E+99

> <Gold.Chemscore.Hbonds>
donor molecule, donor type, donor heavy atom, donor atom, acceptor molecule, acceptor atom, score
      L1  H     9    29       P1  8028  0.91
      P1  H  7989  7998       L1    16  0.50

> <Gold.Chemscore.Hbond.Weighted>
-6.5068

> <Gold.Chemscore.Metal.Weighted>
-0.0000

> <Gold.Chemscore.Lipo.Weighted>
-10.5960

> <Gold.Chemscore.Internal_Hbond.Weighted>
0.0000

> <Gold.Chemscore.DEClash.Weighted>
0.1243

> <Gold.Chemscore.DEInternal.Weighted>
0.5566

> <Gold.Chemscore.Rot.Weighted>
5.6702

> <Gold.Chemscore.Internal.Correction.Weighted>
   9.000000E+99

> <Gold.Protein.RotatedTorsions>
[ 6907 6896 6895 6894 ] final   39.00 input  -60.11 | X-H torsion
[ 7974 7965 7964 7962 ] final   19.58 input  175.53 | X-H torsion
[ 8008 7997 7996 7995 ] final  -80.10 input   59.86 | X-H torsion
[ 10167 10162 10161 10158 ] final  107.71 input  -65.29 | X-H torsion
[ 10718 10713 10712 10709 ] final  104.70 input   66.30 | X-H torsion
[ 10763 10752 10751 10750 ] final    8.68 input  -60.55 | X-H torsion
[ 11005 11000 10999 10996 ] final  114.57 input  -57.11 | X-H torsion

> <Gold.Protein.ActiveResidues>
 VAL166  LYS551  ARG553  GLY616  TRP617  ASP618  TYR619  PRO620  LYS621  CYS622 
 ASP623  PHE694  ASN695  SER759  ASP760  ASP761  ALA762  ILE779  LEU786  VAL792 
 PHE793  MET794  SER795  GLU796  ALA797  LYS798  CYS799  TRP800  GLU811  SER814 

> <Gold.Protein.RotatedAtoms>
  152.1638  134.8891  160.0539 H   0  0  0  0  0  0  0  0  0  0  0  0  # atno 6907 bound_to 6896
  151.9876  133.3775  159.4140 H   0  0  0  0  0  0  0  0  0  0  0  0  # atno 6908 bound_to 6896
  150.6891  134.3894  159.5113 H   0  0  0  0  0  0  0  0  0  0  0  0  # atno 6909 bound_to 6896
  146.2144  139.8292  142.8663 H   0  0  0  0  0  0  0  0  0  0  0  0  # atno 7974 bound_to 7965
  154.5850  140.0668  156.9158 H   0  0  0  0  0  0  0  0  0  0  0  0  # atno 8008 bound_to 7997
  155.2396  140.3343  155.4275 H   0  0  0  0  0  0  0  0  0  0  0  0  # atno 8009 bound_to 7997
  156.2216  140.1801  156.7448 H   0  0  0  0  0  0  0  0  0  0  0  0  # atno 8010 bound_to 7997
  139.6905  144.7108  151.1357 H   0  0  0  0  0  0  0  0  0  0  0  0  # atno 10167 bound_to 10162
  157.6731  131.0810  150.5746 H   0  0  0  0  0  0  0  0  0  0  0  0  # atno 10718 bound_to 10713
  153.2223  135.6882  153.7986 H   0  0  0  0  0  0  0  0  0  0  0  0  # atno 10763 bound_to 10752
  153.7180  135.3272  155.3261 H   0  0  0  0  0  0  0  0  0  0  0  0  # atno 10764 bound_to 10752
  154.8275  135.4606  154.1075 H   0  0  0  0  0  0  0  0  0  0  0  0  # atno 10765 bound_to 10752
  139.8984  134.9570  156.6913 H   0  0  0  0  0  0  0  0  0  0  0  0  # atno 11005 bound_to 11000
  145.3015  141.0195  143.3606 LP  0  0  0  0  0  0  0  0  0  0  0  0  # atno 17320 bound_to 7965
  144.9003  139.4658  143.6636 LP  0  0  0  0  0  0  0  0  0  0  0  0  # atno 17321 bound_to 7965
  140.7681  143.5566  150.9145 LP  0  0  0  0  0  0  0  0  0  0  0  0  # atno 17342 bound_to 10162
  139.9243  143.6568  152.3090 LP  0  0  0  0  0  0  0  0  0  0  0  0  # atno 17343 bound_to 10162
  156.6047  130.4364  149.5883 LP  0  0  0  0  0  0  0  0  0  0  0  0  # atno 17370 bound_to 10713
  156.2478  130.6889  151.1617 LP  0  0  0  0  0  0  0  0  0  0  0  0  # atno 17371 bound_to 10713
  140.7223  133.9130  155.8155 LP  0  0  0  0  0  0  0  0  0  0  0  0  # atno 17394 bound_to 11000
  141.0218  134.0878  157.4112 LP  0  0  0  0  0  0  0  0  0  0  0  0  # atno 17395 bound_to 11000

$$$$
