AV-unprocessed.smi:2955|AV-procd|sdf|11303|dock4
  -GOLD-   2272016203D 1   1.00000     0.00000
 Structure written by MMmdl.
 46 48  0  0  0  0  0  0  0  0  2 V2000
  148.7594  145.1710  160.6047 C   0  0  0  0  0  0  0  0  0  0  0  0
  149.9795  144.8312  159.7737 C   0  0  0  0  0  0  0  0  0  0  0  0
  151.1557  145.5990  159.8888 C   0  0  0  0  0  0  0  0  0  0  0  0
  152.2844  145.2748  159.1141 C   0  0  0  0  0  0  0  0  0  0  0  0
  152.2390  144.1845  158.2249 C   0  0  0  0  0  0  0  0  0  0  0  0
  151.0703  143.4065  158.0962 C   0  0  0  0  0  0  0  0  0  0  0  0
  151.1125  142.3591  157.2010 O   0  0  0  0  0  0  0  0  0  0  0  0
  149.8929  141.7155  156.8627 C   0  0  0  0  0  0  0  0  0  0  0  0
  149.7275  141.7577  155.3397 C   0  0  0  0  0  0  0  0  0  0  0  0
  149.7028  140.4082  154.7592 N   0  0  0  0  0  0  0  0  0  0  0  0
  148.8070  139.8256  153.9090 C   0  0  0  0  0  0  0  0  0  0  0  0
  147.5788  140.4549  153.3177 C   0  0  2  0  0  0  0  0  0  0  0  0
  146.5159  140.7116  154.3961 C   0  0  0  0  0  0  0  0  0  0  0  0
  147.0135  139.6334  152.2549 N   0  0  0  0  0  0  0  0  0  0  0  0
  146.4257  138.4471  152.4533 C   0  0  0  0  0  0  0  0  0  0  0  0
  146.3069  137.9340  153.5626 O   0  0  0  0  0  0  0  0  0  0  0  0
  149.2538  138.5600  153.6641 N   0  3  0  0  0  0  0  0  0  0  0  0
  150.4265  138.3229  154.3812 C   0  0  0  0  0  0  0  0  0  0  0  0
  151.2334  137.1921  154.4599 C   0  0  0  0  0  0  0  0  0  0  0  0
  152.3661  137.2803  155.2955 C   0  0  0  0  0  0  0  0  0  0  0  0
  152.6593  138.4583  156.0129 C   0  0  0  0  0  0  0  0  0  0  0  0
  151.8342  139.5989  155.9237 C   0  0  0  0  0  0  0  0  0  0  0  0
  150.7180  139.5045  155.0924 C   0  0  0  0  0  0  0  0  0  0  0  0
  149.9373  143.7397  158.8818 C   0  0  0  0  0  0  0  0  0  0  0  0
  148.9098  146.0864  161.1781 H   0  0  0  0  0  0  0  0  0  0  0  0
  148.5424  144.3627  161.3032 H   0  0  0  0  0  0  0  0  0  0  0  0
  147.8904  145.3125  159.9615 H   0  0  0  0  0  0  0  0  0  0  0  0
  151.1975  146.4366  160.5695 H   0  0  0  0  0  0  0  0  0  0  0  0
  153.1861  145.8627  159.2017 H   0  0  0  0  0  0  0  0  0  0  0  0
  153.1103  143.9436  157.6337 H   0  0  0  0  0  0  0  0  0  0  0  0
  149.9025  140.6799  157.2064 H   0  0  0  0  0  0  0  0  0  0  0  0
  149.0532  142.2266  157.3370 H   0  0  0  0  0  0  0  0  0  0  0  0
  148.7955  142.2560  155.0739 H   0  0  0  0  0  0  0  0  0  0  0  0
  150.5237  142.3376  154.8725 H   0  0  0  0  0  0  0  0  0  0  0  0
  147.8488  141.4233  152.8944 H   0  0  0  0  0  0  0  0  0  0  0  0
  146.9074  141.3557  155.1842 H   0  0  0  0  0  0  0  0  0  0  0  0
  146.1785  139.7842  154.8604 H   0  0  0  0  0  0  0  0  0  0  0  0
  145.6411  141.2068  153.9730 H   0  0  0  0  0  0  0  0  0  0  0  0
  147.0739  139.9863  151.3107 H   0  0  0  0  0  0  0  0  0  0  0  0
  146.0706  138.0009  151.5109 H   0  0  0  0  0  0  0  0  0  0  0  0
  151.0097  136.2881  153.9125 H   0  0  0  0  0  0  0  0  0  0  0  0
  153.0224  136.4271  155.3891 H   0  0  0  0  0  0  0  0  0  0  0  0
  153.5354  138.4884  156.6446 H   0  0  0  0  0  0  0  0  0  0  0  0
  152.0682  140.4948  156.4794 H   0  0  0  0  0  0  0  0  0  0  0  0
  149.0224  143.1705  158.8176 H   0  0  0  0  0  0  0  0  0  0  0  0
  148.7839  137.9060  153.0515 H   0  0  0  0  0  0  0  0  0  0  0  0
  1  2  1  0  0  0  0
  1 25  1  0  0  0  0
  1 26  1  0  0  0  0
  1 27  1  0  0  0  0
  2 24  1  0  0  0  0
  2  3  2  0  0  0  0
  3  4  1  0  0  0  0
  3 28  1  0  0  0  0
  4  5  2  0  0  0  0
  4 29  1  0  0  0  0
  5  6  1  0  0  0  0
  5 30  1  0  0  0  0
  6  7  1  0  0  0  0
  6 24  2  0  0  0  0
  7  8  1  0  0  0  0
  8  9  1  0  0  0  0
  8 31  1  0  0  0  0
  8 32  1  0  0  0  0
  9 10  1  0  0  0  0
  9 33  1  0  0  0  0
  9 34  1  0  0  0  0
 10 23  1  0  0  0  0
 10 11  1  0  0  0  0
 11 12  1  0  0  0  0
 11 17  2  0  0  0  0
 12 13  1  0  0  0  0
 12 14  1  0  0  0  0
 12 35  1  0  0  0  0
 13 36  1  0  0  0  0
 13 37  1  0  0  0  0
 13 38  1  0  0  0  0
 14 15  1  0  0  0  0
 14 39  1  0  0  0  0
 15 16  2  0  0  0  0
 15 40  1  0  0  0  0
 17 18  1  0  0  0  0
 17 46  1  0  0  0  0
 18 23  2  0  0  0  0
 18 19  1  0  0  0  0
 19 20  2  0  0  0  0
 19 41  1  0  0  0  0
 20 21  1  0  0  0  0
 20 42  1  0  0  0  0
 21 22  2  0  0  0  0
 21 43  1  0  0  0  0
 22 23  1  0  0  0  0
 22 44  1  0  0  0  0
 24 45  1  0  0  0  0
M  CHG  1  17   1
M  END
> <s_m_source_file>
AV-unprocessed.smi

> <i_m_source_file_index>
2955

> <i_lp_mmshare_version>
43012

> <i_f3d_flags>
0

> <s_epik_input>
W0NIM11jMVtjSF1bY0hdW2NIXWMoW2NIXTEpT1tDSDJdW0NIMl1uKGMobjIpW0NASF0oW0NIM10pW05IXVtDSF09TyljKGMyMylbY0hdW2NIXVtjSF1bY0hdMw==

> <s_epik_cmdline>
J2VwaWtfcHl0aG9uJywgJy1waCcsICc3LjAnLCAnLXRuJywgJzgnLCAnLW1hJywgJzIwMCcsICctbWV0YWxfYmluZGluZycsICctaW1hZScsICc8aW5maWxlLm1hZT4nLCAnLW9tYWUnLCAnPG91dGZpbGUubWFlPic=

> <r_lp_tautomer_probability>
1

> <r_epik_Ionization_Penalty>
1.15027

> <r_epik_Ionization_Penalty_Charging>
1.15027

> <r_epik_Ionization_Penalty_Neutral>
5.5802e-08

> <r_epik_State_Penalty>
1.21159

> <r_epik_Charging_Adjusted_Penalty>
2.36186

> <i_epik_Tot_Q>
1

> <i_epik_Tot_abs_Q>
1

> <r_epik_Metal_State_Penalty>
1.29223

> <b_epik_Metal_Only>
0

> <s_lp_Force_Field>
OPLS_2005

> <r_lp_Energy>
18.7975

> <b_lp_Chiralities_Consistent>
1

> <s_lp_Variant>
AV-unprocessed.smi:2955-3

> <Gold.Version>
5.8.1

> <Gold.Id.Protein>
6NUR|6NUR_protein|mol2

> <Gold.PLP.Fitness>
54.3077

> <Gold.PLP.PLP>
-50.6969

> <Gold.PLP.part.hbond>
-3.0000

> <Gold.PLP.part.metal>
0.0000

> <Gold.PLP.part.buried>
5.4944

> <Gold.PLP.part.nonpolar>
-53.3415

> <Gold.PLP.part.repulsive>
0.4218

> <Gold.PLP.ligand.clash>
0.0000

> <Gold.PLP.ligand.torsion>
1.1550

> <Gold.PLP.Chemscore.Hbond>
1.9200

> <Gold.PLP.Chemscore.CHOScore>
0.0000

> <Gold.PLP.Chemscore.Metal>
0.0000

> <Gold.Chemscore.Hbonds>
donor molecule, donor type, donor heavy atom, donor atom, acceptor molecule, acceptor atom, score
      L1  H    17    46       P1  7948  1.78

> <Gold.PLP.Chemscore.Internal.Correction>
0.1609

> <Gold.Rescore>
     Score         DG    S(hbond)    S(metal)    S(lipo)     H(rot)  DE(clash)    DE(int)     intcor
     12.98     -18.20       0.78        0.00     137.33       2.32       3.08       2.14       ----

> <Gold.Chemscore.Fitness>
12.9842

> <Gold.Chemscore.DG>
-18.2015

> <Gold.Chemscore.ZeroCoef>
-5.4800

> <Gold.Chemscore.Hbond>
0.7780

> <Gold.Chemscore.Metal>
0.0000

> <Gold.Chemscore.Lipo>
137.3346

> <Gold.Chemscore.Internal_Hbond>
0.0000

> <Gold.Chemscore.DEClash>
3.0807

> <Gold.Chemscore.DEInternal>
2.1367

> <Gold.Chemscore.Rot>
2.3223

> <Gold.Chemscore.Internal.Correction>
   9.000000E+99

> <Gold.Chemscore.Hbonds>
donor molecule, donor type, donor heavy atom, donor atom, acceptor molecule, acceptor atom, score
      L1  H    17    46       P1  7948  0.83

> <Gold.Chemscore.Hbond.Weighted>
-2.5984

> <Gold.Chemscore.Metal.Weighted>
-0.0000

> <Gold.Chemscore.Lipo.Weighted>
-16.0682

> <Gold.Chemscore.Internal_Hbond.Weighted>
0.0000

> <Gold.Chemscore.DEClash.Weighted>
3.0807

> <Gold.Chemscore.DEInternal.Weighted>
2.1367

> <Gold.Chemscore.Rot.Weighted>
5.9450

> <Gold.Chemscore.Internal.Correction.Weighted>
   9.000000E+99

> <Gold.Protein.RotatedTorsions>
[ 6907 6896 6895 6894 ] final  -58.11 input  -60.11 | X-H torsion
[ 7974 7965 7964 7962 ] final   50.27 input  175.53 | X-H torsion
[ 8008 7997 7996 7995 ] final -121.18 input   59.86 | X-H torsion
[ 10167 10162 10161 10158 ] final   31.08 input  -65.29 | X-H torsion
[ 10718 10713 10712 10709 ] final   30.48 input   66.30 | X-H torsion
[ 10763 10752 10751 10750 ] final  104.56 input  -60.55 | X-H torsion
[ 11005 11000 10999 10996 ] final   85.54 input  -57.11 | X-H torsion

> <Gold.Protein.ActiveResidues>
 VAL166  LYS551  ARG553  GLY616  TRP617  ASP618  TYR619  PRO620  LYS621  CYS622 
 ASP623  PHE694  ASN695  SER759  ASP760  ASP761  ALA762  ILE779  LEU786  VAL792 
 PHE793  MET794  SER795  GLU796  ALA797  LYS798  CYS799  TRP800  GLU811  SER814 

> <Gold.Protein.RotatedAtoms>
  150.8033  134.7141  159.6620 H   0  0  0  0  0  0  0  0  0  0  0  0  # atno 6907 bound_to 6896
  152.4151  134.6053  160.0021 H   0  0  0  0  0  0  0  0  0  0  0  0  # atno 6908 bound_to 6896
  151.6285  133.3297  159.3139 H   0  0  0  0  0  0  0  0  0  0  0  0  # atno 6909 bound_to 6896
  146.0028  139.4458  143.0004 H   0  0  0  0  0  0  0  0  0  0  0  0  # atno 7974 bound_to 7965
  155.1439  140.0402  157.2805 H   0  0  0  0  0  0  0  0  0  0  0  0  # atno 8008 bound_to 7997
  154.6453  140.2556  155.7249 H   0  0  0  0  0  0  0  0  0  0  0  0  # atno 8009 bound_to 7997
  156.2552  140.2847  156.0864 H   0  0  0  0  0  0  0  0  0  0  0  0  # atno 8010 bound_to 7997
  140.4620  144.0892  150.6215 H   0  0  0  0  0  0  0  0  0  0  0  0  # atno 10167 bound_to 10162
  157.2601  130.7157  149.6449 H   0  0  0  0  0  0  0  0  0  0  0  0  # atno 10718 bound_to 10713
  153.3676  135.3939  155.1765 H   0  0  0  0  0  0  0  0  0  0  0  0  # atno 10763 bound_to 10752
  154.8689  135.3694  154.5019 H   0  0  0  0  0  0  0  0  0  0  0  0  # atno 10764 bound_to 10752
  153.5484  135.7083  153.5664 H   0  0  0  0  0  0  0  0  0  0  0  0  # atno 10765 bound_to 10752
  139.8969  134.8293  156.2596 H   0  0  0  0  0  0  0  0  0  0  0  0  # atno 11005 bound_to 11000
  145.7461  140.9990  143.1275 LP  0  0  0  0  0  0  0  0  0  0  0  0  # atno 17320 bound_to 7965
  144.6925  139.9158  143.7465 LP  0  0  0  0  0  0  0  0  0  0  0  0  # atno 17321 bound_to 7965
  140.4081  143.2670  151.9866 LP  0  0  0  0  0  0  0  0  0  0  0  0  # atno 17342 bound_to 10162
  139.4807  144.5939  151.7724 LP  0  0  0  0  0  0  0  0  0  0  0  0  # atno 17343 bound_to 10162
  155.9664  130.4400  150.5282 LP  0  0  0  0  0  0  0  0  0  0  0  0  # atno 17370 bound_to 10713
  157.3185  131.0677  151.1949 LP  0  0  0  0  0  0  0  0  0  0  0  0  # atno 17371 bound_to 10713
  141.0171  133.7062  156.1206 LP  0  0  0  0  0  0  0  0  0  0  0  0  # atno 17394 bound_to 11000
  140.7286  134.4279  157.5568 LP  0  0  0  0  0  0  0  0  0  0  0  0  # atno 17395 bound_to 11000

$$$$
