#       Name:                AV-unprocessed.smi:1656
#       Creating user name   scv26
#       Creation time:       Fri Mar 27 07:35:01 2020


#       File generated by GOLD software.
#

@<TRIPOS>MOLECULE
AV-unprocessed.smi:1656
    55    58     1
SMALL
NO_CHARGES


@<TRIPOS>ATOM
      1 ****        -2.9076   3.7234  -3.7549 C.3            1 S1                 0.0000
      2 ****        -2.9209   2.3403  -3.1617 C.2            1 S1                 0.0000
      3 ****        -1.7729   1.7754  -2.9788 N.2            1 S1                 0.0000
      4 ****        -1.6727   0.5098  -2.4338 N.am           1 S1                 0.0000
      5 ****        -0.2911   0.0375  -2.2598 C.3            1 S1                 0.0000
      6 ****         0.2059   0.1604  -0.8122 C.2            1 S1                 0.0000
      7 ****        -0.2236   1.0533  -0.0809 O.2            1 S1                 0.0000
      8 ****         1.1249  -0.7432  -0.4300 N.am           1 S1                 0.0000
      9 ****         1.7622  -0.8901   0.8829 C.3            1 S1                 0.0000
     10 ****         2.5803   0.3733   1.2674 C.3            1 S1                 0.0000
     11 ****         3.2817   0.1506   2.6250 C.3            1 S1                 0.0000
     12 ****         2.2228  -0.1280   3.7141 C.3            1 S1                 0.0000
     13 ****         1.4273  -1.3990   3.3443 C.3            1 S1                 0.0000
     14 ****         2.3897  -2.6003   3.2403 C.3            1 S1                 0.0000
     15 ****         3.4422  -2.3139   2.1493 C.3            1 S1                 0.0000
     16 ****         4.2450  -1.0501   2.5206 C.3            1 S1                 0.0000
     17 ****         2.7343  -2.0945   0.7955 C.3            1 S1                 0.0000
     18 ****         0.7145  -1.1857   1.9914 C.3            1 S1                 0.0000
     19 ****        -2.7346  -0.2617  -2.0610 C.2            1 S1                 0.0000
     20 ****        -2.5991  -1.3920  -1.5898 O.2            1 S1                 0.0000
     21 ****        -4.0318   0.3848  -2.2708 C.2            1 S1                 0.0000
     22 ****        -5.1698  -0.3838  -1.8815 C.1            1 S1                 0.0000
     23 ****        -6.1048  -0.9913  -1.5699 N.1            1 S1                 0.0000
     24 ****        -4.1426   1.6310  -2.7954 C.2            1 S1                 0.0000
     25 ****        -5.4653   2.3476  -3.0298 C.3            1 S1                 0.0000
     26 ****        -3.4047   3.7325  -4.7250 H              1 S1                 0.0000
     27 ****        -1.8918   4.0938  -3.9012 H              1 S1                 0.0000
     28 ****        -3.4224   4.4295  -3.1032 H              1 S1                 0.0000
     29 ****        -0.2086  -0.9986  -2.5943 H              1 S1                 0.0000
     30 ****         0.3876   0.6058  -2.8981 H              1 S1                 0.0000
     31 ****         1.4022  -1.4231  -1.1230 H              1 S1                 0.0000
     32 ****         3.3197   0.5964   0.4970 H              1 S1                 0.0000
     33 ****         1.9388   1.2518   1.3381 H              1 S1                 0.0000
     34 ****         3.8464   1.0448   2.8902 H              1 S1                 0.0000
     35 ****         2.7034  -0.2530   4.6852 H              1 S1                 0.0000
     36 ****         1.5486   0.7239   3.8115 H              1 S1                 0.0000
     37 ****         0.6833  -1.5981   4.1162 H              1 S1                 0.0000
     38 ****         2.8777  -2.7786   4.1994 H              1 S1                 0.0000
     39 ****         1.8357  -3.5093   3.0025 H              1 S1                 0.0000
     40 ****         4.1210  -3.1636   2.0697 H              1 S1                 0.0000
     41 ****         5.0124  -0.8556   1.7704 H              1 S1                 0.0000
     42 ****         4.7683  -1.1987   3.4660 H              1 S1                 0.0000
     43 ****         2.1932  -2.9986   0.5121 H              1 S1                 0.0000
     44 ****         3.4773  -1.9261   0.0144 H              1 S1                 0.0000
     45 ****         0.0025  -0.3660   2.0885 H              1 S1                 0.0000
     46 ****         0.1287  -2.0694   1.7342 H              1 S1                 0.0000
     47 ****        -6.3231   1.7235  -2.7813 H              1 S1                 0.0000
     48 ****        -5.5664   2.6379  -4.0760 H              1 S1                 0.0000
     49 ****        -5.5243   3.2469  -2.4159 H              1 S1                 0.0000
     50 ****        -0.9398   2.2645  -3.2371 LP             1 S1                 0.0000
     51 ****        -0.8995   1.7029  -0.4290 LP             1 S1                 0.0000
     52 ****         0.1035   1.1287   0.8611 LP             1 S1                 0.0000
     53 ****        -1.6841  -1.7766  -1.4680 LP             1 S1                 0.0000
     54 ****        -3.4041  -1.9249  -1.3291 LP             1 S1                 0.0000
     55 ****        -6.9124  -1.5161  -1.3007 LP             1 S1                 0.0000
@<TRIPOS>BOND
    1    1    2 1     
    2    1   26 1     
    3    1   27 1     
    4    1   28 1     
    5    2   24 1     
    6    2    3 2     
    7    3    4 1     
    8    4    5 1     
    9    4   19 am    
   10    5    6 1     
   11    5   29 1     
   12    5   30 1     
   13    6    7 2     
   14    6    8 am    
   15    8    9 1     
   16    8   31 1     
   17    9   17 1     
   18    9   18 1     
   19    9   10 1     
   20   10   11 1     
   21   10   32 1     
   22   10   33 1     
   23   11   16 1     
   24   11   12 1     
   25   11   34 1     
   26   12   13 1     
   27   12   35 1     
   28   12   36 1     
   29   13   14 1     
   30   13   18 1     
   31   13   37 1     
   32   14   15 1     
   33   14   38 1     
   34   14   39 1     
   35   15   16 1     
   36   15   17 1     
   37   15   40 1     
   38   16   41 1     
   39   16   42 1     
   40   17   43 1     
   41   17   44 1     
   42   18   45 1     
   43   18   46 1     
   44   19   20 2     
   45   19   21 1     
   46   21   22 1     
   47   21   24 2     
   48   22   23 3     
   49   24   25 1     
   50   25   47 1     
   51   25   48 1     
   52   25   49 1     
   53    3   50 1     
   54    7   51 1     
   55    7   52 1     
   56   20   53 1     
   57   20   54 1     
   58   23   55 1     
@<TRIPOS>SUBSTRUCTURE
      1 S1             1
@<TRIPOS>SET
LONE_PAIRS      STATIC     ATOMS    <user>   **** ""
6 50 51 52 53 54 55
DONOR_HYDROGENS      STATIC     ATOMS    <user>   **** ""
1 31
ATOM$BLUE        STATIC     ATOMS    COLORGROUP SYSTEM
6 50 51 52 53 54 55
ATOM$RED        STATIC     ATOMS    COLORGROUP SYSTEM
1 31
