#       Name:                AV-unprocessed.smi:290
#       Creating user name   scv26
#       Creation time:       Thu Mar 26 22:12:01 2020


#       File generated by GOLD software.
#

@<TRIPOS>MOLECULE
AV-unprocessed.smi:290
    68    71     1
SMALL
NO_CHARGES


@<TRIPOS>ATOM
      1 ****        -6.6398  -2.2903   0.3623 C.3            1 S1                 0.0000
      2 ****        -5.7937  -2.1971   1.6420 C.3            1 S1                 0.0000
      3 ****        -5.5949  -3.5233   2.1243 O.3            1 S1                 0.0000
      4 ****        -4.3532  -3.5819   2.8029 C.3            1 S1                 0.0000
      5 ****        -3.4566  -2.7322   1.9154 C.3            1 S1                 0.0000
      6 ****        -4.3717  -1.5824   1.5011 C.3            1 S1                 0.0000
      7 ****        -4.2486  -0.5592   2.4745 O.3            1 S1                 0.0000
      8 ****        -4.0190  -0.9739   0.1182 C.3            1 S1                 0.0000
      9 ****        -2.6464  -0.4997   0.0232 N.pl3          1 S1                 0.0000
     10 ****        -1.5574  -1.2176  -0.4147 C.2            1 S1                 0.0000
     11 ****        -0.4263  -0.5676  -0.4126 N.2            1 S1                 0.0000
     12 ****        -0.7589   0.7017   0.0479 C.ar           1 S1                 0.0000
     13 ****        -0.0263   1.9005   0.2912 C.ar           1 S1                 0.0000
     14 ****         1.3054   2.0437   0.0671 N.pl3          1 S1                 0.0000
     15 ****         2.0777   3.1423   0.6116 C.3            1 S1                 0.0000
     16 ****         3.5155   2.6663   0.4593 C.3            1 S1                 0.0000
     17 ****         3.5075   1.8776  -0.8639 C.3            1 S1                 0.0000
     18 ****         4.5842   0.8404  -0.9338 N.4            1 S1                 1.0000
     19 ****         5.9372   1.4360  -0.7747 C.3            1 S1                 0.0000
     20 ****         4.5036  -0.0411  -2.1343 C.3            1 S1                 0.0000
     21 ****         5.3457  -1.3253  -2.0133 C.3            1 S1                 0.0000
     22 ****         4.8759  -2.1144  -0.9405 O.3            1 S1                 0.0000
     23 ****         2.0553   1.3281  -0.9614 C.3            1 S1                 0.0000
     24 ****         1.4495   1.5735  -2.3618 C.3            1 S1                 0.0000
     25 ****        -0.7150   2.9626   0.7848 N.ar           1 S1                 0.0000
     26 ****        -2.0297   2.8750   1.0049 C.ar           1 S1                 0.0000
     27 ****        -2.8396   1.8333   0.8102 N.ar           1 S1                 0.0000
     28 ****        -2.1539   0.7564   0.3321 C.ar           1 S1                 0.0000
     29 ****         3.6699   2.5921  -1.6735 H              1 S1                 0.0000
     30 ****         2.0420   0.2679  -0.7092 H              1 S1                 0.0000
     31 ****        -6.8334  -1.3045  -0.0607 H              1 S1                 0.0000
     32 ****        -7.6061  -2.7486   0.5740 H              1 S1                 0.0000
     33 ****        -6.1507  -2.8999  -0.3979 H              1 S1                 0.0000
     34 ****        -6.3688  -1.6548   2.3950 H              1 S1                 0.0000
     35 ****        -4.4532  -3.1456   3.7979 H              1 S1                 0.0000
     36 ****        -3.9981  -4.6074   2.9063 H              1 S1                 0.0000
     37 ****        -2.5394  -2.4120   2.4117 H              1 S1                 0.0000
     38 ****        -3.1738  -3.3197   1.0409 H              1 S1                 0.0000
     39 ****        -3.3778  -0.1959   2.4207 H              1 S1                 0.0000
     40 ****        -4.1606  -1.7135  -0.6701 H              1 S1                 0.0000
     41 ****        -4.6860  -0.1429  -0.1151 H              1 S1                 0.0000
     42 ****        -1.6282  -2.2469  -0.7354 H              1 S1                 0.0000
     43 ****         1.8942   4.0443   0.0263 H              1 S1                 0.0000
     44 ****         1.8318   3.3446   1.6548 H              1 S1                 0.0000
     45 ****         4.2246   3.4947   0.4640 H              1 S1                 0.0000
     46 ****         3.7627   2.0047   1.2913 H              1 S1                 0.0000
     47 ****         6.1706   2.0984  -1.6094 H              1 S1                 0.0000
     48 ****         6.7133   0.6750  -0.7191 H              1 S1                 0.0000
     49 ****         6.0230   2.0118   0.1461 H              1 S1                 0.0000
     50 ****         3.4805  -0.3658  -2.3090 H              1 S1                 0.0000
     51 ****         4.8012   0.5246  -3.0184 H              1 S1                 0.0000
     52 ****         5.2496  -1.9094  -2.9290 H              1 S1                 0.0000
     53 ****         6.4091  -1.1256  -1.8906 H              1 S1                 0.0000
     54 ****         5.3641  -2.9243  -0.9246 H              1 S1                 0.0000
     55 ****         2.0482   1.1243  -3.1526 H              1 S1                 0.0000
     56 ****         1.3798   2.6404  -2.5772 H              1 S1                 0.0000
     57 ****         0.4458   1.1595  -2.4494 H              1 S1                 0.0000
     58 ****        -2.5002   3.7677   1.3900 H              1 S1                 0.0000
     59 ****         4.4370   0.2348  -0.1385 H              1 S1                 0.0000
     60 ****        -5.5881  -4.1628   1.3555 LP             1 S1                 0.0000
     61 ****        -6.3333  -3.7662   2.7534 LP             1 S1                 0.0000
     62 ****        -4.3985  -0.9416   3.3862 LP             1 S1                 0.0000
     63 ****        -4.9240   0.1568   2.2981 LP             1 S1                 0.0000
     64 ****         0.4757  -0.9056  -0.6813 LP             1 S1                 0.0000
     65 ****         3.9034  -2.3098  -1.0669 LP             1 S1                 0.0000
     66 ****         5.0083  -1.6244  -0.0789 LP             1 S1                 0.0000
     67 ****        -0.2341   3.8163   0.9848 LP             1 S1                 0.0000
     68 ****        -3.8229   1.8412   0.9915 LP             1 S1                 0.0000
@<TRIPOS>BOND
    1    1    2 1     
    2    1   31 1     
    3    1   32 1     
    4    1   33 1     
    5    2    6 1     
    6    2    3 1     
    7    2   34 1     
    8    3    4 1     
    9    4    5 1     
   10    4   35 1     
   11    4   36 1     
   12    5    6 1     
   13    5   37 1     
   14    5   38 1     
   15    6    7 1     
   16    6    8 1     
   17    7   39 1     
   18    8    9 1     
   19    8   40 1     
   20    8   41 1     
   21    9   28 1     
   22    9   10 1     
   23   10   11 2     
   24   10   42 1     
   25   11   12 1     
   26   12   28 ar    
   27   12   13 ar    
   28   13   14 1     
   29   13   25 ar    
   30   14   23 1     
   31   14   15 1     
   32   15   16 1     
   33   15   43 1     
   34   15   44 1     
   35   16   17 1     
   36   16   45 1     
   37   16   46 1     
   38   17   29 1     
   39   17   18 1     
   40   17   23 1     
   41   18   19 1     
   42   18   20 1     
   43   18   59 1     
   44   19   47 1     
   45   19   48 1     
   46   19   49 1     
   47   20   21 1     
   48   20   50 1     
   49   20   51 1     
   50   21   22 1     
   51   21   52 1     
   52   21   53 1     
   53   22   54 1     
   54   23   30 1     
   55   23   24 1     
   56   24   55 1     
   57   24   56 1     
   58   24   57 1     
   59   25   26 ar    
   60   26   27 ar    
   61   26   58 1     
   62   27   28 ar    
   63    3   60 1     
   64    3   61 1     
   65    7   62 1     
   66    7   63 1     
   67   11   64 1     
   68   22   65 1     
   69   22   66 1     
   70   25   67 1     
   71   27   68 1     
@<TRIPOS>SUBSTRUCTURE
      1 S1             1
@<TRIPOS>SET
LONE_PAIRS      STATIC     ATOMS    <user>   **** ""
9 60 61 62 63 64 65 66 67 68
DONOR_HYDROGENS      STATIC     ATOMS    <user>   **** ""
3 39 59 54
ATOM$BLUE        STATIC     ATOMS    COLORGROUP SYSTEM
9 60 61 62 63 64 65 66 67 68
ATOM$RED        STATIC     ATOMS    COLORGROUP SYSTEM
3 39 59 54
