#       Name:                AV-unprocessed.smi:844
#       Creating user name   scv26
#       Creation time:       Fri Mar 27 01:38:32 2020


#       File generated by GOLD software.
#

@<TRIPOS>MOLECULE
AV-unprocessed.smi:844
    35    37     1
SMALL
NO_CHARGES


@<TRIPOS>ATOM
      1 ****        -1.1130   3.1056   0.3183 O.3            1 S1                 0.0000
      2 ****        -0.7177   1.7536   0.2028 C.3            1 S1                 0.0000
      3 ****         0.8215   1.7084   0.1392 C.3            1 S1                 0.0000
      4 ****         1.3318   0.3504   0.1873 N.pl3          1 S1                 0.0000
      5 ****         1.7743  -0.3894  -0.8479 C.2            1 S1                 0.0000
      6 ****         2.1895  -1.6242  -0.5805 N.2            1 S1                 0.0000
      7 ****         1.9974  -1.6931   0.7888 C.ar           1 S1                 0.0000
      8 ****         2.2426  -2.7471   1.6980 C.ar           1 S1                 0.0000
      9 ****         1.9636  -2.5855   3.0712 C.ar           1 S1                 0.0000
     10 ****         1.4363  -1.3707   3.5560 C.ar           1 S1                 0.0000
     11 ****         1.1837  -0.3063   2.6694 C.ar           1 S1                 0.0000
     12 ****         1.4636  -0.4719   1.3003 C.ar           1 S1                 0.0000
     13 ****        -1.3647   1.0623  -0.9926 C.ar           1 S1                 0.0000
     14 ****        -1.4241   1.7138  -2.2449 C.ar           1 S1                 0.0000
     15 ****        -2.0035   1.0711  -3.3558 C.ar           1 S1                 0.0000
     16 ****        -2.5253  -0.2295  -3.2236 C.ar           1 S1                 0.0000
     17 ****        -3.0812  -0.8482  -4.2920 F              1 S1                 0.0000
     18 ****        -2.4659  -0.8869  -1.9801 C.ar           1 S1                 0.0000
     19 ****        -1.8870  -0.2458  -0.8675 C.ar           1 S1                 0.0000
     20 ****        -1.8283  -0.8985   0.3185 F              1 S1                 0.0000
     21 ****        -2.0456   3.1329   0.4695 H              1 S1                 0.0000
     22 ****        -1.0489   1.2654   1.1199 H              1 S1                 0.0000
     23 ****         1.1871   2.1925  -0.7677 H              1 S1                 0.0000
     24 ****         1.2506   2.2552   0.9800 H              1 S1                 0.0000
     25 ****         1.7842  -0.0021  -1.8563 H              1 S1                 0.0000
     26 ****         2.6460  -3.6818   1.3378 H              1 S1                 0.0000
     27 ****         2.1549  -3.3981   3.7567 H              1 S1                 0.0000
     28 ****         1.2260  -1.2565   4.6094 H              1 S1                 0.0000
     29 ****         0.7793   0.6254   3.0362 H              1 S1                 0.0000
     30 ****        -1.0203   2.7091  -2.3601 H              1 S1                 0.0000
     31 ****        -2.0453   1.5756  -4.3100 H              1 S1                 0.0000
     32 ****        -2.8626  -1.8865  -1.8799 H              1 S1                 0.0000
     33 ****        -0.8935   3.5947  -0.5259 LP             1 S1                 0.0000
     34 ****        -0.6341   3.5329   1.0852 LP             1 S1                 0.0000
     35 ****         2.5464  -2.3196  -1.2042 LP             1 S1                 0.0000
@<TRIPOS>BOND
    1    1    2 1     
    2    1   21 1     
    3    2    3 1     
    4    2   13 1     
    5    2   22 1     
    6    3    4 1     
    7    3   23 1     
    8    3   24 1     
    9    4   12 1     
   10    4    5 1     
   11    5    6 2     
   12    5   25 1     
   13    6    7 1     
   14    7   12 ar    
   15    7    8 ar    
   16    8    9 ar    
   17    8   26 1     
   18    9   10 ar    
   19    9   27 1     
   20   10   11 ar    
   21   10   28 1     
   22   11   12 ar    
   23   11   29 1     
   24   13   19 ar    
   25   13   14 ar    
   26   14   15 ar    
   27   14   30 1     
   28   15   16 ar    
   29   15   31 1     
   30   16   17 1     
   31   16   18 ar    
   32   18   19 ar    
   33   18   32 1     
   34   19   20 1     
   35    1   33 1     
   36    1   34 1     
   37    6   35 1     
@<TRIPOS>SUBSTRUCTURE
      1 S1             1
@<TRIPOS>SET
LONE_PAIRS      STATIC     ATOMS    <user>   **** ""
3 33 34 35
DONOR_HYDROGENS      STATIC     ATOMS    <user>   **** ""
1 21
ATOM$BLUE        STATIC     ATOMS    COLORGROUP SYSTEM
3 33 34 35
ATOM$RED        STATIC     ATOMS    COLORGROUP SYSTEM
1 21
