#       Name:                AV-unprocessed.smi:72
#       Creating user name   scv26
#       Creation time:       Thu Mar 26 17:06:06 2020


#       File generated by GOLD software.
#

@<TRIPOS>MOLECULE
AV-unprocessed.smi:72
    41    42     1
SMALL
NO_CHARGES


@<TRIPOS>ATOM
      1 ****         1.3317   4.5416  -1.3424 N.2            1 S1                 0.0000
      2 ****         0.7028   3.5195  -0.9558 C.2            1 S1                 0.0000
      3 ****         0.8594   3.0427   0.4000 N.2            1 S1                 0.0000
      4 ****         0.2440   1.9493   0.7305 C.2            1 S1                 0.0000
      5 ****        -0.5460   1.1829  -0.2293 N.am           1 S1                 0.0000
      6 ****        -1.2873  -0.0866   0.1769 C.3            1 S1                 0.0000
      7 ****        -0.8503  -0.5059   1.4427 O.3            1 S1                 0.0000
      8 ****         0.0008  -1.6486   1.3598 C.3            1 S1                 0.0000
      9 ****         1.4785  -1.2279   1.1831 C.3            1 S1                 0.0000
     10 ****         1.9910  -0.7449   2.4067 O.3            1 S1                 0.0000
     11 ****        -0.6109  -2.3907   0.1676 C.3            1 S1                 0.0000
     12 ****         0.2832  -3.2993  -0.4454 O.3            1 S1                 0.0000
     13 ****        -1.0186  -1.2722  -0.7821 C.3            1 S1                 0.0000
     14 ****        -2.1846  -1.6605  -1.4808 O.3            1 S1                 0.0000
     15 ****        -0.7752   1.7458  -1.5164 C.2            1 S1                 0.0000
     16 ****        -1.5641   1.1779  -2.2712 O.2            1 S1                 0.0000
     17 ****        -0.1276   2.8944  -1.8580 N.pl3          1 S1                -1.0000
     18 ****        -2.3341   0.2168   0.2317 H              1 S1                 0.0000
     19 ****        -0.0969  -2.2528   2.2629 H              1 S1                 0.0000
     20 ****        -1.4925  -2.9337   0.5130 H              1 S1                 0.0000
     21 ****        -0.2055  -1.0293  -1.4684 H              1 S1                 0.0000
     22 ****         1.1367   4.7795  -2.3039 H              1 S1                 0.0000
     23 ****         0.2860   1.5437   1.7413 H              1 S1                 0.0000
     24 ****         2.0916  -2.0880   0.9151 H              1 S1                 0.0000
     25 ****         1.6134  -0.4928   0.3912 H              1 S1                 0.0000
     26 ****         2.8948  -0.5010   2.2771 H              1 S1                 0.0000
     27 ****        -0.1490  -3.6777  -1.1959 H              1 S1                 0.0000
     28 ****        -2.4467  -0.9409  -2.0359 H              1 S1                 0.0000
     29 ****         1.9564   5.0608  -0.7592 LP             1 S1                 0.0000
     30 ****         1.4228   3.5387   1.0607 LP             1 S1                 0.0000
     31 ****        -1.6479  -0.7365   2.0002 LP             1 S1                 0.0000
     32 ****        -0.3465   0.2419   1.8750 LP             1 S1                 0.0000
     33 ****         1.9309  -1.4597   3.1035 LP             1 S1                 0.0000
     34 ****         1.4650   0.0529   2.7015 LP             1 S1                 0.0000
     35 ****         0.5302  -4.0202   0.2022 LP             1 S1                 0.0000
     36 ****         1.1087  -2.8167  -0.7378 LP             1 S1                 0.0000
     37 ****        -2.9151  -1.8713  -0.8311 LP             1 S1                 0.0000
     38 ****        -1.9925  -2.4674  -2.0394 LP             1 S1                 0.0000
     39 ****        -2.0262   0.3420  -1.9746 LP             1 S1                 0.0000
     40 ****        -1.7432   1.5523  -3.1810 LP             1 S1                 0.0000
     41 ****        -0.2564   3.2856  -2.7692 LP             1 S1                 0.0000
@<TRIPOS>BOND
    1    1    2 2     
    2    1   22 1     
    3    2   17 1     
    4    2    3 1     
    5    3    4 2     
    6    4    5 1     
    7    4   23 1     
    8    5    6 1     
    9    5   15 am    
   10    6   18 1     
   11    6   13 1     
   12    6    7 1     
   13    7    8 1     
   14    8   19 1     
   15    8    9 1     
   16    8   11 1     
   17    9   10 1     
   18    9   24 1     
   19    9   25 1     
   20   10   26 1     
   21   11   20 1     
   22   11   12 1     
   23   11   13 1     
   24   12   27 1     
   25   13   21 1     
   26   13   14 1     
   27   14   28 1     
   28   15   16 2     
   29   15   17 1     
   30    1   29 1     
   31    3   30 1     
   32    7   31 1     
   33    7   32 1     
   34   10   33 1     
   35   10   34 1     
   36   12   35 1     
   37   12   36 1     
   38   14   37 1     
   39   14   38 1     
   40   16   39 1     
   41   16   40 1     
   42   17   41 1     
@<TRIPOS>SUBSTRUCTURE
      1 S1             1
@<TRIPOS>SET
LONE_PAIRS      STATIC     ATOMS    <user>   **** ""
13 29 30 31 32 33 34 35 36 37 38 39 40 41
DONOR_HYDROGENS      STATIC     ATOMS    <user>   **** ""
4 22 26 27 28
ATOM$BLUE        STATIC     ATOMS    COLORGROUP SYSTEM
13 29 30 31 32 33 34 35 36 37 38 39 40 41
ATOM$RED        STATIC     ATOMS    COLORGROUP SYSTEM
4 22 26 27 28
