AV-unprocessed.smi:514|AV-procd|sdf|2777|dock8
  -GOLD-   2262023243D 1   1.00000     0.00000
 Structure written by MMmdl.
 45 47  0  0  0  0  0  0  0  0  1 V2000
  152.9020  141.4709  159.7116 C   0  0  0  0  0  0  0  0  0  0  0  0
  151.9204  142.2617  158.8440 C   0  0  0  0  0  0  0  0  0  0  0  0
  150.7760  141.4620  158.6001 O   0  0  0  0  0  0  0  0  0  0  0  0
  149.7910  142.1362  157.8364 C   0  0  0  0  0  0  0  0  0  0  0  0
  148.6926  141.1380  157.4546 C   0  0  0  0  0  0  0  0  0  0  0  0
  147.5222  141.8195  156.9086 N   0  0  0  0  0  0  0  0  0  0  0  0
  147.0554  141.8158  155.6293 C   0  0  0  0  0  0  0  0  0  0  0  0
  147.6677  141.0806  154.6141 N   0  0  0  0  0  0  0  0  0  0  0  0
  149.1093  140.8904  154.4857 C   0  0  0  0  0  0  0  0  0  0  0  0
  149.4470  139.4007  154.2736 C   0  0  0  0  0  0  0  0  0  0  0  0
  148.8130  138.9173  153.0511 N   0  0  0  0  0  0  0  0  0  0  0  0
  147.3697  139.0955  153.1700 C   0  0  0  0  0  0  0  0  0  0  0  0
  147.0546  140.5893  153.3821 C   0  0  0  0  0  0  0  0  0  0  0  0
  146.0036  142.6119  155.4189 N   0  0  0  0  0  0  0  0  0  0  0  0
  145.7616  143.1517  156.6723 C   0  0  0  0  0  0  0  0  0  0  0  0
  146.6669  142.6985  157.5767 C   0  0  0  0  0  0  0  0  0  0  0  0
  146.6713  143.1467  158.9765 C   0  0  0  0  0  0  0  0  0  0  0  0
  147.4993  142.7777  159.8061 O   0  0  0  0  0  0  0  0  0  0  0  0
  145.6708  144.0159  159.2599 N   0  0  0  0  0  0  0  0  0  0  0  0
  144.7215  144.4995  158.4022 C   0  0  0  0  0  0  0  0  0  0  0  0
  143.8660  145.2846  158.8107 O   0  0  0  0  0  0  0  0  0  0  0  0
  144.7683  144.0795  157.0976 N   0  0  0  0  0  0  0  0  0  0  0  0
  143.7829  144.5725  156.1334 C   0  0  0  0  0  0  0  0  0  0  0  0
  145.6226  144.3477  160.2122 H   0  0  0  0  0  0  0  0  0  0  0  0
  153.7972  142.0571  159.9204 H   0  0  0  0  0  0  0  0  0  0  0  0
  153.2123  140.5526  159.2127 H   0  0  0  0  0  0  0  0  0  0  0  0
  152.4497  141.1987  160.6654 H   0  0  0  0  0  0  0  0  0  0  0  0
  151.6342  143.1834  159.3525 H   0  0  0  0  0  0  0  0  0  0  0  0
  152.3959  142.5368  157.9015 H   0  0  0  0  0  0  0  0  0  0  0  0
  149.3671  142.9608  158.4117 H   0  0  0  0  0  0  0  0  0  0  0  0
  150.2430  142.5577  156.9369 H   0  0  0  0  0  0  0  0  0  0  0  0
  149.0787  140.4210  156.7372 H   0  0  0  0  0  0  0  0  0  0  0  0
  148.4015  140.5396  158.3158 H   0  0  0  0  0  0  0  0  0  0  0  0
  149.4897  141.4941  153.6604 H   0  0  0  0  0  0  0  0  0  0  0  0
  149.6037  141.2499  155.3888 H   0  0  0  0  0  0  0  0  0  0  0  0
  150.5255  139.2682  154.1883 H   0  0  0  0  0  0  0  0  0  0  0  0
  149.1156  138.8043  155.1250 H   0  0  0  0  0  0  0  0  0  0  0  0
  149.0253  137.9385  152.9215 H   0  0  0  0  0  0  0  0  0  0  0  0
  146.8935  138.7364  152.2577 H   0  0  0  0  0  0  0  0  0  0  0  0
  146.9853  138.4922  153.9936 H   0  0  0  0  0  0  0  0  0  0  0  0
  145.9793  140.7618  153.3957 H   0  0  0  0  0  0  0  0  0  0  0  0
  147.4318  141.1721  152.5403 H   0  0  0  0  0  0  0  0  0  0  0  0
  142.7881  144.2050  156.3878 H   0  0  0  0  0  0  0  0  0  0  0  0
  144.0000  144.2558  155.1134 H   0  0  0  0  0  0  0  0  0  0  0  0
  143.7537  145.6630  156.1312 H   0  0  0  0  0  0  0  0  0  0  0  0
  1  2  1  0  0  0  0
  1 25  1  0  0  0  0
  1 26  1  0  0  0  0
  1 27  1  0  0  0  0
  2  3  1  0  0  0  0
  2 28  1  0  0  0  0
  2 29  1  0  0  0  0
  3  4  1  0  0  0  0
  4  5  1  0  0  0  0
  4 30  1  0  0  0  0
  4 31  1  0  0  0  0
  5  6  1  0  0  0  0
  5 32  1  0  0  0  0
  5 33  1  0  0  0  0
  6 16  1  0  0  0  0
  6  7  1  0  0  0  0
  7  8  1  0  0  0  0
  7 14  2  0  0  0  0
  8 13  1  0  0  0  0
  8  9  1  0  0  0  0
  9 10  1  0  0  0  0
  9 34  1  0  0  0  0
  9 35  1  0  0  0  0
 10 11  1  0  0  0  0
 10 36  1  0  0  0  0
 10 37  1  0  0  0  0
 11 12  1  0  0  0  0
 11 38  1  0  0  0  0
 12 13  1  0  0  0  0
 12 39  1  0  0  0  0
 12 40  1  0  0  0  0
 13 41  1  0  0  0  0
 13 42  1  0  0  0  0
 14 15  1  0  0  0  0
 15 22  1  0  0  0  0
 15 16  2  0  0  0  0
 16 17  1  0  0  0  0
 17 18  2  0  0  0  0
 17 19  1  0  0  0  0
 19 24  1  0  0  0  0
 19 20  1  0  0  0  0
 20 21  2  0  0  0  0
 20 22  1  0  0  0  0
 22 23  1  0  0  0  0
 23 43  1  0  0  0  0
 23 44  1  0  0  0  0
 23 45  1  0  0  0  0
M  END
> <s_m_source_file>
AV-unprocessed.smi

> <i_m_source_file_index>
514

> <i_lp_mmshare_version>
43012

> <i_f3d_flags>
0

> <s_epik_input>
W0NIM11uMWMoPU8pW25IXWMoPU8pYyhjMTIpbihbQ0gyXVtDSDJdT1tDSDJdW0NIM10pYyhuMilOM1tDSDJdW0NIMl1bTkhdW0NIMl1bQ0gyXTM=

> <s_epik_cmdline>
J2VwaWtfcHl0aG9uJywgJy1waCcsICc3LjAnLCAnLXRuJywgJzgnLCAnLW1hJywgJzIwMCcsICctbWV0YWxfYmluZGluZycsICctaW1hZScsICc8aW5maWxlLm1hZT4nLCAnLW9tYWUnLCAnPG91dGZpbGUubWFlPic=

> <r_epik_Ionization_Penalty>
2.51413

> <r_epik_Ionization_Penalty_Charging>
1.58739e-05

> <r_epik_Ionization_Penalty_Neutral>
2.51411

> <r_epik_State_Penalty>
2.67993

> <r_epik_Charging_Adjusted_Penalty>
2.67995

> <i_epik_Tot_Q>
0

> <i_epik_Tot_abs_Q>
0

> <r_epik_Metal_State_Penalty>
2.70758

> <b_epik_Metal_Only>
0

> <s_lp_Force_Field>
OPLS_2005

> <r_lp_Energy>
49.2261

> <b_lp_Chiralities_Consistent>
1

> <s_lp_Variant>
AV-unprocessed.smi:514-2

> <Gold.Version>
5.8.1

> <Gold.Id.Protein>
6NUR|6NUR_protein|mol2

> <Gold.PLP.Fitness>
38.8643

> <Gold.PLP.PLP>
-33.2350

> <Gold.PLP.part.hbond>
-3.6584

> <Gold.PLP.part.metal>
0.0000

> <Gold.PLP.part.buried>
-6.3203

> <Gold.PLP.part.nonpolar>
-24.7935

> <Gold.PLP.part.repulsive>
0.3014

> <Gold.PLP.ligand.clash>
0.0000

> <Gold.PLP.ligand.torsion>
0.5357

> <Gold.PLP.Chemscore.Hbond>
2.0992

> <Gold.PLP.Chemscore.CHOScore>
0.0000

> <Gold.PLP.Chemscore.Metal>
0.0000

> <Gold.Chemscore.Hbonds>
donor molecule, donor type, donor heavy atom, donor atom, acceptor molecule, acceptor atom, score
      L1  H    11    38       P1  7948  1.00
      P1  H  6933  6944       L1    18  0.74
      P1  H  6934  6946       L1    18  0.39

> <Gold.PLP.Chemscore.Internal.Correction>
0.4029

> <Gold.Rescore>
     Score         DG    S(hbond)    S(metal)    S(lipo)     H(rot)  DE(clash)    DE(int)     intcor
     12.44     -13.37       1.58        0.00      59.90       1.72       0.04       0.89       ----

> <Gold.Chemscore.Fitness>
12.4387

> <Gold.Chemscore.DG>
-13.3721

> <Gold.Chemscore.ZeroCoef>
-5.4800

> <Gold.Chemscore.Hbond>
1.5842

> <Gold.Chemscore.Metal>
0.0000

> <Gold.Chemscore.Lipo>
59.8951

> <Gold.Chemscore.Internal_Hbond>
0.0000

> <Gold.Chemscore.DEClash>
0.0387

> <Gold.Chemscore.DEInternal>
0.8947

> <Gold.Chemscore.Rot>
1.7214

> <Gold.Chemscore.Internal.Correction>
   9.000000E+99

> <Gold.Chemscore.Hbonds>
donor molecule, donor type, donor heavy atom, donor atom, acceptor molecule, acceptor atom, score
      L1  H    11    38       P1  7948  0.93
      P1  H  6933  6944       L1    18  0.71
      P1  H  6934  6946       L1    18  0.31

> <Gold.Chemscore.Hbond.Weighted>
-5.2913

> <Gold.Chemscore.Metal.Weighted>
-0.0000

> <Gold.Chemscore.Lipo.Weighted>
-7.0077

> <Gold.Chemscore.Internal_Hbond.Weighted>
0.0000

> <Gold.Chemscore.DEClash.Weighted>
0.0387

> <Gold.Chemscore.DEInternal.Weighted>
0.8947

> <Gold.Chemscore.Rot.Weighted>
4.4069

> <Gold.Chemscore.Internal.Correction.Weighted>
   9.000000E+99

> <Gold.Protein.RotatedTorsions>
[ 6907 6896 6895 6894 ] final   80.01 input  -60.11 | X-H torsion
[ 7974 7965 7964 7962 ] final  129.12 input  175.53 | X-H torsion
[ 8008 7997 7996 7995 ] final -148.20 input   59.86 | X-H torsion
[ 10167 10162 10161 10158 ] final -101.27 input  -65.29 | X-H torsion
[ 10718 10713 10712 10709 ] final  -20.23 input   66.30 | X-H torsion
[ 10763 10752 10751 10750 ] final   41.71 input  -60.55 | X-H torsion
[ 11005 11000 10999 10996 ] final -109.56 input  -57.11 | X-H torsion

> <Gold.Protein.ActiveResidues>
 VAL166  LYS551  ARG553  GLY616  TRP617  ASP618  TYR619  PRO620  LYS621  CYS622 
 ASP623  PHE694  ASN695  SER759  ASP760  ASP761  ALA762  ILE779  LEU786  VAL792 
 PHE793  MET794  SER795  GLU796  ALA797  LYS798  CYS799  TRP800  GLU811  SER814 

> <Gold.Protein.RotatedAtoms>
  152.5220  134.3423  159.9221 H   0  0  0  0  0  0  0  0  0  0  0  0  # atno 6907 bound_to 6896
  151.3372  133.3970  159.2675 H   0  0  0  0  0  0  0  0  0  0  0  0  # atno 6908 bound_to 6896
  150.9832  134.9201  159.7914 H   0  0  0  0  0  0  0  0  0  0  0  0  # atno 6909 bound_to 6896
  145.0321  139.4036  143.5144 H   0  0  0  0  0  0  0  0  0  0  0  0  # atno 7974 bound_to 7965
  155.5878  140.0649  157.2766 H   0  0  0  0  0  0  0  0  0  0  0  0  # atno 8008 bound_to 7997
  154.4314  140.1840  156.1090 H   0  0  0  0  0  0  0  0  0  0  0  0  # atno 8009 bound_to 7997
  156.0256  140.3312  155.7088 H   0  0  0  0  0  0  0  0  0  0  0  0  # atno 8010 bound_to 7997
  140.2431  143.3525  152.0784 H   0  0  0  0  0  0  0  0  0  0  0  0  # atno 10167 bound_to 10162
  156.5347  130.4663  149.6529 H   0  0  0  0  0  0  0  0  0  0  0  0  # atno 10718 bound_to 10713
  152.9901  135.6153  154.2832 H   0  0  0  0  0  0  0  0  0  0  0  0  # atno 10763 bound_to 10752
  154.2561  135.2784  155.2799 H   0  0  0  0  0  0  0  0  0  0  0  0  # atno 10764 bound_to 10752
  154.5246  135.5805  153.6766 H   0  0  0  0  0  0  0  0  0  0  0  0  # atno 10765 bound_to 10752
  141.0841  133.9170  157.2225 H   0  0  0  0  0  0  0  0  0  0  0  0  # atno 11005 bound_to 11000
  146.3500  139.9877  142.8689 LP  0  0  0  0  0  0  0  0  0  0  0  0  # atno 17320 bound_to 7965
  145.1756  140.9742  143.4296 LP  0  0  0  0  0  0  0  0  0  0  0  0  # atno 17321 bound_to 7965
  139.5071  144.6825  151.5971 LP  0  0  0  0  0  0  0  0  0  0  0  0  # atno 17342 bound_to 10162
  140.6099  143.9456  150.6445 LP  0  0  0  0  0  0  0  0  0  0  0  0  # atno 17343 bound_to 10162
  156.3027  130.7185  151.2061 LP  0  0  0  0  0  0  0  0  0  0  0  0  # atno 17370 bound_to 10713
  157.7416  131.0502  150.5087 LP  0  0  0  0  0  0  0  0  0  0  0  0  # atno 17371 bound_to 10713
  139.9657  135.0142  156.9380 LP  0  0  0  0  0  0  0  0  0  0  0  0  # atno 17394 bound_to 11000
  140.5403  134.0726  155.7340 LP  0  0  0  0  0  0  0  0  0  0  0  0  # atno 17395 bound_to 11000

$$$$
