AV-unprocessed.smi:2268|AV-procd|sdf|9151|dock5
  -GOLD-   2272012353D 1   1.00000     0.00000
 Structure written by MMmdl.
 37 38  0  0  0  0  0  0  0  0  1 V2000
  153.4891  141.0597  160.2967 C   0  0  0  0  0  0  0  0  0  0  0  0
  152.6789  142.1611  159.6343 C   0  0  0  0  0  0  0  0  0  0  0  0
  152.8418  143.4865  160.0925 C   0  0  0  0  0  0  0  0  0  0  0  0
  152.1249  144.5423  159.5006 C   0  0  0  0  0  0  0  0  0  0  0  0
  152.2912  145.8095  159.9477 F   0  0  0  0  0  0  0  0  0  0  0  0
  151.2393  144.2799  158.4411 C   0  0  0  0  0  0  0  0  0  0  0  0
  151.0689  142.9618  157.9791 C   0  0  0  0  0  0  0  0  0  0  0  0
  151.7757  141.8893  158.5719 C   0  0  0  0  0  0  0  0  0  0  0  0
  151.5692  140.4729  158.0355 C   0  0  1  0  0  0  0  0  0  0  0  0
  150.2420  140.0286  158.2418 O   0  0  0  0  0  0  0  0  0  0  0  0
  151.8883  140.4096  156.5243 C   0  0  0  0  0  0  0  0  0  0  0  0
  150.6724  140.3767  155.6922 N   0  0  0  0  0  0  0  0  0  0  0  0
  150.0080  141.6015  155.5112 C   0  0  0  0  0  0  0  0  0  0  0  0
  148.9357  141.6946  154.7956 N   0  0  0  0  0  0  0  0  0  0  0  0
  148.4090  140.5564  154.1787 C   0  0  0  0  0  0  0  0  0  0  0  0
  147.1477  140.7769  153.3624 C   0  0  0  0  0  0  0  0  0  0  0  0
  149.0034  139.3396  154.3147 C   0  0  0  0  0  0  0  0  0  0  0  0
  148.4740  138.0658  153.6676 C   0  0  0  0  0  0  0  0  0  0  0  0
  150.2250  139.2182  155.1272 C   0  0  0  0  0  0  0  0  0  0  0  0
  150.8113  138.1470  155.2922 O   0  0  0  0  0  0  0  0  0  0  0  0
  154.2121  141.4681  161.0034 H   0  0  0  0  0  0  0  0  0  0  0  0
  154.0432  140.4884  159.5521 H   0  0  0  0  0  0  0  0  0  0  0  0
  152.8352  140.3805  160.8441 H   0  0  0  0  0  0  0  0  0  0  0  0
  153.5238  143.7020  160.9022 H   0  0  0  0  0  0  0  0  0  0  0  0
  150.6913  145.0888  157.9807 H   0  0  0  0  0  0  0  0  0  0  0  0
  150.3899  142.7795  157.1591 H   0  0  0  0  0  0  0  0  0  0  0  0
  152.2065  139.7788  158.5814 H   0  0  0  0  0  0  0  0  0  0  0  0
  150.2685  139.2237  158.7364 H   0  0  0  0  0  0  0  0  0  0  0  0
  152.5587  141.2231  156.2402 H   0  0  0  0  0  0  0  0  0  0  0  0
  152.4671  139.5061  156.3210 H   0  0  0  0  0  0  0  0  0  0  0  0
  150.4611  142.4591  156.0113 H   0  0  0  0  0  0  0  0  0  0  0  0
  147.3122  140.4955  152.3220 H   0  0  0  0  0  0  0  0  0  0  0  0
  146.8402  141.8233  153.3803 H   0  0  0  0  0  0  0  0  0  0  0  0
  146.3266  140.1803  153.7605 H   0  0  0  0  0  0  0  0  0  0  0  0
  148.2372  137.3263  154.4333 H   0  0  0  0  0  0  0  0  0  0  0  0
  149.2280  137.6383  153.0062 H   0  0  0  0  0  0  0  0  0  0  0  0
  147.5729  138.2253  153.0778 H   0  0  0  0  0  0  0  0  0  0  0  0
  1  2  1  0  0  0  0
  1 21  1  0  0  0  0
  1 22  1  0  0  0  0
  1 23  1  0  0  0  0
  2  8  1  0  0  0  0
  2  3  2  0  0  0  0
  3  4  1  0  0  0  0
  3 24  1  0  0  0  0
  4  5  1  0  0  0  0
  4  6  2  0  0  0  0
  6  7  1  0  0  0  0
  6 25  1  0  0  0  0
  7  8  2  0  0  0  0
  7 26  1  0  0  0  0
  8  9  1  0  0  0  0
  9 10  1  0  0  0  0
  9 11  1  0  0  0  0
  9 27  1  0  0  0  0
 10 28  1  0  0  0  0
 11 12  1  0  0  0  0
 11 29  1  0  0  0  0
 11 30  1  0  0  0  0
 12 19  1  0  0  0  0
 12 13  1  0  0  0  0
 13 14  2  0  0  0  0
 13 31  1  0  0  0  0
 14 15  1  0  0  0  0
 15 16  1  0  0  0  0
 15 17  2  0  0  0  0
 16 32  1  0  0  0  0
 16 33  1  0  0  0  0
 16 34  1  0  0  0  0
 17 18  1  0  0  0  0
 17 19  1  0  0  0  0
 18 35  1  0  0  0  0
 18 36  1  0  0  0  0
 18 37  1  0  0  0  0
 19 20  2  0  0  0  0
M  END
> <s_m_source_file>
AV-unprocessed.smi

> <i_m_source_file_index>
2268

> <i_lp_mmshare_version>
43012

> <i_f3d_flags>
0

> <s_epik_input>
W0NIM11jMVtjSF1jKEYpW2NIXVtjSF1jMVtDQEhdKFtPSF0pW0NIMl1uMltjSF1uYyhbQ0gzXSljKFtDSDNdKWMyPU8=

> <s_epik_cmdline>
J2VwaWtfcHl0aG9uJywgJy1waCcsICc3LjAnLCAnLXRuJywgJzgnLCAnLW1hJywgJzIwMCcsICctbWV0YWxfYmluZGluZycsICctaW1hZScsICc8aW5maWxlLm1hZT4nLCAnLW9tYWUnLCAnPG91dGZpbGUubWFlPic=

> <r_lp_tautomer_probability>
1

> <r_epik_Ionization_Penalty>
5.07449e-05

> <r_epik_Ionization_Penalty_Charging>
7.56727e-08

> <r_epik_Ionization_Penalty_Neutral>
5.06692e-05

> <r_epik_State_Penalty>
-0

> <r_epik_Charging_Adjusted_Penalty>
7.56727e-08

> <i_epik_Tot_Q>
0

> <i_epik_Tot_abs_Q>
0

> <r_epik_Metal_State_Penalty>
-0

> <b_epik_Metal_Only>
0

> <s_lp_Force_Field>
OPLS_2005

> <r_lp_Energy>
20.6014

> <b_lp_Chiralities_Consistent>
1

> <s_lp_Variant>
AV-unprocessed.smi:2268-2

> <Gold.Version>
5.8.1

> <Gold.Id.Protein>
6NUR|6NUR_protein|mol2

> <Gold.PLP.Fitness>
42.5594

> <Gold.PLP.PLP>
-42.5537

> <Gold.PLP.part.hbond>
0.0000

> <Gold.PLP.part.metal>
0.0000

> <Gold.PLP.part.buried>
2.0139

> <Gold.PLP.part.nonpolar>
-43.8044

> <Gold.PLP.part.repulsive>
0.2742

> <Gold.PLP.ligand.clash>
0.0000

> <Gold.PLP.ligand.torsion>
0.8456

> <Gold.PLP.Chemscore.Hbond>
0.0000

> <Gold.PLP.Chemscore.CHOScore>
0.5626

> <Gold.PLP.Chemscore.Metal>
0.0000

> <Gold.Chemscore.Hbonds>
donor molecule, donor type, donor heavy atom, donor atom, acceptor molecule, acceptor atom, score
      L1  C    13    31       P1  8028  0.24

> <Gold.PLP.Chemscore.Internal.Correction>
0.0089

> <Gold.Rescore>
     Score         DG    S(hbond)    S(metal)    S(lipo)     H(rot)  DE(clash)    DE(int)     intcor
     10.68     -13.35       0.00        0.00     110.62       1.98       1.64       1.03       ----

> <Gold.Chemscore.Fitness>
10.6826

> <Gold.Chemscore.DG>
-13.3477

> <Gold.Chemscore.ZeroCoef>
-5.4800

> <Gold.Chemscore.Hbond>
0.0000

> <Gold.Chemscore.Metal>
0.0000

> <Gold.Chemscore.Lipo>
110.6195

> <Gold.Chemscore.Internal_Hbond>
0.0000

> <Gold.Chemscore.DEClash>
1.6354

> <Gold.Chemscore.DEInternal>
1.0297

> <Gold.Chemscore.Rot>
1.9823

> <Gold.Chemscore.Internal.Correction>
   9.000000E+99

> <Gold.Chemscore.Hbond.Weighted>
-0.0000

> <Gold.Chemscore.Metal.Weighted>
-0.0000

> <Gold.Chemscore.Lipo.Weighted>
-12.9425

> <Gold.Chemscore.Internal_Hbond.Weighted>
0.0000

> <Gold.Chemscore.DEClash.Weighted>
1.6354

> <Gold.Chemscore.DEInternal.Weighted>
1.0297

> <Gold.Chemscore.Rot.Weighted>
5.0748

> <Gold.Chemscore.Internal.Correction.Weighted>
   9.000000E+99

> <Gold.Protein.RotatedTorsions>
[ 6907 6896 6895 6894 ] final  -10.03 input  -60.11 | X-H torsion
[ 7974 7965 7964 7962 ] final -149.10 input  175.53 | X-H torsion
[ 8008 7997 7996 7995 ] final  -69.56 input   59.86 | X-H torsion
[ 10167 10162 10161 10158 ] final -162.90 input  -65.29 | X-H torsion
[ 10718 10713 10712 10709 ] final   70.43 input   66.30 | X-H torsion
[ 10763 10752 10751 10750 ] final  175.96 input  -60.55 | X-H torsion
[ 11005 11000 10999 10996 ] final  149.93 input  -57.11 | X-H torsion

> <Gold.Protein.ActiveResidues>
 VAL166  LYS551  ARG553  GLY616  TRP617  ASP618  TYR619  PRO620  LYS621  CYS622 
 ASP623  PHE694  ASN695  SER759  ASP760  ASP761  ALA762  ILE779  LEU786  VAL792 
 PHE793  MET794  SER795  GLU796  ALA797  LYS798  CYS799  TRP800  GLU811  SER814 

> <Gold.Protein.RotatedAtoms>
  151.4084  135.0981  159.9577 H   0  0  0  0  0  0  0  0  0  0  0  0  # atno 6907 bound_to 6896
  152.5028  133.8821  159.7362 H   0  0  0  0  0  0  0  0  0  0  0  0  # atno 6908 bound_to 6896
  150.9310  133.6710  159.2839 H   0  0  0  0  0  0  0  0  0  0  0  0  # atno 6909 bound_to 6896
  144.7988  140.5109  143.5721 H   0  0  0  0  0  0  0  0  0  0  0  0  # atno 7974 bound_to 7965
  154.4948  140.0851  156.7672 H   0  0  0  0  0  0  0  0  0  0  0  0  # atno 8008 bound_to 7997
  155.4144  140.3443  155.4248 H   0  0  0  0  0  0  0  0  0  0  0  0  # atno 8009 bound_to 7997
  156.1378  140.1520  156.8955 H   0  0  0  0  0  0  0  0  0  0  0  0  # atno 8010 bound_to 7997
  139.6359  144.0352  152.2053 H   0  0  0  0  0  0  0  0  0  0  0  0  # atno 10167 bound_to 10162
  157.6399  130.9477  150.0649 H   0  0  0  0  0  0  0  0  0  0  0  0  # atno 10718 bound_to 10713
  154.4747  135.2772  155.1616 H   0  0  0  0  0  0  0  0  0  0  0  0  # atno 10763 bound_to 10752
  154.3350  135.6182  153.5573 H   0  0  0  0  0  0  0  0  0  0  0  0  # atno 10764 bound_to 10752
  152.9868  135.5775  154.5136 H   0  0  0  0  0  0  0  0  0  0  0  0  # atno 10765 bound_to 10752
  140.1087  134.8938  157.1904 H   0  0  0  0  0  0  0  0  0  0  0  0  # atno 11005 bound_to 11000
  145.5605  139.1479  143.3344 LP  0  0  0  0  0  0  0  0  0  0  0  0  # atno 17320 bound_to 7965
  146.2264  140.5741  142.8994 LP  0  0  0  0  0  0  0  0  0  0  0  0  # atno 17321 bound_to 7965
  140.0029  144.6280  150.7714 LP  0  0  0  0  0  0  0  0  0  0  0  0  # atno 17342 bound_to 10162
  140.7465  143.2891  151.3380 LP  0  0  0  0  0  0  0  0  0  0  0  0  # atno 17343 bound_to 10162
  156.1671  130.3645  149.9217 LP  0  0  0  0  0  0  0  0  0  0  0  0  # atno 17370 bound_to 10713
  156.7202  130.9004  151.3617 LP  0  0  0  0  0  0  0  0  0  0  0  0  # atno 17371 bound_to 10713
  140.3120  134.3012  155.7264 LP  0  0  0  0  0  0  0  0  0  0  0  0  # atno 17394 bound_to 11000
  141.2125  133.7656  156.9790 LP  0  0  0  0  0  0  0  0  0  0  0  0  # atno 17395 bound_to 11000

$$$$
