AV-unprocessed.smi:20|AV-procd|sdf|120|dock6
  -GOLD-   2262015293D 1   1.00000     0.00000
 Structure written by MMmdl.
 57 61  0  0  0  0  0  0  0  0  1 V2000
  145.9235  131.5558  150.8901 O   0  0  0  0  0  0  0  0  0  0  0  0
  145.4939  132.7042  150.8103 C   0  0  0  0  0  0  0  0  0  0  0  0
  145.6961  133.7578  151.8854 C   0  0  0  0  0  0  0  0  0  0  0  0
  144.6775  134.8596  151.5046 C   0  0  1  0  0  0  0  0  0  0  0  0
  143.3342  134.6871  152.2637 C   0  0  0  0  0  0  0  0  0  0  0  0
  143.4528  135.0700  153.7497 C   0  0  0  0  0  0  0  0  0  0  0  0
  144.0497  136.4747  153.9129 C   0  0  0  0  0  0  0  0  0  0  0  0
  145.3090  136.5872  153.1810 N   0  0  0  0  0  0  0  0  0  0  0  0
  146.0973  137.6231  153.5622 C   0  0  0  0  0  0  0  0  0  0  0  0
  146.4661  138.5668  152.6547 N   0  0  0  0  0  0  0  0  0  0  0  0
  147.2410  139.5912  153.0231 C   0  0  0  0  0  0  0  0  0  0  0  0
  147.7549  139.8584  154.2251 N   0  0  0  0  0  0  0  0  0  0  0  0
  147.3918  138.9133  155.1384 C   0  0  0  0  0  0  0  0  0  0  0  0
  146.5729  137.7749  154.8949 C   0  0  0  0  0  0  0  0  0  0  0  0
  146.4344  137.0337  156.0628 N   0  0  0  0  0  0  0  0  0  0  0  0
  147.1269  137.6983  156.9472 C   0  0  0  0  0  0  0  0  0  0  0  0
  147.7428  138.8346  156.4744 N   0  0  0  0  0  0  0  0  0  0  0  0
  148.5791  139.7460  157.2348 C   0  0  0  0  0  0  0  0  0  0  0  0
  149.7334  140.3762  156.4110 C   0  0  1  0  0  0  0  0  0  0  0  0
  150.3227  141.6414  157.0866 C   0  0  0  0  0  0  0  0  0  0  0  0
  149.3476  142.6469  157.2718 O   0  0  0  0  0  0  0  0  0  0  0  0
  150.8436  139.3263  156.1450 C   0  0  1  0  0  0  0  0  0  0  0  0
  151.3375  139.2601  154.7092 C   0  0  0  0  0  0  0  0  0  0  0  0
  152.6703  138.5392  154.8623 C   0  0  0  0  0  0  0  0  0  0  0  0
  153.2003  138.9985  156.0984 O   0  0  0  0  0  0  0  0  0  0  0  0
  152.1654  139.5842  156.8830 C   0  0  0  0  0  0  0  0  0  0  0  0
  145.2245  136.2836  151.7516 C   0  0  0  0  0  0  0  0  0  0  0  0
  144.4577  134.6059  149.9940 C   0  0  0  0  0  0  0  0  0  0  0  0
  144.7964  133.2101  149.7963 N   0  0  0  0  0  0  0  0  0  0  0  0
  145.5435  133.3422  152.8807 H   0  0  0  0  0  0  0  0  0  0  0  0
  146.7233  134.1194  151.8245 H   0  0  0  0  0  0  0  0  0  0  0  0
  142.5761  135.3247  151.8071 H   0  0  0  0  0  0  0  0  0  0  0  0
  142.9648  133.6648  152.1718 H   0  0  0  0  0  0  0  0  0  0  0  0
  142.4716  135.0287  154.2234 H   0  0  0  0  0  0  0  0  0  0  0  0
  144.0745  134.3480  154.2789 H   0  0  0  0  0  0  0  0  0  0  0  0
  143.3542  137.2201  153.5249 H   0  0  0  0  0  0  0  0  0  0  0  0
  144.1793  136.6914  154.9728 H   0  0  0  0  0  0  0  0  0  0  0  0
  147.4848  140.2971  152.2429 H   0  0  0  0  0  0  0  0  0  0  0  0
  147.2176  137.3711  157.9730 H   0  0  0  0  0  0  0  0  0  0  0  0
  147.9470  140.5301  157.6536 H   0  0  0  0  0  0  0  0  0  0  0  0
  148.9734  139.1862  158.0830 H   0  0  0  0  0  0  0  0  0  0  0  0
  149.3312  140.6711  155.4402 H   0  0  0  0  0  0  0  0  0  0  0  0
  150.7805  141.3923  158.0445 H   0  0  0  0  0  0  0  0  0  0  0  0
  151.1048  142.0889  156.4754 H   0  0  0  0  0  0  0  0  0  0  0  0
  149.3395  143.2010  156.5063 H   0  0  0  0  0  0  0  0  0  0  0  0
  150.4781  138.3366  156.4248 H   0  0  0  0  0  0  0  0  0  0  0  0
  150.6576  138.7298  154.0421 H   0  0  0  0  0  0  0  0  0  0  0  0
  151.4978  140.2632  154.3112 H   0  0  0  0  0  0  0  0  0  0  0  0
  152.5141  137.4616  154.9273 H   0  0  0  0  0  0  0  0  0  0  0  0
  153.3526  138.7356  154.0352 H   0  0  0  0  0  0  0  0  0  0  0  0
  152.3652  140.6534  156.9628 H   0  0  0  0  0  0  0  0  0  0  0  0
  152.1665  139.1664  157.8898 H   0  0  0  0  0  0  0  0  0  0  0  0
  146.2067  136.3852  151.2871 H   0  0  0  0  0  0  0  0  0  0  0  0
  144.5724  137.0182  151.2764 H   0  0  0  0  0  0  0  0  0  0  0  0
  143.4382  134.8154  149.6682 H   0  0  0  0  0  0  0  0  0  0  0  0
  145.1314  135.2101  149.3846 H   0  0  0  0  0  0  0  0  0  0  0  0
  144.5393  132.6946  148.9668 H   0  0  0  0  0  0  0  0  0  0  0  0
  1  2  2  0  0  0  0
  2 29  1  0  0  0  0
  2  3  1  0  0  0  0
  3  4  1  0  0  0  0
  3 30  1  0  0  0  0
  3 31  1  0  0  0  0
  4 27  1  0  0  0  0
  4  5  1  0  0  0  0
  4 28  1  0  0  0  0
  5  6  1  0  0  0  0
  5 32  1  0  0  0  0
  5 33  1  0  0  0  0
  6  7  1  0  0  0  0
  6 34  1  0  0  0  0
  6 35  1  0  0  0  0
  7  8  1  0  0  0  0
  7 36  1  0  0  0  0
  7 37  1  0  0  0  0
  8  9  1  0  0  0  0
  8 27  1  0  0  0  0
  9 14  1  0  0  0  0
  9 10  2  0  0  0  0
 10 11  1  0  0  0  0
 11 12  2  0  0  0  0
 11 38  1  0  0  0  0
 12 13  1  0  0  0  0
 13 17  1  0  0  0  0
 13 14  2  0  0  0  0
 14 15  1  0  0  0  0
 15 16  2  0  0  0  0
 16 17  1  0  0  0  0
 16 39  1  0  0  0  0
 17 18  1  0  0  0  0
 18 19  1  0  0  0  0
 18 40  1  0  0  0  0
 18 41  1  0  0  0  0
 19 20  1  0  0  0  0
 19 22  1  0  0  0  0
 19 42  1  0  0  0  0
 20 21  1  0  0  0  0
 20 43  1  0  0  0  0
 20 44  1  0  0  0  0
 21 45  1  0  0  0  0
 22 26  1  0  0  0  0
 22 23  1  0  0  0  0
 22 46  1  0  0  0  0
 23 24  1  0  0  0  0
 23 47  1  0  0  0  0
 23 48  1  0  0  0  0
 24 25  1  0  0  0  0
 24 49  1  0  0  0  0
 24 50  1  0  0  0  0
 25 26  1  0  0  0  0
 26 51  1  0  0  0  0
 26 52  1  0  0  0  0
 27 53  1  0  0  0  0
 27 54  1  0  0  0  0
 28 29  1  0  0  0  0
 28 55  1  0  0  0  0
 28 56  1  0  0  0  0
 29 57  1  0  0  0  0
M  END
> <s_m_source_file>
AV-unprocessed.smi

> <i_m_source_file_index>
20

> <i_lp_mmshare_version>
43012

> <i_f3d_flags>
0

> <s_epik_input>
W0NIMl0xW05IXUMoPU8pW0NIMl1bQ0BAXTEyW0NIMl1bQ0gyXVtDSDJdTihbQ0gyXTIpYyhuW2NIXW4zKWMoYzM0KW5bY0hdbjRbQ0gyXVtDQEhdKFtDSDJdW09IXSlbQ0BASF01W0NIMl1bQ0gyXU9bQ0gyXTU=

> <s_epik_cmdline>
J2VwaWtfcHl0aG9uJywgJy1waCcsICc3LjAnLCAnLXRuJywgJzgnLCAnLW1hJywgJzIwMCcsICctbWV0YWxfYmluZGluZycsICctaW1hZScsICc8aW5maWxlLm1hZT4nLCAnLW9tYWUnLCAnPG91dGZpbGUubWFlPic=

> <r_lp_tautomer_probability>
1

> <r_epik_Ionization_Penalty>
0.0019697

> <r_epik_Ionization_Penalty_Charging>
0

> <r_epik_Ionization_Penalty_Neutral>
0.0019697

> <r_epik_State_Penalty>
0.00113613

> <r_epik_Charging_Adjusted_Penalty>
0.00113613

> <i_epik_Tot_Q>
0

> <i_epik_Tot_abs_Q>
0

> <r_epik_Metal_State_Penalty>
-0

> <b_epik_Metal_Only>
0

> <s_lp_Force_Field>
OPLS_2005

> <r_lp_Energy>
57.3449

> <b_lp_Chiralities_Consistent>
1

> <s_lp_Variant>
AV-unprocessed.smi:20-8

> <Gold.Version>
5.8.1

> <Gold.Id.Protein>
6NUR|6NUR_protein|mol2

> <Gold.PLP.Fitness>
38.1200

> <Gold.PLP.PLP>
-33.5907

> <Gold.PLP.part.hbond>
-3.0000

> <Gold.PLP.part.metal>
0.0000

> <Gold.PLP.part.buried>
-2.6862

> <Gold.PLP.part.nonpolar>
-28.5316

> <Gold.PLP.part.repulsive>
0.7972

> <Gold.PLP.ligand.clash>
0.0000

> <Gold.PLP.ligand.torsion>
2.0579

> <Gold.PLP.Chemscore.Hbond>
2.0000

> <Gold.PLP.Chemscore.CHOScore>
0.7255

> <Gold.PLP.Chemscore.Metal>
0.0000

> <Gold.Chemscore.Hbonds>
donor molecule, donor type, donor heavy atom, donor atom, acceptor molecule, acceptor atom, score
      L1  H    21    45       P1  8028  1.00
      P1  H  7997  8010       L1    25  1.00
      L1  C    11    38       P1  7957  0.76

> <Gold.PLP.Chemscore.Internal.Correction>
0.4686

> <Gold.Rescore>
     Score         DG    S(hbond)    S(metal)    S(lipo)     H(rot)  DE(clash)    DE(int)     intcor
      8.79     -12.05       1.71        0.00      67.44       2.74       0.10       3.17       ----

> <Gold.Chemscore.Fitness>
8.7853

> <Gold.Chemscore.DG>
-12.0506

> <Gold.Chemscore.ZeroCoef>
-5.4800

> <Gold.Chemscore.Hbond>
1.7060

> <Gold.Chemscore.Metal>
0.0000

> <Gold.Chemscore.Lipo>
67.4415

> <Gold.Chemscore.Internal_Hbond>
0.0000

> <Gold.Chemscore.DEClash>
0.0973

> <Gold.Chemscore.DEInternal>
3.1680

> <Gold.Chemscore.Rot>
2.7415

> <Gold.Chemscore.Internal.Correction>
   9.000000E+99

> <Gold.Chemscore.Hbonds>
donor molecule, donor type, donor heavy atom, donor atom, acceptor molecule, acceptor atom, score
      L1  H    21    45       P1  8028  0.95
      P1  H  7997  8010       L1    25  0.38

> <Gold.Chemscore.Hbond.Weighted>
-5.6981

> <Gold.Chemscore.Metal.Weighted>
-0.0000

> <Gold.Chemscore.Lipo.Weighted>
-7.8907

> <Gold.Chemscore.Internal_Hbond.Weighted>
0.0000

> <Gold.Chemscore.DEClash.Weighted>
0.0973

> <Gold.Chemscore.DEInternal.Weighted>
3.1680

> <Gold.Chemscore.Rot.Weighted>
7.0182

> <Gold.Chemscore.Internal.Correction.Weighted>
   9.000000E+99

> <Gold.Protein.RotatedTorsions>
[ 6907 6896 6895 6894 ] final  -54.77 input  -60.11 | X-H torsion
[ 7974 7965 7964 7962 ] final  -58.92 input  175.53 | X-H torsion
[ 8008 7997 7996 7995 ] final   89.45 input   59.86 | X-H torsion
[ 10167 10162 10161 10158 ] final -123.72 input  -65.29 | X-H torsion
[ 10718 10713 10712 10709 ] final -136.66 input   66.30 | X-H torsion
[ 10763 10752 10751 10750 ] final  -55.56 input  -60.55 | X-H torsion
[ 11005 11000 10999 10996 ] final   56.37 input  -57.11 | X-H torsion

> <Gold.Protein.ActiveResidues>
 VAL166  LYS551  ARG553  GLY616  TRP617  ASP618  TYR619  PRO620  LYS621  CYS622 
 ASP623  PHE694  ASN695  SER759  ASP760  ASP761  ALA762  ILE779  LEU786  VAL792 
 PHE793  MET794  SER795  GLU796  ALA797  LYS798  CYS799  TRP800  GLU811  SER814 

> <Gold.Protein.RotatedAtoms>
  150.8309  134.7562  159.6852 H   0  0  0  0  0  0  0  0  0  0  0  0  # atno 6907 bound_to 6896
  152.4414  134.5580  159.9896 H   0  0  0  0  0  0  0  0  0  0  0  0  # atno 6908 bound_to 6896
  151.5741  133.3348  159.3031 H   0  0  0  0  0  0  0  0  0  0  0  0  # atno 6909 bound_to 6896
  145.8336  140.8463  143.0071 H   0  0  0  0  0  0  0  0  0  0  0  0  # atno 7974 bound_to 7965
  156.0001  140.3360  155.6837 H   0  0  0  0  0  0  0  0  0  0  0  0  # atno 8008 bound_to 7997
  155.6302  140.0684  157.2669 H   0  0  0  0  0  0  0  0  0  0  0  0  # atno 8009 bound_to 7997
  154.4246  140.1761  156.1452 H   0  0  0  0  0  0  0  0  0  0  0  0  # atno 8010 bound_to 7997
  140.0004  143.5546  152.2306 H   0  0  0  0  0  0  0  0  0  0  0  0  # atno 10167 bound_to 10162
  156.2795  130.7312  151.1305 H   0  0  0  0  0  0  0  0  0  0  0  0  # atno 10718 bound_to 10713
  154.1927  135.6424  153.5064 H   0  0  0  0  0  0  0  0  0  0  0  0  # atno 10763 bound_to 10752
  153.0031  135.5432  154.6398 H   0  0  0  0  0  0  0  0  0  0  0  0  # atno 10764 bound_to 10752
  154.5791  135.2923  155.0723 H   0  0  0  0  0  0  0  0  0  0  0  0  # atno 10765 bound_to 10752
  140.0535  134.5704  155.9236 H   0  0  0  0  0  0  0  0  0  0  0  0  # atno 11005 bound_to 11000
  144.6738  140.0709  143.7473 LP  0  0  0  0  0  0  0  0  0  0  0  0  # atno 17320 bound_to 7965
  145.9543  139.2756  143.1193 LP  0  0  0  0  0  0  0  0  0  0  0  0  # atno 17321 bound_to 7965
  139.6276  144.7639  151.2606 LP  0  0  0  0  0  0  0  0  0  0  0  0  # atno 17342 bound_to 10162
  140.7421  143.6537  150.8226 LP  0  0  0  0  0  0  0  0  0  0  0  0  # atno 17343 bound_to 10162
  157.7310  131.0612  150.5700 LP  0  0  0  0  0  0  0  0  0  0  0  0  # atno 17370 bound_to 10713
  156.5805  130.4303  149.5979 LP  0  0  0  0  0  0  0  0  0  0  0  0  # atno 17371 bound_to 10713
  141.1941  133.6581  156.5579 LP  0  0  0  0  0  0  0  0  0  0  0  0  # atno 17394 bound_to 11000
  140.3881  134.7464  157.4704 LP  0  0  0  0  0  0  0  0  0  0  0  0  # atno 17395 bound_to 11000

$$$$
