AV-unprocessed.smi:2083|AV-procd|sdf|8501|dock2
  -GOLD-   2272011213D 1   1.00000     0.00000
 Structure written by MMmdl.
 44 45  0  0  0  0  0  0  0  0  3 V2000
  146.1531  134.4432  163.0039 C   0  0  0  0  0  0  0  0  0  0  0  0
  147.0394  135.1666  162.0486 C   0  0  0  0  0  0  0  0  0  0  0  0
  147.8929  134.7395  161.0715 C   0  0  0  0  0  0  0  0  0  0  0  0
  148.4160  135.9517  160.5447 C   0  0  0  0  0  0  0  0  0  0  0  0
  149.3220  136.0563  159.5603 N   0  5  0  0  0  0  0  0  0  0  0  0
  149.4227  137.1994  158.8451 C   0  0  0  0  0  0  0  0  0  0  0  0
  148.6754  137.5613  157.9334 O   0  0  0  0  0  0  0  0  0  0  0  0
  150.4654  137.9634  159.2017 N   0  0  0  0  0  0  0  0  0  0  0  0
  150.8465  139.2446  158.6121 C   0  0  0  0  0  0  0  0  0  0  0  0
  152.1436  139.8277  159.2279 C   0  0  1  0  0  0  0  0  0  0  0  0
  153.4005  139.2151  158.5620 C   0  0  0  0  0  0  0  0  0  0  0  0
  152.0877  141.3255  159.1706 N   0  3  2  0  0  0  0  0  0  0  0  0
  151.6881  141.9259  157.8644 C   0  0  0  0  0  0  0  0  0  0  0  0
  151.5185  143.4509  157.9709 C   0  0  0  0  0  0  0  0  0  0  0  0
  152.7833  144.1214  158.5198 C   0  0  0  0  0  0  0  0  0  0  0  0
  153.2198  143.4735  159.8440 C   0  0  1  0  0  0  0  0  0  0  0  0
  152.3145  143.8541  161.0288 C   0  0  0  0  0  0  0  0  0  0  0  0
  153.3470  141.9470  159.6740 C   0  0  0  0  0  0  0  0  0  0  0  0
  147.9332  137.0198  161.1570 N   0  0  0  0  0  0  0  0  0  0  0  0
  147.0442  136.5251  162.1189 O   0  0  0  0  0  0  0  0  0  0  0  0
  146.7319  133.7536  163.6183 H   0  0  0  0  0  0  0  0  0  0  0  0
  145.3984  133.8675  162.4682 H   0  0  0  0  0  0  0  0  0  0  0  0
  145.6399  135.1381  163.6689 H   0  0  0  0  0  0  0  0  0  0  0  0
  148.1078  133.7226  160.7790 H   0  0  0  0  0  0  0  0  0  0  0  0
  151.0437  137.6208  159.9550 H   0  0  0  0  0  0  0  0  0  0  0  0
  150.9519  139.1626  157.5290 H   0  0  0  0  0  0  0  0  0  0  0  0
  150.0027  139.9136  158.7724 H   0  0  0  0  0  0  0  0  0  0  0  0
  152.1865  139.5377  160.2791 H   0  0  0  0  0  0  0  0  0  0  0  0
  153.4151  138.1297  158.6562 H   0  0  0  0  0  0  0  0  0  0  0  0
  154.3229  139.5583  159.0302 H   0  0  0  0  0  0  0  0  0  0  0  0
  153.4443  139.4491  157.4977 H   0  0  0  0  0  0  0  0  0  0  0  0
  152.4311  141.6792  157.1043 H   0  0  0  0  0  0  0  0  0  0  0  0
  150.7319  141.5266  157.5279 H   0  0  0  0  0  0  0  0  0  0  0  0
  151.2783  143.8648  156.9910 H   0  0  0  0  0  0  0  0  0  0  0  0
  150.6677  143.6808  158.6132 H   0  0  0  0  0  0  0  0  0  0  0  0
  153.5859  144.0205  157.7878 H   0  0  0  0  0  0  0  0  0  0  0  0
  152.6209  145.1921  158.6498 H   0  0  0  0  0  0  0  0  0  0  0  0
  154.2124  143.8598  160.0797 H   0  0  0  0  0  0  0  0  0  0  0  0
  151.2963  143.4871  160.8996 H   0  0  0  0  0  0  0  0  0  0  0  0
  152.2642  144.9363  161.1516 H   0  0  0  0  0  0  0  0  0  0  0  0
  152.6969  143.4368  161.9609 H   0  0  0  0  0  0  0  0  0  0  0  0
  153.6481  141.5100  160.6251 H   0  0  0  0  0  0  0  0  0  0  0  0
  154.1524  141.7246  158.9719 H   0  0  0  0  0  0  0  0  0  0  0  0
  151.3576  141.5891  159.8170 H   0  0  0  0  0  0  0  0  0  0  0  0
  1  2  1  0  0  0  0
  1 21  1  0  0  0  0
  1 22  1  0  0  0  0
  1 23  1  0  0  0  0
  2 20  1  0  0  0  0
  2  3  2  0  0  0  0
  3  4  1  0  0  0  0
  3 24  1  0  0  0  0
  4  5  1  0  0  0  0
  4 19  2  0  0  0  0
  5  6  1  0  0  0  0
  6  7  2  0  0  0  0
  6  8  1  0  0  0  0
  8  9  1  0  0  0  0
  8 25  1  0  0  0  0
  9 10  1  0  0  0  0
  9 26  1  0  0  0  0
  9 27  1  0  0  0  0
 10 11  1  0  0  0  0
 10 12  1  0  0  0  0
 10 28  1  0  0  0  0
 11 29  1  0  0  0  0
 11 30  1  0  0  0  0
 11 31  1  0  0  0  0
 12 18  1  0  0  0  0
 12 13  1  0  0  0  0
 12 44  1  0  0  0  0
 13 14  1  0  0  0  0
 13 32  1  0  0  0  0
 13 33  1  0  0  0  0
 14 15  1  0  0  0  0
 14 34  1  0  0  0  0
 14 35  1  0  0  0  0
 15 16  1  0  0  0  0
 15 36  1  0  0  0  0
 15 37  1  0  0  0  0
 16 17  1  0  0  0  0
 16 18  1  0  0  0  0
 16 38  1  0  0  0  0
 17 39  1  0  0  0  0
 17 40  1  0  0  0  0
 17 41  1  0  0  0  0
 18 42  1  0  0  0  0
 18 43  1  0  0  0  0
 19 20  1  0  0  0  0
M  CHG  1   5  -1
M  CHG  1  12   1
M  END
> <s_m_source_file>
AV-unprocessed.smi

> <i_m_source_file_index>
2083

> <i_lp_mmshare_version>
43012

> <i_f3d_flags>
0

> <s_epik_input>
W0NIM11jMVtjSF1jKG5vMSlbTkhdQyg9TylbTkhdW0NIMl1bQ0BIXShbQ0gzXSlOMltDSDJdW0NIMl1bQ0gyXVtDQEBIXShbQ0gzXSlbQ0gyXTI=

> <s_epik_cmdline>
J2VwaWtfcHl0aG9uJywgJy1waCcsICc3LjAnLCAnLXRuJywgJzgnLCAnLW1hJywgJzIwMCcsICctbWV0YWxfYmluZGluZycsICctaW1hZScsICc8aW5maWxlLm1hZT4nLCAnLW9tYWUnLCAnPG91dGZpbGUubWFlPic=

> <r_epik_Ionization_Penalty>
6.22434

> <r_epik_Ionization_Penalty_Charging>
6.22425

> <r_epik_Ionization_Penalty_Neutral>
9.62407e-05

> <r_epik_State_Penalty>
6.22423

> <r_epik_Charging_Adjusted_Penalty>
12.4485

> <i_epik_Tot_Q>
0

> <i_epik_Tot_abs_Q>
2

> <r_epik_Metal_State_Penalty>
2.16764

> <b_epik_Metal_Only>
1

> <s_lp_Force_Field>
OPLS_2005

> <r_lp_Energy>
14.1674

> <b_lp_Chiralities_Consistent>
1

> <s_lp_Variant>
AV-unprocessed.smi:2083-12

> <Gold.Version>
5.8.1

> <Gold.Id.Protein>
6NUR|6NUR_protein|mol2

> <Gold.PLP.Fitness>
48.3276

> <Gold.PLP.PLP>
-39.0371

> <Gold.PLP.part.hbond>
-3.0000

> <Gold.PLP.part.metal>
0.0000

> <Gold.PLP.part.buried>
-5.7825

> <Gold.PLP.part.nonpolar>
-31.7187

> <Gold.PLP.part.repulsive>
0.3546

> <Gold.PLP.ligand.clash>
0.0000

> <Gold.PLP.ligand.torsion>
1.2701

> <Gold.PLP.Chemscore.Hbond>
3.8720

> <Gold.PLP.Chemscore.CHOScore>
0.0000

> <Gold.PLP.Chemscore.Metal>
0.0000

> <Gold.Chemscore.Hbonds>
donor molecule, donor type, donor heavy atom, donor atom, acceptor molecule, acceptor atom, score
      P1  H  6896  6909       L1     5  2.00
      P1  H  6931  6943       L1    19  1.00
      P1  H  6934  6947       L1    19  0.56

> <Gold.PLP.Chemscore.Internal.Correction>
0.2148

> <Gold.Rescore>
     Score         DG    S(hbond)    S(metal)    S(lipo)     H(rot)  DE(clash)    DE(int)     intcor
     19.24     -20.47       1.90        0.00     107.19       1.52       0.04       1.19       ----

> <Gold.Chemscore.Fitness>
19.2398

> <Gold.Chemscore.DG>
-20.4660

> <Gold.Chemscore.ZeroCoef>
-5.4800

> <Gold.Chemscore.Hbond>
1.8962

> <Gold.Chemscore.Metal>
0.0000

> <Gold.Chemscore.Lipo>
107.1911

> <Gold.Chemscore.Internal_Hbond>
0.0000

> <Gold.Chemscore.DEClash>
0.0354

> <Gold.Chemscore.DEInternal>
1.1908

> <Gold.Chemscore.Rot>
1.5190

> <Gold.Chemscore.Internal.Correction>
   9.000000E+99

> <Gold.Chemscore.Hbonds>
donor molecule, donor type, donor heavy atom, donor atom, acceptor molecule, acceptor atom, score
      P1  H  6896  6909       L1     5  0.86
      P1  H  6931  6943       L1    19  0.71
      P1  H  6934  6947       L1    19  0.16

> <Gold.Chemscore.Hbond.Weighted>
-6.3332

> <Gold.Chemscore.Metal.Weighted>
-0.0000

> <Gold.Chemscore.Lipo.Weighted>
-12.5414

> <Gold.Chemscore.Internal_Hbond.Weighted>
0.0000

> <Gold.Chemscore.DEClash.Weighted>
0.0354

> <Gold.Chemscore.DEInternal.Weighted>
1.1908

> <Gold.Chemscore.Rot.Weighted>
3.8886

> <Gold.Chemscore.Internal.Correction.Weighted>
   9.000000E+99

> <Gold.Protein.RotatedTorsions>
[ 6907 6896 6895 6894 ] final   55.16 input  -60.11 | X-H torsion
[ 7974 7965 7964 7962 ] final  161.43 input  175.53 | X-H torsion
[ 8008 7997 7996 7995 ] final   11.32 input   59.86 | X-H torsion
[ 10167 10162 10161 10158 ] final  -78.71 input  -65.29 | X-H torsion
[ 10718 10713 10712 10709 ] final   37.08 input   66.30 | X-H torsion
[ 10763 10752 10751 10750 ] final  170.18 input  -60.55 | X-H torsion
[ 11005 11000 10999 10996 ] final  -94.40 input  -57.11 | X-H torsion

> <Gold.Protein.ActiveResidues>
 VAL166  LYS551  ARG553  GLY616  TRP617  ASP618  TYR619  PRO620  LYS621  CYS622 
 ASP623  PHE694  ASN695  SER759  ASP760  ASP761  ALA762  ILE779  LEU786  VAL792 
 PHE793  MET794  SER795  GLU796  ALA797  LYS798  CYS799  TRP800  GLU811  SER814 

> <Gold.Protein.RotatedAtoms>
  152.3511  134.7004  160.0235 H   0  0  0  0  0  0  0  0  0  0  0  0  # atno 6907 bound_to 6896
  151.7357  133.3314  159.3360 H   0  0  0  0  0  0  0  0  0  0  0  0  # atno 6908 bound_to 6896
  150.7541  134.6256  159.6204 H   0  0  0  0  0  0  0  0  0  0  0  0  # atno 6909 bound_to 6896
  144.7686  139.7896  143.6305 H   0  0  0  0  0  0  0  0  0  0  0  0  # atno 7974 bound_to 7965
  154.8053  140.2859  155.5892 H   0  0  0  0  0  0  0  0  0  0  0  0  # atno 8008 bound_to 7997
  156.2982  140.2578  156.2860 H   0  0  0  0  0  0  0  0  0  0  0  0  # atno 8009 bound_to 7997
  154.9510  140.0379  157.2133 H   0  0  0  0  0  0  0  0  0  0  0  0  # atno 8010 bound_to 7997
  140.4658  143.2440  151.8280 H   0  0  0  0  0  0  0  0  0  0  0  0  # atno 10167 bound_to 10162
  157.3426  130.7556  149.6922 H   0  0  0  0  0  0  0  0  0  0  0  0  # atno 10718 bound_to 10713
  154.3939  135.2754  155.2138 H   0  0  0  0  0  0  0  0  0  0  0  0  # atno 10763 bound_to 10752
  154.4192  135.6004  153.6003 H   0  0  0  0  0  0  0  0  0  0  0  0  # atno 10764 bound_to 10752
  152.9831  135.5968  154.4198 H   0  0  0  0  0  0  0  0  0  0  0  0  # atno 10765 bound_to 10752
  141.1471  133.7954  157.0293 H   0  0  0  0  0  0  0  0  0  0  0  0  # atno 11005 bound_to 11000
  146.1815  139.5009  142.9863 LP  0  0  0  0  0  0  0  0  0  0  0  0  # atno 17320 bound_to 7965
  145.6392  141.0288  143.1821 LP  0  0  0  0  0  0  0  0  0  0  0  0  # atno 17321 bound_to 7965
  139.4812  144.4953  151.9132 LP  0  0  0  0  0  0  0  0  0  0  0  0  # atno 17342 bound_to 10162
  140.4038  144.2458  150.5891 LP  0  0  0  0  0  0  0  0  0  0  0  0  # atno 17343 bound_to 10162
  155.9710  130.4163  150.4225 LP  0  0  0  0  0  0  0  0  0  0  0  0  # atno 17370 bound_to 10713
  157.2276  131.0496  151.2511 LP  0  0  0  0  0  0  0  0  0  0  0  0  # atno 17371 bound_to 10713
  140.0764  134.9673  157.1553 LP  0  0  0  0  0  0  0  0  0  0  0  0  # atno 17394 bound_to 11000
  140.3637  134.2465  155.7184 LP  0  0  0  0  0  0  0  0  0  0  0  0  # atno 17395 bound_to 11000

$$$$
