AV-unprocessed.smi:1071|AV-procd|sdf|4678|dock2
  -GOLD-   22720 3193D 1   1.00000     0.00000
 Structure written by MMmdl.
 47 48  0  0  0  0  0  0  0  0  2 V2000
  152.5098  144.2625  158.5992 C   0  0  0  0  0  0  0  0  0  0  0  0
  151.6137  143.6076  157.7187 O   0  0  0  0  0  0  0  0  0  0  0  0
  151.4021  142.2505  158.0706 C   0  0  0  0  0  0  0  0  0  0  0  0
  150.2754  141.6754  157.2070 C   0  0  0  0  0  0  0  0  0  0  0  0
  150.8326  141.1806  155.9929 O   0  0  0  0  0  0  0  0  0  0  0  0
  150.6105  139.8612  155.6554 C   0  0  0  0  0  0  0  0  0  0  0  0
  150.0768  138.9971  156.6318 C   0  0  0  0  0  0  0  0  0  0  0  0
  149.8460  137.6506  156.2931 C   0  0  0  0  0  0  0  0  0  0  0  0
  150.1442  137.2093  154.9884 C   0  0  0  0  0  0  0  0  0  0  0  0
  149.9220  135.8411  154.6766 N   0  0  0  0  0  0  0  0  0  0  0  0
  150.0478  134.7670  155.4814 C   0  0  0  0  0  0  0  0  0  0  0  0
  150.5377  134.8328  156.6091 O   0  0  0  0  0  0  0  0  0  0  0  0
  149.7063  133.5884  154.8946 N   0  0  0  0  0  0  0  0  0  0  0  0
  149.3476  133.4370  153.4686 C   0  0  0  0  0  0  0  0  0  0  0  0
  147.9361  132.8509  153.3083 C   0  0  0  0  0  0  0  0  0  0  0  0
  147.8014  131.5771  154.0486 N   0  3  2  0  0  0  0  0  0  0  0  0
  146.4839  130.9379  153.8438 C   0  0  0  0  0  0  0  0  0  0  0  0
  148.1412  131.7277  155.4817 C   0  0  0  0  0  0  0  0  0  0  0  0
  149.5375  132.3521  155.6888 C   0  0  1  0  0  0  0  0  0  0  0  0
  150.6916  131.3679  155.4285 C   0  0  0  0  0  0  0  0  0  0  0  0
  150.6903  138.1509  154.0824 C   0  0  0  0  0  0  0  0  0  0  0  0
  150.9158  139.4428  154.4021 N   0  0  0  0  0  0  0  0  0  0  0  0
  152.6350  145.3003  158.2907 H   0  0  0  0  0  0  0  0  0  0  0  0
  153.4913  143.7870  158.5867 H   0  0  0  0  0  0  0  0  0  0  0  0
  152.1315  144.2588  159.6224 H   0  0  0  0  0  0  0  0  0  0  0  0
  152.3150  141.6656  157.9463 H   0  0  0  0  0  0  0  0  0  0  0  0
  151.1178  142.1943  159.1224 H   0  0  0  0  0  0  0  0  0  0  0  0
  149.7965  140.8565  157.7462 H   0  0  0  0  0  0  0  0  0  0  0  0
  149.5197  142.4392  157.0156 H   0  0  0  0  0  0  0  0  0  0  0  0
  149.8500  139.3604  157.6233 H   0  0  0  0  0  0  0  0  0  0  0  0
  149.4402  136.9696  157.0269 H   0  0  0  0  0  0  0  0  0  0  0  0
  149.6616  135.6511  153.7200 H   0  0  0  0  0  0  0  0  0  0  0  0
  149.3800  134.3696  152.9052 H   0  0  0  0  0  0  0  0  0  0  0  0
  150.0783  132.7838  152.9911 H   0  0  0  0  0  0  0  0  0  0  0  0
  147.1927  133.5635  153.6699 H   0  0  0  0  0  0  0  0  0  0  0  0
  147.7274  132.6825  152.2510 H   0  0  0  0  0  0  0  0  0  0  0  0
  145.6802  131.5606  154.2391 H   0  0  0  0  0  0  0  0  0  0  0  0
  146.4445  129.9693  154.3435 H   0  0  0  0  0  0  0  0  0  0  0  0
  146.2975  130.7715  152.7823 H   0  0  0  0  0  0  0  0  0  0  0  0
  147.3891  132.3627  155.9536 H   0  0  0  0  0  0  0  0  0  0  0  0
  148.0862  130.7588  155.9797 H   0  0  0  0  0  0  0  0  0  0  0  0
  149.5932  132.5713  156.7557 H   0  0  0  0  0  0  0  0  0  0  0  0
  150.6170  130.4989  156.0829 H   0  0  0  0  0  0  0  0  0  0  0  0
  151.6576  131.8374  155.6176 H   0  0  0  0  0  0  0  0  0  0  0  0
  150.6936  131.0035  154.4013 H   0  0  0  0  0  0  0  0  0  0  0  0
  150.9803  137.8753  153.0804 H   0  0  0  0  0  0  0  0  0  0  0  0
  148.4891  130.9480  153.6594 H   0  0  0  0  0  0  0  0  0  0  0  0
  1  2  1  0  0  0  0
  1 23  1  0  0  0  0
  1 24  1  0  0  0  0
  1 25  1  0  0  0  0
  2  3  1  0  0  0  0
  3  4  1  0  0  0  0
  3 26  1  0  0  0  0
  3 27  1  0  0  0  0
  4  5  1  0  0  0  0
  4 28  1  0  0  0  0
  4 29  1  0  0  0  0
  5  6  1  0  0  0  0
  6 22  1  0  0  0  0
  6  7  2  0  0  0  0
  7  8  1  0  0  0  0
  7 30  1  0  0  0  0
  8  9  2  0  0  0  0
  8 31  1  0  0  0  0
  9 10  1  0  0  0  0
  9 21  1  0  0  0  0
 10 11  1  0  0  0  0
 10 32  1  0  0  0  0
 11 12  2  0  0  0  0
 11 13  1  0  0  0  0
 13 19  1  0  0  0  0
 13 14  1  0  0  0  0
 14 15  1  0  0  0  0
 14 33  1  0  0  0  0
 14 34  1  0  0  0  0
 15 16  1  0  0  0  0
 15 35  1  0  0  0  0
 15 36  1  0  0  0  0
 16 17  1  0  0  0  0
 16 18  1  0  0  0  0
 16 47  1  0  0  0  0
 17 37  1  0  0  0  0
 17 38  1  0  0  0  0
 17 39  1  0  0  0  0
 18 19  1  0  0  0  0
 18 40  1  0  0  0  0
 18 41  1  0  0  0  0
 19 20  1  0  0  0  0
 19 42  1  0  0  0  0
 20 43  1  0  0  0  0
 20 44  1  0  0  0  0
 20 45  1  0  0  0  0
 21 22  2  0  0  0  0
 21 46  1  0  0  0  0
M  CHG  1  16   1
M  END
> <s_m_source_file>
AV-unprocessed.smi

> <i_m_source_file_index>
1071

> <i_lp_mmshare_version>
43012

> <i_f3d_flags>
0

> <s_epik_input>
W0NIM11PW0NIMl1bQ0gyXU9jMVtjSF1bY0hdYyhbY0hdbjEpW05IXUMoPU8pTjJbQ0gyXVtDSDJdTihbQ0gzXSlbQ0gyXVtDQEhdMltDSDNd

> <s_epik_cmdline>
J2VwaWtfcHl0aG9uJywgJy1waCcsICc3LjAnLCAnLXRuJywgJzgnLCAnLW1hJywgJzIwMCcsICctbWV0YWxfYmluZGluZycsICctaW1hZScsICc8aW5maWxlLm1hZT4nLCAnLW9tYWUnLCAnPG91dGZpbGUubWFlPic=

> <r_lp_tautomer_probability>
1

> <r_epik_Ionization_Penalty>
0.25455

> <r_epik_Ionization_Penalty_Charging>
0.254506

> <r_epik_Ionization_Penalty_Neutral>
4.43365e-05

> <r_epik_State_Penalty>
0.245983

> <r_epik_Charging_Adjusted_Penalty>
0.500488

> <i_epik_Tot_Q>
1

> <i_epik_Tot_abs_Q>
1

> <r_epik_Metal_State_Penalty>
0.245987

> <b_epik_Metal_Only>
0

> <s_lp_Force_Field>
OPLS_2005

> <r_lp_Energy>
56.9033

> <b_lp_Chiralities_Consistent>
1

> <s_lp_Variant>
AV-unprocessed.smi:1071-2

> <Gold.Version>
5.8.1

> <Gold.Id.Protein>
6NUR|6NUR_protein|mol2

> <Gold.PLP.Fitness>
40.3955

> <Gold.PLP.PLP>
-33.8757

> <Gold.PLP.part.hbond>
-2.0000

> <Gold.PLP.part.metal>
0.0000

> <Gold.PLP.part.buried>
-6.1659

> <Gold.PLP.part.nonpolar>
-26.7391

> <Gold.PLP.part.repulsive>
0.3487

> <Gold.PLP.ligand.clash>
0.1253

> <Gold.PLP.ligand.torsion>
0.9884

> <Gold.PLP.Chemscore.Hbond>
1.7735

> <Gold.PLP.Chemscore.CHOScore>
1.0449

> <Gold.PLP.Chemscore.Metal>
0.0000

> <Gold.Chemscore.Hbonds>
donor molecule, donor type, donor heavy atom, donor atom, acceptor molecule, acceptor atom, score
      L1  H    10    32       P1  7948  0.84
      P1  H  7989  7998       L1    22  1.00
      L1  C    21    46       P1  7948  0.04
      L1  C    21    46       P1  7949  1.00

> <Gold.PLP.Chemscore.Internal.Correction>
0.1667

> <Gold.Rescore>
     Score         DG    S(hbond)    S(metal)    S(lipo)     H(rot)  DE(clash)    DE(int)     intcor
     12.22     -14.41       1.26        0.00      75.46       1.60       0.09       2.10       ----

> <Gold.Chemscore.Fitness>
12.2192

> <Gold.Chemscore.DG>
-14.4093

> <Gold.Chemscore.ZeroCoef>
-5.4800

> <Gold.Chemscore.Hbond>
1.2598

> <Gold.Chemscore.Metal>
0.0000

> <Gold.Chemscore.Lipo>
75.4620

> <Gold.Chemscore.Internal_Hbond>
0.0000

> <Gold.Chemscore.DEClash>
0.0899

> <Gold.Chemscore.DEInternal>
2.1002

> <Gold.Chemscore.Rot>
1.6045

> <Gold.Chemscore.Internal.Correction>
   9.000000E+99

> <Gold.Chemscore.Hbonds>
donor molecule, donor type, donor heavy atom, donor atom, acceptor molecule, acceptor atom, score
      L1  H    10    32       P1  7948  0.13
      P1  H  7989  7998       L1    22  0.65

> <Gold.Chemscore.Hbond.Weighted>
-4.2077

> <Gold.Chemscore.Metal.Weighted>
-0.0000

> <Gold.Chemscore.Lipo.Weighted>
-8.8291

> <Gold.Chemscore.Internal_Hbond.Weighted>
0.0000

> <Gold.Chemscore.DEClash.Weighted>
0.0899

> <Gold.Chemscore.DEInternal.Weighted>
2.1002

> <Gold.Chemscore.Rot.Weighted>
4.1075

> <Gold.Chemscore.Internal.Correction.Weighted>
   9.000000E+99

> <Gold.Protein.RotatedTorsions>
[ 6907 6896 6895 6894 ] final -136.82 input  -60.11 | X-H torsion
[ 7974 7965 7964 7962 ] final    7.78 input  175.53 | X-H torsion
[ 8008 7997 7996 7995 ] final  -84.93 input   59.86 | X-H torsion
[ 10167 10162 10161 10158 ] final -148.09 input  -65.29 | X-H torsion
[ 10718 10713 10712 10709 ] final  -46.64 input   66.30 | X-H torsion
[ 10763 10752 10751 10750 ] final    2.52 input  -60.55 | X-H torsion
[ 11005 11000 10999 10996 ] final   12.82 input  -57.11 | X-H torsion

> <Gold.Protein.ActiveResidues>
 VAL166  LYS551  ARG553  GLY616  TRP617  ASP618  TYR619  PRO620  LYS621  CYS622 
 ASP623  PHE694  ASN695  SER759  ASP760  ASP761  ALA762  ILE779  LEU786  VAL792 
 PHE793  MET794  SER795  GLU796  ALA797  LYS798  CYS799  TRP800  GLU811  SER814 

> <Gold.Protein.RotatedAtoms>
  151.0148  133.5931  159.2678 H   0  0  0  0  0  0  0  0  0  0  0  0  # atno 6907 bound_to 6896
  151.3070  135.0783  159.9268 H   0  0  0  0  0  0  0  0  0  0  0  0  # atno 6908 bound_to 6896
  152.5309  133.9820  159.7865 H   0  0  0  0  0  0  0  0  0  0  0  0  # atno 6909 bound_to 6896
  146.2423  140.0032  142.8414 H   0  0  0  0  0  0  0  0  0  0  0  0  # atno 7974 bound_to 7965
  154.6352  140.0598  156.9779 H   0  0  0  0  0  0  0  0  0  0  0  0  # atno 8008 bound_to 7997
  155.1603  140.3282  155.4394 H   0  0  0  0  0  0  0  0  0  0  0  0  # atno 8009 bound_to 7997
  156.2503  140.1932  156.6711 H   0  0  0  0  0  0  0  0  0  0  0  0  # atno 8010 bound_to 7997
  139.7563  143.8443  152.2598 H   0  0  0  0  0  0  0  0  0  0  0  0  # atno 10167 bound_to 10162
  156.2162  130.4163  149.9050 H   0  0  0  0  0  0  0  0  0  0  0  0  # atno 10718 bound_to 10713
  153.2945  135.6951  153.7261 H   0  0  0  0  0  0  0  0  0  0  0  0  # atno 10763 bound_to 10752
  153.6199  135.3429  155.3008 H   0  0  0  0  0  0  0  0  0  0  0  0  # atno 10764 bound_to 10752
  154.8533  135.4383  154.2038 H   0  0  0  0  0  0  0  0  0  0  0  0  # atno 10765 bound_to 10752
  140.4877  134.0871  155.7764 H   0  0  0  0  0  0  0  0  0  0  0  0  # atno 11005 bound_to 11000
  145.1396  140.9564  143.4496 LP  0  0  0  0  0  0  0  0  0  0  0  0  # atno 17320 bound_to 7965
  145.0308  139.3342  143.6025 LP  0  0  0  0  0  0  0  0  0  0  0  0  # atno 17321 bound_to 7965
  139.8436  144.7198  150.9300 LP  0  0  0  0  0  0  0  0  0  0  0  0  # atno 17342 bound_to 10162
  140.7803  143.3961  151.1227 LP  0  0  0  0  0  0  0  0  0  0  0  0  # atno 17343 bound_to 10162
  156.6712  130.8821  151.3562 LP  0  0  0  0  0  0  0  0  0  0  0  0  # atno 17370 bound_to 10713
  157.7064  130.9390  150.0946 LP  0  0  0  0  0  0  0  0  0  0  0  0  # atno 17371 bound_to 10713
  141.1499  133.8987  157.2122 LP  0  0  0  0  0  0  0  0  0  0  0  0  # atno 17394 bound_to 11000
  139.9788  135.0105  156.9697 LP  0  0  0  0  0  0  0  0  0  0  0  0  # atno 17395 bound_to 11000

$$$$
