AV-unprocessed.smi:2332|AV-procd|sdf|9319|dock2
  -GOLD-   2272012543D 1   1.00000     0.00000
 Structure written by MMmdl.
 32 33  0  0  0  0  0  0  0  0  1 V2000
  146.4162  142.5877  154.3617 C   0  0  0  0  0  0  0  0  0  0  0  0
  147.7986  142.2388  154.6499 N   0  0  0  0  0  0  0  0  0  0  0  0
  148.3414  141.0345  154.4148 C   0  0  0  0  0  0  0  0  0  0  0  0
  147.7016  140.0983  153.9340 O   0  0  0  0  0  0  0  0  0  0  0  0
  149.8187  140.8492  154.7943 C   0  0  1  0  0  0  0  0  0  0  0  0
  150.0719  141.1227  156.2948 C   0  0  0  0  0  0  0  0  0  0  0  0
  151.4577  140.8250  156.6501 N   0  0  0  0  0  0  0  0  0  0  0  0
  151.8707  141.2809  157.9211 C   0  0  0  0  0  0  0  0  0  0  0  0
  151.6126  142.6155  158.3171 C   0  0  0  0  0  0  0  0  0  0  0  0
  152.0296  143.0483  159.5909 C   0  0  0  0  0  0  0  0  0  0  0  0
  152.6944  142.1374  160.4334 C   0  0  0  0  0  0  0  0  0  0  0  0
  153.1437  142.5356  161.7563 C   0  0  0  0  0  0  0  0  0  0  0  0
  153.5015  142.8525  162.8100 N   0  0  0  0  0  0  0  0  0  0  0  0
  152.9153  140.8303  159.9579 C   0  0  0  0  0  0  0  0  0  0  0  0
  152.5185  140.4116  158.7369 N   0  0  0  0  0  0  0  0  0  0  0  0
  151.8953  139.4974  156.2253 C   0  0  0  0  0  0  0  0  0  0  0  0
  151.6016  139.2921  154.7315 C   0  0  0  0  0  0  0  0  0  0  0  0
  150.2178  139.5129  154.4860 O   0  0  0  0  0  0  0  0  0  0  0  0
  146.2392  143.6356  154.6032 H   0  0  0  0  0  0  0  0  0  0  0  0
  145.7316  141.9801  154.9550 H   0  0  0  0  0  0  0  0  0  0  0  0
  146.1889  142.4382  153.3053 H   0  0  0  0  0  0  0  0  0  0  0  0
  148.3864  142.9580  155.0468 H   0  0  0  0  0  0  0  0  0  0  0  0
  150.4013  141.5453  154.1883 H   0  0  0  0  0  0  0  0  0  0  0  0
  149.8242  142.1603  156.5157 H   0  0  0  0  0  0  0  0  0  0  0  0
  149.4147  140.5038  156.9077 H   0  0  0  0  0  0  0  0  0  0  0  0
  151.1164  143.3122  157.6578 H   0  0  0  0  0  0  0  0  0  0  0  0
  151.8422  144.0643  159.9077 H   0  0  0  0  0  0  0  0  0  0  0  0
  153.4234  140.0970  160.5673 H   0  0  0  0  0  0  0  0  0  0  0  0
  152.9649  139.3775  156.4028 H   0  0  0  0  0  0  0  0  0  0  0  0
  151.3780  138.7393  156.8151 H   0  0  0  0  0  0  0  0  0  0  0  0
  152.2046  139.9642  154.1186 H   0  0  0  0  0  0  0  0  0  0  0  0
  151.8570  138.2749  154.4349 H   0  0  0  0  0  0  0  0  0  0  0  0
  1  2  1  0  0  0  0
  1 19  1  0  0  0  0
  1 20  1  0  0  0  0
  1 21  1  0  0  0  0
  2  3  1  0  0  0  0
  2 22  1  0  0  0  0
  3  4  2  0  0  0  0
  3  5  1  0  0  0  0
  5 18  1  0  0  0  0
  5  6  1  0  0  0  0
  5 23  1  0  0  0  0
  6  7  1  0  0  0  0
  6 24  1  0  0  0  0
  6 25  1  0  0  0  0
  7  8  1  0  0  0  0
  7 16  1  0  0  0  0
  8 15  1  0  0  0  0
  8  9  2  0  0  0  0
  9 10  1  0  0  0  0
  9 26  1  0  0  0  0
 10 11  2  0  0  0  0
 10 27  1  0  0  0  0
 11 12  1  0  0  0  0
 11 14  1  0  0  0  0
 12 13  3  0  0  0  0
 14 15  2  0  0  0  0
 14 28  1  0  0  0  0
 16 17  1  0  0  0  0
 16 29  1  0  0  0  0
 16 30  1  0  0  0  0
 17 18  1  0  0  0  0
 17 31  1  0  0  0  0
 17 32  1  0  0  0  0
M  END
> <s_m_source_file>
AV-unprocessed.smi

> <i_m_source_file_index>
2332

> <i_lp_mmshare_version>
43012

> <i_f3d_flags>
0

> <s_epik_input>
W0NIM11bTkhdQyg9TylbQ0BASF0xW0NIMl1OKFtDSDJdW0NIMl1PMSljMltjSF1bY0hdYyhDI04pW2NIXW4y

> <s_epik_cmdline>
J2VwaWtfcHl0aG9uJywgJy1waCcsICc3LjAnLCAnLXRuJywgJzgnLCAnLW1hJywgJzIwMCcsICctbWV0YWxfYmluZGluZycsICctaW1hZScsICc8aW5maWxlLm1hZT4nLCAnLW9tYWUnLCAnPG91dGZpbGUubWFlPic=

> <r_lp_tautomer_probability>
1

> <r_epik_Ionization_Penalty>
6.95229e-08

> <r_epik_Ionization_Penalty_Charging>
0

> <r_epik_Ionization_Penalty_Neutral>
6.95229e-08

> <r_epik_State_Penalty>
-0

> <r_epik_Charging_Adjusted_Penalty>
0

> <i_epik_Tot_Q>
0

> <i_epik_Tot_abs_Q>
0

> <r_epik_Metal_State_Penalty>
-0

> <b_epik_Metal_Only>
0

> <s_lp_Force_Field>
OPLS_2005

> <r_lp_Energy>
17.7289

> <b_lp_Chiralities_Consistent>
1

> <s_lp_Variant>
AV-unprocessed.smi:2332-2

> <Gold.Version>
5.8.1

> <Gold.Id.Protein>
6NUR|6NUR_protein|mol2

> <Gold.PLP.Fitness>
39.6576

> <Gold.PLP.PLP>
-36.6671

> <Gold.PLP.part.hbond>
-1.7446

> <Gold.PLP.part.metal>
0.0000

> <Gold.PLP.part.buried>
-2.2180

> <Gold.PLP.part.nonpolar>
-32.6585

> <Gold.PLP.part.repulsive>
0.5853

> <Gold.PLP.ligand.clash>
0.0000

> <Gold.PLP.ligand.torsion>
0.1722

> <Gold.PLP.Chemscore.Hbond>
1.0000

> <Gold.PLP.Chemscore.CHOScore>
0.0000

> <Gold.PLP.Chemscore.Metal>
0.0000

> <Gold.Chemscore.Hbonds>
donor molecule, donor type, donor heavy atom, donor atom, acceptor molecule, acceptor atom, score
      L1  H     2    22       P1  8028  1.00

> <Gold.PLP.Chemscore.Internal.Correction>
0.3350

> <Gold.Rescore>
     Score         DG    S(hbond)    S(metal)    S(lipo)     H(rot)  DE(clash)    DE(int)     intcor
     13.56     -13.80       0.96        0.00      73.10       1.35       0.04       0.21       ----

> <Gold.Chemscore.Fitness>
13.5570

> <Gold.Chemscore.DG>
-13.7997

> <Gold.Chemscore.ZeroCoef>
-5.4800

> <Gold.Chemscore.Hbond>
0.9649

> <Gold.Chemscore.Metal>
0.0000

> <Gold.Chemscore.Lipo>
73.0991

> <Gold.Chemscore.Internal_Hbond>
0.0000

> <Gold.Chemscore.DEClash>
0.0373

> <Gold.Chemscore.DEInternal>
0.2054

> <Gold.Chemscore.Rot>
1.3498

> <Gold.Chemscore.Internal.Correction>
   9.000000E+99

> <Gold.Chemscore.Hbonds>
donor molecule, donor type, donor heavy atom, donor atom, acceptor molecule, acceptor atom, score
      L1  H     2    22       P1  8028  0.98

> <Gold.Chemscore.Hbond.Weighted>
-3.2227

> <Gold.Chemscore.Metal.Weighted>
-0.0000

> <Gold.Chemscore.Lipo.Weighted>
-8.5526

> <Gold.Chemscore.Internal_Hbond.Weighted>
0.0000

> <Gold.Chemscore.DEClash.Weighted>
0.0373

> <Gold.Chemscore.DEInternal.Weighted>
0.2054

> <Gold.Chemscore.Rot.Weighted>
3.4556

> <Gold.Chemscore.Internal.Correction.Weighted>
   9.000000E+99

> <Gold.Protein.RotatedTorsions>
[ 6907 6896 6895 6894 ] final -156.66 input  -60.11 | X-H torsion
[ 7974 7965 7964 7962 ] final  145.85 input  175.53 | X-H torsion
[ 8008 7997 7996 7995 ] final  -71.38 input   59.86 | X-H torsion
[ 10167 10162 10161 10158 ] final  -60.40 input  -65.29 | X-H torsion
[ 10718 10713 10712 10709 ] final -120.49 input   66.30 | X-H torsion
[ 10763 10752 10751 10750 ] final   51.47 input  -60.55 | X-H torsion
[ 11005 11000 10999 10996 ] final   69.65 input  -57.11 | X-H torsion

> <Gold.Protein.ActiveResidues>
 VAL166  LYS551  ARG553  GLY616  TRP617  ASP618  TYR619  PRO620  LYS621  CYS622 
 ASP623  PHE694  ASN695  SER759  ASP760  ASP761  ALA762  ILE779  LEU786  VAL792 
 PHE793  MET794  SER795  GLU796  ALA797  LYS798  CYS799  TRP800  GLU811  SER814 

> <Gold.Protein.RotatedAtoms>
  151.2911  133.4165  159.2632 H   0  0  0  0  0  0  0  0  0  0  0  0  # atno 6907 bound_to 6896
  151.0277  134.9517  159.8104 H   0  0  0  0  0  0  0  0  0  0  0  0  # atno 6908 bound_to 6896
  152.5339  134.2872  159.9082 H   0  0  0  0  0  0  0  0  0  0  0  0  # atno 6909 bound_to 6896
  144.8719  139.5833  143.5883 H   0  0  0  0  0  0  0  0  0  0  0  0  # atno 7974 bound_to 7965
  154.5083  140.0817  156.7939 H   0  0  0  0  0  0  0  0  0  0  0  0  # atno 8008 bound_to 7997
  155.3843  140.3429  155.4230 H   0  0  0  0  0  0  0  0  0  0  0  0  # atno 8009 bound_to 7997
  156.1542  140.1568  156.8707 H   0  0  0  0  0  0  0  0  0  0  0  0  # atno 8010 bound_to 7997
  140.6073  143.2377  151.5791 H   0  0  0  0  0  0  0  0  0  0  0  0  # atno 10167 bound_to 10162
  156.1262  130.6361  150.9546 H   0  0  0  0  0  0  0  0  0  0  0  0  # atno 10718 bound_to 10713
  152.9785  135.5845  154.4420 H   0  0  0  0  0  0  0  0  0  0  0  0  # atno 10763 bound_to 10752
  154.4020  135.2769  155.2092 H   0  0  0  0  0  0  0  0  0  0  0  0  # atno 10764 bound_to 10752
  154.3919  135.6123  153.5902 H   0  0  0  0  0  0  0  0  0  0  0  0  # atno 10765 bound_to 10752
  139.9642  134.7010  156.0581 H   0  0  0  0  0  0  0  0  0  0  0  0  # atno 11005 bound_to 11000
  146.2936  139.7211  142.9143 LP  0  0  0  0  0  0  0  0  0  0  0  0  # atno 17320 bound_to 7965
  145.4115  141.0397  143.3014 LP  0  0  0  0  0  0  0  0  0  0  0  0  # atno 17321 bound_to 7965
  139.5335  144.2849  152.1200 LP  0  0  0  0  0  0  0  0  0  0  0  0  # atno 17342 bound_to 10162
  140.2041  144.4629  150.6417 LP  0  0  0  0  0  0  0  0  0  0  0  0  # atno 17343 bound_to 10162
  157.6443  131.0906  150.8185 LP  0  0  0  0  0  0  0  0  0  0  0  0  # atno 17370 bound_to 10713
  156.8275  130.5005  149.5335 LP  0  0  0  0  0  0  0  0  0  0  0  0  # atno 17371 bound_to 10713
  141.1321  133.6584  156.3492 LP  0  0  0  0  0  0  0  0  0  0  0  0  # atno 17394 bound_to 11000
  140.5434  134.6098  157.5386 LP  0  0  0  0  0  0  0  0  0  0  0  0  # atno 17395 bound_to 11000

$$$$
