AV-unprocessed.smi:1272|AV-procd|sdf|5337|dock3
  -GOLD-   22720 4463D 1   1.00000     0.00000
 Structure written by MMmdl.
 46 48  0  0  0  0  0  0  0  0  2 V2000
  151.5068  145.3186  160.2348 C   0  0  0  0  0  0  0  0  0  0  0  0
  152.2594  145.0331  158.9293 C   0  0  0  0  0  0  0  0  0  0  0  0
  152.2085  143.6137  158.5886 N   0  0  0  0  0  0  0  0  0  0  0  0
  151.7254  143.0756  157.4444 C   0  0  0  0  0  0  0  0  0  0  0  0
  151.2502  143.6976  156.4942 O   0  0  0  0  0  0  0  0  0  0  0  0
  151.8757  141.7319  157.5150 N   0  0  0  0  0  0  0  0  0  0  0  0
  151.5000  140.7624  156.4875 C   0  0  0  0  0  0  0  0  0  0  0  0
  150.3047  141.2582  155.6482 C   0  0  1  0  0  0  0  0  0  0  0  0
  150.1601  140.3957  154.5364 O   0  0  0  0  0  0  0  0  0  0  0  0
  148.9867  141.2139  156.4482 C   0  0  0  0  0  0  0  0  0  0  0  0
  147.9767  142.1797  155.9437 N   0  3  0  0  0  0  0  0  0  0  0  0
  147.5366  141.8713  154.5621 C   0  0  0  0  0  0  0  0  0  0  0  0
  146.5452  142.9363  154.0626 C   0  0  0  0  0  0  0  0  0  0  0  0
  145.4386  143.0131  154.9525 O   0  0  0  0  0  0  0  0  0  0  0  0
  145.8360  143.3919  156.2643 C   0  0  0  0  0  0  0  0  0  0  0  0
  146.8003  142.3383  156.8350 C   0  0  0  0  0  0  0  0  0  0  0  0
  152.5009  141.4030  158.7264 C   0  0  0  0  0  0  0  0  0  0  0  0
  152.8990  140.1634  159.2567 C   0  0  0  0  0  0  0  0  0  0  0  0
  153.5292  140.1742  160.5231 C   0  0  0  0  0  0  0  0  0  0  0  0
  153.7451  141.3926  161.2176 C   0  0  0  0  0  0  0  0  0  0  0  0
  153.3358  142.6266  160.6602 C   0  0  0  0  0  0  0  0  0  0  0  0
  152.7107  142.5874  159.4016 C   0  0  0  0  0  0  0  0  0  0  0  0
  151.5495  146.3792  160.4824 H   0  0  0  0  0  0  0  0  0  0  0  0
  151.9390  144.7650  161.0689 H   0  0  0  0  0  0  0  0  0  0  0  0
  150.4563  145.0379  160.1540 H   0  0  0  0  0  0  0  0  0  0  0  0
  151.8329  145.6198  158.1155 H   0  0  0  0  0  0  0  0  0  0  0  0
  153.2976  145.3557  159.0217 H   0  0  0  0  0  0  0  0  0  0  0  0
  152.3534  140.5080  155.8576 H   0  0  0  0  0  0  0  0  0  0  0  0
  151.2308  139.8356  156.9971 H   0  0  0  0  0  0  0  0  0  0  0  0
  150.4965  142.2707  155.2944 H   0  0  0  0  0  0  0  0  0  0  0  0
  149.2443  140.1852  154.4339 H   0  0  0  0  0  0  0  0  0  0  0  0
  148.5834  140.2008  156.3989 H   0  0  0  0  0  0  0  0  0  0  0  0
  149.1726  141.4151  157.5044 H   0  0  0  0  0  0  0  0  0  0  0  0
  148.3994  141.8352  153.8958 H   0  0  0  0  0  0  0  0  0  0  0  0
  147.0696  140.8853  154.5376 H   0  0  0  0  0  0  0  0  0  0  0  0
  147.0289  143.9108  153.9789 H   0  0  0  0  0  0  0  0  0  0  0  0
  146.1819  142.6748  153.0686 H   0  0  0  0  0  0  0  0  0  0  0  0
  146.3025  144.3784  156.2468 H   0  0  0  0  0  0  0  0  0  0  0  0
  144.9496  143.4705  156.8938 H   0  0  0  0  0  0  0  0  0  0  0  0
  146.2861  141.3813  156.9387 H   0  0  0  0  0  0  0  0  0  0  0  0
  147.1103  142.6430  157.8338 H   0  0  0  0  0  0  0  0  0  0  0  0
  152.7383  139.2388  158.7226 H   0  0  0  0  0  0  0  0  0  0  0  0
  153.8521  139.2437  160.9661 H   0  0  0  0  0  0  0  0  0  0  0  0
  154.2300  141.3782  162.1826 H   0  0  0  0  0  0  0  0  0  0  0  0
  153.5024  143.5574  161.1819 H   0  0  0  0  0  0  0  0  0  0  0  0
  148.4388  143.0772  155.9008 H   0  0  0  0  0  0  0  0  0  0  0  0
  1  2  1  0  0  0  0
  1 23  1  0  0  0  0
  1 24  1  0  0  0  0
  1 25  1  0  0  0  0
  2  3  1  0  0  0  0
  2 26  1  0  0  0  0
  2 27  1  0  0  0  0
  3 22  1  0  0  0  0
  3  4  1  0  0  0  0
  4  5  2  0  0  0  0
  4  6  1  0  0  0  0
  6  7  1  0  0  0  0
  6 17  1  0  0  0  0
  7  8  1  0  0  0  0
  7 28  1  0  0  0  0
  7 29  1  0  0  0  0
  8  9  1  0  0  0  0
  8 10  1  0  0  0  0
  8 30  1  0  0  0  0
  9 31  1  0  0  0  0
 10 11  1  0  0  0  0
 10 32  1  0  0  0  0
 10 33  1  0  0  0  0
 11 16  1  0  0  0  0
 11 12  1  0  0  0  0
 11 46  1  0  0  0  0
 12 13  1  0  0  0  0
 12 34  1  0  0  0  0
 12 35  1  0  0  0  0
 13 14  1  0  0  0  0
 13 36  1  0  0  0  0
 13 37  1  0  0  0  0
 14 15  1  0  0  0  0
 15 16  1  0  0  0  0
 15 38  1  0  0  0  0
 15 39  1  0  0  0  0
 16 40  1  0  0  0  0
 16 41  1  0  0  0  0
 17 22  2  0  0  0  0
 17 18  1  0  0  0  0
 18 19  2  0  0  0  0
 18 42  1  0  0  0  0
 19 20  1  0  0  0  0
 19 43  1  0  0  0  0
 20 21  2  0  0  0  0
 20 44  1  0  0  0  0
 21 22  1  0  0  0  0
 21 45  1  0  0  0  0
M  CHG  1  11   1
M  END
> <s_m_source_file>
AV-unprocessed.smi

> <i_m_source_file_index>
1272

> <i_lp_mmshare_version>
43012

> <i_f3d_flags>
0

> <s_epik_input>
W2NIXTFbY0hdW2NIXVtjSF1jKGMxMiluKFtDSDJdW0NIM10pYyg9TyluMltDSDJdW0NASF0oW09IXSlbQ0gyXU4zW0NIMl1bQ0gyXU9bQ0gyXVtDSDJdMw==

> <s_epik_cmdline>
J2VwaWtfcHl0aG9uJywgJy1waCcsICc3LjAnLCAnLXRuJywgJzgnLCAnLW1hJywgJzIwMCcsICctbWV0YWxfYmluZGluZycsICctaW1hZScsICc8aW5maWxlLm1hZT4nLCAnLW9tYWUnLCAnPG91dGZpbGUubWFlPic=

> <r_epik_Ionization_Penalty>
0.706332

> <r_epik_Ionization_Penalty_Charging>
0.706318

> <r_epik_Ionization_Penalty_Neutral>
1.42224e-05

> <r_epik_State_Penalty>
0.729493

> <r_epik_Charging_Adjusted_Penalty>
1.43581

> <i_epik_Tot_Q>
1

> <i_epik_Tot_abs_Q>
1

> <r_epik_Metal_State_Penalty>
0.729493

> <b_epik_Metal_Only>
0

> <s_lp_Force_Field>
OPLS_2005

> <r_lp_Energy>
52.83

> <b_lp_Chiralities_Consistent>
1

> <s_lp_Variant>
AV-unprocessed.smi:1272-4

> <Gold.Version>
5.8.1

> <Gold.Id.Protein>
6NUR|6NUR_protein|mol2

> <Gold.PLP.Fitness>
54.5721

> <Gold.PLP.PLP>
-47.0079

> <Gold.PLP.part.hbond>
-2.0000

> <Gold.PLP.part.metal>
0.0000

> <Gold.PLP.part.buried>
-8.3564

> <Gold.PLP.part.nonpolar>
-40.4729

> <Gold.PLP.part.repulsive>
3.7313

> <Gold.PLP.ligand.clash>
0.0132

> <Gold.PLP.ligand.torsion>
0.7617

> <Gold.PLP.Chemscore.Hbond>
2.9760

> <Gold.PLP.Chemscore.CHOScore>
0.0000

> <Gold.PLP.Chemscore.Metal>
0.0000

> <Gold.Chemscore.Hbonds>
donor molecule, donor type, donor heavy atom, donor atom, acceptor molecule, acceptor atom, score
      L1  H    11    46       P1  8028  2.00
      P1  H  7989  7998       L1     9  0.96

> <Gold.PLP.Chemscore.Internal.Correction>
0.1727

> <Gold.Rescore>
     Score         DG    S(hbond)    S(metal)    S(lipo)     H(rot)  DE(clash)    DE(int)     intcor
     15.39     -19.49       1.84        0.00     116.08       2.23       1.64       2.45       ----

> <Gold.Chemscore.Fitness>
15.3935

> <Gold.Chemscore.DG>
-19.4875

> <Gold.Chemscore.ZeroCoef>
-5.4800

> <Gold.Chemscore.Hbond>
1.8358

> <Gold.Chemscore.Metal>
0.0000

> <Gold.Chemscore.Lipo>
116.0791

> <Gold.Chemscore.Internal_Hbond>
0.0000

> <Gold.Chemscore.DEClash>
1.6400

> <Gold.Chemscore.DEInternal>
2.4540

> <Gold.Chemscore.Rot>
2.2287

> <Gold.Chemscore.Internal.Correction>
   9.000000E+99

> <Gold.Chemscore.Hbonds>
donor molecule, donor type, donor heavy atom, donor atom, acceptor molecule, acceptor atom, score
      L1  H    11    46       P1  8028  0.96
      P1  H  7989  7998       L1     9  0.32

> <Gold.Chemscore.Hbond.Weighted>
-6.1316

> <Gold.Chemscore.Metal.Weighted>
-0.0000

> <Gold.Chemscore.Lipo.Weighted>
-13.5812

> <Gold.Chemscore.Internal_Hbond.Weighted>
0.0000

> <Gold.Chemscore.DEClash.Weighted>
1.6400

> <Gold.Chemscore.DEInternal.Weighted>
2.4540

> <Gold.Chemscore.Rot.Weighted>
5.7054

> <Gold.Chemscore.Internal.Correction.Weighted>
   9.000000E+99

> <Gold.Protein.RotatedTorsions>
[ 6907 6896 6895 6894 ] final   -3.22 input  -60.11 | X-H torsion
[ 7974 7965 7964 7962 ] final -154.13 input  175.53 | X-H torsion
[ 8008 7997 7996 7995 ] final -162.95 input   59.86 | X-H torsion
[ 10167 10162 10161 10158 ] final  -91.50 input  -65.29 | X-H torsion
[ 10718 10713 10712 10709 ] final  102.25 input   66.30 | X-H torsion
[ 10763 10752 10751 10750 ] final   69.36 input  -60.55 | X-H torsion
[ 11005 11000 10999 10996 ] final -141.50 input  -57.11 | X-H torsion

> <Gold.Protein.ActiveResidues>
 VAL166  LYS551  ARG553  GLY616  TRP617  ASP618  TYR619  PRO620  LYS621  CYS622 
 ASP623  PHE694  ASN695  SER759  ASP760  ASP761  ALA762  ILE779  LEU786  VAL792 
 PHE793  MET794  SER795  GLU796  ALA797  LYS798  CYS799  TRP800  GLU811  SER814 

> <Gold.Protein.RotatedAtoms>
  151.5172  135.1066  159.9868 H   0  0  0  0  0  0  0  0  0  0  0  0  # atno 6907 bound_to 6896
  152.4636  133.7871  159.6892 H   0  0  0  0  0  0  0  0  0  0  0  0  # atno 6908 bound_to 6896
  150.8609  133.7581  159.3018 H   0  0  0  0  0  0  0  0  0  0  0  0  # atno 6909 bound_to 6896
  144.7705  140.4430  143.5911 H   0  0  0  0  0  0  0  0  0  0  0  0  # atno 7974 bound_to 7965
  155.8143  140.0910  157.1886 H   0  0  0  0  0  0  0  0  0  0  0  0  # atno 8008 bound_to 7997
  154.3979  140.1449  156.3484 H   0  0  0  0  0  0  0  0  0  0  0  0  # atno 8009 bound_to 7997
  155.8332  140.3442  155.5588 H   0  0  0  0  0  0  0  0  0  0  0  0  # atno 8010 bound_to 7997
  140.3443  143.2925  151.9800 H   0  0  0  0  0  0  0  0  0  0  0  0  # atno 10167 bound_to 10162
  157.6807  131.0748  150.5376 H   0  0  0  0  0  0  0  0  0  0  0  0  # atno 10718 bound_to 10713
  153.0283  135.5213  154.7277 H   0  0  0  0  0  0  0  0  0  0  0  0  # atno 10763 bound_to 10752
  154.6314  135.2901  155.0214 H   0  0  0  0  0  0  0  0  0  0  0  0  # atno 10764 bound_to 10752
  154.1165  135.6614  153.4947 H   0  0  0  0  0  0  0  0  0  0  0  0  # atno 10765 bound_to 10752
  140.8318  134.2507  157.4853 H   0  0  0  0  0  0  0  0  0  0  0  0  # atno 11005 bound_to 11000
  145.6339  139.1540  143.2953 LP  0  0  0  0  0  0  0  0  0  0  0  0  # atno 17320 bound_to 7965
  146.1847  140.6441  142.9173 LP  0  0  0  0  0  0  0  0  0  0  0  0  # atno 17321 bound_to 7965
  139.4836  144.6130  151.7398 LP  0  0  0  0  0  0  0  0  0  0  0  0  # atno 17342 bound_to 10162
  140.5280  144.0776  150.6044 LP  0  0  0  0  0  0  0  0  0  0  0  0  # atno 17343 bound_to 10162
  156.5684  130.4273  149.6031 LP  0  0  0  0  0  0  0  0  0  0  0  0  # atno 17370 bound_to 10713
  156.2762  130.7045  151.1856 LP  0  0  0  0  0  0  0  0  0  0  0  0  # atno 17371 bound_to 10713
  139.8705  134.9590  156.4319 LP  0  0  0  0  0  0  0  0  0  0  0  0  # atno 17394 bound_to 11000
  140.8989  133.7793  155.9657 LP  0  0  0  0  0  0  0  0  0  0  0  0  # atno 17395 bound_to 11000

$$$$
