#       Name:                AV-unprocessed.smi:2841
#       Creating user name   scv26
#       Creation time:       Fri Mar 27 15:38:09 2020


#       File generated by GOLD software.
#

@<TRIPOS>MOLECULE
AV-unprocessed.smi:2841
    52    54     1
SMALL
NO_CHARGES


@<TRIPOS>ATOM
      1 ****         0.3748   1.6788  -0.7641 O.2            1 S1                 0.0000
      2 ****        -0.0865   0.5453  -0.8924 C.2            1 S1                 0.0000
      3 ****         0.6685  -0.5584  -0.9767 N.am           1 S1                 0.0000
      4 ****         2.1286  -0.5878  -0.9194 C.3            1 S1                 0.0000
      5 ****         2.6970  -0.8118   0.5086 C.3            1 S1                 0.0000
      6 ****         2.6406   0.4407   1.1664 O.3            1 S1                 0.0000
      7 ****         1.8596  -1.8264   1.3323 C.3            1 S1                 0.0000
      8 ****         2.5522  -2.4399   2.5629 C.3            1 S1                 0.0000
      9 ****         3.3742  -3.6960   2.2235 C.3            1 S1                 0.0000
     10 ****         4.6947  -3.4240   1.4880 C.3            1 S1                 0.0000
     11 ****         4.5516  -2.6248   0.1813 C.3            1 S1                 0.0000
     12 ****         4.2085  -1.1446   0.4259 C.3            1 S1                 0.0000
     13 ****        -1.3927   0.2459  -0.9876 N.am           1 S1                 0.0000
     14 ****        -2.5019   1.1316  -0.9398 C.ar           1 S1                 0.0000
     15 ****        -2.4840   2.4268  -0.3658 C.ar           1 S1                 0.0000
     16 ****        -3.5866   3.2068  -0.3422 N.ar           1 S1                 0.0000
     17 ****        -4.6964   2.7053  -0.8913 C.ar           1 S1                 0.0000
     18 ****        -5.9234   3.5616  -0.8319 C.3            1 S1                 0.0000
     19 ****        -6.6914   3.9015  -2.0929 C.3            1 S1                 0.0000
     20 ****        -5.9141   4.9736  -1.3813 C.3            1 S1                 0.0000
     21 ****        -4.8373   1.4938  -1.4364 N.ar           1 S1                 0.0000
     22 ****        -3.7411   0.7060  -1.4618 C.ar           1 S1                 0.0000
     23 ****         0.2015  -1.4466  -1.0845 H              1 S1                 0.0000
     24 ****         2.4310  -1.4183  -1.5574 H              1 S1                 0.0000
     25 ****         2.5563   0.3049  -1.3807 H              1 S1                 0.0000
     26 ****         3.0002   0.3408   2.0344 H              1 S1                 0.0000
     27 ****         0.9390  -1.3403   1.6599 H              1 S1                 0.0000
     28 ****         1.5303  -2.6390   0.6835 H              1 S1                 0.0000
     29 ****         3.1572  -1.6999   3.0880 H              1 S1                 0.0000
     30 ****         1.7753  -2.7387   3.2673 H              1 S1                 0.0000
     31 ****         3.6056  -4.2211   3.1509 H              1 S1                 0.0000
     32 ****         2.7656  -4.3875   1.6400 H              1 S1                 0.0000
     33 ****         5.3870  -2.9118   2.1573 H              1 S1                 0.0000
     34 ****         5.1623  -4.3827   1.2611 H              1 S1                 0.0000
     35 ****         5.5105  -2.6665  -0.3363 H              1 S1                 0.0000
     36 ****         3.8319  -3.0948  -0.4895 H              1 S1                 0.0000
     37 ****         4.6547  -0.5452  -0.3693 H              1 S1                 0.0000
     38 ****         4.7213  -0.8190   1.3329 H              1 S1                 0.0000
     39 ****        -1.6160  -0.7214  -1.1715 H              1 S1                 0.0000
     40 ****        -1.6058   2.8474   0.0985 H              1 S1                 0.0000
     41 ****        -6.4945   3.3724   0.0749 H              1 S1                 0.0000
     42 ****        -6.2955   3.5441  -3.0416 H              1 S1                 0.0000
     43 ****        -7.7767   3.9354  -2.0237 H              1 S1                 0.0000
     44 ****        -6.4790   5.7270  -0.8361 H              1 S1                 0.0000
     45 ****        -5.0016   5.3286  -1.8564 H              1 S1                 0.0000
     46 ****        -3.8558  -0.2720  -1.9060 H              1 S1                 0.0000
     47 ****         1.3646   1.8135  -0.7173 LP             1 S1                 0.0000
     48 ****        -0.2400   2.4653  -0.7066 LP             1 S1                 0.0000
     49 ****         1.6906   0.7465   1.2282 LP             1 S1                 0.0000
     50 ****         3.1750   1.1141   0.6555 LP             1 S1                 0.0000
     51 ****        -3.5727   4.1187   0.0679 LP             1 S1                 0.0000
     52 ****        -5.7130   1.1852  -1.8079 LP             1 S1                 0.0000
@<TRIPOS>BOND
    1    1    2 2     
    2    2    3 am    
    3    2   13 am    
    4    3    4 1     
    5    3   23 1     
    6    4    5 1     
    7    4   24 1     
    8    4   25 1     
    9    5   12 1     
   10    5    6 1     
   11    5    7 1     
   12    6   26 1     
   13    7    8 1     
   14    7   27 1     
   15    7   28 1     
   16    8    9 1     
   17    8   29 1     
   18    8   30 1     
   19    9   10 1     
   20    9   31 1     
   21    9   32 1     
   22   10   11 1     
   23   10   33 1     
   24   10   34 1     
   25   11   12 1     
   26   11   35 1     
   27   11   36 1     
   28   12   37 1     
   29   12   38 1     
   30   13   14 1     
   31   13   39 1     
   32   14   22 ar    
   33   14   15 ar    
   34   15   16 ar    
   35   15   40 1     
   36   16   17 ar    
   37   17   18 1     
   38   17   21 ar    
   39   18   20 1     
   40   18   19 1     
   41   18   41 1     
   42   19   20 1     
   43   19   42 1     
   44   19   43 1     
   45   20   44 1     
   46   20   45 1     
   47   21   22 ar    
   48   22   46 1     
   49    1   47 1     
   50    1   48 1     
   51    6   49 1     
   52    6   50 1     
   53   16   51 1     
   54   21   52 1     
@<TRIPOS>SUBSTRUCTURE
      1 S1             1
@<TRIPOS>SET
LONE_PAIRS      STATIC     ATOMS    <user>   **** ""
6 47 48 49 50 51 52
DONOR_HYDROGENS      STATIC     ATOMS    <user>   **** ""
3 23 26 39
ATOM$BLUE        STATIC     ATOMS    COLORGROUP SYSTEM
6 47 48 49 50 51 52
ATOM$RED        STATIC     ATOMS    COLORGROUP SYSTEM
3 23 26 39
