AV-unprocessed.smi:3237|AV-procd|sdf|12373|dock8
  -GOLD-   2272018233D 1   1.00000     0.00000
 Structure written by MMmdl.
 36 38  0  0  0  0  0  0  0  0  3 V2000
  152.5180  142.2213  160.5804 C   0  0  0  0  0  0  0  0  0  0  0  0
  152.6602  141.1123  159.5948 C   0  0  0  0  0  0  0  0  0  0  0  0
  151.8175  140.5941  158.6524 C   0  0  0  0  0  0  0  0  0  0  0  0
  152.5909  139.5574  158.0649 C   0  0  0  0  0  0  0  0  0  0  0  0
  152.0569  138.7610  157.0177 N   0  0  0  0  0  0  0  0  0  0  0  0
  152.7040  137.9470  156.1639 C   0  0  0  0  0  0  0  0  0  0  0  0
  153.9321  137.8171  156.2325 O   0  0  0  0  0  0  0  0  0  0  0  0
  151.8557  137.3362  155.2907 N   0  5  0  0  0  0  0  0  0  0  0  0
  150.6024  136.6800  155.6681 C   0  0  2  0  0  0  0  0  0  0  0  0
  150.5565  135.2351  155.1694 C   0  0  0  0  0  0  0  0  0  0  0  0
  149.0589  134.9599  155.0441 C   0  0  0  0  0  0  0  0  0  0  0  0
  148.4742  136.2365  154.5834 N   0  3  1  0  0  0  0  0  0  0  0  0
  147.0590  136.4275  154.9684 C   0  0  0  0  0  0  0  0  0  0  0  0
  146.0792  135.8489  153.9761 C   0  0  0  0  0  0  0  0  0  0  0  0
  146.3008  137.3448  154.0394 C   0  0  0  0  0  0  0  0  0  0  0  0
  149.3773  137.3344  155.0036 C   0  0  0  0  0  0  0  0  0  0  0  0
  153.7975  139.4530  158.6023 N   0  0  0  0  0  0  0  0  0  0  0  0
  153.8483  140.4492  159.5844 O   0  0  0  0  0  0  0  0  0  0  0  0
  151.4858  142.3086  160.9195 H   0  0  0  0  0  0  0  0  0  0  0  0
  152.8097  143.1720  160.1342 H   0  0  0  0  0  0  0  0  0  0  0  0
  153.1465  142.0500  161.4545 H   0  0  0  0  0  0  0  0  0  0  0  0
  150.8102  140.9077  158.4214 H   0  0  0  0  0  0  0  0  0  0  0  0
  151.0562  138.8130  156.8981 H   0  0  0  0  0  0  0  0  0  0  0  0
  150.4459  136.6662  156.7479 H   0  0  0  0  0  0  0  0  0  0  0  0
  151.0240  135.1490  154.1866 H   0  0  0  0  0  0  0  0  0  0  0  0
  151.0584  134.5391  155.8421 H   0  0  0  0  0  0  0  0  0  0  0  0
  148.8443  134.1537  154.3421 H   0  0  0  0  0  0  0  0  0  0  0  0
  148.6356  134.6734  156.0107 H   0  0  0  0  0  0  0  0  0  0  0  0
  146.8405  136.4176  156.0349 H   0  0  0  0  0  0  0  0  0  0  0  0
  146.4747  135.3178  153.1121 H   0  0  0  0  0  0  0  0  0  0  0  0
  145.1372  135.4678  154.3650 H   0  0  0  0  0  0  0  0  0  0  0  0
  145.5050  137.9492  154.4700 H   0  0  0  0  0  0  0  0  0  0  0  0
  146.8440  137.8084  153.2178 H   0  0  0  0  0  0  0  0  0  0  0  0
  148.8902  138.0265  155.6924 H   0  0  0  0  0  0  0  0  0  0  0  0
  149.6484  137.9014  154.1118 H   0  0  0  0  0  0  0  0  0  0  0  0
  148.5158  136.2198  153.5746 H   0  0  0  0  0  0  0  0  0  0  0  0
  1  2  1  0  0  0  0
  1 19  1  0  0  0  0
  1 20  1  0  0  0  0
  1 21  1  0  0  0  0
  2 18  1  0  0  0  0
  2  3  2  0  0  0  0
  3  4  1  0  0  0  0
  3 22  1  0  0  0  0
  4  5  1  0  0  0  0
  4 17  2  0  0  0  0
  5  6  1  0  0  0  0
  5 23  1  0  0  0  0
  6  7  2  0  0  0  0
  6  8  1  0  0  0  0
  8  9  1  0  0  0  0
  9 16  1  0  0  0  0
  9 10  1  0  0  0  0
  9 24  1  0  0  0  0
 10 11  1  0  0  0  0
 10 25  1  0  0  0  0
 10 26  1  0  0  0  0
 11 12  1  0  0  0  0
 11 27  1  0  0  0  0
 11 28  1  0  0  0  0
 12 13  1  0  0  0  0
 12 16  1  0  0  0  0
 12 36  1  0  0  0  0
 13 15  1  0  0  0  0
 13 14  1  0  0  0  0
 13 29  1  0  0  0  0
 14 15  1  0  0  0  0
 14 30  1  0  0  0  0
 14 31  1  0  0  0  0
 15 32  1  0  0  0  0
 15 33  1  0  0  0  0
 16 34  1  0  0  0  0
 16 35  1  0  0  0  0
 17 18  1  0  0  0  0
M  CHG  1   8  -1
M  CHG  1  12   1
M  END
> <s_m_source_file>
AV-unprocessed.smi

> <i_m_source_file_index>
3237

> <i_lp_mmshare_version>
43012

> <i_f3d_flags>
0

> <s_epik_input>
W0NIM11jMVtjSF1jKG5vMSlbTkhdQyg9TylbTkhdW0NAQEhdMltDSDJdW0NIMl1OKFtDSDJdMilbQ0hdM1tDSDJdW0NIMl0z

> <s_epik_cmdline>
J2VwaWtfcHl0aG9uJywgJy1waCcsICc3LjAnLCAnLXRuJywgJzgnLCAnLW1hJywgJzIwMCcsICctbWV0YWxfYmluZGluZycsICctaW1hZScsICc8aW5maWxlLm1hZT4nLCAnLW9tYWUnLCAnPG91dGZpbGUubWFlPic=

> <r_epik_Ionization_Penalty>
6.76456

> <r_epik_Ionization_Penalty_Charging>
6.76456

> <r_epik_Ionization_Penalty_Neutral>
5.76722e-06

> <r_epik_State_Penalty>
6.78919

> <r_epik_Charging_Adjusted_Penalty>
13.5538

> <i_epik_Tot_Q>
0

> <i_epik_Tot_abs_Q>
2

> <r_epik_Metal_State_Penalty>
2.728

> <b_epik_Metal_Only>
1

> <s_lp_Force_Field>
OPLS_2005

> <r_lp_Energy>
30.8833

> <b_lp_Chiralities_Consistent>
1

> <s_lp_Variant>
AV-unprocessed.smi:3237-11

> <Gold.Version>
5.8.1

> <Gold.Id.Protein>
6NUR|6NUR_protein|mol2

> <Gold.PLP.Fitness>
36.5597

> <Gold.PLP.PLP>
-22.7311

> <Gold.PLP.part.hbond>
-4.5827

> <Gold.PLP.part.metal>
0.0000

> <Gold.PLP.part.buried>
-3.4440

> <Gold.PLP.part.nonpolar>
-15.3435

> <Gold.PLP.part.repulsive>
0.1451

> <Gold.PLP.ligand.clash>
0.0000

> <Gold.PLP.ligand.torsion>
1.1002

> <Gold.PLP.Chemscore.Hbond>
4.9200

> <Gold.PLP.Chemscore.CHOScore>
0.0000

> <Gold.PLP.Chemscore.Metal>
0.0000

> <Gold.Chemscore.Hbonds>
donor molecule, donor type, donor heavy atom, donor atom, acceptor molecule, acceptor atom, score
      L1  H    12    36       P1  7948  2.00
      P1  H  7997  8008       L1    17  1.00
      P1  H 10752 10765       L1     8  1.27

> <Gold.PLP.Chemscore.Internal.Correction>
1.2691

> <Gold.Rescore>
     Score         DG    S(hbond)    S(metal)    S(lipo)     H(rot)  DE(clash)    DE(int)     intcor
     11.79     -14.20       1.93        0.00      46.78       1.25       0.01       2.41       ----

> <Gold.Chemscore.Fitness>
11.7869

> <Gold.Chemscore.DG>
-14.2009

> <Gold.Chemscore.ZeroCoef>
-5.4800

> <Gold.Chemscore.Hbond>
1.9278

> <Gold.Chemscore.Metal>
0.0000

> <Gold.Chemscore.Lipo>
46.7763

> <Gold.Chemscore.Internal_Hbond>
0.0000

> <Gold.Chemscore.DEClash>
0.0060

> <Gold.Chemscore.DEInternal>
2.4080

> <Gold.Chemscore.Rot>
1.2464

> <Gold.Chemscore.Internal.Correction>
   9.000000E+99

> <Gold.Chemscore.Hbonds>
donor molecule, donor type, donor heavy atom, donor atom, acceptor molecule, acceptor atom, score
      L1  H    12    36       P1  7948  1.00
      P1  H  7997  8008       L1    17  0.28
      P1  H 10752 10765       L1     8  0.05

> <Gold.Chemscore.Hbond.Weighted>
-6.4389

> <Gold.Chemscore.Metal.Weighted>
-0.0000

> <Gold.Chemscore.Lipo.Weighted>
-5.4728

> <Gold.Chemscore.Internal_Hbond.Weighted>
0.0000

> <Gold.Chemscore.DEClash.Weighted>
0.0060

> <Gold.Chemscore.DEInternal.Weighted>
2.4080

> <Gold.Chemscore.Rot.Weighted>
3.1909

> <Gold.Chemscore.Internal.Correction.Weighted>
   9.000000E+99

> <Gold.Protein.RotatedTorsions>
[ 6907 6896 6895 6894 ] final -155.24 input  -60.11 | X-H torsion
[ 7974 7965 7964 7962 ] final   59.31 input  175.53 | X-H torsion
[ 8008 7997 7996 7995 ] final -118.13 input   59.86 | X-H torsion
[ 10167 10162 10161 10158 ] final   28.21 input  -65.29 | X-H torsion
[ 10718 10713 10712 10709 ] final  130.88 input   66.30 | X-H torsion
[ 10763 10752 10751 10750 ] final -176.20 input  -60.55 | X-H torsion
[ 11005 11000 10999 10996 ] final   27.33 input  -57.11 | X-H torsion

> <Gold.Protein.ActiveResidues>
 VAL166  LYS551  ARG553  GLY616  TRP617  ASP618  TYR619  PRO620  LYS621  CYS622 
 ASP623  PHE694  ASN695  SER759  ASP760  ASP761  ALA762  ILE779  LEU786  VAL792 
 PHE793  MET794  SER795  GLU796  ALA797  LYS798  CYS799  TRP800  GLU811  SER814 

> <Gold.Protein.RotatedAtoms>
  151.2696  133.4262  159.2620 H   0  0  0  0  0  0  0  0  0  0  0  0  # atno 6907 bound_to 6896
  151.0457  134.9638  159.8195 H   0  0  0  0  0  0  0  0  0  0  0  0  # atno 6908 bound_to 6896
  152.5373  134.2652  159.9003 H   0  0  0  0  0  0  0  0  0  0  0  0  # atno 6909 bound_to 6896
  145.9086  139.3636  143.0549 H   0  0  0  0  0  0  0  0  0  0  0  0  # atno 7974 bound_to 7965
  155.0947  140.0395  157.2679 H   0  0  0  0  0  0  0  0  0  0  0  0  # atno 8008 bound_to 7997
  154.6804  140.2632  155.6889 H   0  0  0  0  0  0  0  0  0  0  0  0  # atno 8009 bound_to 7997
  156.2692  140.2779  156.1346 H   0  0  0  0  0  0  0  0  0  0  0  0  # atno 8010 bound_to 7997
  140.4872  144.0524  150.6284 H   0  0  0  0  0  0  0  0  0  0  0  0  # atno 10167 bound_to 10162
  157.5020  131.1094  150.9413 H   0  0  0  0  0  0  0  0  0  0  0  0  # atno 10718 bound_to 10713
  154.5752  135.2831  155.0788 H   0  0  0  0  0  0  0  0  0  0  0  0  # atno 10763 bound_to 10752
  154.2145  135.6402  153.5129 H   0  0  0  0  0  0  0  0  0  0  0  0  # atno 10764 bound_to 10752
  153.0070  135.5499  154.6388 H   0  0  0  0  0  0  0  0  0  0  0  0  # atno 10765 bound_to 10752
  140.3274  134.2476  155.7707 H   0  0  0  0  0  0  0  0  0  0  0  0  # atno 11005 bound_to 11000
  145.8700  140.9425  143.0655 LP  0  0  0  0  0  0  0  0  0  0  0  0  # atno 17320 bound_to 7965
  144.6741  140.0643  143.7475 LP  0  0  0  0  0  0  0  0  0  0  0  0  # atno 17321 bound_to 7965
  140.3783  143.2817  152.0200 LP  0  0  0  0  0  0  0  0  0  0  0  0  # atno 17342 bound_to 10162
  139.4844  144.6175  151.7318 LP  0  0  0  0  0  0  0  0  0  0  0  0  # atno 17343 bound_to 10162
  157.0081  130.5626  149.5318 LP  0  0  0  0  0  0  0  0  0  0  0  0  # atno 17370 bound_to 10713
  156.0235  130.5330  150.8342 LP  0  0  0  0  0  0  0  0  0  0  0  0  # atno 17371 bound_to 10713
  141.2072  133.7813  157.0134 LP  0  0  0  0  0  0  0  0  0  0  0  0  # atno 17394 bound_to 11000
  140.0890  134.9604  157.1746 LP  0  0  0  0  0  0  0  0  0  0  0  0  # atno 17395 bound_to 11000

$$$$
