#       Name:                AV-unprocessed.smi:2845
#       Creating user name   scv26
#       Creation time:       Fri Mar 27 15:39:18 2020


#       File generated by GOLD software.
#

@<TRIPOS>MOLECULE
AV-unprocessed.smi:2845
    47    49     1
SMALL
NO_CHARGES


@<TRIPOS>ATOM
      1 ****        -1.9244   4.1474  -1.8475 C.3            1 S1                 0.0000
      2 ****        -1.4586   3.1107  -0.8405 C.ar           1 S1                 0.0000
      3 ****        -1.6033   3.3792   0.5400 C.ar           1 S1                 0.0000
      4 ****        -1.1823   2.4414   1.5085 C.ar           1 S1                 0.0000
      5 ****        -1.2251   2.4916   2.8921 N.2            1 S1                 0.0000
      6 ****        -0.6886   1.3192   3.2211 C.2            1 S1                 0.0000
      7 ****        -0.3004   0.5170   2.2115 N.pl3          1 S1                 0.0000
      8 ****         0.3023  -0.7981   2.3024 C.3            1 S1                 0.0000
      9 ****         1.8255  -0.7510   2.0552 C.3            1 S1                 0.0000
     10 ****         2.4613  -0.1379   3.1582 O.3            1 S1                 0.0000
     11 ****         2.4567  -2.1377   1.8147 C.3            1 S1                 0.0000
     12 ****         1.8616  -2.8353   0.6871 N.pl3          1 S1                 0.0000
     13 ****         1.3734  -4.0756   0.5907 C.2            1 S1                 0.0000
     14 ****         0.8861  -4.3724  -0.6077 N.2            1 S1                 0.0000
     15 ****         1.1409  -3.1899  -1.2393 C.2            1 S1                 0.0000
     16 ****         0.6422  -2.9034  -2.9664 S.o            1 S1                 0.0000
     17 ****        -1.1072  -2.4253  -2.5766 C.3            1 S1                 0.0000
     18 ****         1.3611  -1.6297  -3.4166 O.2            1 S1                 0.0000
     19 ****         1.7430  -2.2425  -0.5252 N.2            1 S1                 0.0000
     20 ****        -0.6095   1.2190   1.0528 C.ar           1 S1                 0.0000
     21 ****        -0.4595   0.9401  -0.3168 C.ar           1 S1                 0.0000
     22 ****        -0.8841   1.8874  -1.2707 C.ar           1 S1                 0.0000
     23 ****        -0.7142   1.5760  -2.7471 C.3            1 S1                 0.0000
     24 ****        -2.3272   5.0313  -1.3521 H              1 S1                 0.0000
     25 ****        -2.7069   3.7353  -2.4851 H              1 S1                 0.0000
     26 ****        -1.0950   4.4671  -2.4787 H              1 S1                 0.0000
     27 ****        -2.0402   4.3111   0.8675 H              1 S1                 0.0000
     28 ****        -0.5695   1.0270   4.2542 H              1 S1                 0.0000
     29 ****         0.0788  -1.2320   3.2781 H              1 S1                 0.0000
     30 ****        -0.1948  -1.4284   1.5649 H              1 S1                 0.0000
     31 ****         2.0290  -0.1263   1.1842 H              1 S1                 0.0000
     32 ****         2.1305   0.7436   3.2421 H              1 S1                 0.0000
     33 ****         3.5269  -2.0413   1.6272 H              1 S1                 0.0000
     34 ****         2.3456  -2.7612   2.7031 H              1 S1                 0.0000
     35 ****         1.3591  -4.7697   1.4184 H              1 S1                 0.0000
     36 ****        -1.7593  -3.2953  -2.6520 H              1 S1                 0.0000
     37 ****        -1.4551  -1.6703  -3.2812 H              1 S1                 0.0000
     38 ****        -1.1891  -2.0165  -1.5693 H              1 S1                 0.0000
     39 ****        -0.0178   0.0059  -0.6305 H              1 S1                 0.0000
     40 ****        -0.2593   0.5966  -2.8966 H              1 S1                 0.0000
     41 ****        -0.0724   2.3175  -3.2230 H              1 S1                 0.0000
     42 ****        -1.6803   1.5768  -3.2521 H              1 S1                 0.0000
     43 ****        -1.5688   3.2179   3.4873 LP             1 S1                 0.0000
     44 ****         3.4497  -0.1147   3.0080 LP             1 S1                 0.0000
     45 ****         2.2629  -0.6537   3.9917 LP             1 S1                 0.0000
     46 ****         0.4599  -5.2113  -0.9463 LP             1 S1                 0.0000
     47 ****         2.0331  -1.3288  -0.8098 LP             1 S1                 0.0000
@<TRIPOS>BOND
    1    1    2 1     
    2    1   24 1     
    3    1   25 1     
    4    1   26 1     
    5    2   22 ar    
    6    2    3 ar    
    7    3    4 ar    
    8    3   27 1     
    9    4   20 ar    
   10    4    5 1     
   11    5    6 2     
   12    6    7 1     
   13    6   28 1     
   14    7    8 1     
   15    7   20 1     
   16    8    9 1     
   17    8   29 1     
   18    8   30 1     
   19    9   10 1     
   20    9   11 1     
   21    9   31 1     
   22   10   32 1     
   23   11   12 1     
   24   11   33 1     
   25   11   34 1     
   26   12   19 1     
   27   12   13 1     
   28   13   14 2     
   29   13   35 1     
   30   14   15 1     
   31   15   16 1     
   32   15   19 2     
   33   16   17 1     
   34   16   18 2     
   35   17   36 1     
   36   17   37 1     
   37   17   38 1     
   38   20   21 ar    
   39   21   22 ar    
   40   21   39 1     
   41   22   23 1     
   42   23   40 1     
   43   23   41 1     
   44   23   42 1     
   45    5   43 1     
   46   10   44 1     
   47   10   45 1     
   48   14   46 1     
   49   19   47 1     
@<TRIPOS>SUBSTRUCTURE
      1 S1             1
@<TRIPOS>SET
LONE_PAIRS      STATIC     ATOMS    <user>   **** ""
6 43 44 45 46 18 47
DONOR_HYDROGENS      STATIC     ATOMS    <user>   **** ""
1 32
ATOM$BLUE        STATIC     ATOMS    COLORGROUP SYSTEM
6 43 44 45 46 18 47
ATOM$RED        STATIC     ATOMS    COLORGROUP SYSTEM
1 32
