AV-unprocessed.smi:1053|AV-procd|sdf|4621|dock10
  -GOLD-   22720 3123D 1   1.00000     0.00000
 Structure written by MMmdl.
 37 38  0  0  0  0  0  0  0  0  1 V2000
  151.0378  142.2051  156.6398 C   0  0  0  0  0  0  0  0  0  0  0  0
  150.1687  141.4611  155.6156 C   0  0  0  0  0  0  0  0  0  0  0  0
  150.1109  140.0113  155.7940 N   0  0  0  0  0  0  0  0  0  0  0  0
  151.3830  139.3586  155.4950 C   0  0  0  0  0  0  0  0  0  0  0  0
  151.3126  137.8392  155.7218 C   0  0  0  0  0  0  0  0  0  0  0  0
  150.9035  137.5768  157.0598 O   0  0  0  0  0  0  0  0  0  0  0  0
  149.6347  138.1452  157.3761 C   0  0  1  0  0  0  0  0  0  0  0  0
  149.2986  137.8028  158.8336 C   0  0  0  0  0  0  0  0  0  0  0  0
  148.8773  136.4176  158.9798 N   0  0  0  0  0  0  0  0  0  0  0  0
  148.4323  135.8641  160.1652 C   0  0  0  0  0  0  0  0  0  0  0  0
  148.2776  136.6702  161.2220 N   0  0  0  0  0  0  0  0  0  0  0  0
  147.8388  136.1044  162.3667 C   0  0  0  0  0  0  0  0  0  0  0  0
  147.5535  134.7275  162.4523 C   0  0  0  0  0  0  0  0  0  0  0  0
  147.7518  133.9728  161.2744 C   0  0  0  0  0  0  0  0  0  0  0  0
  147.4872  132.4756  161.2190 C   0  0  0  0  0  0  0  0  0  0  0  0
  148.3455  131.7982  161.9825 F   0  0  0  0  0  0  0  0  0  0  0  0
  146.2502  132.2203  161.6459 F   0  0  0  0  0  0  0  0  0  0  0  0
  147.6071  132.0451  159.9631 F   0  0  0  0  0  0  0  0  0  0  0  0
  148.1940  134.5512  160.1332 N   0  0  0  0  0  0  0  0  0  0  0  0
  149.7127  139.6693  157.1553 C   0  0  0  0  0  0  0  0  0  0  0  0
  151.1192  143.2601  156.3781 H   0  0  0  0  0  0  0  0  0  0  0  0
  152.0471  141.7938  156.6714 H   0  0  0  0  0  0  0  0  0  0  0  0
  150.6190  142.1533  157.6445 H   0  0  0  0  0  0  0  0  0  0  0  0
  149.1602  141.8771  155.6231 H   0  0  0  0  0  0  0  0  0  0  0  0
  150.5741  141.6771  154.6263 H   0  0  0  0  0  0  0  0  0  0  0  0
  151.6709  139.5444  154.4607 H   0  0  0  0  0  0  0  0  0  0  0  0
  152.1715  139.7793  156.1208 H   0  0  0  0  0  0  0  0  0  0  0  0
  150.6157  137.3752  155.0222 H   0  0  0  0  0  0  0  0  0  0  0  0
  152.2885  137.3845  155.5514 H   0  0  0  0  0  0  0  0  0  0  0  0
  148.8715  137.7240  156.7185 H   0  0  0  0  0  0  0  0  0  0  0  0
  150.1591  137.9936  159.4761 H   0  0  0  0  0  0  0  0  0  0  0  0
  148.4890  138.4452  159.1818 H   0  0  0  0  0  0  0  0  0  0  0  0
  148.9533  135.8060  158.1800 H   0  0  0  0  0  0  0  0  0  0  0  0
  147.7145  136.7541  163.2201 H   0  0  0  0  0  0  0  0  0  0  0  0
  147.2036  134.2836  163.3724 H   0  0  0  0  0  0  0  0  0  0  0  0
  150.4191  140.1026  157.8654 H   0  0  0  0  0  0  0  0  0  0  0  0
  148.7410  140.1133  157.3752 H   0  0  0  0  0  0  0  0  0  0  0  0
  1  2  1  0  0  0  0
  1 21  1  0  0  0  0
  1 22  1  0  0  0  0
  1 23  1  0  0  0  0
  2  3  1  0  0  0  0
  2 24  1  0  0  0  0
  2 25  1  0  0  0  0
  3 20  1  0  0  0  0
  3  4  1  0  0  0  0
  4  5  1  0  0  0  0
  4 26  1  0  0  0  0
  4 27  1  0  0  0  0
  5  6  1  0  0  0  0
  5 28  1  0  0  0  0
  5 29  1  0  0  0  0
  6  7  1  0  0  0  0
  7  8  1  0  0  0  0
  7 20  1  0  0  0  0
  7 30  1  0  0  0  0
  8  9  1  0  0  0  0
  8 31  1  0  0  0  0
  8 32  1  0  0  0  0
  9 10  1  0  0  0  0
  9 33  1  0  0  0  0
 10 19  1  0  0  0  0
 10 11  2  0  0  0  0
 11 12  1  0  0  0  0
 12 13  2  0  0  0  0
 12 34  1  0  0  0  0
 13 14  1  0  0  0  0
 13 35  1  0  0  0  0
 14 15  1  0  0  0  0
 14 19  2  0  0  0  0
 15 16  1  0  0  0  0
 15 17  1  0  0  0  0
 15 18  1  0  0  0  0
 20 36  1  0  0  0  0
 20 37  1  0  0  0  0
M  END
> <s_m_source_file>
AV-unprocessed.smi

> <i_m_source_file_index>
1053

> <i_lp_mmshare_version>
43012

> <i_f3d_flags>
0

> <s_epik_input>
W0NIM11bQ0gyXU4xW0NIMl1bQ0gyXU9bQ0BIXShbQ0gyXTEpW0NIMl1bTkhdYzJuW2NIXVtjSF1jKG4yKUMoRikoRilG

> <s_epik_cmdline>
J2VwaWtfcHl0aG9uJywgJy1waCcsICc3LjAnLCAnLXRuJywgJzgnLCAnLW1hJywgJzIwMCcsICctbWV0YWxfYmluZGluZycsICctaW1hZScsICc8aW5maWxlLm1hZT4nLCAnLW9tYWUnLCAnPG91dGZpbGUubWFlPic=

> <r_lp_tautomer_probability>
1

> <r_epik_Ionization_Penalty>
0.797829

> <r_epik_Ionization_Penalty_Charging>
0

> <r_epik_Ionization_Penalty_Neutral>
0.797829

> <r_epik_State_Penalty>
0.828842

> <r_epik_Charging_Adjusted_Penalty>
0.828842

> <i_epik_Tot_Q>
0

> <i_epik_Tot_abs_Q>
0

> <r_epik_Metal_State_Penalty>
0.828842

> <b_epik_Metal_Only>
0

> <s_lp_Force_Field>
OPLS_2005

> <r_lp_Energy>
17.4925

> <b_lp_Chiralities_Consistent>
1

> <s_lp_Variant>
AV-unprocessed.smi:1053-5

> <Gold.Version>
5.8.1

> <Gold.Id.Protein>
6NUR|6NUR_protein|mol2

> <Gold.PLP.Fitness>
35.2043

> <Gold.PLP.PLP>
-32.8016

> <Gold.PLP.part.hbond>
-1.0000

> <Gold.PLP.part.metal>
0.0000

> <Gold.PLP.part.buried>
-5.8249

> <Gold.PLP.part.nonpolar>
-26.7550

> <Gold.PLP.part.repulsive>
0.1692

> <Gold.PLP.ligand.clash>
0.0000

> <Gold.PLP.ligand.torsion>
0.3051

> <Gold.PLP.Chemscore.Hbond>
1.0000

> <Gold.PLP.Chemscore.CHOScore>
0.0000

> <Gold.PLP.Chemscore.Metal>
0.0000

> <Gold.Chemscore.Hbonds>
donor molecule, donor type, donor heavy atom, donor atom, acceptor molecule, acceptor atom, score
      P1  H  6931  6943       L1    11  1.00

> <Gold.PLP.Chemscore.Internal.Correction>
0.0129

> <Gold.Rescore>
     Score         DG    S(hbond)    S(metal)    S(lipo)     H(rot)  DE(clash)    DE(int)     intcor
     12.33     -12.63       0.90        0.00      68.54       1.52       0.15       0.15       ----

> <Gold.Chemscore.Fitness>
12.3331

> <Gold.Chemscore.DG>
-12.6284

> <Gold.Chemscore.ZeroCoef>
-5.4800

> <Gold.Chemscore.Hbond>
0.9048

> <Gold.Chemscore.Metal>
0.0000

> <Gold.Chemscore.Lipo>
68.5439

> <Gold.Chemscore.Internal_Hbond>
0.0000

> <Gold.Chemscore.DEClash>
0.1485

> <Gold.Chemscore.DEInternal>
0.1469

> <Gold.Chemscore.Rot>
1.5208

> <Gold.Chemscore.Internal.Correction>
   9.000000E+99

> <Gold.Chemscore.Hbonds>
donor molecule, donor type, donor heavy atom, donor atom, acceptor molecule, acceptor atom, score
      P1  H  6931  6943       L1    11  0.26

> <Gold.Chemscore.Hbond.Weighted>
-3.0220

> <Gold.Chemscore.Metal.Weighted>
-0.0000

> <Gold.Chemscore.Lipo.Weighted>
-8.0196

> <Gold.Chemscore.Internal_Hbond.Weighted>
0.0000

> <Gold.Chemscore.DEClash.Weighted>
0.1485

> <Gold.Chemscore.DEInternal.Weighted>
0.1469

> <Gold.Chemscore.Rot.Weighted>
3.8932

> <Gold.Chemscore.Internal.Correction.Weighted>
   9.000000E+99

> <Gold.Protein.RotatedTorsions>
[ 6907 6896 6895 6894 ] final  -21.62 input  -60.11 | X-H torsion
[ 7974 7965 7964 7962 ] final  145.37 input  175.53 | X-H torsion
[ 8008 7997 7996 7995 ] final   12.25 input   59.86 | X-H torsion
[ 10167 10162 10161 10158 ] final  120.38 input  -65.29 | X-H torsion
[ 10718 10713 10712 10709 ] final  -93.50 input   66.30 | X-H torsion
[ 10763 10752 10751 10750 ] final  -23.00 input  -60.55 | X-H torsion
[ 11005 11000 10999 10996 ] final   58.56 input  -57.11 | X-H torsion

> <Gold.Protein.ActiveResidues>
 VAL166  LYS551  ARG553  GLY616  TRP617  ASP618  TYR619  PRO620  LYS621  CYS622 
 ASP623  PHE694  ASN695  SER759  ASP760  ASP761  ALA762  ILE779  LEU786  VAL792 
 PHE793  MET794  SER795  GLU796  ALA797  LYS798  CYS799  TRP800  GLU811  SER814 

> <Gold.Protein.RotatedAtoms>
  151.2306  135.0553  159.8985 H   0  0  0  0  0  0  0  0  0  0  0  0  # atno 6907 bound_to 6896
  152.5405  134.0541  159.8133 H   0  0  0  0  0  0  0  0  0  0  0  0  # atno 6908 bound_to 6896
  151.0720  133.5410  159.2658 H   0  0  0  0  0  0  0  0  0  0  0  0  # atno 6909 bound_to 6896
  144.8758  139.5775  143.5866 H   0  0  0  0  0  0  0  0  0  0  0  0  # atno 7974 bound_to 7965
  154.8180  140.2879  155.5806 H   0  0  0  0  0  0  0  0  0  0  0  0  # atno 8008 bound_to 7997
  156.2995  140.2555  156.3012 H   0  0  0  0  0  0  0  0  0  0  0  0  # atno 8009 bound_to 7997
  154.9371  140.0382  157.2067 H   0  0  0  0  0  0  0  0  0  0  0  0  # atno 8010 bound_to 7997
  139.5986  144.7049  151.3117 H   0  0  0  0  0  0  0  0  0  0  0  0  # atno 10167 bound_to 10162
  156.0014  130.5030  150.5786 H   0  0  0  0  0  0  0  0  0  0  0  0  # atno 10718 bound_to 10713
  153.6609  135.6976  153.5178 H   0  0  0  0  0  0  0  0  0  0  0  0  # atno 10763 bound_to 10752
  153.2633  135.4238  155.0914 H   0  0  0  0  0  0  0  0  0  0  0  0  # atno 10764 bound_to 10752
  154.8452  135.3560  154.6153 H   0  0  0  0  0  0  0  0  0  0  0  0  # atno 10765 bound_to 10752
  140.0369  134.5931  155.9433 H   0  0  0  0  0  0  0  0  0  0  0  0  # atno 11005 bound_to 11000
  146.2961  139.7283  142.9125 LP  0  0  0  0  0  0  0  0  0  0  0  0  # atno 17320 bound_to 7965
  145.4046  141.0389  143.3051 LP  0  0  0  0  0  0  0  0  0  0  0  0  # atno 17321 bound_to 7965
  140.7232  143.7078  150.7793 LP  0  0  0  0  0  0  0  0  0  0  0  0  # atno 17342 bound_to 10162
  140.0650  143.5117  152.2609 LP  0  0  0  0  0  0  0  0  0  0  0  0  # atno 17343 bound_to 10162
  157.3670  131.0759  151.1589 LP  0  0  0  0  0  0  0  0  0  0  0  0  # atno 17370 bound_to 10713
  157.2355  130.6545  149.5868 LP  0  0  0  0  0  0  0  0  0  0  0  0  # atno 17371 bound_to 10713
  141.1862  133.6557  156.5229 LP  0  0  0  0  0  0  0  0  0  0  0  0  # atno 17394 bound_to 11000
  140.4133  134.7252  157.4848 LP  0  0  0  0  0  0  0  0  0  0  0  0  # atno 17395 bound_to 11000

$$$$
