AV-unprocessed.smi:910|AV-procd|sdf|4121|dock2
  -GOLD-   22720 2 23D 1   1.00000     0.00000
 Structure written by MMmdl.
 46 47  0  0  0  0  0  0  0  0  1 V2000
  145.4400  132.1880  149.9617 C   0  0  0  0  0  0  0  0  0  0  0  0
  146.1346  132.7396  151.1871 C   0  0  0  0  0  0  0  0  0  0  0  0
  147.3984  132.3525  151.5416 N   0  0  0  0  0  0  0  0  0  0  0  0
  147.7469  133.0255  152.7022 C   0  0  0  0  0  0  0  0  0  0  0  0
  148.8583  132.9456  153.3657 N   0  0  0  0  0  0  0  0  0  0  0  0
  148.9850  133.7135  154.5108 C   0  0  0  0  0  0  0  0  0  0  0  0
  148.9328  133.3272  155.6830 O   0  0  0  0  0  0  0  0  0  0  0  0
  149.1045  135.0128  154.1962 N   0  0  0  0  0  0  0  0  0  0  0  0
  149.0968  136.1160  155.1525 C   0  0  0  0  0  0  0  0  0  0  0  0
  150.2528  137.0861  154.8718 C   0  0  0  0  0  0  0  0  0  0  0  0
  149.8862  138.3743  155.3425 O   0  0  0  0  0  0  0  0  0  0  0  0
  150.3791  139.4736  154.5867 C   0  0  1  0  0  0  0  0  0  0  0  0
  149.4081  140.6743  154.6527 C   0  0  0  0  0  0  0  0  0  0  0  0
  149.2616  141.2070  156.0874 C   0  0  0  0  0  0  0  0  0  0  0  0
  150.6280  141.5840  156.6770 C   0  0  0  0  0  0  0  0  0  0  0  0
  151.6105  140.4036  156.6112 C   0  0  0  0  0  0  0  0  0  0  0  0
  151.7548  139.8651  155.1722 C   0  0  1  0  0  0  0  0  0  0  0  0
  152.7660  138.7107  155.0944 C   0  0  0  0  0  0  0  0  0  0  0  0
  146.6736  133.8244  153.0258 O   0  0  0  0  0  0  0  0  0  0  0  0
  145.7086  133.6220  152.0872 C   0  0  0  0  0  0  0  0  0  0  0  0
  144.4026  134.3737  152.2107 C   0  0  0  0  0  0  0  0  0  0  0  0
  144.5210  131.6759  150.2478 H   0  0  0  0  0  0  0  0  0  0  0  0
  146.0797  131.4795  149.4346 H   0  0  0  0  0  0  0  0  0  0  0  0
  145.1851  132.9971  149.2768 H   0  0  0  0  0  0  0  0  0  0  0  0
  147.9451  131.6843  151.0181 H   0  0  0  0  0  0  0  0  0  0  0  0
  149.1343  135.2592  153.2175 H   0  0  0  0  0  0  0  0  0  0  0  0
  148.1418  136.6439  155.1415 H   0  0  0  0  0  0  0  0  0  0  0  0
  149.2055  135.6970  156.1530 H   0  0  0  0  0  0  0  0  0  0  0  0
  151.1570  136.7527  155.3826 H   0  0  0  0  0  0  0  0  0  0  0  0
  150.4658  137.0944  153.8034 H   0  0  0  0  0  0  0  0  0  0  0  0
  150.5127  139.1667  153.5481 H   0  0  0  0  0  0  0  0  0  0  0  0
  149.7869  141.4730  154.0137 H   0  0  0  0  0  0  0  0  0  0  0  0
  148.4296  140.4175  154.2496 H   0  0  0  0  0  0  0  0  0  0  0  0
  148.6015  142.0746  156.0971 H   0  0  0  0  0  0  0  0  0  0  0  0
  148.7866  140.4514  156.7141 H   0  0  0  0  0  0  0  0  0  0  0  0
  151.0399  142.4317  156.1283 H   0  0  0  0  0  0  0  0  0  0  0  0
  150.5076  141.9144  157.7083 H   0  0  0  0  0  0  0  0  0  0  0  0
  152.5827  140.7189  156.9914 H   0  0  0  0  0  0  0  0  0  0  0  0
  151.2676  139.6070  157.2729 H   0  0  0  0  0  0  0  0  0  0  0  0
  152.1523  140.6748  154.5585 H   0  0  0  0  0  0  0  0  0  0  0  0
  152.4550  137.8649  155.7085 H   0  0  0  0  0  0  0  0  0  0  0  0
  153.7490  139.0280  155.4430 H   0  0  0  0  0  0  0  0  0  0  0  0
  152.8786  138.3554  154.0698 H   0  0  0  0  0  0  0  0  0  0  0  0
  144.1753  134.8930  151.2796 H   0  0  0  0  0  0  0  0  0  0  0  0
  144.4586  135.1102  153.0127 H   0  0  0  0  0  0  0  0  0  0  0  0
  143.5889  133.6830  152.4317 H   0  0  0  0  0  0  0  0  0  0  0  0
  1 22  1  0  0  0  0
  1 23  1  0  0  0  0
  1 24  1  0  0  0  0
  1  2  1  0  0  0  0
  2  3  1  0  0  0  0
  2 20  2  0  0  0  0
  3 25  1  0  0  0  0
  3  4  1  0  0  0  0
  4 19  1  0  0  0  0
  4  5  2  0  0  0  0
  5  6  1  0  0  0  0
  6  8  1  0  0  0  0
  6  7  2  0  0  0  0
  8  9  1  0  0  0  0
  8 26  1  0  0  0  0
  9 10  1  0  0  0  0
  9 27  1  0  0  0  0
  9 28  1  0  0  0  0
 10 11  1  0  0  0  0
 10 29  1  0  0  0  0
 10 30  1  0  0  0  0
 11 12  1  0  0  0  0
 12 17  1  0  0  0  0
 12 13  1  0  0  0  0
 12 31  1  0  0  0  0
 13 14  1  0  0  0  0
 13 32  1  0  0  0  0
 13 33  1  0  0  0  0
 14 15  1  0  0  0  0
 14 34  1  0  0  0  0
 14 35  1  0  0  0  0
 15 16  1  0  0  0  0
 15 36  1  0  0  0  0
 15 37  1  0  0  0  0
 16 17  1  0  0  0  0
 16 38  1  0  0  0  0
 16 39  1  0  0  0  0
 17 18  1  0  0  0  0
 17 40  1  0  0  0  0
 18 41  1  0  0  0  0
 18 42  1  0  0  0  0
 18 43  1  0  0  0  0
 19 20  1  0  0  0  0
 20 21  1  0  0  0  0
 21 44  1  0  0  0  0
 21 45  1  0  0  0  0
 21 46  1  0  0  0  0
M  END
> <s_m_source_file>
AV-unprocessed.smi

> <i_m_source_file_index>
910

> <i_lp_mmshare_version>
43012

> <i_f3d_flags>
0

> <s_epik_input>
W0NIM11jMW5jKG9jMVtDSDNdKVtOSF1DKD1PKVtOSF1bQ0gyXVtDSDJdT1tDQEBIXTJbQ0gyXVtDSDJdW0NIMl1bQ0gyXVtDQEhdMltDSDNd

> <s_epik_cmdline>
J2VwaWtfcHl0aG9uJywgJy1waCcsICc3LjAnLCAnLXRuJywgJzgnLCAnLW1hJywgJzIwMCcsICctbWV0YWxfYmluZGluZycsICctaW1hZScsICc8aW5maWxlLm1hZT4nLCAnLW9tYWUnLCAnPG91dGZpbGUubWFlPic=

> <r_lp_tautomer_probability>
0.107061

> <r_epik_Ionization_Penalty>
0.727192

> <r_epik_Ionization_Penalty_Charging>
0.726719

> <r_epik_Ionization_Penalty_Neutral>
0.000473387

> <r_epik_State_Penalty>
2.53712

> <r_epik_Charging_Adjusted_Penalty>
3.26383

> <i_epik_Tot_Q>
0

> <i_epik_Tot_abs_Q>
0

> <r_epik_Metal_State_Penalty>
3.71015

> <b_epik_Metal_Only>
0

> <s_lp_Force_Field>
OPLS_2005

> <r_lp_Energy>
28.3743

> <b_lp_Chiralities_Consistent>
1

> <s_lp_Variant>
AV-unprocessed.smi:910-6

> <Gold.Version>
5.8.1

> <Gold.Id.Protein>
6NUR|6NUR_protein|mol2

> <Gold.PLP.Fitness>
39.3917

> <Gold.PLP.PLP>
-36.3865

> <Gold.PLP.part.hbond>
-2.0000

> <Gold.PLP.part.metal>
0.0000

> <Gold.PLP.part.buried>
-3.1359

> <Gold.PLP.part.nonpolar>
-31.9973

> <Gold.PLP.part.repulsive>
0.4268

> <Gold.PLP.ligand.clash>
0.0000

> <Gold.PLP.ligand.torsion>
1.5139

> <Gold.PLP.Chemscore.Hbond>
2.0000

> <Gold.PLP.Chemscore.CHOScore>
0.0000

> <Gold.PLP.Chemscore.Metal>
0.0000

> <Gold.Chemscore.Hbonds>
donor molecule, donor type, donor heavy atom, donor atom, acceptor molecule, acceptor atom, score
      L1  H     3    25       P1 10747  0.96
      L1  H     8    26       P1  7948  0.95

> <Gold.PLP.Chemscore.Internal.Correction>
0.0330

> <Gold.Rescore>
     Score         DG    S(hbond)    S(metal)    S(lipo)     H(rot)  DE(clash)    DE(int)     intcor
     14.87     -16.52       1.83        0.00      78.48       1.66       0.01       1.64       ----

> <Gold.Chemscore.Fitness>
14.8687

> <Gold.Chemscore.DG>
-16.5156

> <Gold.Chemscore.ZeroCoef>
-5.4800

> <Gold.Chemscore.Hbond>
1.8253

> <Gold.Chemscore.Metal>
0.0000

> <Gold.Chemscore.Lipo>
78.4850

> <Gold.Chemscore.Internal_Hbond>
0.0000

> <Gold.Chemscore.DEClash>
0.0089

> <Gold.Chemscore.DEInternal>
1.6380

> <Gold.Chemscore.Rot>
1.6576

> <Gold.Chemscore.Internal.Correction>
   9.000000E+99

> <Gold.Chemscore.Hbonds>
donor molecule, donor type, donor heavy atom, donor atom, acceptor molecule, acceptor atom, score
      L1  H     3    25       P1 10747  0.91
      L1  H     8    26       P1  7948  0.21

> <Gold.Chemscore.Hbond.Weighted>
-6.0964

> <Gold.Chemscore.Metal.Weighted>
-0.0000

> <Gold.Chemscore.Lipo.Weighted>
-9.1827

> <Gold.Chemscore.Internal_Hbond.Weighted>
0.0000

> <Gold.Chemscore.DEClash.Weighted>
0.0089

> <Gold.Chemscore.DEInternal.Weighted>
1.6380

> <Gold.Chemscore.Rot.Weighted>
4.2436

> <Gold.Chemscore.Internal.Correction.Weighted>
   9.000000E+99

> <Gold.Protein.RotatedTorsions>
[ 6907 6896 6895 6894 ] final  -76.67 input  -60.11 | X-H torsion
[ 7974 7965 7964 7962 ] final  -71.95 input  175.53 | X-H torsion
[ 8008 7997 7996 7995 ] final  -65.81 input   59.86 | X-H torsion
[ 10167 10162 10161 10158 ] final  139.79 input  -65.29 | X-H torsion
[ 10718 10713 10712 10709 ] final  169.26 input   66.30 | X-H torsion
[ 10763 10752 10751 10750 ] final   38.37 input  -60.55 | X-H torsion
[ 11005 11000 10999 10996 ] final -137.18 input  -57.11 | X-H torsion

> <Gold.Protein.ActiveResidues>
 VAL166  LYS551  ARG553  GLY616  TRP617  ASP618  TYR619  PRO620  LYS621  CYS622 
 ASP623  PHE694  ASN695  SER759  ASP760  ASP761  ALA762  ILE779  LEU786  VAL792 
 PHE793  MET794  SER795  GLU796  ALA797  LYS798  CYS799  TRP800  GLU811  SER814 

> <Gold.Protein.RotatedAtoms>
  150.7021  134.4538  159.5348 H   0  0  0  0  0  0  0  0  0  0  0  0  # atno 6907 bound_to 6896
  152.2225  134.8396  160.0493 H   0  0  0  0  0  0  0  0  0  0  0  0  # atno 6908 bound_to 6896
  151.9241  133.3558  159.3944 H   0  0  0  0  0  0  0  0  0  0  0  0  # atno 6909 bound_to 6896
  145.6715  140.9219  143.0880 H   0  0  0  0  0  0  0  0  0  0  0  0  # atno 7974 bound_to 7965
  154.4695  140.0925  156.7107 H   0  0  0  0  0  0  0  0  0  0  0  0  # atno 8008 bound_to 7997
  155.4765  140.3466  155.4315 H   0  0  0  0  0  0  0  0  0  0  0  0  # atno 8009 bound_to 7997
  156.1014  140.1423  156.9451 H   0  0  0  0  0  0  0  0  0  0  0  0  # atno 8010 bound_to 7997
  139.5068  144.6273  151.5904 H   0  0  0  0  0  0  0  0  0  0  0  0  # atno 10167 bound_to 10162
  157.0252  131.0243  151.2762 H   0  0  0  0  0  0  0  0  0  0  0  0  # atno 10718 bound_to 10713
  153.0003  135.6251  154.2293 H   0  0  0  0  0  0  0  0  0  0  0  0  # atno 10763 bound_to 10752
  154.2035  135.2803  155.2984 H   0  0  0  0  0  0  0  0  0  0  0  0  # atno 10764 bound_to 10752
  154.5664  135.5690  153.7113 H   0  0  0  0  0  0  0  0  0  0  0  0  # atno 10765 bound_to 10752
  140.8735  134.2021  157.4636 H   0  0  0  0  0  0  0  0  0  0  0  0  # atno 11005 bound_to 11000
  144.7055  139.8578  143.7431 LP  0  0  0  0  0  0  0  0  0  0  0  0  # atno 17320 bound_to 7965
  146.1041  139.4039  143.0328 LP  0  0  0  0  0  0  0  0  0  0  0  0  # atno 17321 bound_to 7965
  140.5995  143.9636  150.6376 LP  0  0  0  0  0  0  0  0  0  0  0  0  # atno 17342 bound_to 10162
  140.2843  143.3368  152.1122 LP  0  0  0  0  0  0  0  0  0  0  0  0  # atno 17343 bound_to 10162
  157.5219  130.8003  149.7819 LP  0  0  0  0  0  0  0  0  0  0  0  0  # atno 17370 bound_to 10713
  156.0088  130.3843  150.2336 LP  0  0  0  0  0  0  0  0  0  0  0  0  # atno 17371 bound_to 10713
  139.8714  134.9785  156.5000 LP  0  0  0  0  0  0  0  0  0  0  0  0  # atno 17394 bound_to 11000
  140.8545  133.8106  155.9202 LP  0  0  0  0  0  0  0  0  0  0  0  0  # atno 17395 bound_to 11000

$$$$
