AV-unprocessed.smi:2221|AV-procd|sdf|8981|dock4
  -GOLD-   2272012193D 1   1.00000     0.00000
 Structure written by MMmdl.
 54 55  0  0  0  0  0  0  0  0  3 V2000
  152.1881  144.2841  160.4138 C   0  0  0  0  0  0  0  0  0  0  0  0
  151.8425  143.1039  159.5305 C   0  0  0  0  0  0  0  0  0  0  0  0
  152.4718  141.8578  159.7136 C   0  0  0  0  0  0  0  0  0  0  0  0
  152.1055  140.7966  158.8629 C   0  0  0  0  0  0  0  0  0  0  0  0
  152.7455  139.4312  159.0027 C   0  0  0  0  0  0  0  0  0  0  0  0
  151.1768  140.9193  157.8901 N   0  0  0  0  0  0  0  0  0  0  0  0
  150.5640  142.1148  157.7053 C   0  0  0  0  0  0  0  0  0  0  0  0
  149.5772  142.3477  156.7109 N   0  0  0  0  0  0  0  0  0  0  0  0
  148.6870  141.4754  156.2071 C   0  0  0  0  0  0  0  0  0  0  0  0
  148.5788  140.2947  156.5379 O   0  0  0  0  0  0  0  0  0  0  0  0
  147.8949  142.0582  155.2951 N   0  0  0  0  0  0  0  0  0  0  0  0
  146.8200  141.3902  154.5634 C   0  0  0  0  0  0  0  0  0  0  0  0
  147.3157  140.5905  153.3375 C   0  0  0  0  0  0  0  0  0  0  0  0
  146.3777  139.5157  152.9226 N   0  3  2  0  0  0  0  0  0  0  0  0
  146.0387  138.5944  154.0370 C   0  0  0  0  0  0  0  0  0  0  0  0
  144.9768  137.5668  153.6028 C   0  0  0  0  0  0  0  0  0  0  0  0
  145.4388  136.7398  152.3795 C   0  0  2  0  0  0  0  0  0  0  0  0
  146.5665  135.7987  152.6856 N   0  3  0  0  0  0  0  0  0  0  0  0
  146.5369  134.5525  151.8797 C   0  0  0  0  0  0  0  0  0  0  0  0
  146.6962  135.4711  154.1273 C   0  0  0  0  0  0  0  0  0  0  0  0
  145.7729  137.7549  151.2606 C   0  0  0  0  0  0  0  0  0  0  0  0
  146.8279  138.7820  151.7111 C   0  0  0  0  0  0  0  0  0  0  0  0
  150.8775  143.2320  158.5111 C   0  0  0  0  0  0  0  0  0  0  0  0
  153.1427  144.1313  160.9185 H   0  0  0  0  0  0  0  0  0  0  0  0
  151.4174  144.4241  161.1722 H   0  0  0  0  0  0  0  0  0  0  0  0
  152.2599  145.1973  159.8225 H   0  0  0  0  0  0  0  0  0  0  0  0
  153.2153  141.7193  160.4851 H   0  0  0  0  0  0  0  0  0  0  0  0
  153.6570  139.4830  159.5988 H   0  0  0  0  0  0  0  0  0  0  0  0
  153.0056  139.0263  158.0241 H   0  0  0  0  0  0  0  0  0  0  0  0
  152.0566  138.7404  159.4892 H   0  0  0  0  0  0  0  0  0  0  0  0
  149.5409  143.2897  156.3508 H   0  0  0  0  0  0  0  0  0  0  0  0
  148.0631  143.0285  155.0721 H   0  0  0  0  0  0  0  0  0  0  0  0
  146.3126  140.7239  155.2612 H   0  0  0  0  0  0  0  0  0  0  0  0
  146.0745  142.1247  154.2548 H   0  0  0  0  0  0  0  0  0  0  0  0
  147.5179  141.2595  152.4999 H   0  0  0  0  0  0  0  0  0  0  0  0
  148.2748  140.1396  153.5955 H   0  0  0  0  0  0  0  0  0  0  0  0
  146.9406  138.0893  154.3857 H   0  0  0  0  0  0  0  0  0  0  0  0
  145.6525  139.1699  154.8794 H   0  0  0  0  0  0  0  0  0  0  0  0
  144.6850  136.9364  154.4411 H   0  0  0  0  0  0  0  0  0  0  0  0
  144.0660  138.1057  153.3365 H   0  0  0  0  0  0  0  0  0  0  0  0
  144.5972  136.1305  152.0456 H   0  0  0  0  0  0  0  0  0  0  0  0
  145.5832  134.0353  151.9923 H   0  0  0  0  0  0  0  0  0  0  0  0
  147.3283  133.8680  152.1874 H   0  0  0  0  0  0  0  0  0  0  0  0
  146.7051  134.7498  150.8219 H   0  0  0  0  0  0  0  0  0  0  0  0
  145.7604  135.0770  154.5260 H   0  0  0  0  0  0  0  0  0  0  0  0
  146.9887  136.3402  154.7145 H   0  0  0  0  0  0  0  0  0  0  0  0
  147.4723  134.7224  154.2905 H   0  0  0  0  0  0  0  0  0  0  0  0
  146.0819  137.2658  150.3384 H   0  0  0  0  0  0  0  0  0  0  0  0
  144.8622  138.2929  150.9931 H   0  0  0  0  0  0  0  0  0  0  0  0
  147.0060  139.4855  150.8980 H   0  0  0  0  0  0  0  0  0  0  0  0
  147.7790  138.2866  151.9125 H   0  0  0  0  0  0  0  0  0  0  0  0
  150.3817  144.1792  158.3538 H   0  0  0  0  0  0  0  0  0  0  0  0
  147.4219  136.2719  152.4322 H   0  0  0  0  0  0  0  0  0  0  0  0
  145.5152  139.9823  152.6791 H   0  0  0  0  0  0  0  0  0  0  0  0
  1  2  1  0  0  0  0
  1 24  1  0  0  0  0
  1 25  1  0  0  0  0
  1 26  1  0  0  0  0
  2 23  1  0  0  0  0
  2  3  2  0  0  0  0
  3  4  1  0  0  0  0
  3 27  1  0  0  0  0
  4  5  1  0  0  0  0
  4  6  2  0  0  0  0
  5 28  1  0  0  0  0
  5 29  1  0  0  0  0
  5 30  1  0  0  0  0
  6  7  1  0  0  0  0
  7  8  1  0  0  0  0
  7 23  2  0  0  0  0
  8  9  1  0  0  0  0
  8 31  1  0  0  0  0
  9 10  2  0  0  0  0
  9 11  1  0  0  0  0
 11 12  1  0  0  0  0
 11 32  1  0  0  0  0
 12 13  1  0  0  0  0
 12 33  1  0  0  0  0
 12 34  1  0  0  0  0
 13 14  1  0  0  0  0
 13 35  1  0  0  0  0
 13 36  1  0  0  0  0
 14 22  1  0  0  0  0
 14 15  1  0  0  0  0
 14 54  1  0  0  0  0
 15 16  1  0  0  0  0
 15 37  1  0  0  0  0
 15 38  1  0  0  0  0
 16 17  1  0  0  0  0
 16 39  1  0  0  0  0
 16 40  1  0  0  0  0
 17 18  1  0  0  0  0
 17 21  1  0  0  0  0
 17 41  1  0  0  0  0
 18 19  1  0  0  0  0
 18 20  1  0  0  0  0
 18 53  1  0  0  0  0
 19 42  1  0  0  0  0
 19 43  1  0  0  0  0
 19 44  1  0  0  0  0
 20 45  1  0  0  0  0
 20 46  1  0  0  0  0
 20 47  1  0  0  0  0
 21 22  1  0  0  0  0
 21 48  1  0  0  0  0
 21 49  1  0  0  0  0
 22 50  1  0  0  0  0
 22 51  1  0  0  0  0
 23 52  1  0  0  0  0
M  CHG  1  14   1
M  CHG  1  18   1
M  END
> <s_m_source_file>
AV-unprocessed.smi

> <i_m_source_file_index>
2221

> <i_lp_mmshare_version>
43012

> <i_f3d_flags>
0

> <s_epik_input>
W0NIM11jMVtjSF1jKFtDSDNdKW5jKFtjSF0xKVtOSF1DKD1PKVtOSF1bQ0gyXVtDSDJdTjJbQ0gyXVtDSDJdW0NIXShOKFtDSDNdKVtDSDNdKVtDSDJdW0NIMl0y

> <s_epik_cmdline>
J2VwaWtfcHl0aG9uJywgJy1waCcsICc3LjAnLCAnLXRuJywgJzgnLCAnLW1hJywgJzIwMCcsICctbWV0YWxfYmluZGluZycsICctaW1hZScsICc8aW5maWxlLm1hZT4nLCAnLW9tYWUnLCAnPG91dGZpbGUubWFlPic=

> <r_epik_Ionization_Penalty>
0.206417

> <r_epik_Ionization_Penalty_Charging>
0.206231

> <r_epik_Ionization_Penalty_Neutral>
0.00018626

> <r_epik_State_Penalty>
0.176025

> <r_epik_Charging_Adjusted_Penalty>
0.382256

> <i_epik_Tot_Q>
2

> <i_epik_Tot_abs_Q>
2

> <r_epik_Metal_State_Penalty>
0.176034

> <b_epik_Metal_Only>
0

> <s_lp_Force_Field>
OPLS_2005

> <r_lp_Energy>
43.913

> <b_lp_Chiralities_Consistent>
1

> <s_lp_Variant>
AV-unprocessed.smi:2221-2

> <Gold.Version>
5.8.1

> <Gold.Id.Protein>
6NUR|6NUR_protein|mol2

> <Gold.PLP.Fitness>
51.5089

> <Gold.PLP.PLP>
-36.7728

> <Gold.PLP.part.hbond>
-3.8569

> <Gold.PLP.part.metal>
0.0000

> <Gold.PLP.part.buried>
1.0586

> <Gold.PLP.part.nonpolar>
-34.1476

> <Gold.PLP.part.repulsive>
0.1942

> <Gold.PLP.ligand.clash>
0.0000

> <Gold.PLP.ligand.torsion>
1.4089

> <Gold.PLP.Chemscore.Hbond>
5.8160

> <Gold.PLP.Chemscore.CHOScore>
0.0000

> <Gold.PLP.Chemscore.Metal>
0.0000

> <Gold.Chemscore.Hbonds>
donor molecule, donor type, donor heavy atom, donor atom, acceptor molecule, acceptor atom, score
      L1  H     8    31       P1  8028  1.00
      L1  H    11    32       P1  8028  0.94
      L1  H    14    54       P1 10175  2.00
      L1  H    18    53       P1  7948  1.98

> <Gold.PLP.Chemscore.Internal.Correction>
0.1060

> <Gold.Rescore>
     Score         DG    S(hbond)    S(metal)    S(lipo)     H(rot)  DE(clash)    DE(int)     intcor
     21.84     -25.60       3.83        0.00      99.40       1.68       1.60       2.16       ----

> <Gold.Chemscore.Fitness>
21.8369

> <Gold.Chemscore.DG>
-25.5978

> <Gold.Chemscore.ZeroCoef>
-5.4800

> <Gold.Chemscore.Hbond>
3.8291

> <Gold.Chemscore.Metal>
0.0000

> <Gold.Chemscore.Lipo>
99.3985

> <Gold.Chemscore.Internal_Hbond>
0.0000

> <Gold.Chemscore.DEClash>
1.5963

> <Gold.Chemscore.DEInternal>
2.1646

> <Gold.Chemscore.Rot>
1.6800

> <Gold.Chemscore.Internal.Correction>
   9.000000E+99

> <Gold.Chemscore.Hbonds>
donor molecule, donor type, donor heavy atom, donor atom, acceptor molecule, acceptor atom, score
      L1  H     8    31       P1  8028  0.99
      L1  H    11    32       P1  8028  0.84
      L1  H    14    54       P1 10175  0.97
      L1  H    18    53       P1  7948  0.94

> <Gold.Chemscore.Hbond.Weighted>
-12.7891

> <Gold.Chemscore.Metal.Weighted>
-0.0000

> <Gold.Chemscore.Lipo.Weighted>
-11.6296

> <Gold.Chemscore.Internal_Hbond.Weighted>
0.0000

> <Gold.Chemscore.DEClash.Weighted>
1.5963

> <Gold.Chemscore.DEInternal.Weighted>
2.1646

> <Gold.Chemscore.Rot.Weighted>
4.3009

> <Gold.Chemscore.Internal.Correction.Weighted>
   9.000000E+99

> <Gold.Protein.RotatedTorsions>
[ 6907 6896 6895 6894 ] final  -39.99 input  -60.11 | X-H torsion
[ 7974 7965 7964 7962 ] final -174.90 input  175.53 | X-H torsion
[ 8008 7997 7996 7995 ] final   95.67 input   59.86 | X-H torsion
[ 10167 10162 10161 10158 ] final -133.28 input  -65.29 | X-H torsion
[ 10718 10713 10712 10709 ] final -144.48 input   66.30 | X-H torsion
[ 10763 10752 10751 10750 ] final -111.33 input  -60.55 | X-H torsion
[ 11005 11000 10999 10996 ] final  165.52 input  -57.11 | X-H torsion

> <Gold.Protein.ActiveResidues>
 VAL166  LYS551  ARG553  GLY616  TRP617  ASP618  TYR619  PRO620  LYS621  CYS622 
 ASP623  PHE694  ASN695  SER759  ASP760  ASP761  ALA762  ILE779  LEU786  VAL792 
 PHE793  MET794  SER795  GLU796  ALA797  LYS798  CYS799  TRP800  GLU811  SER814 

> <Gold.Protein.RotatedAtoms>
  150.9837  134.9187  159.7858 H   0  0  0  0  0  0  0  0  0  0  0  0  # atno 6907 bound_to 6896
  152.5230  134.3375  159.9215 H   0  0  0  0  0  0  0  0  0  0  0  0  # atno 6908 bound_to 6896
  151.3382  133.3932  159.2703 H   0  0  0  0  0  0  0  0  0  0  0  0  # atno 6909 bound_to 6896
  144.7130  140.1401  143.6392 H   0  0  0  0  0  0  0  0  0  0  0  0  # atno 7974 bound_to 7965
  156.0713  140.3283  155.7580 H   0  0  0  0  0  0  0  0  0  0  0  0  # atno 8008 bound_to 7997
  155.5300  140.0592  157.2908 H   0  0  0  0  0  0  0  0  0  0  0  0  # atno 8009 bound_to 7997
  154.4532  140.1929  156.0475 H   0  0  0  0  0  0  0  0  0  0  0  0  # atno 8010 bound_to 7997
  139.8999  143.6620  152.2597 H   0  0  0  0  0  0  0  0  0  0  0  0  # atno 10167 bound_to 10162
  156.3706  130.7786  151.1966 H   0  0  0  0  0  0  0  0  0  0  0  0  # atno 10718 bound_to 10713
  154.8294  135.4531  154.1022 H   0  0  0  0  0  0  0  0  0  0  0  0  # atno 10763 bound_to 10752
  153.2308  135.6905  153.7898 H   0  0  0  0  0  0  0  0  0  0  0  0  # atno 10764 bound_to 10752
  153.7281  135.3331  155.3257 H   0  0  0  0  0  0  0  0  0  0  0  0  # atno 10765 bound_to 10752
  140.2570  134.7932  157.3555 H   0  0  0  0  0  0  0  0  0  0  0  0  # atno 11005 bound_to 11000
  145.9209  139.2545  143.1382 LP  0  0  0  0  0  0  0  0  0  0  0  0  # atno 17320 bound_to 7965
  145.9621  140.8827  143.0205 LP  0  0  0  0  0  0  0  0  0  0  0  0  # atno 17321 bound_to 7965
  139.7034  144.7631  151.1234 LP  0  0  0  0  0  0  0  0  0  0  0  0  # atno 17342 bound_to 10162
  140.7709  143.5426  150.9295 LP  0  0  0  0  0  0  0  0  0  0  0  0  # atno 17343 bound_to 10162
  157.7483  131.0373  150.4450 LP  0  0  0  0  0  0  0  0  0  0  0  0  # atno 17370 bound_to 10713
  156.4677  130.4046  149.6537 LP  0  0  0  0  0  0  0  0  0  0  0  0  # atno 17371 bound_to 10713
  140.1502  134.4860  155.7967 LP  0  0  0  0  0  0  0  0  0  0  0  0  # atno 17394 bound_to 11000
  141.2195  133.6859  156.7365 LP  0  0  0  0  0  0  0  0  0  0  0  0  # atno 17395 bound_to 11000

$$$$
