AV-unprocessed.smi:1867|AV-procd|sdf|7571|dock6
  -GOLD-   22720 9283D 1   1.00000     0.00000
 Structure written by MMmdl.
 53 56  0  0  0  0  0  0  0  0  3 V2000
  146.5945  139.4571  154.0617 O   0  0  0  0  0  0  0  0  0  0  0  0
  147.4501  138.9897  153.3145 C   0  0  0  0  0  0  0  0  0  0  0  0
  148.7631  139.2913  153.3644 N   0  0  0  0  0  0  0  0  0  0  0  0
  149.4456  140.1514  154.2674 C   0  0  0  0  0  0  0  0  0  0  0  0
  150.7265  139.7561  154.7080 C   0  0  0  0  0  0  0  0  0  0  0  0
  151.4391  140.5680  155.6140 C   0  0  0  0  0  0  0  0  0  0  0  0
  150.8585  141.7691  156.0843 C   0  0  0  0  0  0  0  0  0  0  0  0
  151.5116  142.6311  156.9853 N   0  0  0  0  0  0  0  0  0  0  0  0
  151.0038  143.9640  157.2685 C   0  0  0  0  0  0  0  0  0  0  0  0
  151.8965  144.4840  158.3940 C   0  0  0  0  0  0  0  0  0  0  0  0
  152.2415  143.2163  159.1761 C   0  0  0  0  0  0  0  0  0  0  0  0
  152.2806  142.1155  158.1093 C   0  0  0  0  0  0  0  0  0  0  0  0
  149.6242  142.1062  155.6405 N   0  3  0  0  0  0  0  0  0  0  0  0
  148.9078  141.3596  154.7727 C   0  0  0  0  0  0  0  0  0  0  0  0
  147.1176  138.1309  152.3340 N   0  0  0  0  0  0  0  0  0  0  0  0
  145.7932  137.5996  152.0027 C   0  0  1  0  0  0  0  0  0  0  0  0
  145.8381  136.5243  150.9242 C   0  0  0  0  0  0  0  0  0  0  0  0
  144.4952  135.8068  151.0910 C   0  0  0  0  0  0  0  0  0  0  0  0
  144.0931  135.9748  152.5089 N   0  3  1  0  0  0  0  0  0  0  0  0
  143.8424  134.6932  153.2213 C   0  0  0  0  0  0  0  0  0  0  0  0
  143.8102  134.9078  154.7418 C   0  0  0  0  0  0  0  0  0  0  0  0
  145.1587  135.4359  155.2668 C   0  0  0  0  0  0  0  0  0  0  0  0
  145.9782  136.1498  154.1749 C   0  0  0  0  0  0  0  0  0  0  0  0
  145.0682  136.8923  153.1657 C   0  0  1  0  0  0  0  0  0  0  0  0
  149.3365  138.8824  152.6417 H   0  0  0  0  0  0  0  0  0  0  0  0
  151.1687  138.8375  154.3507 H   0  0  0  0  0  0  0  0  0  0  0  0
  152.4244  140.2617  155.9334 H   0  0  0  0  0  0  0  0  0  0  0  0
  151.0464  144.6082  156.3897 H   0  0  0  0  0  0  0  0  0  0  0  0
  149.9666  143.8962  157.6000 H   0  0  0  0  0  0  0  0  0  0  0  0
  152.8061  144.9165  157.9749 H   0  0  0  0  0  0  0  0  0  0  0  0
  151.4110  145.2460  159.0042 H   0  0  0  0  0  0  0  0  0  0  0  0
  153.1758  143.3001  159.7317 H   0  0  0  0  0  0  0  0  0  0  0  0
  151.4457  143.0033  159.8910 H   0  0  0  0  0  0  0  0  0  0  0  0
  151.8712  141.1825  158.4981 H   0  0  0  0  0  0  0  0  0  0  0  0
  153.3041  141.9317  157.7810 H   0  0  0  0  0  0  0  0  0  0  0  0
  147.9347  141.7601  154.5326 H   0  0  0  0  0  0  0  0  0  0  0  0
  147.8724  137.8257  151.7359 H   0  0  0  0  0  0  0  0  0  0  0  0
  145.1618  138.4084  151.6290 H   0  0  0  0  0  0  0  0  0  0  0  0
  145.9764  136.9318  149.9220 H   0  0  0  0  0  0  0  0  0  0  0  0
  146.6547  135.8269  151.1183 H   0  0  0  0  0  0  0  0  0  0  0  0
  143.7371  136.2852  150.4701 H   0  0  0  0  0  0  0  0  0  0  0  0
  144.5562  134.7627  150.7809 H   0  0  0  0  0  0  0  0  0  0  0  0
  142.8988  134.2721  152.8728 H   0  0  0  0  0  0  0  0  0  0  0  0
  144.6209  133.9677  152.9783 H   0  0  0  0  0  0  0  0  0  0  0  0
  143.0206  135.6212  154.9818 H   0  0  0  0  0  0  0  0  0  0  0  0
  143.5485  133.9813  155.2540 H   0  0  0  0  0  0  0  0  0  0  0  0
  144.9733  136.1151  156.0997 H   0  0  0  0  0  0  0  0  0  0  0  0
  145.7506  134.6148  155.6725 H   0  0  0  0  0  0  0  0  0  0  0  0
  146.6809  136.8335  154.6514 H   0  0  0  0  0  0  0  0  0  0  0  0
  146.5844  135.4165  153.6411 H   0  0  0  0  0  0  0  0  0  0  0  0
  144.4988  137.6347  153.7269 H   0  0  0  0  0  0  0  0  0  0  0  0
  143.2135  136.4710  152.4950 H   0  0  0  0  0  0  0  0  0  0  0  0
  149.2085  142.9723  155.9835 H   0  0  0  0  0  0  0  0  0  0  0  0
  1  2  2  0  0  0  0
  2  3  1  0  0  0  0
  2 15  1  0  0  0  0
  3  4  1  0  0  0  0
  3 25  1  0  0  0  0
  4 14  1  0  0  0  0
  4  5  2  0  0  0  0
  5  6  1  0  0  0  0
  5 26  1  0  0  0  0
  6  7  2  0  0  0  0
  6 27  1  0  0  0  0
  7  8  1  0  0  0  0
  7 13  1  0  0  0  0
  8 12  1  0  0  0  0
  8  9  1  0  0  0  0
  9 10  1  0  0  0  0
  9 28  1  0  0  0  0
  9 29  1  0  0  0  0
 10 11  1  0  0  0  0
 10 30  1  0  0  0  0
 10 31  1  0  0  0  0
 11 12  1  0  0  0  0
 11 32  1  0  0  0  0
 11 33  1  0  0  0  0
 12 34  1  0  0  0  0
 12 35  1  0  0  0  0
 13 14  2  0  0  0  0
 13 53  1  0  0  0  0
 14 36  1  0  0  0  0
 15 16  1  0  0  0  0
 15 37  1  0  0  0  0
 16 24  1  0  0  0  0
 16 17  1  0  0  0  0
 16 38  1  0  0  0  0
 17 18  1  0  0  0  0
 17 39  1  0  0  0  0
 17 40  1  0  0  0  0
 18 19  1  0  0  0  0
 18 41  1  0  0  0  0
 18 42  1  0  0  0  0
 19 24  1  0  0  0  0
 19 20  1  0  0  0  0
 19 52  1  0  0  0  0
 20 21  1  0  0  0  0
 20 43  1  0  0  0  0
 20 44  1  0  0  0  0
 21 22  1  0  0  0  0
 21 45  1  0  0  0  0
 21 46  1  0  0  0  0
 22 23  1  0  0  0  0
 22 47  1  0  0  0  0
 22 48  1  0  0  0  0
 23 24  1  0  0  0  0
 23 49  1  0  0  0  0
 23 50  1  0  0  0  0
 24 51  1  0  0  0  0
M  CHG  1  13   1
M  CHG  1  19   1
M  END
> <s_m_source_file>
AV-unprocessed.smi

> <i_m_source_file_index>
1867

> <i_lp_mmshare_version>
43012

> <i_f3d_flags>
0

> <s_epik_input>
W0NIMl0xW0NIMl1bQ0gyXVtDSDJdW0NASF0oTjEyKVtDQEBIXShbQ0gyXVtDSDJdMilbTkhdQyg9TylbTkhdYzNbY0hdW2NIXWMobltjSF0zKU40W0NIMl1bQ0gyXVtDSDJdW0NIMl00

> <s_epik_cmdline>
J2VwaWtfcHl0aG9uJywgJy1waCcsICc3LjAnLCAnLXRuJywgJzgnLCAnLW1hJywgJzIwMCcsICctbWV0YWxfYmluZGluZycsICctaW1hZScsICc8aW5maWxlLm1hZT4nLCAnLW9tYWUnLCAnPG91dGZpbGUubWFlPic=

> <r_lp_tautomer_probability>
0.999994

> <r_epik_Ionization_Penalty>
1.27347

> <r_epik_Ionization_Penalty_Charging>
1.27345

> <r_epik_Ionization_Penalty_Neutral>
1.96458e-05

> <r_epik_State_Penalty>
1.34393

> <r_epik_Charging_Adjusted_Penalty>
2.61738

> <i_epik_Tot_Q>
2

> <i_epik_Tot_abs_Q>
2

> <r_epik_Metal_State_Penalty>
1.41094

> <b_epik_Metal_Only>
0

> <s_lp_Force_Field>
OPLS_2005

> <r_lp_Energy>
85.1711

> <b_lp_Chiralities_Consistent>
1

> <s_lp_Variant>
AV-unprocessed.smi:1867-12

> <Gold.Version>
5.8.1

> <Gold.Id.Protein>
6NUR|6NUR_protein|mol2

> <Gold.PLP.Fitness>
50.7446

> <Gold.PLP.PLP>
-42.8486

> <Gold.PLP.part.hbond>
-3.1845

> <Gold.PLP.part.metal>
0.0000

> <Gold.PLP.part.buried>
-0.5512

> <Gold.PLP.part.nonpolar>
-38.8858

> <Gold.PLP.part.repulsive>
0.4853

> <Gold.PLP.ligand.clash>
0.0000

> <Gold.PLP.ligand.torsion>
0.6515

> <Gold.PLP.Chemscore.Hbond>
3.0000

> <Gold.PLP.Chemscore.CHOScore>
0.0000

> <Gold.PLP.Chemscore.Metal>
0.0000

> <Gold.Chemscore.Hbonds>
donor molecule, donor type, donor heavy atom, donor atom, acceptor molecule, acceptor atom, score
      L1  H     3    25       P1  7957  0.29
      L1  H    13    53       P1  8028  1.86
      L1  H    15    37       P1  7948  0.61

> <Gold.PLP.Chemscore.Internal.Correction>
0.1990

> <Gold.Rescore>
     Score         DG    S(hbond)    S(metal)    S(lipo)     H(rot)  DE(clash)    DE(int)     intcor
     19.25     -21.92       1.94        0.00     106.91       1.00       1.61       1.06       ----

> <Gold.Chemscore.Fitness>
19.2508

> <Gold.Chemscore.DG>
-21.9207

> <Gold.Chemscore.ZeroCoef>
-5.4800

> <Gold.Chemscore.Hbond>
1.9439

> <Gold.Chemscore.Metal>
0.0000

> <Gold.Chemscore.Lipo>
106.9080

> <Gold.Chemscore.Internal_Hbond>
0.0000

> <Gold.Chemscore.DEClash>
1.6098

> <Gold.Chemscore.DEInternal>
1.0601

> <Gold.Chemscore.Rot>
1.0000

> <Gold.Chemscore.Internal.Correction>
   9.000000E+99

> <Gold.Chemscore.Hbonds>
donor molecule, donor type, donor heavy atom, donor atom, acceptor molecule, acceptor atom, score
      L1  H     3    25       P1  7957  0.26
      L1  H    13    53       P1  8028  0.91
      L1  H    15    37       P1  7948  0.62

> <Gold.Chemscore.Hbond.Weighted>
-6.4925

> <Gold.Chemscore.Metal.Weighted>
-0.0000

> <Gold.Chemscore.Lipo.Weighted>
-12.5082

> <Gold.Chemscore.Internal_Hbond.Weighted>
0.0000

> <Gold.Chemscore.DEClash.Weighted>
1.6098

> <Gold.Chemscore.DEInternal.Weighted>
1.0601

> <Gold.Chemscore.Rot.Weighted>
2.5600

> <Gold.Chemscore.Internal.Correction.Weighted>
   9.000000E+99

> <Gold.Protein.RotatedTorsions>
[ 6907 6896 6895 6894 ] final -166.47 input  -60.11 | X-H torsion
[ 7974 7965 7964 7962 ] final  -92.38 input  175.53 | X-H torsion
[ 8008 7997 7996 7995 ] final   78.07 input   59.86 | X-H torsion
[ 10167 10162 10161 10158 ] final   41.93 input  -65.29 | X-H torsion
[ 10718 10713 10712 10709 ] final   69.15 input   66.30 | X-H torsion
[ 10763 10752 10751 10750 ] final  -98.68 input  -60.55 | X-H torsion
[ 11005 11000 10999 10996 ] final    9.93 input  -57.11 | X-H torsion

> <Gold.Protein.ActiveResidues>
 VAL166  LYS551  ARG553  GLY616  TRP617  ASP618  TYR619  PRO620  LYS621  CYS622 
 ASP623  PHE694  ASN695  SER759  ASP760  ASP761  ALA762  ILE779  LEU786  VAL792 
 PHE793  MET794  SER795  GLU796  ALA797  LYS798  CYS799  TRP800  GLU811  SER814 

> <Gold.Protein.RotatedAtoms>
  151.4441  133.3635  159.2785 H   0  0  0  0  0  0  0  0  0  0  0  0  # atno 6907 bound_to 6896
  150.9137  134.8555  159.7453 H   0  0  0  0  0  0  0  0  0  0  0  0  # atno 6908 bound_to 6896
  152.4945  134.4373  159.9584 H   0  0  0  0  0  0  0  0  0  0  0  0  # atno 6909 bound_to 6896
  145.4005  140.9537  143.2290 H   0  0  0  0  0  0  0  0  0  0  0  0  # atno 7974 bound_to 7965
  155.8505  140.3458  155.5690 H   0  0  0  0  0  0  0  0  0  0  0  0  # atno 8008 bound_to 7997
  155.8043  140.0889  157.1959 H   0  0  0  0  0  0  0  0  0  0  0  0  # atno 8009 bound_to 7997
  154.4007  140.1459  156.3299 H   0  0  0  0  0  0  0  0  0  0  0  0  # atno 8010 bound_to 7997
  140.3594  144.2248  150.6139 H   0  0  0  0  0  0  0  0  0  0  0  0  # atno 10167 bound_to 10162
  157.6330  130.9411  150.0474 H   0  0  0  0  0  0  0  0  0  0  0  0  # atno 10718 bound_to 10713
  154.7435  135.5000  153.9163 H   0  0  0  0  0  0  0  0  0  0  0  0  # atno 10763 bound_to 10752
  153.1067  135.6699  153.9581 H   0  0  0  0  0  0  0  0  0  0  0  0  # atno 10764 bound_to 10752
  153.9352  135.3073  155.3423 H   0  0  0  0  0  0  0  0  0  0  0  0  # atno 10765 bound_to 10752
  140.5202  134.0567  155.7842 H   0  0  0  0  0  0  0  0  0  0  0  0  # atno 11005 bound_to 11000
  144.8377  139.5523  143.6914 LP  0  0  0  0  0  0  0  0  0  0  0  0  # atno 17320 bound_to 7965
  146.2754  139.6739  142.9267 LP  0  0  0  0  0  0  0  0  0  0  0  0  # atno 17321 bound_to 7965
  140.5142  143.2282  151.8489 LP  0  0  0  0  0  0  0  0  0  0  0  0  # atno 17342 bound_to 10162
  139.4816  144.4914  151.9180 LP  0  0  0  0  0  0  0  0  0  0  0  0  # atno 17343 bound_to 10162
  156.1547  130.3643  149.9386 LP  0  0  0  0  0  0  0  0  0  0  0  0  # atno 17370 bound_to 10713
  156.7398  130.9075  151.3631 LP  0  0  0  0  0  0  0  0  0  0  0  0  # atno 17371 bound_to 10713
  141.1338  133.9256  157.2477 LP  0  0  0  0  0  0  0  0  0  0  0  0  # atno 17394 bound_to 11000
  139.9610  135.0154  156.9261 LP  0  0  0  0  0  0  0  0  0  0  0  0  # atno 17395 bound_to 11000

$$$$
