#       Name:                AV-unprocessed.smi:72
#       Creating user name   scv26
#       Creation time:       Thu Mar 26 17:00:41 2020


#       File generated by GOLD software.
#

@<TRIPOS>MOLECULE
AV-unprocessed.smi:72
    41    42     1
SMALL
NO_CHARGES


@<TRIPOS>ATOM
      1 ****        -3.9077   2.6664   1.8999 N.2            1 S1                 0.0000
      2 ****        -2.8683   2.1491   1.3501 C.2            1 S1                 0.0000
      3 ****        -1.6596   1.8673   2.0032 N.2            1 S1                 0.0000
      4 ****        -0.6955   1.3281   1.3228 C.2            1 S1                 0.0000
      5 ****        -0.8331   0.9893  -0.0888 N.am           1 S1                 0.0000
      6 ****         0.2920   0.3682  -0.9012 C.3            1 S1                 0.0000
      7 ****         1.4526   0.2843  -0.1238 O.3            1 S1                 0.0000
      8 ****         1.5830  -1.0306   0.4091 C.3            1 S1                 0.0000
      9 ****         3.0163  -1.2954   0.9008 C.3            1 S1                 0.0000
     10 ****         3.1836  -0.7642   2.1977 O.3            1 S1                 0.0000
     11 ****         1.1097  -1.8930  -0.7645 C.3            1 S1                 0.0000
     12 ****         2.1542  -2.0576  -1.7101 O.3            1 S1                 0.0000
     13 ****        -0.0600  -1.0780  -1.3162 C.3            1 S1                 0.0000
     14 ****        -0.2213  -1.2400  -2.7130 O.3            1 S1                 0.0000
     15 ****        -2.0362   1.3059  -0.7681 C.2            1 S1                 0.0000
     16 ****        -2.1930   1.0830  -1.9685 O.2            1 S1                 0.0000
     17 ****        -3.0060   1.8655  -0.0138 N.am           1 S1                 0.0000
     18 ****         0.4576   1.0530  -1.7349 H              1 S1                 0.0000
     19 ****         0.8776  -1.1628   1.2318 H              1 S1                 0.0000
     20 ****         0.7897  -2.8827  -0.4368 H              1 S1                 0.0000
     21 ****        -0.9776  -1.3864  -0.8125 H              1 S1                 0.0000
     22 ****        -4.6448   2.7704   1.2173 H              1 S1                 0.0000
     23 ****         0.2706   1.1001   1.7728 H              1 S1                 0.0000
     24 ****         3.2002  -2.3685   0.9602 H              1 S1                 0.0000
     25 ****         3.7580  -0.8735   0.2218 H              1 S1                 0.0000
     26 ****         3.0611   0.1720   2.1544 H              1 S1                 0.0000
     27 ****         1.7899  -2.4550  -2.4865 H              1 S1                 0.0000
     28 ****        -0.9292  -0.6816  -2.9979 H              1 S1                 0.0000
     29 ****        -3.8787   2.0952  -0.4667 H              1 S1                 0.0000
     30 ****        -3.9768   2.9278   2.8627 LP             1 S1                 0.0000
     31 ****        -1.5432   2.0777   2.9739 LP             1 S1                 0.0000
     32 ****         1.3976   0.9427   0.6268 LP             1 S1                 0.0000
     33 ****         2.2486   0.4925  -0.6922 LP             1 S1                 0.0000
     34 ****         4.1039  -0.9694   2.5307 LP             1 S1                 0.0000
     35 ****         2.5081  -1.1650   2.8166 LP             1 S1                 0.0000
     36 ****         2.8655  -2.6484  -1.3293 LP             1 S1                 0.0000
     37 ****         2.5476  -1.1670  -1.9384 LP             1 S1                 0.0000
     38 ****        -0.4392  -2.1939  -2.9196 LP             1 S1                 0.0000
     39 ****         0.6229  -0.9817  -3.1828 LP             1 S1                 0.0000
     40 ****        -1.4565   0.6642  -2.4997 LP             1 S1                 0.0000
     41 ****        -3.0569   1.3207  -2.4125 LP             1 S1                 0.0000
@<TRIPOS>BOND
    1    1    2 2     
    2    1   22 1     
    3    2   17 1     
    4    2    3 1     
    5    3    4 2     
    6    4    5 1     
    7    4   23 1     
    8    5    6 1     
    9    5   15 am    
   10    6   18 1     
   11    6   13 1     
   12    6    7 1     
   13    7    8 1     
   14    8   19 1     
   15    8    9 1     
   16    8   11 1     
   17    9   10 1     
   18    9   24 1     
   19    9   25 1     
   20   10   26 1     
   21   11   20 1     
   22   11   12 1     
   23   11   13 1     
   24   12   27 1     
   25   13   21 1     
   26   13   14 1     
   27   14   28 1     
   28   15   16 2     
   29   15   17 am    
   30   17   29 1     
   31    1   30 1     
   32    3   31 1     
   33    7   32 1     
   34    7   33 1     
   35   10   34 1     
   36   10   35 1     
   37   12   36 1     
   38   12   37 1     
   39   14   38 1     
   40   14   39 1     
   41   16   40 1     
   42   16   41 1     
@<TRIPOS>SUBSTRUCTURE
      1 S1             1
@<TRIPOS>SET
LONE_PAIRS      STATIC     ATOMS    <user>   **** ""
12 30 31 32 33 34 35 36 37 38 39 40 41
DONOR_HYDROGENS      STATIC     ATOMS    <user>   **** ""
5 22 26 27 28 29
ATOM$BLUE        STATIC     ATOMS    COLORGROUP SYSTEM
12 30 31 32 33 34 35 36 37 38 39 40 41
ATOM$RED        STATIC     ATOMS    COLORGROUP SYSTEM
5 22 26 27 28 29
