#       Name:                AV-unprocessed.smi:688
#       Creating user name   scv26
#       Creation time:       Fri Mar 27 00:33:17 2020


#       File generated by GOLD software.
#

@<TRIPOS>MOLECULE
AV-unprocessed.smi:688
    44    45     1
SMALL
NO_CHARGES


@<TRIPOS>ATOM
      1 ****        -6.7576   2.3505  -0.7372 O.2            1 S1                 0.0000
      2 ****        -5.5394   2.3611  -0.5651 C.2            1 S1                 0.0000
      3 ****        -4.6520   2.0804  -1.5640 N.pl3          1 S1                -1.0000
      4 ****        -3.2939   2.0939  -1.3934 C.2            1 S1                 0.0000
      5 ****        -2.5129   1.8292  -2.3079 O.2            1 S1                 0.0000
      6 ****        -2.7883   2.4114  -0.1645 N.am           1 S1                 0.0000
      7 ****        -1.3447   2.4559   0.1086 C.3            1 S1                 0.0000
      8 ****        -0.7677   1.0521   0.3964 C.3            1 S1                 0.0000
      9 ****        -0.9908   0.7666   1.7637 O.3            1 S1                 0.0000
     10 ****         0.7516   0.9972   0.1628 C.3            1 S1                 0.0000
     11 ****         1.1541  -0.3589   0.0589 O.3            1 S1                 0.0000
     12 ****         2.5387  -0.5084  -0.2088 C.3            1 S1                 0.0000
     13 ****         2.9477  -1.9684  -0.2441 C.ar           1 S1                 0.0000
     14 ****         2.4956  -2.8531   0.7579 C.ar           1 S1                 0.0000
     15 ****         2.8847  -4.2067   0.7366 C.ar           1 S1                 0.0000
     16 ****         3.7315  -4.6804  -0.2844 C.ar           1 S1                 0.0000
     17 ****         4.2070  -6.3387  -0.3118 Cl             1 S1                 0.0000
     18 ****         4.1916  -3.7983  -1.2818 C.ar           1 S1                 0.0000
     19 ****         3.8033  -2.4444  -1.2601 C.ar           1 S1                 0.0000
     20 ****        -3.6587   2.6968   0.9005 C.2            1 S1                 0.0000
     21 ****        -4.9978   2.6842   0.7532 C.2            1 S1                 0.0000
     22 ****        -6.0442   3.0369   2.0821 Cl             1 S1                 0.0000
     23 ****        -0.8438   2.8949  -0.7559 H              1 S1                 0.0000
     24 ****        -1.1200   3.1419   0.9272 H              1 S1                 0.0000
     25 ****        -1.2569   0.3023  -0.2270 H              1 S1                 0.0000
     26 ****        -0.5501   1.4221   2.2819 H              1 S1                 0.0000
     27 ****         0.9979   1.4961  -0.7758 H              1 S1                 0.0000
     28 ****         1.2953   1.5140   0.9559 H              1 S1                 0.0000
     29 ****         2.7809  -0.0347  -1.1617 H              1 S1                 0.0000
     30 ****         3.1256  -0.0068   0.5622 H              1 S1                 0.0000
     31 ****         1.8476  -2.4958   1.5448 H              1 S1                 0.0000
     32 ****         2.5328  -4.8797   1.5047 H              1 S1                 0.0000
     33 ****         4.8432  -4.1583  -2.0644 H              1 S1                 0.0000
     34 ****         4.1625  -1.7745  -2.0276 H              1 S1                 0.0000
     35 ****        -3.1731   2.9200   1.8394 H              1 S1                 0.0000
     36 ****        -7.3718   2.5623   0.0229 LP             1 S1                 0.0000
     37 ****        -7.1335   2.1301  -1.6373 LP             1 S1                 0.0000
     38 ****        -5.0134   1.8529  -2.4683 LP             1 S1                 0.0000
     39 ****        -2.8650   1.5938  -3.2138 LP             1 S1                 0.0000
     40 ****        -1.5265   1.8496  -2.1447 LP             1 S1                 0.0000
     41 ****        -0.6264  -0.1384   1.9833 LP             1 S1                 0.0000
     42 ****        -1.9717   0.7869   1.9570 LP             1 S1                 0.0000
     43 ****         0.6383  -0.7883  -0.6825 LP             1 S1                 0.0000
     44 ****         0.9449  -0.8201   0.9211 LP             1 S1                 0.0000
@<TRIPOS>BOND
    1    1    2 2     
    2    2   21 1     
    3    2    3 1     
    4    3    4 1     
    5    4    5 2     
    6    4    6 am    
    7    6    7 1     
    8    6   20 1     
    9    7    8 1     
   10    7   23 1     
   11    7   24 1     
   12    8    9 1     
   13    8   10 1     
   14    8   25 1     
   15    9   26 1     
   16   10   11 1     
   17   10   27 1     
   18   10   28 1     
   19   11   12 1     
   20   12   13 1     
   21   12   29 1     
   22   12   30 1     
   23   13   19 ar    
   24   13   14 ar    
   25   14   15 ar    
   26   14   31 1     
   27   15   16 ar    
   28   15   32 1     
   29   16   17 1     
   30   16   18 ar    
   31   18   19 ar    
   32   18   33 1     
   33   19   34 1     
   34   20   21 2     
   35   20   35 1     
   36   21   22 1     
   37    1   36 1     
   38    1   37 1     
   39    3   38 1     
   40    5   39 1     
   41    5   40 1     
   42    9   41 1     
   43    9   42 1     
   44   11   43 1     
   45   11   44 1     
@<TRIPOS>SUBSTRUCTURE
      1 S1             1
@<TRIPOS>SET
LONE_PAIRS      STATIC     ATOMS    <user>   **** ""
9 36 37 38 39 40 41 42 43 44
DONOR_HYDROGENS      STATIC     ATOMS    <user>   **** ""
1 26
ATOM$BLUE        STATIC     ATOMS    COLORGROUP SYSTEM
9 36 37 38 39 40 41 42 43 44
ATOM$RED        STATIC     ATOMS    COLORGROUP SYSTEM
1 26
