AV-unprocessed.smi:2004|AV-procd|sdf|8123|dock3
  -GOLD-   2272010353D 1   1.00000     0.00000
 Structure written by MMmdl.
 40 42  0  0  0  0  0  0  0  0  2 V2000
  152.9593  139.7480  154.8564 O   0  0  0  0  0  0  0  0  0  0  0  0
  152.1086  138.7506  155.3803 C   0  0  2  0  0  0  0  0  0  0  0  0
  151.0995  138.3302  154.2937 C   0  0  0  0  0  0  0  0  0  0  0  0
  151.0225  136.9155  154.2926 O   0  0  0  0  0  0  0  0  0  0  0  0
  150.4222  136.3567  155.4449 C   0  0  0  0  0  0  0  0  0  0  0  0
  150.0818  134.8998  155.2038 C   0  0  0  0  0  0  0  0  0  0  0  0
  150.6554  133.9014  156.0186 C   0  0  0  0  0  0  0  0  0  0  0  0
  150.3253  132.5472  155.8179 C   0  0  0  0  0  0  0  0  0  0  0  0
  149.4217  132.1861  154.8000 C   0  0  0  0  0  0  0  0  0  0  0  0
  148.8508  133.1795  153.9809 C   0  0  0  0  0  0  0  0  0  0  0  0
  149.1819  134.5341  154.1805 C   0  0  0  0  0  0  0  0  0  0  0  0
  151.4779  139.2825  156.6916 C   0  0  0  0  0  0  0  0  0  0  0  0
  151.4081  140.7487  156.7742 N   0  0  0  0  0  0  0  0  0  0  0  0
  150.7714  141.6386  155.9647 C   0  0  0  0  0  0  0  0  0  0  0  0
  150.9621  142.8813  156.4879 N   0  3  0  0  0  0  0  0  0  0  0  0
  151.7367  142.7858  157.6456 C   0  0  0  0  0  0  0  0  0  0  0  0
  152.1796  143.7655  158.5284 C   0  0  0  0  0  0  0  0  0  0  0  0
  152.9523  143.3268  159.6235 C   0  0  0  0  0  0  0  0  0  0  0  0
  153.2626  141.9631  159.8045 C   0  0  0  0  0  0  0  0  0  0  0  0
  152.8110  140.9785  158.9009 C   0  0  0  0  0  0  0  0  0  0  0  0
  152.0403  141.4198  157.8267 C   0  0  0  0  0  0  0  0  0  0  0  0
  153.6529  139.9099  155.4773 H   0  0  0  0  0  0  0  0  0  0  0  0
  152.7412  137.8920  155.6070 H   0  0  0  0  0  0  0  0  0  0  0  0
  150.1260  138.7850  154.4842 H   0  0  0  0  0  0  0  0  0  0  0  0
  151.4303  138.6585  153.3072 H   0  0  0  0  0  0  0  0  0  0  0  0
  151.1002  136.4348  156.2964 H   0  0  0  0  0  0  0  0  0  0  0  0
  149.5144  136.9069  155.6963 H   0  0  0  0  0  0  0  0  0  0  0  0
  151.3446  134.1737  156.8045 H   0  0  0  0  0  0  0  0  0  0  0  0
  150.7647  131.7858  156.4452 H   0  0  0  0  0  0  0  0  0  0  0  0
  149.1680  131.1475  154.6462 H   0  0  0  0  0  0  0  0  0  0  0  0
  148.1588  132.9018  153.1994 H   0  0  0  0  0  0  0  0  0  0  0  0
  148.7355  135.2897  153.5508 H   0  0  0  0  0  0  0  0  0  0  0  0
  150.4759  138.8774  156.8383 H   0  0  0  0  0  0  0  0  0  0  0  0
  152.0724  138.9553  157.5461 H   0  0  0  0  0  0  0  0  0  0  0  0
  150.2012  141.4001  155.0787 H   0  0  0  0  0  0  0  0  0  0  0  0
  151.9415  144.8104  158.3929 H   0  0  0  0  0  0  0  0  0  0  0  0
  153.3137  144.0512  160.3389 H   0  0  0  0  0  0  0  0  0  0  0  0
  153.8574  141.6653  160.6557 H   0  0  0  0  0  0  0  0  0  0  0  0
  153.0498  139.9361  159.0496 H   0  0  0  0  0  0  0  0  0  0  0  0
  150.5853  143.7300  156.0860 H   0  0  0  0  0  0  0  0  0  0  0  0
  1  2  1  0  0  0  0
  1 22  1  0  0  0  0
  2  3  1  0  0  0  0
  2 12  1  0  0  0  0
  2 23  1  0  0  0  0
  3  4  1  0  0  0  0
  3 24  1  0  0  0  0
  3 25  1  0  0  0  0
  4  5  1  0  0  0  0
  5  6  1  0  0  0  0
  5 26  1  0  0  0  0
  5 27  1  0  0  0  0
  6 11  1  0  0  0  0
  6  7  2  0  0  0  0
  7  8  1  0  0  0  0
  7 28  1  0  0  0  0
  8  9  2  0  0  0  0
  8 29  1  0  0  0  0
  9 10  1  0  0  0  0
  9 30  1  0  0  0  0
 10 11  2  0  0  0  0
 10 31  1  0  0  0  0
 11 32  1  0  0  0  0
 12 13  1  0  0  0  0
 12 33  1  0  0  0  0
 12 34  1  0  0  0  0
 13 21  1  0  0  0  0
 13 14  1  0  0  0  0
 14 15  2  0  0  0  0
 14 35  1  0  0  0  0
 15 16  1  0  0  0  0
 15 40  1  0  0  0  0
 16 21  2  0  0  0  0
 16 17  1  0  0  0  0
 17 18  2  0  0  0  0
 17 36  1  0  0  0  0
 18 19  1  0  0  0  0
 18 37  1  0  0  0  0
 19 20  2  0  0  0  0
 19 38  1  0  0  0  0
 20 21  1  0  0  0  0
 20 39  1  0  0  0  0
M  CHG  1  15   1
M  END
> <s_m_source_file>
AV-unprocessed.smi

> <i_m_source_file_index>
2004

> <i_lp_mmshare_version>
43012

> <i_f3d_flags>
0

> <s_epik_input>
W2NIXTFbY0hdW2NIXVtjSF1jKGMxMiluKFtjSF1uMilbQ0gyXVtDQEhdKFtPSF0pW0NIMl1PW0NIMl1jM1tjSF1bY0hdW2NIXVtjSF1bY0hdMw==

> <s_epik_cmdline>
J2VwaWtfcHl0aG9uJywgJy1waCcsICc3LjAnLCAnLXRuJywgJzgnLCAnLW1hJywgJzIwMCcsICctbWV0YWxfYmluZGluZycsICctaW1hZScsICc8aW5maWxlLm1hZT4nLCAnLW9tYWUnLCAnPG91dGZpbGUubWFlPic=

> <r_epik_Ionization_Penalty>
1.28975

> <r_epik_Ionization_Penalty_Charging>
1.28975

> <r_epik_Ionization_Penalty_Neutral>
1.07667e-06

> <r_epik_State_Penalty>
1.36276

> <r_epik_Charging_Adjusted_Penalty>
2.65251

> <i_epik_Tot_Q>
1

> <i_epik_Tot_abs_Q>
1

> <r_epik_Metal_State_Penalty>
5.39298

> <b_epik_Metal_Only>
0

> <s_lp_Force_Field>
OPLS_2005

> <r_lp_Energy>
17.8954

> <b_lp_Chiralities_Consistent>
1

> <s_lp_Variant>
AV-unprocessed.smi:2004-3

> <Gold.Version>
5.8.1

> <Gold.Id.Protein>
6NUR|6NUR_protein|mol2

> <Gold.PLP.Fitness>
56.2192

> <Gold.PLP.PLP>
-48.2873

> <Gold.PLP.part.hbond>
-4.0000

> <Gold.PLP.part.metal>
0.0000

> <Gold.PLP.part.buried>
-6.0806

> <Gold.PLP.part.nonpolar>
-39.1935

> <Gold.PLP.part.repulsive>
0.8657

> <Gold.PLP.ligand.clash>
0.0000

> <Gold.PLP.ligand.torsion>
1.1859

> <Gold.PLP.Chemscore.Hbond>
3.3870

> <Gold.PLP.Chemscore.CHOScore>
0.0000

> <Gold.PLP.Chemscore.Metal>
0.0000

> <Gold.Chemscore.Hbonds>
donor molecule, donor type, donor heavy atom, donor atom, acceptor molecule, acceptor atom, score
      L1  H    15    40       P1  8028  1.82
      P1  H  7989  7998       L1     1  0.27
      P1  H 10752 10763       L1     4  0.23

> <Gold.PLP.Chemscore.Internal.Correction>
0.1429

> <Gold.Rescore>
     Score         DG    S(hbond)    S(metal)    S(lipo)     H(rot)  DE(clash)    DE(int)     intcor
     17.38     -18.85       1.71        0.00     118.44       2.43       0.00       1.46       ----

> <Gold.Chemscore.Fitness>
17.3814

> <Gold.Chemscore.DG>
-18.8454

> <Gold.Chemscore.ZeroCoef>
-5.4800

> <Gold.Chemscore.Hbond>
1.7127

> <Gold.Chemscore.Metal>
0.0000

> <Gold.Chemscore.Lipo>
118.4431

> <Gold.Chemscore.Internal_Hbond>
0.0000

> <Gold.Chemscore.DEClash>
0.0000

> <Gold.Chemscore.DEInternal>
1.4640

> <Gold.Chemscore.Rot>
2.4269

> <Gold.Chemscore.Internal.Correction>
   9.000000E+99

> <Gold.Chemscore.Hbonds>
donor molecule, donor type, donor heavy atom, donor atom, acceptor molecule, acceptor atom, score
      L1  H    15    40       P1  8028  0.85
      P1  H  7989  7998       L1     1  0.12
      P1  H 10752 10763       L1     4  0.10

> <Gold.Chemscore.Hbond.Weighted>
-5.7203

> <Gold.Chemscore.Metal.Weighted>
-0.0000

> <Gold.Chemscore.Lipo.Weighted>
-13.8578

> <Gold.Chemscore.Internal_Hbond.Weighted>
0.0000

> <Gold.Chemscore.DEClash.Weighted>
0.0000

> <Gold.Chemscore.DEInternal.Weighted>
1.4640

> <Gold.Chemscore.Rot.Weighted>
6.2127

> <Gold.Chemscore.Internal.Correction.Weighted>
   9.000000E+99

> <Gold.Protein.RotatedTorsions>
[ 6907 6896 6895 6894 ] final -108.13 input  -60.11 | X-H torsion
[ 7974 7965 7964 7962 ] final   81.05 input  175.53 | X-H torsion
[ 8008 7997 7996 7995 ] final    5.50 input   59.86 | X-H torsion
[ 10167 10162 10161 10158 ] final   30.30 input  -65.29 | X-H torsion
[ 10718 10713 10712 10709 ] final -132.57 input   66.30 | X-H torsion
[ 10763 10752 10751 10750 ] final   26.34 input  -60.55 | X-H torsion
[ 11005 11000 10999 10996 ] final  155.73 input  -57.11 | X-H torsion

> <Gold.Protein.ActiveResidues>
 VAL166  LYS551  ARG553  GLY616  TRP617  ASP618  TYR619  PRO620  LYS621  CYS622 
 ASP623  PHE694  ASN695  SER759  ASP760  ASP761  ALA762  ILE779  LEU786  VAL792 
 PHE793  MET794  SER795  GLU796  ALA797  LYS798  CYS799  TRP800  GLU811  SER814 

> <Gold.Protein.RotatedAtoms>
  150.7484  133.9723  159.3549 H   0  0  0  0  0  0  0  0  0  0  0  0  # atno 6907 bound_to 6896
  151.7658  135.0797  160.0362 H   0  0  0  0  0  0  0  0  0  0  0  0  # atno 6908 bound_to 6896
  152.3372  133.5989  159.5887 H   0  0  0  0  0  0  0  0  0  0  0  0  # atno 6909 bound_to 6896
  145.6432  139.2430  143.2019 H   0  0  0  0  0  0  0  0  0  0  0  0  # atno 7974 bound_to 7965
  154.7291  140.2727  155.6472 H   0  0  0  0  0  0  0  0  0  0  0  0  # atno 8008 bound_to 7997
  156.2845  140.2719  156.1911 H   0  0  0  0  0  0  0  0  0  0  0  0  # atno 8009 bound_to 7997
  155.0405  140.0371  157.2497 H   0  0  0  0  0  0  0  0  0  0  0  0  # atno 8010 bound_to 7997
  140.4690  144.0791  150.6232 H   0  0  0  0  0  0  0  0  0  0  0  0  # atno 10167 bound_to 10162
  156.2359  130.7066  151.0907 H   0  0  0  0  0  0  0  0  0  0  0  0  # atno 10718 bound_to 10713
  153.0629  135.6562  154.0421 H   0  0  0  0  0  0  0  0  0  0  0  0  # atno 10763 bound_to 10752
  154.0084  135.2930  155.3396 H   0  0  0  0  0  0  0  0  0  0  0  0  # atno 10764 bound_to 10752
  154.6975  135.5258  153.8548 H   0  0  0  0  0  0  0  0  0  0  0  0  # atno 10765 bound_to 10752
  140.1608  134.8610  157.2572 H   0  0  0  0  0  0  0  0  0  0  0  0  # atno 11005 bound_to 11000
  146.1264  140.7243  142.9433 LP  0  0  0  0  0  0  0  0  0  0  0  0  # atno 17320 bound_to 7965
  144.7150  140.4176  143.7051 LP  0  0  0  0  0  0  0  0  0  0  0  0  # atno 17321 bound_to 7965
  140.4000  143.2708  151.9958 LP  0  0  0  0  0  0  0  0  0  0  0  0  # atno 17342 bound_to 10162
  139.4816  144.6005  151.7614 LP  0  0  0  0  0  0  0  0  0  0  0  0  # atno 17343 bound_to 10162
  157.7154  131.0712  150.6346 LP  0  0  0  0  0  0  0  0  0  0  0  0  # atno 17370 bound_to 10713
  156.6416  130.4460  149.5750 LP  0  0  0  0  0  0  0  0  0  0  0  0  # atno 17371 bound_to 10713
  140.2492  134.3703  155.7449 LP  0  0  0  0  0  0  0  0  0  0  0  0  # atno 17394 bound_to 11000
  141.2209  133.7307  156.8909 LP  0  0  0  0  0  0  0  0  0  0  0  0  # atno 17395 bound_to 11000

$$$$
