AV-unprocessed.smi:1362|AV-procd|sdf|5559|dock5
  -GOLD-   22720 5153D 1   1.00000     0.00000
 Structure written by MMmdl.
 39 39  0  0  0  0  0  0  0  0  1 V2000
  146.5570  138.2095  151.9878 C   0  0  0  0  0  0  0  0  0  0  0  0
  147.2427  139.2964  152.7886 C   0  0  0  0  0  0  0  0  0  0  0  0
  146.6791  140.4109  153.1212 N   0  0  0  0  0  0  0  0  0  0  0  0
  147.4172  141.3442  153.8622 C   0  0  0  0  0  0  0  0  0  0  0  0
  146.6878  142.6315  154.2074 C   0  0  0  0  0  0  0  0  0  0  0  0
  148.7067  141.1006  154.2392 C   0  0  0  0  0  0  0  0  0  0  0  0
  149.5364  142.1008  155.0425 C   0  0  0  0  0  0  0  0  0  0  0  0
  149.7361  141.7540  156.5196 C   0  0  0  0  0  0  0  0  0  0  0  0
  149.1399  140.7985  157.0168 O   0  0  0  0  0  0  0  0  0  0  0  0
  150.5891  142.5316  157.2043 N   0  0  0  0  0  0  0  0  0  0  0  0
  150.9535  142.3641  158.6105 C   0  0  1  0  0  0  0  0  0  0  0  0
  151.3765  140.9004  158.8394 C   0  0  0  0  0  0  0  0  0  0  0  0
  152.0497  143.3891  159.0055 C   0  0  0  0  0  0  0  0  0  0  0  0
  152.4978  143.2349  160.4704 C   0  0  0  0  0  0  0  0  0  0  0  0
  151.6056  144.8438  158.7552 C   0  0  0  0  0  0  0  0  0  0  0  0
  149.3397  139.8238  153.8553 C   0  0  0  0  0  0  0  0  0  0  0  0
  150.4932  139.5035  154.1377 O   0  0  0  0  0  0  0  0  0  0  0  0
  148.5552  138.9863  153.1409 N   0  0  0  0  0  0  0  0  0  0  0  0
  148.9438  138.1003  152.8526 H   0  0  0  0  0  0  0  0  0  0  0  0
  146.2433  138.5988  151.0189 H   0  0  0  0  0  0  0  0  0  0  0  0
  145.6723  137.8549  152.5173 H   0  0  0  0  0  0  0  0  0  0  0  0
  147.2170  137.3579  151.8160 H   0  0  0  0  0  0  0  0  0  0  0  0
  146.6021  142.7467  155.2880 H   0  0  0  0  0  0  0  0  0  0  0  0
  145.6800  142.6395  153.7903 H   0  0  0  0  0  0  0  0  0  0  0  0
  147.2193  143.4944  153.8062 H   0  0  0  0  0  0  0  0  0  0  0  0
  150.5114  142.1998  154.5637 H   0  0  0  0  0  0  0  0  0  0  0  0
  149.0994  143.0981  154.9860 H   0  0  0  0  0  0  0  0  0  0  0  0
  151.0309  143.2938  156.7107 H   0  0  0  0  0  0  0  0  0  0  0  0
  150.0747  142.5635  159.2268 H   0  0  0  0  0  0  0  0  0  0  0  0
  151.5352  140.6855  159.8957 H   0  0  0  0  0  0  0  0  0  0  0  0
  152.2981  140.6656  158.3057 H   0  0  0  0  0  0  0  0  0  0  0  0
  150.6084  140.2088  158.4915 H   0  0  0  0  0  0  0  0  0  0  0  0
  152.9238  143.2074  158.3784 H   0  0  0  0  0  0  0  0  0  0  0  0
  151.6552  143.3355  161.1554 H   0  0  0  0  0  0  0  0  0  0  0  0
  153.2333  143.9941  160.7376 H   0  0  0  0  0  0  0  0  0  0  0  0
  152.9657  142.2680  160.6525 H   0  0  0  0  0  0  0  0  0  0  0  0
  150.7059  145.0849  159.3222 H   0  0  0  0  0  0  0  0  0  0  0  0
  151.3954  145.0316  157.7022 H   0  0  0  0  0  0  0  0  0  0  0  0
  152.3827  145.5484  159.0528 H   0  0  0  0  0  0  0  0  0  0  0  0
  1  2  1  0  0  0  0
  1 20  1  0  0  0  0
  1 21  1  0  0  0  0
  1 22  1  0  0  0  0
  2 18  1  0  0  0  0
  2  3  2  0  0  0  0
  3  4  1  0  0  0  0
  4  5  1  0  0  0  0
  4  6  2  0  0  0  0
  5 23  1  0  0  0  0
  5 24  1  0  0  0  0
  5 25  1  0  0  0  0
  6  7  1  0  0  0  0
  6 16  1  0  0  0  0
  7  8  1  0  0  0  0
  7 26  1  0  0  0  0
  7 27  1  0  0  0  0
  8  9  2  0  0  0  0
  8 10  1  0  0  0  0
 10 11  1  0  0  0  0
 10 28  1  0  0  0  0
 11 12  1  0  0  0  0
 11 13  1  0  0  0  0
 11 29  1  0  0  0  0
 12 30  1  0  0  0  0
 12 31  1  0  0  0  0
 12 32  1  0  0  0  0
 13 14  1  0  0  0  0
 13 15  1  0  0  0  0
 13 33  1  0  0  0  0
 14 34  1  0  0  0  0
 14 35  1  0  0  0  0
 14 36  1  0  0  0  0
 15 37  1  0  0  0  0
 15 38  1  0  0  0  0
 15 39  1  0  0  0  0
 16 17  2  0  0  0  0
 16 18  1  0  0  0  0
 18 19  1  0  0  0  0
M  END
> <s_m_source_file>
AV-unprocessed.smi

> <i_m_source_file_index>
1362

> <i_lp_mmshare_version>
43012

> <i_f3d_flags>
0

> <s_epik_input>
W0NIM11jMW5jKFtDSDNdKWMoYyg9TylbbkhdMSlbQ0gyXUMoPU8pW05IXVtDQEhdKFtDSDNdKVtDSF0oW0NIM10pW0NIM10=

> <s_epik_cmdline>
J2VwaWtfcHl0aG9uJywgJy1waCcsICc3LjAnLCAnLXRuJywgJzgnLCAnLW1hJywgJzIwMCcsICctbWV0YWxfYmluZGluZycsICctaW1hZScsICc8aW5maWxlLm1hZT4nLCAnLW9tYWUnLCAnPG91dGZpbGUubWFlPic=

> <r_lp_tautomer_probability>
0.839158

> <r_epik_Ionization_Penalty>
0.000388977

> <r_epik_Ionization_Penalty_Charging>
0.000356458

> <r_epik_Ionization_Penalty_Neutral>
3.25191e-05

> <r_epik_State_Penalty>
0.0469868

> <r_epik_Charging_Adjusted_Penalty>
0.0473433

> <i_epik_Tot_Q>
0

> <i_epik_Tot_abs_Q>
0

> <r_epik_Metal_State_Penalty>
0.223288

> <b_epik_Metal_Only>
0

> <s_lp_Force_Field>
OPLS_2005

> <r_lp_Energy>
7.84192

> <b_lp_Chiralities_Consistent>
1

> <s_lp_Variant>
AV-unprocessed.smi:1362-2

> <Gold.Version>
5.8.1

> <Gold.Id.Protein>
6NUR|6NUR_protein|mol2

> <Gold.PLP.Fitness>
43.2232

> <Gold.PLP.PLP>
-37.7860

> <Gold.PLP.part.hbond>
-3.0000

> <Gold.PLP.part.metal>
0.0000

> <Gold.PLP.part.buried>
3.5824

> <Gold.PLP.part.nonpolar>
-37.6634

> <Gold.PLP.part.repulsive>
0.5254

> <Gold.PLP.ligand.clash>
0.0000

> <Gold.PLP.ligand.torsion>
0.2968

> <Gold.PLP.Chemscore.Hbond>
2.0000

> <Gold.PLP.Chemscore.CHOScore>
0.0000

> <Gold.PLP.Chemscore.Metal>
0.0000

> <Gold.Chemscore.Hbonds>
donor molecule, donor type, donor heavy atom, donor atom, acceptor molecule, acceptor atom, score
      L1  H    18    19       P1  7948  0.86
      P1  H  7989  7998       L1    17  1.00

> <Gold.PLP.Chemscore.Internal.Correction>
0.0309

> <Gold.Rescore>
     Score         DG    S(hbond)    S(metal)    S(lipo)     H(rot)  DE(clash)    DE(int)     intcor
     13.69     -17.25       1.70        0.00      89.16       1.69       1.80       1.76       ----

> <Gold.Chemscore.Fitness>
13.6926

> <Gold.Chemscore.DG>
-17.2513

> <Gold.Chemscore.ZeroCoef>
-5.4800

> <Gold.Chemscore.Hbond>
1.6977

> <Gold.Chemscore.Metal>
0.0000

> <Gold.Chemscore.Lipo>
89.1591

> <Gold.Chemscore.Internal_Hbond>
0.0000

> <Gold.Chemscore.DEClash>
1.8026

> <Gold.Chemscore.DEInternal>
1.7561

> <Gold.Chemscore.Rot>
1.6916

> <Gold.Chemscore.Internal.Correction>
   9.000000E+99

> <Gold.Chemscore.Hbonds>
donor molecule, donor type, donor heavy atom, donor atom, acceptor molecule, acceptor atom, score
      L1  H    18    19       P1  7948  0.83
      P1  H  7989  7998       L1    17  0.60

> <Gold.Chemscore.Hbond.Weighted>
-5.6703

> <Gold.Chemscore.Metal.Weighted>
-0.0000

> <Gold.Chemscore.Lipo.Weighted>
-10.4316

> <Gold.Chemscore.Internal_Hbond.Weighted>
0.0000

> <Gold.Chemscore.DEClash.Weighted>
1.8026

> <Gold.Chemscore.DEInternal.Weighted>
1.7561

> <Gold.Chemscore.Rot.Weighted>
4.3305

> <Gold.Chemscore.Internal.Correction.Weighted>
   9.000000E+99

> <Gold.Protein.RotatedTorsions>
[ 6907 6896 6895 6894 ] final   -3.62 input  -60.11 | X-H torsion
[ 7974 7965 7964 7962 ] final  -15.82 input  175.53 | X-H torsion
[ 8008 7997 7996 7995 ] final   53.15 input   59.86 | X-H torsion
[ 10167 10162 10161 10158 ] final  138.48 input  -65.29 | X-H torsion
[ 10718 10713 10712 10709 ] final  -89.62 input   66.30 | X-H torsion
[ 10763 10752 10751 10750 ] final   31.73 input  -60.55 | X-H torsion
[ 11005 11000 10999 10996 ] final   81.93 input  -57.11 | X-H torsion

> <Gold.Protein.ActiveResidues>
 VAL166  LYS551  ARG553  GLY616  TRP617  ASP618  TYR619  PRO620  LYS621  CYS622 
 ASP623  PHE694  ASN695  SER759  ASP760  ASP761  ALA762  ILE779  LEU786  VAL792 
 PHE793  MET794  SER795  GLU796  ALA797  LYS798  CYS799  TRP800  GLU811  SER814 

> <Gold.Protein.RotatedAtoms>
  151.5108  135.1065  159.9853 H   0  0  0  0  0  0  0  0  0  0  0  0  # atno 6907 bound_to 6896
  152.4662  133.7925  159.6920 H   0  0  0  0  0  0  0  0  0  0  0  0  # atno 6908 bound_to 6896
  150.8647  133.7528  159.3006 H   0  0  0  0  0  0  0  0  0  0  0  0  # atno 6909 bound_to 6896
  146.2015  140.3547  142.8421 H   0  0  0  0  0  0  0  0  0  0  0  0  # atno 7974 bound_to 7965
  155.4635  140.3462  155.4316 H   0  0  0  0  0  0  0  0  0  0  0  0  # atno 8008 bound_to 7997
  156.1146  140.1470  156.9320 H   0  0  0  0  0  0  0  0  0  0  0  0  # atno 8009 bound_to 7997
  154.4780  140.0879  156.7287 H   0  0  0  0  0  0  0  0  0  0  0  0  # atno 8010 bound_to 7997
  139.5109  144.6351  151.5718 H   0  0  0  0  0  0  0  0  0  0  0  0  # atno 10167 bound_to 10162
  155.9985  130.4879  150.5199 H   0  0  0  0  0  0  0  0  0  0  0  0  # atno 10718 bound_to 10713
  153.0300  135.6431  154.1245 H   0  0  0  0  0  0  0  0  0  0  0  0  # atno 10763 bound_to 10752
  154.0968  135.2862  155.3261 H   0  0  0  0  0  0  0  0  0  0  0  0  # atno 10764 bound_to 10752
  154.6426  135.5454  153.7870 H   0  0  0  0  0  0  0  0  0  0  0  0  # atno 10765 bound_to 10752
  139.9081  134.8034  156.2107 H   0  0  0  0  0  0  0  0  0  0  0  0  # atno 11005 bound_to 11000
  144.8694  140.7252  143.6056 LP  0  0  0  0  0  0  0  0  0  0  0  0  # atno 17320 bound_to 7965
  145.3467  139.1717  143.4457 LP  0  0  0  0  0  0  0  0  0  0  0  0  # atno 17321 bound_to 7965
  140.6097  143.9459  150.6444 LP  0  0  0  0  0  0  0  0  0  0  0  0  # atno 17342 bound_to 10162
  140.2697  143.3464  152.1249 LP  0  0  0  0  0  0  0  0  0  0  0  0  # atno 17343 bound_to 10162
  157.3162  131.0673  151.1965 LP  0  0  0  0  0  0  0  0  0  0  0  0  # atno 17370 bound_to 10713
  157.2894  130.6789  149.6106 LP  0  0  0  0  0  0  0  0  0  0  0  0  # atno 17371 bound_to 10713
  141.0467  133.6909  156.1696 LP  0  0  0  0  0  0  0  0  0  0  0  0  # atno 17394 bound_to 11000
  140.6873  134.4703  157.5589 LP  0  0  0  0  0  0  0  0  0  0  0  0  # atno 17395 bound_to 11000

$$$$
