#       Name:                AV-unprocessed.smi:212
#       Creating user name   scv26
#       Creation time:       Thu Mar 26 19:55:22 2020


#       File generated by GOLD software.
#

@<TRIPOS>MOLECULE
AV-unprocessed.smi:212
    75    78     1
SMALL
NO_CHARGES


@<TRIPOS>ATOM
      1 ****        -1.5303  -1.6255   0.7176 C.3            1 S1                 0.0000
      2 ****        -2.2446  -0.2606   0.6808 C.3            1 S1                 0.0000
      3 ****        -2.1727   0.4789   2.0325 C.3            1 S1                 0.0000
      4 ****        -2.9270   1.7585   1.9784 N.4            1 S1                 1.0000
      5 ****        -2.9894   2.4597   3.2886 C.3            1 S1                 0.0000
      6 ****        -4.3490   2.2736   4.0030 C.3            1 S1                 0.0000
      7 ****        -4.3478   3.0245   5.3450 C.3            1 S1                 0.0000
      8 ****        -5.5339   2.7369   3.1351 C.3            1 S1                 0.0000
      9 ****        -4.5304   0.9052   4.3094 O.3            1 S1                 0.0000
     10 ****        -2.4705   2.6348   0.8695 C.3            1 S1                 0.0000
     11 ****        -2.4948   1.8944  -0.4835 C.3            1 S1                 0.0000
     12 ****        -1.8094   0.6063  -0.4193 N.3            1 S1                 0.0000
     13 ****        -0.4875   0.6489  -0.7095 C.ar           1 S1                 0.0000
     14 ****         0.3736   1.3088   0.1076 N.ar           1 S1                 0.0000
     15 ****         1.6777   1.3387  -0.1828 C.ar           1 S1                 0.0000
     16 ****         2.3146   0.7835  -1.2158 N.ar           1 S1                 0.0000
     17 ****         1.4526   0.1152  -2.0344 C.ar           1 S1                 0.0000
     18 ****         0.0453   0.0061  -1.8571 C.ar           1 S1                 0.0000
     19 ****        -0.5112  -0.7361  -2.8891 N.2            1 S1                 0.0000
     20 ****         0.5113  -1.0488  -3.6374 C.2            1 S1                 0.0000
     21 ****         1.7335  -0.5952  -3.1897 N.pl3          1 S1                 0.0000
     22 ****         3.0267  -0.8087  -3.8269 C.3            1 S1                 0.0000
     23 ****         3.7314  -2.1288  -3.4146 C.3            1 S1                 0.0000
     24 ****         2.8417  -3.3496  -3.7517 C.3            1 S1                 0.0000
     25 ****         3.5997  -4.5323  -3.8971 O.3            1 S1                 0.0000
     26 ****         4.1836  -2.1055  -1.9280 C.3            1 S1                 0.0000
     27 ****         5.2381  -1.0573  -1.6094 C.3            1 S1                 0.0000
     28 ****         5.7852  -1.5358  -0.2684 C.3            1 S1                 0.0000
     29 ****         5.6349  -2.9511  -0.2717 O.3            1 S1                 0.0000
     30 ****         4.9134  -3.3565  -1.4295 C.3            1 S1                 0.0000
     31 ****        -1.9721  -2.2730   1.4752 H              1 S1                 0.0000
     32 ****        -0.4704  -1.5252   0.9540 H              1 S1                 0.0000
     33 ****        -1.6140  -2.1398  -0.2404 H              1 S1                 0.0000
     34 ****        -3.2970  -0.4716   0.4853 H              1 S1                 0.0000
     35 ****        -2.5864  -0.1563   2.8157 H              1 S1                 0.0000
     36 ****        -1.1358   0.6763   2.3079 H              1 S1                 0.0000
     37 ****        -2.1693   2.1325   3.9303 H              1 S1                 0.0000
     38 ****        -2.8279   3.5288   3.1399 H              1 S1                 0.0000
     39 ****        -4.2197   4.0971   5.1963 H              1 S1                 0.0000
     40 ****        -3.5386   2.6844   5.9926 H              1 S1                 0.0000
     41 ****        -5.2839   2.8789   5.8857 H              1 S1                 0.0000
     42 ****        -5.4331   3.7880   2.8618 H              1 S1                 0.0000
     43 ****        -6.4811   2.6254   3.6643 H              1 S1                 0.0000
     44 ****        -5.6102   2.1622   2.2116 H              1 S1                 0.0000
     45 ****        -5.3396   0.8083   4.7889 H              1 S1                 0.0000
     46 ****        -3.1148   3.5128   0.8088 H              1 S1                 0.0000
     47 ****        -1.4666   2.9991   1.0891 H              1 S1                 0.0000
     48 ****        -3.5276   1.7100  -0.7813 H              1 S1                 0.0000
     49 ****        -2.0576   2.5193  -1.2641 H              1 S1                 0.0000
     50 ****         2.3005   1.8835   0.5113 H              1 S1                 0.0000
     51 ****         0.4001  -1.6301  -4.5410 H              1 S1                 0.0000
     52 ****         2.8697  -0.8024  -4.9063 H              1 S1                 0.0000
     53 ****         3.6627   0.0522  -3.6212 H              1 S1                 0.0000
     54 ****         4.6272  -2.2000  -4.0339 H              1 S1                 0.0000
     55 ****         2.0735  -3.4986  -2.9921 H              1 S1                 0.0000
     56 ****         2.3279  -3.1925  -4.7003 H              1 S1                 0.0000
     57 ****         3.0131  -5.2420  -4.1105 H              1 S1                 0.0000
     58 ****         3.3185  -1.9456  -1.2830 H              1 S1                 0.0000
     59 ****         6.0298  -1.0768  -2.3598 H              1 S1                 0.0000
     60 ****         4.8520  -0.0405  -1.5588 H              1 S1                 0.0000
     61 ****         6.8252  -1.2455  -0.1181 H              1 S1                 0.0000
     62 ****         5.1960  -1.1260   0.5526 H              1 S1                 0.0000
     63 ****         4.2331  -4.1758  -1.1961 H              1 S1                 0.0000
     64 ****         5.6304  -3.7089  -2.1724 H              1 S1                 0.0000
     65 ****        -3.8803   1.5113   1.7546 H              1 S1                 0.0000
     66 ****        -3.7669   0.5809   4.8679 LP             1 S1                 0.0000
     67 ****        -4.5742   0.3734   3.4636 LP             1 S1                 0.0000
     68 ****        -2.1461   0.0901  -1.2068 LP             1 S1                 0.0000
     69 ****         0.0322   1.7717   0.9256 LP             1 S1                 0.0000
     70 ****         3.3004   0.8493  -1.3702 LP             1 S1                 0.0000
     71 ****        -1.4722  -0.9757  -3.0273 LP             1 S1                 0.0000
     72 ****         4.0760  -4.7346  -3.0413 LP             1 S1                 0.0000
     73 ****         4.2686  -4.4157  -4.6313 LP             1 S1                 0.0000
     74 ****         5.1350  -3.2338   0.5469 LP             1 S1                 0.0000
     75 ****         6.5379  -3.3809  -0.2758 LP             1 S1                 0.0000
@<TRIPOS>BOND
    1    1    2 1     
    2    1   31 1     
    3    1   32 1     
    4    1   33 1     
    5    2   12 1     
    6    2    3 1     
    7    2   34 1     
    8    3    4 1     
    9    3   35 1     
   10    3   36 1     
   11    4    5 1     
   12    4   10 1     
   13    4   65 1     
   14    5    6 1     
   15    5   37 1     
   16    5   38 1     
   17    6    7 1     
   18    6    8 1     
   19    6    9 1     
   20    7   39 1     
   21    7   40 1     
   22    7   41 1     
   23    8   42 1     
   24    8   43 1     
   25    8   44 1     
   26    9   45 1     
   27   10   11 1     
   28   10   46 1     
   29   10   47 1     
   30   11   12 1     
   31   11   48 1     
   32   11   49 1     
   33   12   13 1     
   34   13   18 ar    
   35   13   14 ar    
   36   14   15 ar    
   37   15   16 ar    
   38   15   50 1     
   39   16   17 ar    
   40   17   21 1     
   41   17   18 ar    
   42   18   19 1     
   43   19   20 2     
   44   20   21 1     
   45   20   51 1     
   46   21   22 1     
   47   22   23 1     
   48   22   52 1     
   49   22   53 1     
   50   23   24 1     
   51   23   26 1     
   52   23   54 1     
   53   24   25 1     
   54   24   55 1     
   55   24   56 1     
   56   25   57 1     
   57   26   30 1     
   58   26   27 1     
   59   26   58 1     
   60   27   28 1     
   61   27   59 1     
   62   27   60 1     
   63   28   29 1     
   64   28   61 1     
   65   28   62 1     
   66   29   30 1     
   67   30   63 1     
   68   30   64 1     
   69    9   66 1     
   70    9   67 1     
   71   12   68 1     
   72   14   69 1     
   73   16   70 1     
   74   19   71 1     
   75   25   72 1     
   76   25   73 1     
   77   29   74 1     
   78   29   75 1     
@<TRIPOS>SUBSTRUCTURE
      1 S1             1
@<TRIPOS>SET
LONE_PAIRS      STATIC     ATOMS    <user>   **** ""
10 66 67 68 69 70 71 72 73 74 75
DONOR_HYDROGENS      STATIC     ATOMS    <user>   **** ""
3 65 45 57
ATOM$BLUE        STATIC     ATOMS    COLORGROUP SYSTEM
10 66 67 68 69 70 71 72 73 74 75
ATOM$RED        STATIC     ATOMS    COLORGROUP SYSTEM
3 65 45 57
