AV-unprocessed.smi:711|AV-procd|sdf|3464|dock6
  -GOLD-   22720 0453D 1   1.00000     0.00000
 Structure written by MMmdl.
 29 30  0  0  0  0  0  0  0  0  1 V2000
  147.0799  139.3117  152.6056 O   0  0  0  0  0  0  0  0  0  0  0  0
  147.9710  139.7199  153.3476 C   0  0  0  0  0  0  0  0  0  0  0  0
  149.0842  138.9149  153.6060 N   0  0  0  0  0  0  0  0  0  0  0  0
  150.1608  139.2545  154.4258 C   0  0  0  0  0  0  0  0  0  0  0  0
  151.0787  138.4507  154.5889 O   0  0  0  0  0  0  0  0  0  0  0  0
  150.1163  140.5294  155.0402 N   0  0  0  0  0  0  0  0  0  0  0  0
  151.1910  140.9192  155.9248 C   0  0  0  0  0  0  0  0  0  0  0  0
  150.8159  142.0730  156.8817 C   0  0  2  0  0  0  0  0  0  0  0  0
  150.9939  143.2947  156.1934 O   0  0  0  0  0  0  0  0  0  0  0  0
  151.5771  142.0314  158.2025 C   0  0  0  0  0  0  0  0  0  0  0  0
  151.9220  140.7914  158.7856 C   0  0  0  0  0  0  0  0  0  0  0  0
  152.6046  140.7484  160.0164 C   0  0  0  0  0  0  0  0  0  0  0  0
  152.9467  141.9449  160.6740 C   0  0  0  0  0  0  0  0  0  0  0  0
  153.6020  141.9041  161.8581 F   0  0  0  0  0  0  0  0  0  0  0  0
  152.6042  143.1841  160.1007 C   0  0  0  0  0  0  0  0  0  0  0  0
  151.9204  143.2297  158.8703 C   0  0  0  0  0  0  0  0  0  0  0  0
  151.5851  144.4313  158.3414 F   0  0  0  0  0  0  0  0  0  0  0  0
  149.0283  141.3578  154.8149 C   0  0  0  0  0  0  0  0  0  0  0  0
  147.9855  141.0184  154.0194 C   0  0  0  0  0  0  0  0  0  0  0  0
  146.6638  142.1072  153.7937 Cl  0  0  0  0  0  0  0  0  0  0  0  0
  149.1091  138.0072  153.1646 H   0  0  0  0  0  0  0  0  0  0  0  0
  151.5552  140.0378  156.4562 H   0  0  0  0  0  0  0  0  0  0  0  0
  152.0056  141.2199  155.2631 H   0  0  0  0  0  0  0  0  0  0  0  0
  149.7487  142.0096  157.0962 H   0  0  0  0  0  0  0  0  0  0  0  0
  150.1547  143.7231  156.1214 H   0  0  0  0  0  0  0  0  0  0  0  0
  151.6558  139.8668  158.2946 H   0  0  0  0  0  0  0  0  0  0  0  0
  152.8627  139.7965  160.4572 H   0  0  0  0  0  0  0  0  0  0  0  0
  152.8630  144.1020  160.6075 H   0  0  0  0  0  0  0  0  0  0  0  0
  149.0078  142.3225  155.3024 H   0  0  0  0  0  0  0  0  0  0  0  0
  1  2  2  0  0  0  0
  2 19  1  0  0  0  0
  2  3  1  0  0  0  0
  3 21  1  0  0  0  0
  3  4  1  0  0  0  0
  4  5  2  0  0  0  0
  4  6  1  0  0  0  0
  6  7  1  0  0  0  0
  6 18  1  0  0  0  0
  7  8  1  0  0  0  0
  7 22  1  0  0  0  0
  7 23  1  0  0  0  0
  8  9  1  0  0  0  0
  8 10  1  0  0  0  0
  8 24  1  0  0  0  0
  9 25  1  0  0  0  0
 10 16  1  0  0  0  0
 10 11  2  0  0  0  0
 11 12  1  0  0  0  0
 11 26  1  0  0  0  0
 12 13  2  0  0  0  0
 12 27  1  0  0  0  0
 13 14  1  0  0  0  0
 13 15  1  0  0  0  0
 15 16  2  0  0  0  0
 15 28  1  0  0  0  0
 16 17  1  0  0  0  0
 18 19  2  0  0  0  0
 18 29  1  0  0  0  0
 19 20  1  0  0  0  0
M  END
> <s_m_source_file>
AV-unprocessed.smi

> <i_m_source_file_index>
711

> <i_lp_mmshare_version>
43012

> <i_f3d_flags>
0

> <s_epik_input>
Tz1jMVtuSF1jKD1PKW4oW2NIXWMxQ2wpW0NIMl1bQ0BIXShbT0hdKWMyW2NIXVtjSF1jKEYpW2NIXWMyRg==

> <s_epik_cmdline>
J2VwaWtfcHl0aG9uJywgJy1waCcsICc3LjAnLCAnLXRuJywgJzgnLCAnLW1hJywgJzIwMCcsICctbWV0YWxfYmluZGluZycsICctaW1hZScsICc8aW5maWxlLm1hZT4nLCAnLW9tYWUnLCAnPG91dGZpbGUubWFlPic=

> <r_lp_tautomer_probability>
0.999537

> <r_epik_Ionization_Penalty>
0.0292058

> <r_epik_Ionization_Penalty_Charging>
0.0292057

> <r_epik_Ionization_Penalty_Neutral>
9.07348e-08

> <r_epik_State_Penalty>
0.0240115

> <r_epik_Charging_Adjusted_Penalty>
0.0532172

> <i_epik_Tot_Q>
0

> <i_epik_Tot_abs_Q>
0

> <r_epik_Metal_State_Penalty>
2.21956

> <b_epik_Metal_Only>
0

> <s_lp_Force_Field>
OPLS_2005

> <r_lp_Energy>
11.2971

> <b_lp_Chiralities_Consistent>
1

> <s_lp_Variant>
AV-unprocessed.smi:711-1

> <Gold.Version>
5.8.1

> <Gold.Id.Protein>
6NUR|6NUR_protein|mol2

> <Gold.PLP.Fitness>
54.0739

> <Gold.PLP.PLP>
-48.5688

> <Gold.PLP.part.hbond>
-2.5694

> <Gold.PLP.part.metal>
0.0000

> <Gold.PLP.part.buried>
-0.9526

> <Gold.PLP.part.nonpolar>
-44.7499

> <Gold.PLP.part.repulsive>
1.1657

> <Gold.PLP.ligand.clash>
0.0000

> <Gold.PLP.ligand.torsion>
1.2586

> <Gold.PLP.Chemscore.Hbond>
1.6663

> <Gold.PLP.Chemscore.CHOScore>
1.0000

> <Gold.PLP.Chemscore.Metal>
0.0000

> <Gold.Chemscore.Hbonds>
donor molecule, donor type, donor heavy atom, donor atom, acceptor molecule, acceptor atom, score
      L1  H     3    21       P1  7948  0.63
      L1  H     9    25       P1  8028  1.00
      L1  C    18    29       P1  8028  1.00

> <Gold.PLP.Chemscore.Internal.Correction>
0.0236

> <Gold.Rescore>
     Score         DG    S(hbond)    S(metal)    S(lipo)     H(rot)  DE(clash)    DE(int)     intcor
     13.28     -16.34       1.95        0.00      88.98       2.37       0.13       2.92       ----

> <Gold.Chemscore.Fitness>
13.2795

> <Gold.Chemscore.DG>
-16.3371

> <Gold.Chemscore.ZeroCoef>
-5.4800

> <Gold.Chemscore.Hbond>
1.9465

> <Gold.Chemscore.Metal>
0.0000

> <Gold.Chemscore.Lipo>
88.9781

> <Gold.Chemscore.Internal_Hbond>
0.0000

> <Gold.Chemscore.DEClash>
0.1347

> <Gold.Chemscore.DEInternal>
2.9229

> <Gold.Chemscore.Rot>
2.3652

> <Gold.Chemscore.Internal.Correction>
   9.000000E+99

> <Gold.Chemscore.Hbonds>
donor molecule, donor type, donor heavy atom, donor atom, acceptor molecule, acceptor atom, score
      L1  H     3    21       P1  7948  0.62
      L1  H     9    25       P1  8028  1.00

> <Gold.Chemscore.Hbond.Weighted>
-6.5014

> <Gold.Chemscore.Metal.Weighted>
-0.0000

> <Gold.Chemscore.Lipo.Weighted>
-10.4104

> <Gold.Chemscore.Internal_Hbond.Weighted>
0.0000

> <Gold.Chemscore.DEClash.Weighted>
0.1347

> <Gold.Chemscore.DEInternal.Weighted>
2.9229

> <Gold.Chemscore.Rot.Weighted>
6.0548

> <Gold.Chemscore.Internal.Correction.Weighted>
   9.000000E+99

> <Gold.Protein.RotatedTorsions>
[ 6907 6896 6895 6894 ] final   62.31 input  -60.11 | X-H torsion
[ 7974 7965 7964 7962 ] final -109.18 input  175.53 | X-H torsion
[ 8008 7997 7996 7995 ] final -148.65 input   59.86 | X-H torsion
[ 10167 10162 10161 10158 ] final -147.67 input  -65.29 | X-H torsion
[ 10718 10713 10712 10709 ] final  -44.23 input   66.30 | X-H torsion
[ 10763 10752 10751 10750 ] final  -55.37 input  -60.55 | X-H torsion
[ 11005 11000 10999 10996 ] final -171.63 input  -57.11 | X-H torsion

> <Gold.Protein.ActiveResidues>
 VAL166  LYS551  ARG553  GLY616  TRP617  ASP618  TYR619  PRO620  LYS621  CYS622 
 ASP623  PHE694  ASN695  SER759  ASP760  ASP761  ALA762  ILE779  LEU786  VAL792 
 PHE793  MET794  SER795  GLU796  ALA797  LYS798  CYS799  TRP800  GLU811  SER814 

> <Gold.Protein.RotatedAtoms>
  152.4161  134.6038  160.0007 H   0  0  0  0  0  0  0  0  0  0  0  0  # atno 6907 bound_to 6896
  151.6201  133.3334  159.3094 H   0  0  0  0  0  0  0  0  0  0  0  0  # atno 6908 bound_to 6896
  150.8050  134.7208  159.6702 H   0  0  0  0  0  0  0  0  0  0  0  0  # atno 6909 bound_to 6896
  145.1837  140.8983  143.3465 H   0  0  0  0  0  0  0  0  0  0  0  0  # atno 7974 bound_to 7965
  155.5951  140.0656  157.2748 H   0  0  0  0  0  0  0  0  0  0  0  0  # atno 8008 bound_to 7997
  154.4294  140.1828  156.1162 H   0  0  0  0  0  0  0  0  0  0  0  0  # atno 8009 bound_to 7997
  156.0203  140.3317  155.7035 H   0  0  0  0  0  0  0  0  0  0  0  0  # atno 8010 bound_to 7997
  139.7601  143.8390  152.2605 H   0  0  0  0  0  0  0  0  0  0  0  0  # atno 10167 bound_to 10162
  156.2407  130.4179  149.8764 H   0  0  0  0  0  0  0  0  0  0  0  0  # atno 10718 bound_to 10713
  154.1898  135.6429  153.5057 H   0  0  0  0  0  0  0  0  0  0  0  0  # atno 10763 bound_to 10752
  153.0038  135.5426  154.6427 H   0  0  0  0  0  0  0  0  0  0  0  0  # atno 10764 bound_to 10752
  154.5813  135.2925  155.0703 H   0  0  0  0  0  0  0  0  0  0  0  0  # atno 10765 bound_to 10752
  140.5060  134.5847  157.5003 H   0  0  0  0  0  0  0  0  0  0  0  0  # atno 11005 bound_to 11000
  145.0110  139.3510  143.6120 LP  0  0  0  0  0  0  0  0  0  0  0  0  # atno 17320 bound_to 7965
  146.3448  139.9373  142.8745 LP  0  0  0  0  0  0  0  0  0  0  0  0  # atno 17321 bound_to 7965
  139.8394  144.7217  150.9350 LP  0  0  0  0  0  0  0  0  0  0  0  0  # atno 17342 bound_to 10162
  140.7806  143.3997  151.1169 LP  0  0  0  0  0  0  0  0  0  0  0  0  # atno 17343 bound_to 10162
  156.6346  130.8680  151.3502 LP  0  0  0  0  0  0  0  0  0  0  0  0  # atno 17370 bound_to 10713
  157.7174  130.9514  150.1307 LP  0  0  0  0  0  0  0  0  0  0  0  0  # atno 17371 bound_to 10713
  139.9686  134.7331  156.0088 LP  0  0  0  0  0  0  0  0  0  0  0  0  # atno 17394 bound_to 11000
  141.1410  133.6565  156.3731 LP  0  0  0  0  0  0  0  0  0  0  0  0  # atno 17395 bound_to 11000

$$$$
