#       Name:                AV-unprocessed.smi:1570
#       Creating user name   scv26
#       Creation time:       Fri Mar 27 06:53:32 2020


#       File generated by GOLD software.
#

@<TRIPOS>MOLECULE
AV-unprocessed.smi:1570
    58    60     1
SMALL
NO_CHARGES


@<TRIPOS>ATOM
      1 ****        -1.7992   4.7237  -1.6142 C.3            1 S1                 0.0000
      2 ****        -3.0129   3.8495  -1.2753 C.3            1 S1                 0.0000
      3 ****        -2.6776   2.8451  -0.2694 N.am           1 S1                 0.0000
      4 ****        -2.2186   1.5930  -0.5013 C.2            1 S1                 0.0000
      5 ****        -1.9996   1.0931  -1.6049 O.2            1 S1                 0.0000
      6 ****        -2.0202   0.9896   0.6945 N.am           1 S1                 0.0000
      7 ****        -1.5161  -0.3654   0.9075 C.3            1 S1                 0.0000
      8 ****         0.0244  -0.4146   0.8401 C.3            1 S1                 0.0000
      9 ****         0.5294  -0.1540   2.1353 O.3            1 S1                 0.0000
     10 ****         0.5322  -1.8061   0.4104 C.3            1 S1                 0.0000
     11 ****         2.0119  -1.8536   0.2563 N.4            1 S1                 1.0000
     12 ****         2.5797  -3.2162   0.3981 C.3            1 S1                 0.0000
     13 ****         2.3687  -4.0476  -0.8838 C.3            1 S1                 0.0000
     14 ****         3.0257  -5.4288  -0.7882 C.3            1 S1                 0.0000
     15 ****         2.9522  -3.3561  -1.9828 O.3            1 S1                 0.0000
     16 ****         2.3539  -2.0858  -2.2179 C.3            1 S1                 0.0000
     17 ****         3.0114  -1.4728  -3.4591 C.3            1 S1                 0.0000
     18 ****         2.5391  -1.1980  -0.9685 C.3            1 S1                 0.0000
     19 ****        -2.3327   1.8914   1.7216 C.ar           1 S1                 0.0000
     20 ****        -2.2695   1.7610   3.1200 C.ar           1 S1                 0.0000
     21 ****        -2.6489   2.8842   3.8919 C.ar           1 S1                 0.0000
     22 ****        -3.0721   4.0860   3.2675 C.ar           1 S1                 0.0000
     23 ****        -3.1255   4.1906   1.8578 C.ar           1 S1                 0.0000
     24 ****        -2.7451   3.0595   1.1148 C.ar           1 S1                 0.0000
     25 ****        -2.0580   5.4716  -2.3637 H              1 S1                 0.0000
     26 ****        -0.9795   4.1245  -2.0118 H              1 S1                 0.0000
     27 ****        -1.4336   5.2503  -0.7320 H              1 S1                 0.0000
     28 ****        -3.8325   4.4709  -0.9130 H              1 S1                 0.0000
     29 ****        -3.3820   3.3608  -2.1786 H              1 S1                 0.0000
     30 ****        -1.8913  -0.7814   1.8435 H              1 S1                 0.0000
     31 ****        -1.9395  -0.9957   0.1238 H              1 S1                 0.0000
     32 ****         0.3898   0.3484   0.1537 H              1 S1                 0.0000
     33 ****         0.1511  -0.7751   2.7391 H              1 S1                 0.0000
     34 ****         0.2169  -2.5341   1.1596 H              1 S1                 0.0000
     35 ****         0.0550  -2.1107  -0.5210 H              1 S1                 0.0000
     36 ****         3.6478  -3.1203   0.5984 H              1 S1                 0.0000
     37 ****         2.1516  -3.7200   1.2655 H              1 S1                 0.0000
     38 ****         1.3025  -4.1867  -1.0704 H              1 S1                 0.0000
     39 ****         2.6074  -6.0064   0.0364 H              1 S1                 0.0000
     40 ****         4.1008  -5.3448  -0.6271 H              1 S1                 0.0000
     41 ****         2.8699  -5.9985  -1.7045 H              1 S1                 0.0000
     42 ****         1.2934  -2.2240  -2.4311 H              1 S1                 0.0000
     43 ****         2.5787  -0.4996  -3.6923 H              1 S1                 0.0000
     44 ****         2.8738  -2.1142  -4.3300 H              1 S1                 0.0000
     45 ****         4.0834  -1.3360  -3.3131 H              1 S1                 0.0000
     46 ****         2.0845  -0.2204  -1.1220 H              1 S1                 0.0000
     47 ****         3.6031  -1.0131  -0.8139 H              1 S1                 0.0000
     48 ****        -1.9417   0.8462   3.5909 H              1 S1                 0.0000
     49 ****        -2.6132   2.8269   4.9700 H              1 S1                 0.0000
     50 ****        -3.3548   4.9325   3.8760 H              1 S1                 0.0000
     51 ****        -3.4419   5.1046   1.3773 H              1 S1                 0.0000
     52 ****         2.3672  -1.3245   1.0405 H              1 S1                 0.0000
     53 ****        -2.1618   1.6252  -2.4359 LP             1 S1                 0.0000
     54 ****        -1.6595   0.1550  -1.6703 LP             1 S1                 0.0000
     55 ****         0.2844   0.7754   2.4112 LP             1 S1                 0.0000
     56 ****         1.5248  -0.2497   2.1338 LP             1 S1                 0.0000
     57 ****         2.8463  -3.9158  -2.8047 LP             1 S1                 0.0000
     58 ****         3.9250  -3.2208  -1.7947 LP             1 S1                 0.0000
@<TRIPOS>BOND
    1    1    2 1     
    2    1   25 1     
    3    1   26 1     
    4    1   27 1     
    5    2    3 1     
    6    2   28 1     
    7    2   29 1     
    8    3   24 1     
    9    3    4 am    
   10    4    5 2     
   11    4    6 am    
   12    6    7 1     
   13    6   19 1     
   14    7    8 1     
   15    7   30 1     
   16    7   31 1     
   17    8    9 1     
   18    8   10 1     
   19    8   32 1     
   20    9   33 1     
   21   10   11 1     
   22   10   34 1     
   23   10   35 1     
   24   11   18 1     
   25   11   12 1     
   26   11   52 1     
   27   12   13 1     
   28   12   36 1     
   29   12   37 1     
   30   13   14 1     
   31   13   15 1     
   32   13   38 1     
   33   14   39 1     
   34   14   40 1     
   35   14   41 1     
   36   15   16 1     
   37   16   17 1     
   38   16   18 1     
   39   16   42 1     
   40   17   43 1     
   41   17   44 1     
   42   17   45 1     
   43   18   46 1     
   44   18   47 1     
   45   19   24 ar    
   46   19   20 ar    
   47   20   21 ar    
   48   20   48 1     
   49   21   22 ar    
   50   21   49 1     
   51   22   23 ar    
   52   22   50 1     
   53   23   24 ar    
   54   23   51 1     
   55    5   53 1     
   56    5   54 1     
   57    9   55 1     
   58    9   56 1     
   59   15   57 1     
   60   15   58 1     
@<TRIPOS>SUBSTRUCTURE
      1 S1             1
@<TRIPOS>SET
LONE_PAIRS      STATIC     ATOMS    <user>   **** ""
6 53 54 55 56 57 58
DONOR_HYDROGENS      STATIC     ATOMS    <user>   **** ""
2 33 52
ATOM$BLUE        STATIC     ATOMS    COLORGROUP SYSTEM
6 53 54 55 56 57 58
ATOM$RED        STATIC     ATOMS    COLORGROUP SYSTEM
2 33 52
