#       Name:                AV-unprocessed.smi:193
#       Creating user name   scv26
#       Creation time:       Thu Mar 26 19:35:11 2020


#       File generated by GOLD software.
#

@<TRIPOS>MOLECULE
AV-unprocessed.smi:193
    69    73     1
SMALL
NO_CHARGES


@<TRIPOS>ATOM
      1 ****        -3.1671  -1.4938   3.4073 C.3            1 S1                 0.0000
      2 ****        -2.8267  -0.2589   2.5587 C.3            1 S1                 0.0000
      3 ****        -1.6063  -0.5726   1.6667 C.3            1 S1                 0.0000
      4 ****        -0.9279   0.6054   1.1234 N.pl3          1 S1                 0.0000
      5 ****         0.4109   0.5297   0.8907 C.ar           1 S1                 0.0000
      6 ****         1.1738   1.6402   1.0778 N.ar           1 S1                 0.0000
      7 ****         2.4915   1.6064   0.8623 C.ar           1 S1                 0.0000
      8 ****         3.2444   0.5822   0.4595 N.ar           1 S1                 0.0000
      9 ****         2.4908  -0.5373   0.2663 C.ar           1 S1                 0.0000
     10 ****         1.0835  -0.6532   0.4589 C.ar           1 S1                 0.0000
     11 ****         0.6775  -1.9477   0.1503 N.2            1 S1                 0.0000
     12 ****         1.7765  -2.5591  -0.1956 C.2            1 S1                 0.0000
     13 ****         2.9120  -1.7833  -0.1648 N.pl3          1 S1                 0.0000
     14 ****         4.2612  -2.2012  -0.5148 C.3            1 S1                 0.0000
     15 ****         4.5586  -2.1423  -2.0339 C.3            1 S1                 0.0000
     16 ****         3.7188  -3.0893  -2.6724 O.3            1 S1                 0.0000
     17 ****         4.2772  -0.7507  -2.6421 C.3            1 S1                 0.0000
     18 ****         4.7612  -0.6473  -4.0992 C.3            1 S1                 0.0000
     19 ****         6.1407  -0.9846  -4.1833 O.3            1 S1                 0.0000
     20 ****         6.4042  -2.3266  -3.7919 C.3            1 S1                 0.0000
     21 ****         6.0247  -2.5284  -2.3138 C.3            1 S1                 0.0000
     22 ****        -1.6157   1.8899   0.9850 C.3            1 S1                 0.0000
     23 ****        -2.9811   1.7563   0.2974 C.3            1 S1                 0.0000
     24 ****        -4.0366   1.5409   1.2828 N.3            1 S1                 0.0000
     25 ****        -5.3163   1.8407   0.6545 C.3            1 S1                 0.0000
     26 ****        -6.4807   2.1859   1.5564 C.3            1 S1                 0.0000
     27 ****        -5.8415   3.2640   0.7139 C.3            1 S1                 0.0000
     28 ****        -5.0755   4.3940   1.3747 C.3            1 S1                 0.0000
     29 ****        -4.0639   0.1486   1.7280 C.3            1 S1                 0.0000
     30 ****        -3.4304  -2.3457   2.7794 H              1 S1                 0.0000
     31 ****        -4.0086  -1.2968   4.0722 H              1 S1                 0.0000
     32 ****        -2.3232  -1.7886   4.0317 H              1 S1                 0.0000
     33 ****        -2.5752   0.5388   3.2596 H              1 S1                 0.0000
     34 ****        -0.8849  -1.1304   2.2654 H              1 S1                 0.0000
     35 ****        -1.9014  -1.2271   0.8460 H              1 S1                 0.0000
     36 ****         3.0171   2.5341   1.0351 H              1 S1                 0.0000
     37 ****         1.7883  -3.5968  -0.4958 H              1 S1                 0.0000
     38 ****         4.9632  -1.5666   0.0277 H              1 S1                 0.0000
     39 ****         4.4141  -3.2131  -0.1366 H              1 S1                 0.0000
     40 ****         3.8937  -3.0673  -3.6010 H              1 S1                 0.0000
     41 ****         3.2149  -0.5091  -2.5921 H              1 S1                 0.0000
     42 ****         4.7916   0.0092  -2.0523 H              1 S1                 0.0000
     43 ****         4.1762  -1.2948  -4.7542 H              1 S1                 0.0000
     44 ****         4.6271   0.3712  -4.4636 H              1 S1                 0.0000
     45 ****         5.8609  -3.0187  -4.4371 H              1 S1                 0.0000
     46 ****         7.4653  -2.5311  -3.9352 H              1 S1                 0.0000
     47 ****         6.6836  -1.9108  -1.7017 H              1 S1                 0.0000
     48 ****         6.2126  -3.5609  -2.0164 H              1 S1                 0.0000
     49 ****        -1.7030   2.3803   1.9555 H              1 S1                 0.0000
     50 ****        -1.0183   2.5567   0.3624 H              1 S1                 0.0000
     51 ****        -3.1798   2.7047  -0.2039 H              1 S1                 0.0000
     52 ****        -2.9804   0.9922  -0.4818 H              1 S1                 0.0000
     53 ****        -5.5847   1.2899  -0.2458 H              1 S1                 0.0000
     54 ****        -7.4664   1.8346   1.2588 H              1 S1                 0.0000
     55 ****        -6.3027   2.2112   2.6300 H              1 S1                 0.0000
     56 ****        -6.4095   3.5855  -0.1569 H              1 S1                 0.0000
     57 ****        -4.5627   4.0494   2.2732 H              1 S1                 0.0000
     58 ****        -5.7612   5.1929   1.6567 H              1 S1                 0.0000
     59 ****        -4.3353   4.7988   0.6846 H              1 S1                 0.0000
     60 ****        -4.1979  -0.5248   0.8797 H              1 S1                 0.0000
     61 ****        -4.9487   0.0277   2.3546 H              1 S1                 0.0000
     62 ****         0.7435   2.4908   1.3799 LP             1 S1                 0.0000
     63 ****         4.2331   0.6291   0.3176 LP             1 S1                 0.0000
     64 ****        -0.2482  -2.3244   0.1857 LP             1 S1                 0.0000
     65 ****         2.7605  -2.8581  -2.5041 LP             1 S1                 0.0000
     66 ****         3.9087  -4.0038  -2.3150 LP             1 S1                 0.0000
     67 ****         6.6569  -0.3704  -3.5865 LP             1 S1                 0.0000
     68 ****         6.4426  -0.8623  -5.1288 LP             1 S1                 0.0000
     69 ****        -3.8652   2.1305   2.0720 LP             1 S1                 0.0000
@<TRIPOS>BOND
    1    1    2 1     
    2    1   30 1     
    3    1   31 1     
    4    1   32 1     
    5    2   29 1     
    6    2    3 1     
    7    2   33 1     
    8    3    4 1     
    9    3   34 1     
   10    3   35 1     
   11    4    5 1     
   12    4   22 1     
   13    5   10 ar    
   14    5    6 ar    
   15    6    7 ar    
   16    7    8 ar    
   17    7   36 1     
   18    8    9 ar    
   19    9   13 1     
   20    9   10 ar    
   21   10   11 1     
   22   11   12 2     
   23   12   13 1     
   24   12   37 1     
   25   13   14 1     
   26   14   15 1     
   27   14   38 1     
   28   14   39 1     
   29   15   21 1     
   30   15   16 1     
   31   15   17 1     
   32   16   40 1     
   33   17   18 1     
   34   17   41 1     
   35   17   42 1     
   36   18   19 1     
   37   18   43 1     
   38   18   44 1     
   39   19   20 1     
   40   20   21 1     
   41   20   45 1     
   42   20   46 1     
   43   21   47 1     
   44   21   48 1     
   45   22   23 1     
   46   22   49 1     
   47   22   50 1     
   48   23   24 1     
   49   23   51 1     
   50   23   52 1     
   51   24   25 1     
   52   24   29 1     
   53   25   27 1     
   54   25   26 1     
   55   25   53 1     
   56   26   27 1     
   57   26   54 1     
   58   26   55 1     
   59   27   28 1     
   60   27   56 1     
   61   28   57 1     
   62   28   58 1     
   63   28   59 1     
   64   29   60 1     
   65   29   61 1     
   66    6   62 1     
   67    8   63 1     
   68   11   64 1     
   69   16   65 1     
   70   16   66 1     
   71   19   67 1     
   72   19   68 1     
   73   24   69 1     
@<TRIPOS>SUBSTRUCTURE
      1 S1             1
@<TRIPOS>SET
LONE_PAIRS      STATIC     ATOMS    <user>   **** ""
8 62 63 64 65 66 67 68 69
DONOR_HYDROGENS      STATIC     ATOMS    <user>   **** ""
1 40
ATOM$BLUE        STATIC     ATOMS    COLORGROUP SYSTEM
8 62 63 64 65 66 67 68 69
ATOM$RED        STATIC     ATOMS    COLORGROUP SYSTEM
1 40
