AV-unprocessed.smi:2426|AV-procd|sdf|9576|dock3
  -GOLD-   2272013203D 1   1.00000     0.00000
 Structure written by MMmdl.
 36 37  0  0  0  0  0  0  0  0  1 V2000
  152.7565  136.7076  157.6849 C   0  0  0  0  0  0  0  0  0  0  0  0
  152.3408  136.5331  156.3352 O   0  0  0  0  0  0  0  0  0  0  0  0
  151.7798  137.6107  155.6821 C   0  0  0  0  0  0  0  0  0  0  0  0
  151.8311  138.8855  156.2823 C   0  0  0  0  0  0  0  0  0  0  0  0
  151.2447  139.9623  155.5801 C   0  0  0  0  0  0  0  0  0  0  0  0
  151.3191  141.2282  156.2188 N   0  0  0  0  0  0  0  0  0  0  0  0
  151.1778  141.5070  157.5267 C   0  0  0  0  0  0  0  0  0  0  0  0
  150.9582  140.6793  158.4116 O   0  0  0  0  0  0  0  0  0  0  0  0
  151.3059  142.8219  157.7576 N   0  0  0  0  0  0  0  0  0  0  0  0
  151.2144  143.4670  159.0644 C   0  0  2  0  0  0  0  0  0  0  0  0
  150.9863  144.9779  158.8961 C   0  0  0  0  0  0  0  0  0  0  0  0
  152.4812  143.1623  159.8619 C   0  0  0  0  0  0  0  0  0  0  0  0
  152.9153  141.7055  160.0871 C   0  0  0  0  0  0  0  0  0  0  0  0
  153.4377  142.1226  161.4647 C   0  0  0  0  0  0  0  0  0  0  0  0
  152.4863  143.3202  161.3903 C   0  0  0  0  0  0  0  0  0  0  0  0
  150.6615  139.7463  154.3751 N   0  0  0  0  0  0  0  0  0  0  0  0
  150.6650  138.5025  153.8927 C   0  0  0  0  0  0  0  0  0  0  0  0
  151.1900  137.4247  154.4766 N   0  0  0  0  0  0  0  0  0  0  0  0
  153.1751  135.7730  158.0576 H   0  0  0  0  0  0  0  0  0  0  0  0
  151.9180  136.9744  158.3297 H   0  0  0  0  0  0  0  0  0  0  0  0
  153.5297  137.4727  157.7677 H   0  0  0  0  0  0  0  0  0  0  0  0
  152.3029  139.0257  157.2439 H   0  0  0  0  0  0  0  0  0  0  0  0
  151.4993  142.0122  155.6097 H   0  0  0  0  0  0  0  0  0  0  0  0
  151.4832  143.4268  156.9691 H   0  0  0  0  0  0  0  0  0  0  0  0
  150.3582  143.0533  159.6009 H   0  0  0  0  0  0  0  0  0  0  0  0
  150.9012  145.4723  159.8639 H   0  0  0  0  0  0  0  0  0  0  0  0
  150.0678  145.1809  158.3448 H   0  0  0  0  0  0  0  0  0  0  0  0
  151.8098  145.4450  158.3550 H   0  0  0  0  0  0  0  0  0  0  0  0
  153.3319  143.7174  159.4596 H   0  0  0  0  0  0  0  0  0  0  0  0
  152.0718  141.0159  160.1483 H   0  0  0  0  0  0  0  0  0  0  0  0
  153.6797  141.3452  159.3979 H   0  0  0  0  0  0  0  0  0  0  0  0
  153.2239  141.4170  162.2681 H   0  0  0  0  0  0  0  0  0  0  0  0
  154.4888  142.4152  161.4487 H   0  0  0  0  0  0  0  0  0  0  0  0
  152.9055  144.2604  161.7497 H   0  0  0  0  0  0  0  0  0  0  0  0
  151.5143  143.1141  161.8416 H   0  0  0  0  0  0  0  0  0  0  0  0
  150.1944  138.3537  152.9322 H   0  0  0  0  0  0  0  0  0  0  0  0
  1  2  1  0  0  0  0
  1 19  1  0  0  0  0
  1 20  1  0  0  0  0
  1 21  1  0  0  0  0
  2  3  1  0  0  0  0
  3 18  1  0  0  0  0
  3  4  2  0  0  0  0
  4  5  1  0  0  0  0
  4 22  1  0  0  0  0
  5  6  1  0  0  0  0
  5 16  2  0  0  0  0
  6  7  1  0  0  0  0
  6 23  1  0  0  0  0
  7  8  2  0  0  0  0
  7  9  1  0  0  0  0
  9 10  1  0  0  0  0
  9 24  1  0  0  0  0
 10 11  1  0  0  0  0
 10 12  1  0  0  0  0
 10 25  1  0  0  0  0
 11 26  1  0  0  0  0
 11 27  1  0  0  0  0
 11 28  1  0  0  0  0
 12 15  1  0  0  0  0
 12 13  1  0  0  0  0
 12 29  1  0  0  0  0
 13 14  1  0  0  0  0
 13 30  1  0  0  0  0
 13 31  1  0  0  0  0
 14 15  1  0  0  0  0
 14 32  1  0  0  0  0
 14 33  1  0  0  0  0
 15 34  1  0  0  0  0
 15 35  1  0  0  0  0
 16 17  1  0  0  0  0
 17 18  2  0  0  0  0
 17 36  1  0  0  0  0
M  END
> <s_m_source_file>
AV-unprocessed.smi

> <i_m_source_file_index>
2426

> <i_lp_mmshare_version>
43012

> <i_f3d_flags>
0

> <s_epik_input>
W0NIM11PYzFbY0hdYyhuW2NIXW4xKVtOSF1DKD1PKVtOSF1bQ0BIXShbQ0gzXSlbQ0hdMltDSDJdW0NIMl1bQ0gyXTI=

> <s_epik_cmdline>
J2VwaWtfcHl0aG9uJywgJy1waCcsICc3LjAnLCAnLXRuJywgJzgnLCAnLW1hJywgJzIwMCcsICctbWV0YWxfYmluZGluZycsICctaW1hZScsICc8aW5maWxlLm1hZT4nLCAnLW9tYWUnLCAnPG91dGZpbGUubWFlPic=

> <r_lp_tautomer_probability>
1

> <r_epik_Ionization_Penalty>
2.84534e-05

> <r_epik_Ionization_Penalty_Charging>
0

> <r_epik_Ionization_Penalty_Neutral>
2.84534e-05

> <r_epik_State_Penalty>
-0

> <r_epik_Charging_Adjusted_Penalty>
0

> <i_epik_Tot_Q>
0

> <i_epik_Tot_abs_Q>
0

> <r_epik_Metal_State_Penalty>
-0

> <b_epik_Metal_Only>
0

> <s_lp_Force_Field>
OPLS_2005

> <r_lp_Energy>
12.1235

> <b_lp_Chiralities_Consistent>
1

> <s_lp_Variant>
AV-unprocessed.smi:2426-1

> <Gold.Version>
5.8.1

> <Gold.Id.Protein>
6NUR|6NUR_protein|mol2

> <Gold.PLP.Fitness>
46.1535

> <Gold.PLP.PLP>
-36.5644

> <Gold.PLP.part.hbond>
-2.0000

> <Gold.PLP.part.metal>
0.0000

> <Gold.PLP.part.buried>
-6.2901

> <Gold.PLP.part.nonpolar>
-28.9078

> <Gold.PLP.part.repulsive>
0.4681

> <Gold.PLP.ligand.clash>
0.0000

> <Gold.PLP.ligand.torsion>
0.7512

> <Gold.PLP.Chemscore.Hbond>
1.8500

> <Gold.PLP.Chemscore.CHOScore>
1.7965

> <Gold.PLP.Chemscore.Metal>
0.0000

> <Gold.Chemscore.Hbonds>
donor molecule, donor type, donor heavy atom, donor atom, acceptor molecule, acceptor atom, score
      P1  H  7989  7998       L1    16  0.85
      P1  H 10752 10763       L1     2  1.00
      L1  C    17    36       P1  7948  0.73
      L1  C    17    36       P1  7957  1.00

> <Gold.PLP.Chemscore.Internal.Correction>
0.1519

> <Gold.Rescore>
     Score         DG    S(hbond)    S(metal)    S(lipo)     H(rot)  DE(clash)    DE(int)     intcor
     10.64     -14.21       1.21        0.00      75.01       1.60       0.20       3.38       ----

> <Gold.Chemscore.Fitness>
10.6403

> <Gold.Chemscore.DG>
-14.2119

> <Gold.Chemscore.ZeroCoef>
-5.4800

> <Gold.Chemscore.Hbond>
1.2108

> <Gold.Chemscore.Metal>
0.0000

> <Gold.Chemscore.Lipo>
75.0117

> <Gold.Chemscore.Internal_Hbond>
0.0000

> <Gold.Chemscore.DEClash>
0.1962

> <Gold.Chemscore.DEInternal>
3.3754

> <Gold.Chemscore.Rot>
1.5971

> <Gold.Chemscore.Internal.Correction>
   9.000000E+99

> <Gold.Chemscore.Hbonds>
donor molecule, donor type, donor heavy atom, donor atom, acceptor molecule, acceptor atom, score
      P1  H  7989  7998       L1    16  0.13
      P1  H 10752 10763       L1     2  0.74

> <Gold.Chemscore.Hbond.Weighted>
-4.0441

> <Gold.Chemscore.Metal.Weighted>
-0.0000

> <Gold.Chemscore.Lipo.Weighted>
-8.7764

> <Gold.Chemscore.Internal_Hbond.Weighted>
0.0000

> <Gold.Chemscore.DEClash.Weighted>
0.1962

> <Gold.Chemscore.DEInternal.Weighted>
3.3754

> <Gold.Chemscore.Rot.Weighted>
4.0886

> <Gold.Chemscore.Internal.Correction.Weighted>
   9.000000E+99

> <Gold.Protein.RotatedTorsions>
[ 6907 6896 6895 6894 ] final  -13.20 input  -60.11 | X-H torsion
[ 7974 7965 7964 7962 ] final   71.62 input  175.53 | X-H torsion
[ 8008 7997 7996 7995 ] final  169.20 input   59.86 | X-H torsion
[ 10167 10162 10161 10158 ] final  110.80 input  -65.29 | X-H torsion
[ 10718 10713 10712 10709 ] final   97.66 input   66.30 | X-H torsion
[ 10763 10752 10751 10750 ] final   95.08 input  -60.55 | X-H torsion
[ 11005 11000 10999 10996 ] final  172.32 input  -57.11 | X-H torsion

> <Gold.Protein.ActiveResidues>
 VAL166  LYS551  ARG553  GLY616  TRP617  ASP618  TYR619  PRO620  LYS621  CYS622 
 ASP623  PHE694  ASN695  SER759  ASP760  ASP761  ALA762  ILE779  LEU786  VAL792 
 PHE793  MET794  SER795  GLU796  ALA797  LYS798  CYS799  TRP800  GLU811  SER814 

> <Gold.Protein.RotatedAtoms>
  151.3587  135.0899  159.9426 H   0  0  0  0  0  0  0  0  0  0  0  0  # atno 6907 bound_to 6896
  152.5168  133.9280  159.7577 H   0  0  0  0  0  0  0  0  0  0  0  0  # atno 6908 bound_to 6896
  150.9670  133.6330  159.2774 H   0  0  0  0  0  0  0  0  0  0  0  0  # atno 6909 bound_to 6896
  145.7636  139.2811  143.1362 H   0  0  0  0  0  0  0  0  0  0  0  0  # atno 7974 bound_to 7965
  156.1478  140.1570  156.8818 H   0  0  0  0  0  0  0  0  0  0  0  0  # atno 8008 bound_to 7997
  154.5044  140.0817  156.7901 H   0  0  0  0  0  0  0  0  0  0  0  0  # atno 8009 bound_to 7997
  155.3954  140.3412  155.4256 H   0  0  0  0  0  0  0  0  0  0  0  0  # atno 8010 bound_to 7997
  139.6660  144.7127  151.1776 H   0  0  0  0  0  0  0  0  0  0  0  0  # atno 10167 bound_to 10162
  157.6909  131.0616  150.4678 H   0  0  0  0  0  0  0  0  0  0  0  0  # atno 10718 bound_to 10713
  153.2490  135.4267  155.0778 H   0  0  0  0  0  0  0  0  0  0  0  0  # atno 10763 bound_to 10752
  154.8373  135.3421  154.6540 H   0  0  0  0  0  0  0  0  0  0  0  0  # atno 10764 bound_to 10752
  153.6961  135.7031  153.5133 H   0  0  0  0  0  0  0  0  0  0  0  0  # atno 10765 bound_to 10752
  140.3285  134.7377  157.4117 H   0  0  0  0  0  0  0  0  0  0  0  0  # atno 11005 bound_to 11000
  146.0240  140.8321  142.9909 LP  0  0  0  0  0  0  0  0  0  0  0  0  # atno 17320 bound_to 7965
  144.6826  140.2670  143.7311 LP  0  0  0  0  0  0  0  0  0  0  0  0  # atno 17321 bound_to 7965
  140.7599  143.5919  150.8788 LP  0  0  0  0  0  0  0  0  0  0  0  0  # atno 17342 bound_to 10162
  139.9580  143.6196  152.3010 LP  0  0  0  0  0  0  0  0  0  0  0  0  # atno 17343 bound_to 10162
  156.5018  130.4119  149.6349 LP  0  0  0  0  0  0  0  0  0  0  0  0  # atno 17370 bound_to 10713
  156.3321  130.7337  151.2268 LP  0  0  0  0  0  0  0  0  0  0  0  0  # atno 17371 bound_to 10713
  140.0881  134.5639  155.8472 LP  0  0  0  0  0  0  0  0  0  0  0  0  # atno 17394 bound_to 11000
  141.2069  133.6659  156.6273 LP  0  0  0  0  0  0  0  0  0  0  0  0  # atno 17395 bound_to 11000

$$$$
