AV-unprocessed.smi:648|AV-procd|sdf|3170|dock1
  -GOLD-   22720 0 93D 1   1.00000     0.00000
 Structure written by MMmdl.
 46 47  0  0  0  0  0  0  0  0  2 V2000
  141.8993  135.3851  153.5455 C   0  0  0  0  0  0  0  0  0  0  0  0
  143.4344  135.3844  153.5843 C   0  0  2  0  0  0  0  0  0  0  0  0
  143.9529  135.2125  155.0249 C   0  0  0  0  0  0  0  0  0  0  0  0
  145.4964  135.2081  155.1331 C   0  0  0  0  0  0  0  0  0  0  0  0
  145.8825  135.3030  156.6233 C   0  0  0  0  0  0  0  0  0  0  0  0
  146.0823  133.8794  154.6032 C   0  0  0  0  0  0  0  0  0  0  0  0
  146.0788  136.4510  154.4010 C   0  0  0  0  0  0  0  0  0  0  0  0
  145.5560  136.7179  152.9567 C   0  0  1  0  0  0  0  0  0  0  0  0
  146.0354  138.1081  152.4517 C   0  0  0  0  0  0  0  0  0  0  0  0
  147.4434  138.2301  152.4143 O   0  0  0  0  0  0  0  0  0  0  0  0
  146.0196  135.6792  151.9965 N   0  3  0  0  0  0  0  0  0  0  0  0
  145.6067  135.7847  150.5762 C   0  0  0  0  0  0  0  0  0  0  0  0
  144.3388  134.9592  150.3065 C   0  0  0  0  0  0  0  0  0  0  0  0
  144.5967  133.5309  150.3197 N   0  0  0  0  0  0  0  0  0  0  0  0
  143.7611  132.4978  150.2020 C   0  0  0  0  0  0  0  0  0  0  0  0
  144.3590  131.3168  150.2688 N   0  0  0  0  0  0  0  0  0  0  0  0
  145.6528  131.7232  150.4330 C   0  0  0  0  0  0  0  0  0  0  0  0
  145.8495  133.0412  150.4735 N   0  0  0  0  0  0  0  0  0  0  0  0
  144.0061  136.6735  152.9621 C   0  0  0  0  0  0  0  0  0  0  0  0
  141.4865  136.2150  154.1202 H   0  0  0  0  0  0  0  0  0  0  0  0
  141.4957  134.4609  153.9598 H   0  0  0  0  0  0  0  0  0  0  0  0
  141.5322  135.4737  152.5226 H   0  0  0  0  0  0  0  0  0  0  0  0
  143.7605  134.5318  152.9892 H   0  0  0  0  0  0  0  0  0  0  0  0
  143.5528  136.0256  155.6330 H   0  0  0  0  0  0  0  0  0  0  0  0
  143.5494  134.2949  155.4556 H   0  0  0  0  0  0  0  0  0  0  0  0
  146.9652  135.3059  156.7541 H   0  0  0  0  0  0  0  0  0  0  0  0
  145.4862  134.4612  157.1924 H   0  0  0  0  0  0  0  0  0  0  0  0
  145.4966  136.2138  157.0831 H   0  0  0  0  0  0  0  0  0  0  0  0
  147.1721  133.8877  154.6353 H   0  0  0  0  0  0  0  0  0  0  0  0
  145.7862  133.6550  153.5810 H   0  0  0  0  0  0  0  0  0  0  0  0
  145.7493  133.0367  155.2102 H   0  0  0  0  0  0  0  0  0  0  0  0
  145.8177  137.3215  155.0043 H   0  0  0  0  0  0  0  0  0  0  0  0
  147.1678  136.4268  154.4267 H   0  0  0  0  0  0  0  0  0  0  0  0
  145.6732  138.3068  151.4433 H   0  0  0  0  0  0  0  0  0  0  0  0
  145.6465  138.9010  153.0920 H   0  0  0  0  0  0  0  0  0  0  0  0
  147.8040  137.4601  152.0010 H   0  0  0  0  0  0  0  0  0  0  0  0
  147.0293  135.6814  152.0200 H   0  0  0  0  0  0  0  0  0  0  0  0
  145.4246  136.8234  150.3021 H   0  0  0  0  0  0  0  0  0  0  0  0
  146.3997  135.4154  149.9285 H   0  0  0  0  0  0  0  0  0  0  0  0
  143.5901  135.1741  151.0701 H   0  0  0  0  0  0  0  0  0  0  0  0
  143.8935  135.2328  149.3486 H   0  0  0  0  0  0  0  0  0  0  0  0
  142.6954  132.6109  150.0675 H   0  0  0  0  0  0  0  0  0  0  0  0
  146.4729  131.0274  150.5295 H   0  0  0  0  0  0  0  0  0  0  0  0
  143.6292  136.7917  151.9449 H   0  0  0  0  0  0  0  0  0  0  0  0
  143.6083  137.5187  153.5252 H   0  0  0  0  0  0  0  0  0  0  0  0
  145.7048  134.7821  152.3384 H   0  0  0  0  0  0  0  0  0  0  0  0
  1  2  1  0  0  0  0
  1 20  1  0  0  0  0
  1 21  1  0  0  0  0
  1 22  1  0  0  0  0
  2 19  1  0  0  0  0
  2  3  1  0  0  0  0
  2 23  1  0  0  0  0
  3  4  1  0  0  0  0
  3 24  1  0  0  0  0
  3 25  1  0  0  0  0
  4  5  1  0  0  0  0
  4  6  1  0  0  0  0
  4  7  1  0  0  0  0
  5 26  1  0  0  0  0
  5 27  1  0  0  0  0
  5 28  1  0  0  0  0
  6 29  1  0  0  0  0
  6 30  1  0  0  0  0
  6 31  1  0  0  0  0
  7  8  1  0  0  0  0
  7 32  1  0  0  0  0
  7 33  1  0  0  0  0
  8  9  1  0  0  0  0
  8 11  1  0  0  0  0
  8 19  1  0  0  0  0
  9 10  1  0  0  0  0
  9 34  1  0  0  0  0
  9 35  1  0  0  0  0
 10 36  1  0  0  0  0
 11 12  1  0  0  0  0
 11 37  1  0  0  0  0
 11 46  1  0  0  0  0
 12 13  1  0  0  0  0
 12 38  1  0  0  0  0
 12 39  1  0  0  0  0
 13 14  1  0  0  0  0
 13 40  1  0  0  0  0
 13 41  1  0  0  0  0
 14 18  1  0  0  0  0
 14 15  1  0  0  0  0
 15 16  2  0  0  0  0
 15 42  1  0  0  0  0
 16 17  1  0  0  0  0
 17 18  2  0  0  0  0
 17 43  1  0  0  0  0
 19 44  1  0  0  0  0
 19 45  1  0  0  0  0
M  CHG  1  11   1
M  END
> <s_m_source_file>
AV-unprocessed.smi

> <i_m_source_file_index>
648

> <i_lp_mmshare_version>
43012

> <i_f3d_flags>
0

> <s_epik_input>
W0NIM11DMShbQ0gzXSlbQ0gyXVtDQEBIXShbQ0gzXSlbQ0gyXVtDQF0oW0NIMl0xKShbQ0gyXVtPSF0pW05IXVtDSDJdW0NIMl1uMltjSF1uW2NIXW4y

> <s_epik_cmdline>
J2VwaWtfcHl0aG9uJywgJy1waCcsICc3LjAnLCAnLXRuJywgJzgnLCAnLW1hJywgJzIwMCcsICctbWV0YWxfYmluZGluZycsICctaW1hZScsICc8aW5maWxlLm1hZT4nLCAnLW9tYWUnLCAnPG91dGZpbGUubWFlPic=

> <r_lp_tautomer_probability>
1

> <r_epik_Ionization_Penalty>
0.00942316

> <r_epik_Ionization_Penalty_Charging>
0.00942185

> <r_epik_Ionization_Penalty_Neutral>
1.31257e-06

> <r_epik_State_Penalty>
0.00715409

> <r_epik_Charging_Adjusted_Penalty>
0.0165759

> <i_epik_Tot_Q>
1

> <i_epik_Tot_abs_Q>
1

> <r_epik_Metal_State_Penalty>
0.00715563

> <b_epik_Metal_Only>
0

> <s_lp_Force_Field>
OPLS_2005

> <r_lp_Energy>
29.4172

> <b_lp_Chiralities_Consistent>
1

> <s_lp_Variant>
AV-unprocessed.smi:648-1

> <Gold.Version>
5.8.1

> <Gold.Id.Protein>
6NUR|6NUR_protein|mol2

> <Gold.PLP.Fitness>
43.3600

> <Gold.PLP.PLP>
-27.6721

> <Gold.PLP.part.hbond>
-3.8473

> <Gold.PLP.part.metal>
0.0000

> <Gold.PLP.part.buried>
-3.4000

> <Gold.PLP.part.nonpolar>
-21.7146

> <Gold.PLP.part.repulsive>
0.3316

> <Gold.PLP.ligand.clash>
0.0000

> <Gold.PLP.ligand.torsion>
0.2837

> <Gold.PLP.Chemscore.Hbond>
3.3861

> <Gold.PLP.Chemscore.CHOScore>
2.0000

> <Gold.PLP.Chemscore.Metal>
0.0000

> <Gold.Chemscore.Hbonds>
donor molecule, donor type, donor heavy atom, donor atom, acceptor molecule, acceptor atom, score
      L1  H    10    36       P1  7948  1.00
      L1  H    11    37       P1  7948  2.00
      P1  H 10785 10796       L1    16  0.24
      L1  C    15    42       P1 10186  1.00
      L1  C    17    43       P1 10747  1.00

> <Gold.PLP.Chemscore.Internal.Correction>
0.0971

> <Gold.Rescore>
     Score         DG    S(hbond)    S(metal)    S(lipo)     H(rot)  DE(clash)    DE(int)     intcor
     10.15     -11.01       2.59        0.00      42.72       3.17       0.58       0.29       ----

> <Gold.Chemscore.Fitness>
10.1462

> <Gold.Chemscore.DG>
-11.0077

> <Gold.Chemscore.ZeroCoef>
-5.4800

> <Gold.Chemscore.Hbond>
2.5920

> <Gold.Chemscore.Metal>
0.0000

> <Gold.Chemscore.Lipo>
42.7204

> <Gold.Chemscore.Internal_Hbond>
0.0000

> <Gold.Chemscore.DEClash>
0.5764

> <Gold.Chemscore.DEInternal>
0.2851

> <Gold.Chemscore.Rot>
3.1750

> <Gold.Chemscore.Internal.Correction>
   9.000000E+99

> <Gold.Chemscore.Hbonds>
donor molecule, donor type, donor heavy atom, donor atom, acceptor molecule, acceptor atom, score
      L1  H    10    36       P1  7948  0.97
      L1  H    11    37       P1  7948  0.98
      P1  H 10785 10796       L1    16  0.10

> <Gold.Chemscore.Hbond.Weighted>
-8.6573

> <Gold.Chemscore.Metal.Weighted>
-0.0000

> <Gold.Chemscore.Lipo.Weighted>
-4.9983

> <Gold.Chemscore.Internal_Hbond.Weighted>
0.0000

> <Gold.Chemscore.DEClash.Weighted>
0.5764

> <Gold.Chemscore.DEInternal.Weighted>
0.2851

> <Gold.Chemscore.Rot.Weighted>
8.1279

> <Gold.Chemscore.Internal.Correction.Weighted>
   9.000000E+99

> <Gold.Protein.RotatedTorsions>
[ 6907 6896 6895 6894 ] final  -75.21 input  -60.11 | X-H torsion
[ 7974 7965 7964 7962 ] final -128.01 input  175.53 | X-H torsion
[ 8008 7997 7996 7995 ] final  -46.55 input   59.86 | X-H torsion
[ 10167 10162 10161 10158 ] final  -57.00 input  -65.29 | X-H torsion
[ 10718 10713 10712 10709 ] final  160.47 input   66.30 | X-H torsion
[ 10763 10752 10751 10750 ] final  -77.23 input  -60.55 | X-H torsion
[ 11005 11000 10999 10996 ] final -160.91 input  -57.11 | X-H torsion

> <Gold.Protein.ActiveResidues>
 VAL166  LYS551  ARG553  GLY616  TRP617  ASP618  TYR619  PRO620  LYS621  CYS622 
 ASP623  PHE694  ASN695  SER759  ASP760  ASP761  ALA762  ILE779  LEU786  VAL792 
 PHE793  MET794  SER795  GLU796  ALA797  LYS798  CYS799  TRP800  GLU811  SER814 

> <Gold.Protein.RotatedAtoms>
  150.7066  134.4754  159.5444 H   0  0  0  0  0  0  0  0  0  0  0  0  # atno 6907 bound_to 6896
  152.2402  134.8233  160.0470 H   0  0  0  0  0  0  0  0  0  0  0  0  # atno 6908 bound_to 6896
  151.9017  133.3504  159.3870 H   0  0  0  0  0  0  0  0  0  0  0  0  # atno 6909 bound_to 6896
  144.9713  140.7548  143.4668 H   0  0  0  0  0  0  0  0  0  0  0  0  # atno 7974 bound_to 7965
  154.4008  140.1368  156.4030 H   0  0  0  0  0  0  0  0  0  0  0  0  # atno 8008 bound_to 7997
  155.7806  140.3481  155.5275 H   0  0  0  0  0  0  0  0  0  0  0  0  # atno 8009 bound_to 7997
  155.8677  140.0967  157.1561 H   0  0  0  0  0  0  0  0  0  0  0  0  # atno 8010 bound_to 7997
  140.6284  143.2448  151.5304 H   0  0  0  0  0  0  0  0  0  0  0  0  # atno 10167 bound_to 10162
  157.1499  131.0561  151.2285 H   0  0  0  0  0  0  0  0  0  0  0  0  # atno 10718 bound_to 10713
  154.5102  135.5771  153.6599 H   0  0  0  0  0  0  0  0  0  0  0  0  # atno 10763 bound_to 10752
  152.9895  135.6157  154.2889 H   0  0  0  0  0  0  0  0  0  0  0  0  # atno 10764 bound_to 10752
  154.2803  135.2851  155.2679 H   0  0  0  0  0  0  0  0  0  0  0  0  # atno 10765 bound_to 10752
  140.6263  134.4698  157.5227 H   0  0  0  0  0  0  0  0  0  0  0  0  # atno 11005 bound_to 11000
  145.2554  139.2014  143.4920 LP  0  0  0  0  0  0  0  0  0  0  0  0  # atno 17320 bound_to 7965
  146.3383  140.2475  142.8597 LP  0  0  0  0  0  0  0  0  0  0  0  0  # atno 17321 bound_to 7965
  139.5501  144.2418  152.1515 LP  0  0  0  0  0  0  0  0  0  0  0  0  # atno 17342 bound_to 10162
  140.1655  144.4985  150.6608 LP  0  0  0  0  0  0  0  0  0  0  0  0  # atno 17343 bound_to 10162
  157.4230  130.7448  149.6928 LP  0  0  0  0  0  0  0  0  0  0  0  0  # atno 17370 bound_to 10713
  155.9772  130.4065  150.3725 LP  0  0  0  0  0  0  0  0  0  0  0  0  # atno 17371 bound_to 10713
  139.9133  134.8298  156.1451 LP  0  0  0  0  0  0  0  0  0  0  0  0  # atno 17394 bound_to 11000
  141.0707  133.6798  156.2135 LP  0  0  0  0  0  0  0  0  0  0  0  0  # atno 17395 bound_to 11000

$$$$
