AV-unprocessed.smi:2706|AV-procd|sdf|10453|dock4
  -GOLD-   2272014493D 1   1.00000     0.00000
 Structure written by MMmdl.
 43 46  0  0  0  0  0  0  0  0  1 V2000
  151.3709  144.6203  157.8739 C   0  0  0  0  0  0  0  0  0  0  0  0
  151.8882  144.3769  159.2159 N   0  0  0  0  0  0  0  0  0  0  0  0
  151.8499  145.5358  160.1024 C   0  0  0  0  0  0  0  0  0  0  0  0
  152.4060  143.1337  159.5839 C   0  0  0  0  0  0  0  0  0  0  0  0
  152.8848  142.9192  160.8299 C   0  0  0  0  0  0  0  0  0  0  0  0
  153.4239  141.6238  161.1889 C   0  0  0  0  0  0  0  0  0  0  0  0
  153.4533  140.6096  160.3023 C   0  0  0  0  0  0  0  0  0  0  0  0
  152.9359  140.7831  158.9581 C   0  0  0  0  0  0  0  0  0  0  0  0
  152.9803  139.7972  158.1062 N   0  0  0  0  0  0  0  0  0  0  0  0
  152.4014  139.8540  156.8383 C   0  0  0  0  0  0  0  0  0  0  0  0
  152.9325  139.3587  155.8449 O   0  0  0  0  0  0  0  0  0  0  0  0
  151.1631  140.3858  156.7760 N   0  0  0  0  0  0  0  0  0  0  0  0
  150.3645  140.5170  155.6008 C   0  0  2  0  0  0  0  0  0  0  0  0
  149.0066  141.1815  155.7664 C   0  0  1  0  0  0  0  0  0  0  0  0
  148.1114  141.6763  154.6342 C   0  0  2  0  0  0  0  0  0  0  0  0
  146.6699  141.2197  154.9393 C   0  0  0  0  0  0  0  0  0  0  0  0
  146.7460  139.6911  154.7028 C   0  0  0  0  0  0  0  0  0  0  0  0
  148.2202  139.4897  154.2947 C   0  0  1  0  0  0  0  0  0  0  0  0
  148.4407  140.7524  153.4603 C   0  0  0  0  0  0  0  0  0  0  0  0
  149.0816  139.7027  155.5360 C   0  0  1  0  0  0  0  0  0  0  0  0
  152.4471  142.0729  158.6744 N   0  0  0  0  0  0  0  0  0  0  0  0
  152.1941  144.7581  157.1725 H   0  0  0  0  0  0  0  0  0  0  0  0
  150.7362  145.5059  157.8336 H   0  0  0  0  0  0  0  0  0  0  0  0
  150.7692  143.7775  157.5343 H   0  0  0  0  0  0  0  0  0  0  0  0
  151.1209  145.3787  160.8979 H   0  0  0  0  0  0  0  0  0  0  0  0
  151.5794  146.4506  159.5741 H   0  0  0  0  0  0  0  0  0  0  0  0
  152.8269  145.7018  160.5571 H   0  0  0  0  0  0  0  0  0  0  0  0
  152.8777  143.6947  161.5810 H   0  0  0  0  0  0  0  0  0  0  0  0
  153.8131  141.4698  162.1845 H   0  0  0  0  0  0  0  0  0  0  0  0
  153.8692  139.6670  160.6279 H   0  0  0  0  0  0  0  0  0  0  0  0
  150.7581  140.7258  157.6364 H   0  0  0  0  0  0  0  0  0  0  0  0
  150.8974  140.7000  154.6703 H   0  0  0  0  0  0  0  0  0  0  0  0
  148.7329  141.5195  156.7640 H   0  0  0  0  0  0  0  0  0  0  0  0
  148.2245  142.7429  154.4401 H   0  0  0  0  0  0  0  0  0  0  0  0
  146.3643  141.4688  155.9562 H   0  0  0  0  0  0  0  0  0  0  0  0
  145.9590  141.6815  154.2527 H   0  0  0  0  0  0  0  0  0  0  0  0
  146.4818  139.1188  155.5929 H   0  0  0  0  0  0  0  0  0  0  0  0
  146.0727  139.3912  153.8988 H   0  0  0  0  0  0  0  0  0  0  0  0
  148.4329  138.5479  153.7882 H   0  0  0  0  0  0  0  0  0  0  0  0
  147.7457  140.8477  152.6233 H   0  0  0  0  0  0  0  0  0  0  0  0
  149.4524  140.8628  153.0712 H   0  0  0  0  0  0  0  0  0  0  0  0
  148.8659  139.0467  156.3778 H   0  0  0  0  0  0  0  0  0  0  0  0
  152.0927  142.2847  157.7530 H   0  0  0  0  0  0  0  0  0  0  0  0
  1  2  1  0  0  0  0
  1 22  1  0  0  0  0
  1 23  1  0  0  0  0
  1 24  1  0  0  0  0
  2  3  1  0  0  0  0
  2  4  1  0  0  0  0
  3 25  1  0  0  0  0
  3 26  1  0  0  0  0
  3 27  1  0  0  0  0
  4 21  1  0  0  0  0
  4  5  2  0  0  0  0
  5  6  1  0  0  0  0
  5 28  1  0  0  0  0
  6  7  2  0  0  0  0
  6 29  1  0  0  0  0
  7  8  1  0  0  0  0
  7 30  1  0  0  0  0
  8  9  2  0  0  0  0
  8 21  1  0  0  0  0
  9 10  1  0  0  0  0
 10 11  2  0  0  0  0
 10 12  1  0  0  0  0
 12 13  1  0  0  0  0
 12 31  1  0  0  0  0
 13 20  1  0  0  0  0
 13 14  1  0  0  0  0
 13 32  1  0  0  0  0
 14 20  1  0  0  0  0
 14 15  1  0  0  0  0
 14 33  1  0  0  0  0
 15 19  1  0  0  0  0
 15 16  1  0  0  0  0
 15 34  1  0  0  0  0
 16 17  1  0  0  0  0
 16 35  1  0  0  0  0
 16 36  1  0  0  0  0
 17 18  1  0  0  0  0
 17 37  1  0  0  0  0
 17 38  1  0  0  0  0
 18 19  1  0  0  0  0
 18 20  1  0  0  0  0
 18 39  1  0  0  0  0
 19 40  1  0  0  0  0
 19 41  1  0  0  0  0
 20 42  1  0  0  0  0
 21 43  1  0  0  0  0
M  END
> <s_m_source_file>
AV-unprocessed.smi

> <i_m_source_file_index>
2706

> <i_lp_mmshare_version>
43012

> <i_f3d_flags>
0

> <s_epik_input>
W0NIM11OKFtDSDNdKWMxW2NIXVtjSF1bY0hdYyhuMSlbTkhdQyg9TylbTkhdW0NASF0yW0NAQEhdM1tDQEBIXShbQ0gyXTQpW0NIMl1bQ0gyXVtDQEBIXTRbQ0BIXTIz

> <s_epik_cmdline>
J2VwaWtfcHl0aG9uJywgJy1waCcsICc3LjAnLCAnLXRuJywgJzgnLCAnLW1hJywgJzIwMCcsICctbWV0YWxfYmluZGluZycsICctaW1hZScsICc8aW5maWxlLm1hZT4nLCAnLW9tYWUnLCAnPG91dGZpbGUubWFlPic=

> <r_lp_tautomer_probability>
0.999994

> <r_epik_Ionization_Penalty>
2.07242

> <r_epik_Ionization_Penalty_Charging>
2.07242

> <r_epik_Ionization_Penalty_Neutral>
9.73808e-07

> <r_epik_State_Penalty>
3.96009

> <r_epik_Charging_Adjusted_Penalty>
6.03251

> <i_epik_Tot_Q>
0

> <i_epik_Tot_abs_Q>
0

> <r_epik_Metal_State_Penalty>
3.98849

> <b_epik_Metal_Only>
1

> <s_lp_Force_Field>
OPLS_2005

> <r_lp_Energy>
89.4683

> <b_lp_Chiralities_Consistent>
1

> <s_lp_Variant>
AV-unprocessed.smi:2706-10

> <Gold.Version>
5.8.1

> <Gold.Id.Protein>
6NUR|6NUR_protein|mol2

> <Gold.PLP.Fitness>
45.4978

> <Gold.PLP.PLP>
-43.2260

> <Gold.PLP.part.hbond>
-2.0000

> <Gold.PLP.part.metal>
0.0000

> <Gold.PLP.part.buried>
-0.8729

> <Gold.PLP.part.nonpolar>
-40.7196

> <Gold.PLP.part.repulsive>
0.1672

> <Gold.PLP.ligand.clash>
0.0000

> <Gold.PLP.ligand.torsion>
0.3435

> <Gold.PLP.Chemscore.Hbond>
0.9760

> <Gold.PLP.Chemscore.CHOScore>
0.0000

> <Gold.PLP.Chemscore.Metal>
0.0000

> <Gold.Chemscore.Hbonds>
donor molecule, donor type, donor heavy atom, donor atom, acceptor molecule, acceptor atom, score
      P1  H  7997  8010       L1    11  0.96

> <Gold.PLP.Chemscore.Internal.Correction>
0.0308

> <Gold.Rescore>
     Score         DG    S(hbond)    S(metal)    S(lipo)     H(rot)  DE(clash)    DE(int)     intcor
     13.61     -16.84       0.62        0.00     101.34       1.00       1.55       1.68       ----

> <Gold.Chemscore.Fitness>
13.6074

> <Gold.Chemscore.DG>
-16.8436

> <Gold.Chemscore.ZeroCoef>
-5.4800

> <Gold.Chemscore.Hbond>
0.6187

> <Gold.Chemscore.Metal>
0.0000

> <Gold.Chemscore.Lipo>
101.3430

> <Gold.Chemscore.Internal_Hbond>
0.0000

> <Gold.Chemscore.DEClash>
1.5526

> <Gold.Chemscore.DEInternal>
1.6836

> <Gold.Chemscore.Rot>
1.0000

> <Gold.Chemscore.Internal.Correction>
   9.000000E+99

> <Gold.Chemscore.Hbonds>
donor molecule, donor type, donor heavy atom, donor atom, acceptor molecule, acceptor atom, score
      P1  H  7997  8010       L1    11  0.24

> <Gold.Chemscore.Hbond.Weighted>
-2.0665

> <Gold.Chemscore.Metal.Weighted>
-0.0000

> <Gold.Chemscore.Lipo.Weighted>
-11.8571

> <Gold.Chemscore.Internal_Hbond.Weighted>
0.0000

> <Gold.Chemscore.DEClash.Weighted>
1.5526

> <Gold.Chemscore.DEInternal.Weighted>
1.6836

> <Gold.Chemscore.Rot.Weighted>
2.5600

> <Gold.Chemscore.Internal.Correction.Weighted>
   9.000000E+99

> <Gold.Protein.RotatedTorsions>
[ 6907 6896 6895 6894 ] final  -20.66 input  -60.11 | X-H torsion
[ 7974 7965 7964 7962 ] final    6.28 input  175.53 | X-H torsion
[ 8008 7997 7996 7995 ] final  106.90 input   59.86 | X-H torsion
[ 10167 10162 10161 10158 ] final  175.53 input  -65.29 | X-H torsion
[ 10718 10713 10712 10709 ] final  -73.33 input   66.30 | X-H torsion
[ 10763 10752 10751 10750 ] final   76.79 input  -60.55 | X-H torsion
[ 11005 11000 10999 10996 ] final  -46.45 input  -57.11 | X-H torsion

> <Gold.Protein.ActiveResidues>
 VAL166  LYS551  ARG553  GLY616  TRP617  ASP618  TYR619  PRO620  LYS621  CYS622 
 ASP623  PHE694  ASN695  SER759  ASP760  ASP761  ALA762  ILE779  LEU786  VAL792 
 PHE793  MET794  SER795  GLU796  ALA797  LYS798  CYS799  TRP800  GLU811  SER814 

> <Gold.Protein.RotatedAtoms>
  151.2449  135.0602  159.9039 H   0  0  0  0  0  0  0  0  0  0  0  0  # atno 6907 bound_to 6896
  152.5388  134.0394  159.8071 H   0  0  0  0  0  0  0  0  0  0  0  0  # atno 6908 bound_to 6896
  151.0593  133.5508  159.2667 H   0  0  0  0  0  0  0  0  0  0  0  0  # atno 6909 bound_to 6896
  146.2436  140.0257  142.8394 H   0  0  0  0  0  0  0  0  0  0  0  0  # atno 7974 bound_to 7965
  156.1781  140.3104  155.9096 H   0  0  0  0  0  0  0  0  0  0  0  0  # atno 8008 bound_to 7997
  155.3444  140.0467  157.3062 H   0  0  0  0  0  0  0  0  0  0  0  0  # atno 8009 bound_to 7997
  154.5312  140.2231  155.8811 H   0  0  0  0  0  0  0  0  0  0  0  0  # atno 8010 bound_to 7997
  139.5181  144.3020  152.0370 H   0  0  0  0  0  0  0  0  0  0  0  0  # atno 10167 bound_to 10162
  156.0284  130.4392  150.2726 H   0  0  0  0  0  0  0  0  0  0  0  0  # atno 10718 bound_to 10713
  153.0751  135.4938  154.8387 H   0  0  0  0  0  0  0  0  0  0  0  0  # atno 10763 bound_to 10752
  154.7076  135.3013  154.9249 H   0  0  0  0  0  0  0  0  0  0  0  0  # atno 10764 bound_to 10752
  153.9953  135.6773  153.4809 H   0  0  0  0  0  0  0  0  0  0  0  0  # atno 10765 bound_to 10752
  141.0580  133.6719  156.3157 H   0  0  0  0  0  0  0  0  0  0  0  0  # atno 11005 bound_to 11000
  145.1200  140.9457  143.4606 LP  0  0  0  0  0  0  0  0  0  0  0  0  # atno 17320 bound_to 7965
  145.0490  139.3197  143.5938 LP  0  0  0  0  0  0  0  0  0  0  0  0  # atno 17321 bound_to 7965
  140.2467  144.4212  150.6238 LP  0  0  0  0  0  0  0  0  0  0  0  0  # atno 17342 bound_to 10162
  140.6253  143.2180  151.6610 LP  0  0  0  0  0  0  0  0  0  0  0  0  # atno 17343 bound_to 10162
  157.0829  131.0148  151.3150 LP  0  0  0  0  0  0  0  0  0  0  0  0  # atno 17370 bound_to 10713
  157.4913  130.7824  149.7511 LP  0  0  0  0  0  0  0  0  0  0  0  0  # atno 17371 bound_to 10713
  140.5926  134.5635  157.5502 LP  0  0  0  0  0  0  0  0  0  0  0  0  # atno 17394 bound_to 11000
  139.9407  134.7793  156.0686 LP  0  0  0  0  0  0  0  0  0  0  0  0  # atno 17395 bound_to 11000

$$$$
