AV-unprocessed.smi:1517|AV-procd|sdf|6122|dock2
  -GOLD-   22720 6253D 1   1.00000     0.00000
 Structure written by MMmdl.
 41 43  0  0  0  0  0  0  0  0  1 V2000
  151.4115  136.0500  155.7465 O   0  0  0  0  0  0  0  0  0  0  0  0
  151.0940  136.2945  157.0989 C   0  0  0  0  0  0  0  0  0  0  0  0
  152.1060  137.2786  157.7020 C   0  0  0  0  0  0  0  0  0  0  0  0
  151.8679  138.6449  157.2731 N   0  0  0  0  0  0  0  0  0  0  0  0
  151.9513  139.8577  157.9470 C   0  0  0  0  0  0  0  0  0  0  0  0
  152.3033  139.9696  159.2264 N   0  0  0  0  0  0  0  0  0  0  0  0
  152.2421  141.3352  159.4300 C   0  0  0  0  0  0  0  0  0  0  0  0
  152.5054  142.1036  160.5864 C   0  0  0  0  0  0  0  0  0  0  0  0
  152.3750  143.5076  160.5558 C   0  0  0  0  0  0  0  0  0  0  0  0
  151.9797  144.1625  159.3715 C   0  0  0  0  0  0  0  0  0  0  0  0
  151.7127  143.4165  158.2074 C   0  0  0  0  0  0  0  0  0  0  0  0
  151.8448  142.0156  158.2425 C   0  0  0  0  0  0  0  0  0  0  0  0
  151.6693  141.0116  157.2951 N   0  0  0  0  0  0  0  0  0  0  0  0
  151.2758  141.2015  155.9046 C   0  0  0  0  0  0  0  0  0  0  0  0
  150.0887  140.3011  155.5093 C   0  0  2  0  0  0  0  0  0  0  0  0
  150.4493  139.5857  154.3449 O   0  0  0  0  0  0  0  0  0  0  0  0
  148.7938  141.0872  155.3314 C   0  0  0  0  0  0  0  0  0  0  0  0
  148.2625  141.3067  154.0406 C   0  0  0  0  0  0  0  0  0  0  0  0
  147.0683  142.0345  153.8761 C   0  0  0  0  0  0  0  0  0  0  0  0
  146.4006  142.5557  155.0000 C   0  0  0  0  0  0  0  0  0  0  0  0
  145.2542  143.2585  154.8418 F   0  0  0  0  0  0  0  0  0  0  0  0
  146.9299  142.3518  156.2880 C   0  0  0  0  0  0  0  0  0  0  0  0
  148.1217  141.6202  156.4554 C   0  0  0  0  0  0  0  0  0  0  0  0
  148.6190  141.4387  157.7026 F   0  0  0  0  0  0  0  0  0  0  0  0
  150.8399  135.3699  155.4246 H   0  0  0  0  0  0  0  0  0  0  0  0
  150.0970  136.7350  157.1229 H   0  0  0  0  0  0  0  0  0  0  0  0
  151.0443  135.3593  157.6584 H   0  0  0  0  0  0  0  0  0  0  0  0
  152.1147  137.2219  158.7911 H   0  0  0  0  0  0  0  0  0  0  0  0
  153.1086  137.0082  157.3692 H   0  0  0  0  0  0  0  0  0  0  0  0
  151.5831  138.7207  156.3073 H   0  0  0  0  0  0  0  0  0  0  0  0
  152.8091  141.6118  161.4987 H   0  0  0  0  0  0  0  0  0  0  0  0
  152.5791  144.0850  161.4455 H   0  0  0  0  0  0  0  0  0  0  0  0
  151.8822  145.2384  159.3567 H   0  0  0  0  0  0  0  0  0  0  0  0
  151.4113  143.9150  157.2980 H   0  0  0  0  0  0  0  0  0  0  0  0
  151.0469  142.2515  155.7195 H   0  0  0  0  0  0  0  0  0  0  0  0
  152.1418  140.9679  155.2837 H   0  0  0  0  0  0  0  0  0  0  0  0
  149.9404  139.5495  156.2852 H   0  0  0  0  0  0  0  0  0  0  0  0
  150.1853  138.6845  154.4531 H   0  0  0  0  0  0  0  0  0  0  0  0
  148.7690  140.9175  153.1694 H   0  0  0  0  0  0  0  0  0  0  0  0
  146.6664  142.1961  152.8867 H   0  0  0  0  0  0  0  0  0  0  0  0
  146.4211  142.7570  157.1502 H   0  0  0  0  0  0  0  0  0  0  0  0
  1  2  1  0  0  0  0
  1 25  1  0  0  0  0
  2  3  1  0  0  0  0
  2 26  1  0  0  0  0
  2 27  1  0  0  0  0
  3  4  1  0  0  0  0
  3 28  1  0  0  0  0
  3 29  1  0  0  0  0
  4  5  1  0  0  0  0
  4 30  1  0  0  0  0
  5 13  1  0  0  0  0
  5  6  2  0  0  0  0
  6  7  1  0  0  0  0
  7 12  2  0  0  0  0
  7  8  1  0  0  0  0
  8  9  2  0  0  0  0
  8 31  1  0  0  0  0
  9 10  1  0  0  0  0
  9 32  1  0  0  0  0
 10 11  2  0  0  0  0
 10 33  1  0  0  0  0
 11 12  1  0  0  0  0
 11 34  1  0  0  0  0
 12 13  1  0  0  0  0
 13 14  1  0  0  0  0
 14 15  1  0  0  0  0
 14 35  1  0  0  0  0
 14 36  1  0  0  0  0
 15 16  1  0  0  0  0
 15 17  1  0  0  0  0
 15 37  1  0  0  0  0
 16 38  1  0  0  0  0
 17 23  1  0  0  0  0
 17 18  2  0  0  0  0
 18 19  1  0  0  0  0
 18 39  1  0  0  0  0
 19 20  2  0  0  0  0
 19 40  1  0  0  0  0
 20 21  1  0  0  0  0
 20 22  1  0  0  0  0
 22 23  2  0  0  0  0
 22 41  1  0  0  0  0
 23 24  1  0  0  0  0
M  END
> <s_m_source_file>
AV-unprocessed.smi

> <i_m_source_file_index>
1517

> <i_lp_mmshare_version>
43012

> <i_f3d_flags>
0

> <s_epik_input>
W09IXVtDSDJdW0NIMl1bTkhdYyhuMSluKGMoYzEyKVtjSF1bY0hdW2NIXVtjSF0yKVtDSDJdW0NASF0oW09IXSljM1tjSF1bY0hdYyhGKVtjSF1jM0Y=

> <s_epik_cmdline>
J2VwaWtfcHl0aG9uJywgJy1waCcsICc3LjAnLCAnLXRuJywgJzgnLCAnLW1hJywgJzIwMCcsICctbWV0YWxfYmluZGluZycsICctaW1hZScsICc8aW5maWxlLm1hZT4nLCAnLW9tYWUnLCAnPG91dGZpbGUubWFlPic=

> <r_epik_Ionization_Penalty>
1.30972

> <r_epik_Ionization_Penalty_Charging>
0

> <r_epik_Ionization_Penalty_Neutral>
1.30972

> <r_epik_State_Penalty>
1.38438

> <r_epik_Charging_Adjusted_Penalty>
1.38438

> <i_epik_Tot_Q>
0

> <i_epik_Tot_abs_Q>
0

> <r_epik_Metal_State_Penalty>
0.00551145

> <b_epik_Metal_Only>
0

> <s_lp_Force_Field>
OPLS_2005

> <r_lp_Energy>
9.55996

> <b_lp_Chiralities_Consistent>
1

> <s_lp_Variant>
AV-unprocessed.smi:1517-3

> <Gold.Version>
5.8.1

> <Gold.Id.Protein>
6NUR|6NUR_protein|mol2

> <Gold.PLP.Fitness>
49.5370

> <Gold.PLP.PLP>
-46.0766

> <Gold.PLP.part.hbond>
-2.0744

> <Gold.PLP.part.metal>
0.0000

> <Gold.PLP.part.buried>
-6.6116

> <Gold.PLP.part.nonpolar>
-36.4359

> <Gold.PLP.part.repulsive>
0.0596

> <Gold.PLP.ligand.clash>
0.0000

> <Gold.PLP.ligand.torsion>
1.2940

> <Gold.PLP.Chemscore.Hbond>
2.0000

> <Gold.PLP.Chemscore.CHOScore>
0.0000

> <Gold.PLP.Chemscore.Metal>
0.0000

> <Gold.Chemscore.Hbonds>
donor molecule, donor type, donor heavy atom, donor atom, acceptor molecule, acceptor atom, score
      P1  H  7989  7998       L1    16  1.00
      P1  H 10752 10763       L1     1  1.00

> <Gold.PLP.Chemscore.Internal.Correction>
0.0485

> <Gold.Rescore>
     Score         DG    S(hbond)    S(metal)    S(lipo)     H(rot)  DE(clash)    DE(int)     intcor
     13.96     -16.44       1.78        0.00     113.24       3.22       0.03       2.45       ----

> <Gold.Chemscore.Fitness>
13.9642

> <Gold.Chemscore.DG>
-16.4438

> <Gold.Chemscore.ZeroCoef>
-5.4800

> <Gold.Chemscore.Hbond>
1.7834

> <Gold.Chemscore.Metal>
0.0000

> <Gold.Chemscore.Lipo>
113.2398

> <Gold.Chemscore.Internal_Hbond>
0.0000

> <Gold.Chemscore.DEClash>
0.0270

> <Gold.Chemscore.DEInternal>
2.4527

> <Gold.Chemscore.Rot>
3.2194

> <Gold.Chemscore.Internal.Correction>
   9.000000E+99

> <Gold.Chemscore.Hbonds>
donor molecule, donor type, donor heavy atom, donor atom, acceptor molecule, acceptor atom, score
      P1  H  7989  7998       L1    16  0.30
      P1  H 10752 10763       L1     1  0.30

> <Gold.Chemscore.Hbond.Weighted>
-5.9564

> <Gold.Chemscore.Metal.Weighted>
-0.0000

> <Gold.Chemscore.Lipo.Weighted>
-13.2491

> <Gold.Chemscore.Internal_Hbond.Weighted>
0.0000

> <Gold.Chemscore.DEClash.Weighted>
0.0270

> <Gold.Chemscore.DEInternal.Weighted>
2.4527

> <Gold.Chemscore.Rot.Weighted>
8.2416

> <Gold.Chemscore.Internal.Correction.Weighted>
   9.000000E+99

> <Gold.Protein.RotatedTorsions>
[ 6907 6896 6895 6894 ] final -125.88 input  -60.11 | X-H torsion
[ 7974 7965 7964 7962 ] final  169.87 input  175.53 | X-H torsion
[ 8008 7997 7996 7995 ] final -131.84 input   59.86 | X-H torsion
[ 10167 10162 10161 10158 ] final  106.00 input  -65.29 | X-H torsion
[ 10718 10713 10712 10709 ] final   74.92 input   66.30 | X-H torsion
[ 10763 10752 10751 10750 ] final   89.35 input  -60.55 | X-H torsion
[ 11005 11000 10999 10996 ] final   -4.01 input  -57.11 | X-H torsion

> <Gold.Protein.ActiveResidues>
 VAL166  LYS551  ARG553  GLY616  TRP617  ASP618  TYR619  PRO620  LYS621  CYS622 
 ASP623  PHE694  ASN695  SER759  ASP760  ASP761  ALA762  ILE779  LEU786  VAL792 
 PHE793  MET794  SER795  GLU796  ALA797  LYS798  CYS799  TRP800  GLU811  SER814 

> <Gold.Protein.RotatedAtoms>
  150.8912  133.7241  159.2904 H   0  0  0  0  0  0  0  0  0  0  0  0  # atno 6907 bound_to 6896
  151.4791  135.1049  159.9782 H   0  0  0  0  0  0  0  0  0  0  0  0  # atno 6908 bound_to 6896
  152.4821  133.8233  159.7120 H   0  0  0  0  0  0  0  0  0  0  0  0  # atno 6909 bound_to 6896
  144.7341  139.9118  143.6415 H   0  0  0  0  0  0  0  0  0  0  0  0  # atno 7974 bound_to 7965
  155.3190  140.0461  157.3038 H   0  0  0  0  0  0  0  0  0  0  0  0  # atno 8008 bound_to 7997
  154.5390  140.2282  155.8639 H   0  0  0  0  0  0  0  0  0  0  0  0  # atno 8009 bound_to 7997
  156.1863  140.3061  155.9251 H   0  0  0  0  0  0  0  0  0  0  0  0  # atno 8010 bound_to 7997
  139.7046  144.7088  151.1129 H   0  0  0  0  0  0  0  0  0  0  0  0  # atno 10167 bound_to 10162
  157.6613  130.9701  150.1280 H   0  0  0  0  0  0  0  0  0  0  0  0  # atno 10718 bound_to 10713
  153.1861  135.4473  155.0091 H   0  0  0  0  0  0  0  0  0  0  0  0  # atno 10763 bound_to 10752
  154.8061  135.3275  154.7429 H   0  0  0  0  0  0  0  0  0  0  0  0  # atno 10764 bound_to 10752
  153.7888  135.6972  153.4930 H   0  0  0  0  0  0  0  0  0  0  0  0  # atno 10765 bound_to 10752
  140.6755  133.9199  155.8522 H   0  0  0  0  0  0  0  0  0  0  0  0  # atno 11005 bound_to 11000
  146.0995  139.3990  143.0355 LP  0  0  0  0  0  0  0  0  0  0  0  0  # atno 17320 bound_to 7965
  145.7598  140.9940  143.1206 LP  0  0  0  0  0  0  0  0  0  0  0  0  # atno 17321 bound_to 7965
  140.7718  143.5377  150.9349 LP  0  0  0  0  0  0  0  0  0  0  0  0  # atno 17342 bound_to 10162
  139.9060  143.6778  152.3123 LP  0  0  0  0  0  0  0  0  0  0  0  0  # atno 17343 bound_to 10162
  156.2134  130.3668  149.8642 LP  0  0  0  0  0  0  0  0  0  0  0  0  # atno 17370 bound_to 10713
  156.6515  130.8745  151.3532 LP  0  0  0  0  0  0  0  0  0  0  0  0  # atno 17371 bound_to 10713
  141.0358  134.0691  157.3960 LP  0  0  0  0  0  0  0  0  0  0  0  0  # atno 17394 bound_to 11000
  139.8968  135.0147  156.7068 LP  0  0  0  0  0  0  0  0  0  0  0  0  # atno 17395 bound_to 11000

$$$$
