AV-unprocessed.smi:1824|AV-procd|sdf|7407|dock3
  -GOLD-   22720 9 83D 1   1.00000     0.00000
 Structure written by MMmdl.
 45 47  0  0  0  0  0  0  0  0  2 V2000
  146.9294  135.9088  154.0388 C   0  0  0  0  0  0  0  0  0  0  0  0
  147.7726  135.4097  155.2245 C   0  0  2  0  0  0  0  0  0  0  0  0
  148.8980  136.3848  155.6257 C   0  0  0  0  0  0  0  0  0  0  0  0
  150.0121  136.3833  154.6787 N   0  0  0  0  0  0  0  0  0  0  0  0
  151.0955  137.2842  155.0763 C   0  0  0  0  0  0  0  0  0  0  0  0
  150.6884  138.7543  155.3011 C   0  0  2  0  0  0  0  0  0  0  0  0
  150.7686  139.4324  154.0628 O   0  0  0  0  0  0  0  0  0  0  0  0
  151.6099  139.4428  156.3268 C   0  0  0  0  0  0  0  0  0  0  0  0
  151.1394  140.7816  156.7119 N   0  0  0  0  0  0  0  0  0  0  0  0
  150.3101  141.6331  156.0496 C   0  0  0  0  0  0  0  0  0  0  0  0
  150.1730  142.7520  156.8136 N   0  3  0  0  0  0  0  0  0  0  0  0
  150.9278  142.6152  157.9808 C   0  0  0  0  0  0  0  0  0  0  0  0
  151.1077  143.4797  159.0557 C   0  0  0  0  0  0  0  0  0  0  0  0
  151.9522  143.0349  160.0941 C   0  0  0  0  0  0  0  0  0  0  0  0
  152.1625  143.8376  161.1640 F   0  0  0  0  0  0  0  0  0  0  0  0
  152.5814  141.7732  160.0386 C   0  0  0  0  0  0  0  0  0  0  0  0
  153.3866  141.3858  161.0559 F   0  0  0  0  0  0  0  0  0  0  0  0
  152.3897  140.9049  158.9438 C   0  0  0  0  0  0  0  0  0  0  0  0
  151.5524  141.3516  157.9221 C   0  0  0  0  0  0  0  0  0  0  0  0
  150.5011  135.0180  154.5310 C   0  0  0  0  0  0  0  0  0  0  0  0
  149.3946  134.0555  154.0644 C   0  0  1  0  0  0  0  0  0  0  0  0
  149.8857  132.6060  153.9880 C   0  0  0  0  0  0  0  0  0  0  0  0
  148.3057  134.1066  154.9842 O   0  0  0  0  0  0  0  0  0  0  0  0
  146.4373  136.8505  154.2827 H   0  0  0  0  0  0  0  0  0  0  0  0
  146.1534  135.1872  153.7830 H   0  0  0  0  0  0  0  0  0  0  0  0
  147.5337  136.0794  153.1483 H   0  0  0  0  0  0  0  0  0  0  0  0
  147.0972  135.3113  156.0747 H   0  0  0  0  0  0  0  0  0  0  0  0
  148.4746  137.3833  155.7233 H   0  0  0  0  0  0  0  0  0  0  0  0
  149.2652  136.1085  156.6153 H   0  0  0  0  0  0  0  0  0  0  0  0
  151.5632  136.8982  155.9833 H   0  0  0  0  0  0  0  0  0  0  0  0
  151.8759  137.2668  154.3139 H   0  0  0  0  0  0  0  0  0  0  0  0
  149.6638  138.8225  155.6641 H   0  0  0  0  0  0  0  0  0  0  0  0
  150.5548  138.8191  153.3755 H   0  0  0  0  0  0  0  0  0  0  0  0
  151.6549  138.8473  157.2397 H   0  0  0  0  0  0  0  0  0  0  0  0
  152.6340  139.5117  155.9587 H   0  0  0  0  0  0  0  0  0  0  0  0
  149.8444  141.4531  155.0913 H   0  0  0  0  0  0  0  0  0  0  0  0
  150.6294  144.4470  159.1016 H   0  0  0  0  0  0  0  0  0  0  0  0
  152.8819  139.9446  158.9096 H   0  0  0  0  0  0  0  0  0  0  0  0
  151.3192  134.9959  153.8100 H   0  0  0  0  0  0  0  0  0  0  0  0
  150.9131  134.6692  155.4795 H   0  0  0  0  0  0  0  0  0  0  0  0
  149.0471  134.3521  153.0743 H   0  0  0  0  0  0  0  0  0  0  0  0
  150.7157  132.5092  153.2876 H   0  0  0  0  0  0  0  0  0  0  0  0
  149.0887  131.9421  153.6524 H   0  0  0  0  0  0  0  0  0  0  0  0
  150.2255  132.2529  154.9619 H   0  0  0  0  0  0  0  0  0  0  0  0
  149.6061  143.5493  156.5542 H   0  0  0  0  0  0  0  0  0  0  0  0
  1  2  1  0  0  0  0
  1 24  1  0  0  0  0
  1 25  1  0  0  0  0
  1 26  1  0  0  0  0
  2 23  1  0  0  0  0
  2  3  1  0  0  0  0
  2 27  1  0  0  0  0
  3  4  1  0  0  0  0
  3 28  1  0  0  0  0
  3 29  1  0  0  0  0
  4  5  1  0  0  0  0
  4 20  1  0  0  0  0
  5  6  1  0  0  0  0
  5 30  1  0  0  0  0
  5 31  1  0  0  0  0
  6  7  1  0  0  0  0
  6  8  1  0  0  0  0
  6 32  1  0  0  0  0
  7 33  1  0  0  0  0
  8  9  1  0  0  0  0
  8 34  1  0  0  0  0
  8 35  1  0  0  0  0
  9 19  1  0  0  0  0
  9 10  1  0  0  0  0
 10 11  2  0  0  0  0
 10 36  1  0  0  0  0
 11 12  1  0  0  0  0
 11 45  1  0  0  0  0
 12 19  2  0  0  0  0
 12 13  1  0  0  0  0
 13 14  2  0  0  0  0
 13 37  1  0  0  0  0
 14 15  1  0  0  0  0
 14 16  1  0  0  0  0
 16 17  1  0  0  0  0
 16 18  2  0  0  0  0
 18 19  1  0  0  0  0
 18 38  1  0  0  0  0
 20 21  1  0  0  0  0
 20 39  1  0  0  0  0
 20 40  1  0  0  0  0
 21 22  1  0  0  0  0
 21 23  1  0  0  0  0
 21 41  1  0  0  0  0
 22 42  1  0  0  0  0
 22 43  1  0  0  0  0
 22 44  1  0  0  0  0
M  CHG  1  11   1
M  END
> <s_m_source_file>
AV-unprocessed.smi

> <i_m_source_file_index>
1824

> <i_lp_mmshare_version>
43012

> <i_f3d_flags>
0

> <s_epik_input>
W0NIM11bQ0BASF0xW0NIMl1OKFtDSDJdW0NASF0oTzEpW0NIM10pW0NIMl1bQ0BIXShbT0hdKVtDSDJdbihbY0hdbjIpYyhjMjMpW2NIXWMoRiljKEYpW2NIXTM=

> <s_epik_cmdline>
J2VwaWtfcHl0aG9uJywgJy1waCcsICc3LjAnLCAnLXRuJywgJzgnLCAnLW1hJywgJzIwMCcsICctbWV0YWxfYmluZGluZycsICctaW1hZScsICc8aW5maWxlLm1hZT4nLCAnLW9tYWUnLCAnPG91dGZpbGUubWFlPic=

> <r_epik_Ionization_Penalty>
2.58709

> <r_epik_Ionization_Penalty_Charging>
2.37273

> <r_epik_Ionization_Penalty_Neutral>
0.214359

> <r_epik_State_Penalty>
2.71799

> <r_epik_Charging_Adjusted_Penalty>
5.09071

> <i_epik_Tot_Q>
1

> <i_epik_Tot_abs_Q>
1

> <r_epik_Metal_State_Penalty>
6.80217

> <b_epik_Metal_Only>
0

> <s_lp_Force_Field>
OPLS_2005

> <r_lp_Energy>
35.5782

> <b_lp_Chiralities_Consistent>
1

> <s_lp_Variant>
AV-unprocessed.smi:1824-15

> <Gold.Version>
5.8.1

> <Gold.Id.Protein>
6NUR|6NUR_protein|mol2

> <Gold.PLP.Fitness>
51.7975

> <Gold.PLP.PLP>
-44.1556

> <Gold.PLP.part.hbond>
-2.6488

> <Gold.PLP.part.metal>
0.0000

> <Gold.PLP.part.buried>
-4.8734

> <Gold.PLP.part.nonpolar>
-37.2727

> <Gold.PLP.part.repulsive>
0.5809

> <Gold.PLP.ligand.clash>
0.0000

> <Gold.PLP.ligand.torsion>
0.6889

> <Gold.PLP.Chemscore.Hbond>
3.0000

> <Gold.PLP.Chemscore.CHOScore>
0.0000

> <Gold.PLP.Chemscore.Metal>
0.0000

> <Gold.Chemscore.Hbonds>
donor molecule, donor type, donor heavy atom, donor atom, acceptor molecule, acceptor atom, score
      L1  H    11    45       P1  8028  2.00
      P1  H  7989  7998       L1     7  1.00

> <Gold.PLP.Chemscore.Internal.Correction>
0.0197

> <Gold.Rescore>
     Score         DG    S(hbond)    S(metal)    S(lipo)     H(rot)  DE(clash)    DE(int)     intcor
     15.90     -17.39       1.95        0.00      97.03       2.32       0.74       0.75       ----

> <Gold.Chemscore.Fitness>
15.8985

> <Gold.Chemscore.DG>
-17.3905

> <Gold.Chemscore.ZeroCoef>
-5.4800

> <Gold.Chemscore.Hbond>
1.9461

> <Gold.Chemscore.Metal>
0.0000

> <Gold.Chemscore.Lipo>
97.0255

> <Gold.Chemscore.Internal_Hbond>
0.0000

> <Gold.Chemscore.DEClash>
0.7384

> <Gold.Chemscore.DEInternal>
0.7535

> <Gold.Chemscore.Rot>
2.3210

> <Gold.Chemscore.Internal.Correction>
   9.000000E+99

> <Gold.Chemscore.Hbonds>
donor molecule, donor type, donor heavy atom, donor atom, acceptor molecule, acceptor atom, score
      L1  H    11    45       P1  8028  0.99
      P1  H  7989  7998       L1     7  0.85

> <Gold.Chemscore.Hbond.Weighted>
-6.5001

> <Gold.Chemscore.Metal.Weighted>
-0.0000

> <Gold.Chemscore.Lipo.Weighted>
-11.3520

> <Gold.Chemscore.Internal_Hbond.Weighted>
0.0000

> <Gold.Chemscore.DEClash.Weighted>
0.7384

> <Gold.Chemscore.DEInternal.Weighted>
0.7535

> <Gold.Chemscore.Rot.Weighted>
5.9416

> <Gold.Chemscore.Internal.Correction.Weighted>
   9.000000E+99

> <Gold.Protein.RotatedTorsions>
[ 6907 6896 6895 6894 ] final -119.36 input  -60.11 | X-H torsion
[ 7974 7965 7964 7962 ] final   -2.27 input  175.53 | X-H torsion
[ 8008 7997 7996 7995 ] final  -39.49 input   59.86 | X-H torsion
[ 10167 10162 10161 10158 ] final   86.21 input  -65.29 | X-H torsion
[ 10718 10713 10712 10709 ] final   11.58 input   66.30 | X-H torsion
[ 10763 10752 10751 10750 ] final  128.70 input  -60.55 | X-H torsion
[ 11005 11000 10999 10996 ] final   33.84 input  -57.11 | X-H torsion

> <Gold.Protein.ActiveResidues>
 VAL166  LYS551  ARG553  GLY616  TRP617  ASP618  TYR619  PRO620  LYS621  CYS622 
 ASP623  PHE694  ASN695  SER759  ASP760  ASP761  ALA762  ILE779  LEU786  VAL792 
 PHE793  MET794  SER795  GLU796  ALA797  LYS798  CYS799  TRP800  GLU811  SER814 

> <Gold.Protein.RotatedAtoms>
  150.8299  133.8109  159.3102 H   0  0  0  0  0  0  0  0  0  0  0  0  # atno 6907 bound_to 6896
  151.5842  135.1055  160.0034 H   0  0  0  0  0  0  0  0  0  0  0  0  # atno 6908 bound_to 6896
  152.4379  133.7353  159.6667 H   0  0  0  0  0  0  0  0  0  0  0  0  # atno 6909 bound_to 6896
  146.2406  140.1546  142.8333 H   0  0  0  0  0  0  0  0  0  0  0  0  # atno 7974 bound_to 7965
  154.4022  140.1550  156.2871 H   0  0  0  0  0  0  0  0  0  0  0  0  # atno 8008 bound_to 7997
  155.8818  140.3443  155.5871 H   0  0  0  0  0  0  0  0  0  0  0  0  # atno 8009 bound_to 7997
  155.7658  140.0823  157.2123 H   0  0  0  0  0  0  0  0  0  0  0  0  # atno 8010 bound_to 7997
  139.8899  144.6391  150.8750 H   0  0  0  0  0  0  0  0  0  0  0  0  # atno 10167 bound_to 10162
  156.9977  130.6067  149.5693 H   0  0  0  0  0  0  0  0  0  0  0  0  # atno 10718 bound_to 10713
  153.7298  135.3240  155.3283 H   0  0  0  0  0  0  0  0  0  0  0  0  # atno 10763 bound_to 10752
  154.8330  135.4519  154.1133 H   0  0  0  0  0  0  0  0  0  0  0  0  # atno 10764 bound_to 10752
  153.2277  135.6956  153.8006 H   0  0  0  0  0  0  0  0  0  0  0  0  # atno 10765 bound_to 10752
  140.2589  134.3215  155.7864 H   0  0  0  0  0  0  0  0  0  0  0  0  # atno 11005 bound_to 11000
  145.0139  140.8737  143.5207 LP  0  0  0  0  0  0  0  0  0  0  0  0  # atno 17320 bound_to 7965
  145.1584  139.2473  143.5404 LP  0  0  0  0  0  0  0  0  0  0  0  0  # atno 17321 bound_to 7965
  140.7728  143.3518  151.1999 LP  0  0  0  0  0  0  0  0  0  0  0  0  # atno 17342 bound_to 10162
  139.7119  143.9363  152.2951 LP  0  0  0  0  0  0  0  0  0  0  0  0  # atno 17343 bound_to 10162
  156.0183  130.5277  150.8200 LP  0  0  0  0  0  0  0  0  0  0  0  0  # atno 17370 bound_to 10713
  157.5413  131.0941  150.9824 LP  0  0  0  0  0  0  0  0  0  0  0  0  # atno 17371 bound_to 10713
  141.2192  133.7398  156.9156 LP  0  0  0  0  0  0  0  0  0  0  0  0  # atno 17394 bound_to 11000
  140.1484  134.9247  157.2560 LP  0  0  0  0  0  0  0  0  0  0  0  0  # atno 17395 bound_to 11000

$$$$
