AV-unprocessed.smi:1952|AV-procd|sdf|7887|dock5
  -GOLD-   2272010 43D 1   1.00000     0.00000
 Structure written by MMmdl.
 38 39  0  0  0  0  0  0  0  0  2 V2000
  145.9135  134.2767  162.2026 C   0  0  0  0  0  0  0  0  0  0  0  0
  146.8787  135.1180  161.4393 C   0  0  0  0  0  0  0  0  0  0  0  0
  147.8084  134.8257  160.4822 C   0  0  0  0  0  0  0  0  0  0  0  0
  148.3852  136.0921  160.1913 C   0  0  0  0  0  0  0  0  0  0  0  0
  149.3527  136.3305  159.2926 N   0  5  0  0  0  0  0  0  0  0  0  0
  149.4723  137.5552  158.7297 C   0  0  0  0  0  0  0  0  0  0  0  0
  148.5702  138.3838  158.5858 O   0  0  0  0  0  0  0  0  0  0  0  0
  150.7144  137.8370  158.3098 N   0  0  0  0  0  0  0  0  0  0  0  0
  151.1559  139.0853  157.6890 C   0  0  2  0  0  0  0  0  0  0  0  0
  151.7438  138.8001  156.2988 C   0  0  0  0  0  0  0  0  0  0  0  0
  152.1837  139.7907  158.5980 C   0  0  0  0  0  0  0  0  0  0  0  0
  151.9154  141.2012  158.8850 N   0  0  0  0  0  0  0  0  0  0  0  0
  151.6226  141.9800  157.6840 C   0  0  0  0  0  0  0  0  0  0  0  0
  151.3633  143.4611  158.0109 C   0  0  0  0  0  0  0  0  0  0  0  0
  152.4795  144.0013  158.7114 O   0  0  0  0  0  0  0  0  0  0  0  0
  152.7638  143.2955  159.9148 C   0  0  0  0  0  0  0  0  0  0  0  0
  153.0335  141.8162  159.5911 C   0  0  0  0  0  0  0  0  0  0  0  0
  147.8409  137.0694  160.8968 N   0  0  0  0  0  0  0  0  0  0  0  0
  146.8790  136.4520  161.7053 O   0  0  0  0  0  0  0  0  0  0  0  0
  145.2537  133.7362  161.5239 H   0  0  0  0  0  0  0  0  0  0  0  0
  145.2943  134.8860  162.8614 H   0  0  0  0  0  0  0  0  0  0  0  0
  146.4409  133.5458  162.8156 H   0  0  0  0  0  0  0  0  0  0  0  0
  148.0437  133.8602  160.0606 H   0  0  0  0  0  0  0  0  0  0  0  0
  151.4202  137.1298  158.4529 H   0  0  0  0  0  0  0  0  0  0  0  0
  150.3013  139.7486  157.5520 H   0  0  0  0  0  0  0  0  0  0  0  0
  152.0731  139.7212  155.8174 H   0  0  0  0  0  0  0  0  0  0  0  0
  151.0042  138.3349  155.6461 H   0  0  0  0  0  0  0  0  0  0  0  0
  152.6019  138.1301  156.3598 H   0  0  0  0  0  0  0  0  0  0  0  0
  152.2215  139.2450  159.5419 H   0  0  0  0  0  0  0  0  0  0  0  0
  153.1778  139.6922  158.1592 H   0  0  0  0  0  0  0  0  0  0  0  0
  152.4534  141.9035  156.9811 H   0  0  0  0  0  0  0  0  0  0  0  0
  150.7441  141.5807  157.1779 H   0  0  0  0  0  0  0  0  0  0  0  0
  151.2068  144.0301  157.0945 H   0  0  0  0  0  0  0  0  0  0  0  0
  150.4602  143.5693  158.6136 H   0  0  0  0  0  0  0  0  0  0  0  0
  153.6336  143.7437  160.3952 H   0  0  0  0  0  0  0  0  0  0  0  0
  151.9274  143.3931  160.6088 H   0  0  0  0  0  0  0  0  0  0  0  0
  153.2287  141.2754  160.5177 H   0  0  0  0  0  0  0  0  0  0  0  0
  153.9395  141.7393  158.9878 H   0  0  0  0  0  0  0  0  0  0  0  0
  1  2  1  0  0  0  0
  1 20  1  0  0  0  0
  1 21  1  0  0  0  0
  1 22  1  0  0  0  0
  2 19  1  0  0  0  0
  2  3  2  0  0  0  0
  3  4  1  0  0  0  0
  3 23  1  0  0  0  0
  4  5  1  0  0  0  0
  4 18  2  0  0  0  0
  5  6  1  0  0  0  0
  6  7  2  0  0  0  0
  6  8  1  0  0  0  0
  8  9  1  0  0  0  0
  8 24  1  0  0  0  0
  9 10  1  0  0  0  0
  9 11  1  0  0  0  0
  9 25  1  0  0  0  0
 10 26  1  0  0  0  0
 10 27  1  0  0  0  0
 10 28  1  0  0  0  0
 11 12  1  0  0  0  0
 11 29  1  0  0  0  0
 11 30  1  0  0  0  0
 12 17  1  0  0  0  0
 12 13  1  0  0  0  0
 13 14  1  0  0  0  0
 13 31  1  0  0  0  0
 13 32  1  0  0  0  0
 14 15  1  0  0  0  0
 14 33  1  0  0  0  0
 14 34  1  0  0  0  0
 15 16  1  0  0  0  0
 16 17  1  0  0  0  0
 16 35  1  0  0  0  0
 16 36  1  0  0  0  0
 17 37  1  0  0  0  0
 17 38  1  0  0  0  0
 18 19  1  0  0  0  0
M  CHG  1   5  -1
M  END
> <s_m_source_file>
AV-unprocessed.smi

> <i_m_source_file_index>
1952

> <i_lp_mmshare_version>
43012

> <i_f3d_flags>
0

> <s_epik_input>
W0NIM11jMVtjSF1jKG5vMSlbTkhdQyg9TylbTkhdW0NASF0oW0NIM10pW0NIMl1OMltDSDJdW0NIMl1PW0NIMl1bQ0gyXTI=

> <s_epik_cmdline>
J2VwaWtfcHl0aG9uJywgJy1waCcsICc3LjAnLCAnLXRuJywgJzgnLCAnLW1hJywgJzIwMCcsICctbWV0YWxfYmluZGluZycsICctaW1hZScsICc8aW5maWxlLm1hZT4nLCAnLW9tYWUnLCAnPG91dGZpbGUubWFlPic=

> <r_epik_Ionization_Penalty>
6.81701

> <r_epik_Ionization_Penalty_Charging>
6.50532

> <r_epik_Ionization_Penalty_Neutral>
0.311686

> <r_epik_State_Penalty>
6.70952

> <r_epik_Charging_Adjusted_Penalty>
13.2148

> <i_epik_Tot_Q>
-1

> <i_epik_Tot_abs_Q>
1

> <r_epik_Metal_State_Penalty>
2.64135

> <b_epik_Metal_Only>
1

> <s_lp_Force_Field>
OPLS_2005

> <r_lp_Energy>
18.9741

> <b_lp_Chiralities_Consistent>
1

> <s_lp_Variant>
AV-unprocessed.smi:1952-5

> <Gold.Version>
5.8.1

> <Gold.Id.Protein>
6NUR|6NUR_protein|mol2

> <Gold.PLP.Fitness>
43.1632

> <Gold.PLP.PLP>
-34.1449

> <Gold.PLP.part.hbond>
-3.9935

> <Gold.PLP.part.metal>
0.0000

> <Gold.PLP.part.buried>
-6.3300

> <Gold.PLP.part.nonpolar>
-24.3118

> <Gold.PLP.part.repulsive>
0.1284

> <Gold.PLP.ligand.clash>
0.0000

> <Gold.PLP.ligand.torsion>
1.0234

> <Gold.PLP.Chemscore.Hbond>
3.6698

> <Gold.PLP.Chemscore.CHOScore>
0.0000

> <Gold.PLP.Chemscore.Metal>
0.0000

> <Gold.Chemscore.Hbonds>
donor molecule, donor type, donor heavy atom, donor atom, acceptor molecule, acceptor atom, score
      P1  H  6896  6908       L1     5  1.50
      P1  H  6931  6943       L1    18  0.94
      P1  H  6934  6947       L1    18  0.79

> <Gold.PLP.Chemscore.Internal.Correction>
0.0559

> <Gold.Rescore>
     Score         DG    S(hbond)    S(metal)    S(lipo)     H(rot)  DE(clash)    DE(int)     intcor
     15.32     -17.76       1.99        0.00      81.75       1.53       0.04       2.39       ----

> <Gold.Chemscore.Fitness>
15.3238

> <Gold.Chemscore.DG>
-17.7567

> <Gold.Chemscore.ZeroCoef>
-5.4800

> <Gold.Chemscore.Hbond>
1.9858

> <Gold.Chemscore.Metal>
0.0000

> <Gold.Chemscore.Lipo>
81.7543

> <Gold.Chemscore.Internal_Hbond>
0.0000

> <Gold.Chemscore.DEClash>
0.0405

> <Gold.Chemscore.DEInternal>
2.3923

> <Gold.Chemscore.Rot>
1.5317

> <Gold.Chemscore.Internal.Correction>
   9.000000E+99

> <Gold.Chemscore.Hbonds>
donor molecule, donor type, donor heavy atom, donor atom, acceptor molecule, acceptor atom, score
      P1  H  6896  6908       L1     5  0.37
      P1  H  6931  6943       L1    18  0.73
      P1  H  6934  6947       L1    18  0.22

> <Gold.Chemscore.Hbond.Weighted>
-6.6325

> <Gold.Chemscore.Metal.Weighted>
-0.0000

> <Gold.Chemscore.Lipo.Weighted>
-9.5653

> <Gold.Chemscore.Internal_Hbond.Weighted>
0.0000

> <Gold.Chemscore.DEClash.Weighted>
0.0405

> <Gold.Chemscore.DEInternal.Weighted>
2.3923

> <Gold.Chemscore.Rot.Weighted>
3.9211

> <Gold.Chemscore.Internal.Correction.Weighted>
   9.000000E+99

> <Gold.Protein.RotatedTorsions>
[ 6907 6896 6895 6894 ] final -163.60 input  -60.11 | X-H torsion
[ 7974 7965 7964 7962 ] final  -11.40 input  175.53 | X-H torsion
[ 8008 7997 7996 7995 ] final   21.60 input   59.86 | X-H torsion
[ 10167 10162 10161 10158 ] final   15.47 input  -65.29 | X-H torsion
[ 10718 10713 10712 10709 ] final  121.49 input   66.30 | X-H torsion
[ 10763 10752 10751 10750 ] final  130.97 input  -60.55 | X-H torsion
[ 11005 11000 10999 10996 ] final  -69.95 input  -57.11 | X-H torsion

> <Gold.Protein.ActiveResidues>
 VAL166  LYS551  ARG553  GLY616  TRP617  ASP618  TYR619  PRO620  LYS621  CYS622 
 ASP623  PHE694  ASN695  SER759  ASP760  ASP761  ALA762  ILE779  LEU786  VAL792 
 PHE793  MET794  SER795  GLU796  ALA797  LYS798  CYS799  TRP800  GLU811  SER814 

> <Gold.Protein.RotatedAtoms>
  151.3986  133.3765  159.2729 H   0  0  0  0  0  0  0  0  0  0  0  0  # atno 6907 bound_to 6896
  150.9450  134.8857  159.7647 H   0  0  0  0  0  0  0  0  0  0  0  0  # atno 6908 bound_to 6896
  152.5088  134.3939  159.9445 H   0  0  0  0  0  0  0  0  0  0  0  0  # atno 6909 bound_to 6896
  146.2188  140.2906  142.8368 H   0  0  0  0  0  0  0  0  0  0  0  0  # atno 7974 bound_to 7965
  154.9530  140.3068  155.5066 H   0  0  0  0  0  0  0  0  0  0  0  0  # atno 8008 bound_to 7997
  156.2985  140.2315  156.4547 H   0  0  0  0  0  0  0  0  0  0  0  0  # atno 8009 bound_to 7997
  154.8036  140.0432  157.1280 H   0  0  0  0  0  0  0  0  0  0  0  0  # atno 8010 bound_to 7997
  140.5865  143.8879  150.6835 H   0  0  0  0  0  0  0  0  0  0  0  0  # atno 10167 bound_to 10162
  157.5813  131.1074  150.8181 H   0  0  0  0  0  0  0  0  0  0  0  0  # atno 10718 bound_to 10713
  153.7668  135.3188  155.3346 H   0  0  0  0  0  0  0  0  0  0  0  0  # atno 10763 bound_to 10752
  154.8211  135.4603  154.0784 H   0  0  0  0  0  0  0  0  0  0  0  0  # atno 10764 bound_to 10752
  153.2031  135.6925  153.8290 H   0  0  0  0  0  0  0  0  0  0  0  0  # atno 10765 bound_to 10752
  141.1564  133.6777  156.6678 H   0  0  0  0  0  0  0  0  0  0  0  0  # atno 11005 bound_to 11000
  144.9130  140.7779  143.5796 LP  0  0  0  0  0  0  0  0  0  0  0  0  # atno 17320 bound_to 7965
  145.2838  139.1908  143.4777 LP  0  0  0  0  0  0  0  0  0  0  0  0  # atno 17321 bound_to 7965
  140.2392  143.3677  152.1501 LP  0  0  0  0  0  0  0  0  0  0  0  0  # atno 17342 bound_to 10162
  139.5201  144.7028  151.5443 LP  0  0  0  0  0  0  0  0  0  0  0  0  # atno 17343 bound_to 10162
  156.8626  130.5118  149.5302 LP  0  0  0  0  0  0  0  0  0  0  0  0  # atno 17370 bound_to 10713
  156.0859  130.5858  150.9648 LP  0  0  0  0  0  0  0  0  0  0  0  0  # atno 17371 bound_to 10713
  140.3198  134.8017  157.4243 LP  0  0  0  0  0  0  0  0  0  0  0  0  # atno 17394 bound_to 11000
  140.1107  134.5349  155.8269 LP  0  0  0  0  0  0  0  0  0  0  0  0  # atno 17395 bound_to 11000

$$$$
