AV-unprocessed.smi:1749|AV-procd|sdf|7045|dock3
  -GOLD-   22720 8263D 1   1.00000     0.00000
 Structure written by MMmdl.
 32 33  0  0  0  0  0  0  0  0  1 V2000
  152.1801  145.6852  160.4299 C   0  0  0  0  0  0  0  0  0  0  0  0
  152.3605  144.3992  159.6106 C   0  0  1  0  0  0  0  0  0  0  0  0
  152.3605  143.1514  160.5145 C   0  0  0  0  0  0  0  0  0  0  0  0
  152.5374  141.8627  159.6965 C   0  0  0  0  0  0  0  0  0  0  0  0
  151.4619  141.7433  158.6058 C   0  0  0  0  0  0  0  0  0  0  0  0
  151.4511  142.9821  157.6918 C   0  0  1  0  0  0  0  0  0  0  0  0
  150.3602  142.8712  156.7280 N   0  0  0  0  0  0  0  0  0  0  0  0
  149.9768  141.7571  156.0824 C   0  0  0  0  0  0  0  0  0  0  0  0
  150.5152  140.6652  156.2562 O   0  0  0  0  0  0  0  0  0  0  0  0
  148.9492  141.8901  155.2162 N   0  0  0  0  0  0  0  0  0  0  0  0
  148.2868  140.9494  154.3735 C   0  0  0  0  0  0  0  0  0  0  0  0
  148.6910  139.6838  154.1744 N   0  0  0  0  0  0  0  0  0  0  0  0
  147.8497  138.9948  153.3114 N   0  0  0  0  0  0  0  0  0  0  0  0
  146.8405  139.7638  152.8940 C   0  0  0  0  0  0  0  0  0  0  0  0
  146.8209  141.4051  153.5147 S   0  0  0  0  0  0  0  0  0  0  0  0
  151.2828  144.2730  158.5160 C   0  0  0  0  0  0  0  0  0  0  0  0
  151.2233  145.6909  160.9528 H   0  0  0  0  0  0  0  0  0  0  0  0
  152.2147  146.5671  159.7898 H   0  0  0  0  0  0  0  0  0  0  0  0
  152.9682  145.7890  161.1762 H   0  0  0  0  0  0  0  0  0  0  0  0
  153.3325  144.4576  159.1186 H   0  0  0  0  0  0  0  0  0  0  0  0
  153.1580  143.2262  161.2545 H   0  0  0  0  0  0  0  0  0  0  0  0
  151.4251  143.1003  161.0735 H   0  0  0  0  0  0  0  0  0  0  0  0
  153.5269  141.8535  159.2377 H   0  0  0  0  0  0  0  0  0  0  0  0
  152.4944  140.9956  160.3560 H   0  0  0  0  0  0  0  0  0  0  0  0
  151.6358  140.8433  158.0146 H   0  0  0  0  0  0  0  0  0  0  0  0
  150.4850  141.6209  159.0758 H   0  0  0  0  0  0  0  0  0  0  0  0
  152.4114  143.0298  157.1755 H   0  0  0  0  0  0  0  0  0  0  0  0
  149.8564  143.7224  156.5221 H   0  0  0  0  0  0  0  0  0  0  0  0
  148.5633  142.8222  155.1757 H   0  0  0  0  0  0  0  0  0  0  0  0
  146.1023  139.3618  152.2158 H   0  0  0  0  0  0  0  0  0  0  0  0
  150.2932  144.2885  158.9757 H   0  0  0  0  0  0  0  0  0  0  0  0
  151.3272  145.1386  157.8536 H   0  0  0  0  0  0  0  0  0  0  0  0
  1  2  1  0  0  0  0
  1 17  1  0  0  0  0
  1 18  1  0  0  0  0
  1 19  1  0  0  0  0
  2 16  1  0  0  0  0
  2  3  1  0  0  0  0
  2 20  1  0  0  0  0
  3  4  1  0  0  0  0
  3 21  1  0  0  0  0
  3 22  1  0  0  0  0
  4  5  1  0  0  0  0
  4 23  1  0  0  0  0
  4 24  1  0  0  0  0
  5  6  1  0  0  0  0
  5 25  1  0  0  0  0
  5 26  1  0  0  0  0
  6  7  1  0  0  0  0
  6 16  1  0  0  0  0
  6 27  1  0  0  0  0
  7  8  1  0  0  0  0
  7 28  1  0  0  0  0
  8  9  2  0  0  0  0
  8 10  1  0  0  0  0
 10 11  1  0  0  0  0
 10 29  1  0  0  0  0
 11 15  1  0  0  0  0
 11 12  2  0  0  0  0
 12 13  1  0  0  0  0
 13 14  2  0  0  0  0
 14 15  1  0  0  0  0
 14 30  1  0  0  0  0
 16 31  1  0  0  0  0
 16 32  1  0  0  0  0
M  END
> <s_m_source_file>
AV-unprocessed.smi

> <i_m_source_file_index>
1749

> <i_lp_mmshare_version>
43012

> <i_f3d_flags>
0

> <s_epik_input>
W0NIM11bQ0BASF0xW0NIMl1bQ0gyXVtDSDJdW0NASF0oW0NIMl0xKVtOSF1DKD1PKVtOSF1jMm5uW2NIXXMy

> <s_epik_cmdline>
J2VwaWtfcHl0aG9uJywgJy1waCcsICc3LjAnLCAnLXRuJywgJzgnLCAnLW1hJywgJzIwMCcsICctbWV0YWxfYmluZGluZycsICctaW1hZScsICc8aW5maWxlLm1hZT4nLCAnLW9tYWUnLCAnPG91dGZpbGUubWFlPic=

> <r_lp_tautomer_probability>
1

> <r_epik_Ionization_Penalty>
0.000318591

> <r_epik_Ionization_Penalty_Charging>
0

> <r_epik_Ionization_Penalty_Neutral>
0.000318591

> <r_epik_State_Penalty>
-0

> <r_epik_Charging_Adjusted_Penalty>
0

> <i_epik_Tot_Q>
0

> <i_epik_Tot_abs_Q>
0

> <r_epik_Metal_State_Penalty>
0.169791

> <b_epik_Metal_Only>
0

> <s_lp_Force_Field>
OPLS_2005

> <r_lp_Energy>
11.6735

> <b_lp_Chiralities_Consistent>
1

> <s_lp_Variant>
AV-unprocessed.smi:1749-2

> <Gold.Version>
5.8.1

> <Gold.Id.Protein>
6NUR|6NUR_protein|mol2

> <Gold.PLP.Fitness>
40.5658

> <Gold.PLP.PLP>
-33.8211

> <Gold.PLP.part.hbond>
-2.0000

> <Gold.PLP.part.metal>
0.0000

> <Gold.PLP.part.buried>
-5.9271

> <Gold.PLP.part.nonpolar>
-27.5308

> <Gold.PLP.part.repulsive>
1.3004

> <Gold.PLP.ligand.clash>
0.0000

> <Gold.PLP.ligand.torsion>
0.2749

> <Gold.PLP.Chemscore.Hbond>
1.9120

> <Gold.PLP.Chemscore.CHOScore>
0.5188

> <Gold.PLP.Chemscore.Metal>
0.0000

> <Gold.Chemscore.Hbonds>
donor molecule, donor type, donor heavy atom, donor atom, acceptor molecule, acceptor atom, score
      L1  H     7    28       P1  8028  1.00
      L1  H    10    29       P1  8028  0.91
      L1  C    14    30       P1 10175  0.45

> <Gold.PLP.Chemscore.Internal.Correction>
0.0021

> <Gold.Rescore>
     Score         DG    S(hbond)    S(metal)    S(lipo)     H(rot)  DE(clash)    DE(int)     intcor
     16.39     -19.84       1.84        0.00      91.91       1.00       0.49       2.95       ----

> <Gold.Chemscore.Fitness>
16.3938

> <Gold.Chemscore.DG>
-19.8353

> <Gold.Chemscore.ZeroCoef>
-5.4800

> <Gold.Chemscore.Hbond>
1.8449

> <Gold.Chemscore.Metal>
0.0000

> <Gold.Chemscore.Lipo>
91.9086

> <Gold.Chemscore.Internal_Hbond>
0.0000

> <Gold.Chemscore.DEClash>
0.4924

> <Gold.Chemscore.DEInternal>
2.9491

> <Gold.Chemscore.Rot>
1.0000

> <Gold.Chemscore.Internal.Correction>
   9.000000E+99

> <Gold.Chemscore.Hbonds>
donor molecule, donor type, donor heavy atom, donor atom, acceptor molecule, acceptor atom, score
      L1  H     7    28       P1  8028  0.98
      L1  H    10    29       P1  8028  0.87

> <Gold.Chemscore.Hbond.Weighted>
-6.1620

> <Gold.Chemscore.Metal.Weighted>
-0.0000

> <Gold.Chemscore.Lipo.Weighted>
-10.7533

> <Gold.Chemscore.Internal_Hbond.Weighted>
0.0000

> <Gold.Chemscore.DEClash.Weighted>
0.4924

> <Gold.Chemscore.DEInternal.Weighted>
2.9491

> <Gold.Chemscore.Rot.Weighted>
2.5600

> <Gold.Chemscore.Internal.Correction.Weighted>
   9.000000E+99

> <Gold.Protein.RotatedTorsions>
[ 6907 6896 6895 6894 ] final  124.12 input  -60.11 | X-H torsion
[ 7974 7965 7964 7962 ] final  166.26 input  175.53 | X-H torsion
[ 8008 7997 7996 7995 ] final   70.40 input   59.86 | X-H torsion
[ 10167 10162 10161 10158 ] final  -59.27 input  -65.29 | X-H torsion
[ 10718 10713 10712 10709 ] final   84.46 input   66.30 | X-H torsion
[ 10763 10752 10751 10750 ] final  130.76 input  -60.55 | X-H torsion
[ 11005 11000 10999 10996 ] final  -60.36 input  -57.11 | X-H torsion

> <Gold.Protein.ActiveResidues>
 VAL166  LYS551  ARG553  GLY616  TRP617  ASP618  TYR619  PRO620  LYS621  CYS622 
 ASP623  PHE694  ASN695  SER759  ASP760  ASP761  ALA762  ILE779  LEU786  VAL792 
 PHE793  MET794  SER795  GLU796  ALA797  LYS798  CYS799  TRP800  GLU811  SER814 

> <Gold.Protein.RotatedAtoms>
  152.4104  133.6955  159.6392 H   0  0  0  0  0  0  0  0  0  0  0  0  # atno 6907 bound_to 6896
  150.7985  133.8634  159.3247 H   0  0  0  0  0  0  0  0  0  0  0  0  # atno 6908 bound_to 6896
  151.6377  135.1018  160.0186 H   0  0  0  0  0  0  0  0  0  0  0  0  # atno 6909 bound_to 6896
  144.7469  139.8590  143.6379 H   0  0  0  0  0  0  0  0  0  0  0  0  # atno 7974 bound_to 7965
  155.7383  140.3491  155.5092 H   0  0  0  0  0  0  0  0  0  0  0  0  # atno 8008 bound_to 7997
  155.9118  140.1052  157.1295 H   0  0  0  0  0  0  0  0  0  0  0  0  # atno 8009 bound_to 7997
  154.4057  140.1266  156.4554 H   0  0  0  0  0  0  0  0  0  0  0  0  # atno 8010 bound_to 7997
  140.6145  143.2398  151.5630 H   0  0  0  0  0  0  0  0  0  0  0  0  # atno 10167 bound_to 10162
  157.6898  131.0134  150.2676 H   0  0  0  0  0  0  0  0  0  0  0  0  # atno 10718 bound_to 10713
  153.7633  135.3192  155.3340 H   0  0  0  0  0  0  0  0  0  0  0  0  # atno 10763 bound_to 10752
  154.8222  135.4595  154.0816 H   0  0  0  0  0  0  0  0  0  0  0  0  # atno 10764 bound_to 10752
  153.2053  135.6928  153.8264 H   0  0  0  0  0  0  0  0  0  0  0  0  # atno 10765 bound_to 10752
  141.1284  133.6622  156.5211 H   0  0  0  0  0  0  0  0  0  0  0  0  # atno 11005 bound_to 11000
  146.1362  139.4408  143.0138 LP  0  0  0  0  0  0  0  0  0  0  0  0  # atno 17320 bound_to 7965
  145.7088  141.0113  143.1464 LP  0  0  0  0  0  0  0  0  0  0  0  0  # atno 17321 bound_to 7965
  139.5388  144.2707  152.1307 LP  0  0  0  0  0  0  0  0  0  0  0  0  # atno 17342 bound_to 10162
  140.1913  144.4749  150.6477 LP  0  0  0  0  0  0  0  0  0  0  0  0  # atno 17343 bound_to 10162
  156.3244  130.3791  149.7546 LP  0  0  0  0  0  0  0  0  0  0  0  0  # atno 17370 bound_to 10713
  156.5106  130.8170  151.3167 LP  0  0  0  0  0  0  0  0  0  0  0  0  # atno 17371 bound_to 10713
  140.4291  134.7118  157.4932 LP  0  0  0  0  0  0  0  0  0  0  0  0  # atno 17394 bound_to 11000
  140.0306  134.6412  155.9112 LP  0  0  0  0  0  0  0  0  0  0  0  0  # atno 17395 bound_to 11000

$$$$
