AV-unprocessed.smi:1662|AV-procd|sdf|6657|dock1
  -GOLD-   22720 7363D 1   1.00000     0.00000
 Structure written by MMmdl.
 47 48  0  0  0  0  0  0  0  0  1 V2000
  146.5405  138.4452  154.8719 C   0  0  0  0  0  0  0  0  0  0  0  0
  147.9494  137.9597  155.0819 C   0  0  0  0  0  0  0  0  0  0  0  0
  148.1317  136.6802  155.0633 N   0  0  0  0  0  0  0  0  0  0  0  0
  149.3851  136.1291  155.2481 N   0  0  0  0  0  0  0  0  0  0  0  0
  149.4046  134.6588  155.2209 C   0  0  0  0  0  0  0  0  0  0  0  0
  148.0681  134.0392  154.7861 C   0  0  0  0  0  0  0  0  0  0  0  0
  147.3547  133.4469  155.5973 O   0  0  0  0  0  0  0  0  0  0  0  0
  147.7378  134.2083  153.4959 N   0  0  0  0  0  0  0  0  0  0  0  0
  146.5283  133.7048  152.8453 C   0  0  2  0  0  0  0  0  0  0  0  0
  146.8988  132.4574  152.0203 C   0  0  0  0  0  0  0  0  0  0  0  0
  145.6950  131.9046  151.2448 C   0  0  0  0  0  0  0  0  0  0  0  0
  145.0635  132.9884  150.3570 C   0  0  0  0  0  0  0  0  0  0  0  0
  144.6622  134.2411  151.1622 C   0  0  1  0  0  0  0  0  0  0  0  0
  143.4142  133.9819  152.0310 C   0  0  0  0  0  0  0  0  0  0  0  0
  145.8806  134.7944  151.9494 C   0  0  1  0  0  0  0  0  0  0  0  0
  145.5435  136.0899  152.7139 C   0  0  0  0  0  0  0  0  0  0  0  0
  150.5275  136.8479  155.4487 C   0  0  0  0  0  0  0  0  0  0  0  0
  151.6281  136.3148  155.5980 O   0  0  0  0  0  0  0  0  0  0  0  0
  150.3131  138.2966  155.4704 C   0  0  0  0  0  0  0  0  0  0  0  0
  151.4826  139.0861  155.6856 C   0  0  0  0  0  0  0  0  0  0  0  0
  152.4361  139.7142  155.8760 N   0  0  0  0  0  0  0  0  0  0  0  0
  149.0860  138.8490  155.2987 C   0  0  0  0  0  0  0  0  0  0  0  0
  148.8100  140.3463  155.3132 C   0  0  0  0  0  0  0  0  0  0  0  0
  146.4815  139.0970  154.0001 H   0  0  0  0  0  0  0  0  0  0  0  0
  146.1915  139.0063  155.7390 H   0  0  0  0  0  0  0  0  0  0  0  0
  145.8449  137.6197  154.7121 H   0  0  0  0  0  0  0  0  0  0  0  0
  150.1782  134.3038  154.5375 H   0  0  0  0  0  0  0  0  0  0  0  0
  149.6832  134.2730  156.2034 H   0  0  0  0  0  0  0  0  0  0  0  0
  148.3837  134.7182  152.9107 H   0  0  0  0  0  0  0  0  0  0  0  0
  145.8040  133.3990  153.6016 H   0  0  0  0  0  0  0  0  0  0  0  0
  147.6943  132.7045  151.3157 H   0  0  0  0  0  0  0  0  0  0  0  0
  147.2981  131.6820  152.6752 H   0  0  0  0  0  0  0  0  0  0  0  0
  146.0088  131.0606  150.6298 H   0  0  0  0  0  0  0  0  0  0  0  0
  144.9547  131.5139  151.9433 H   0  0  0  0  0  0  0  0  0  0  0  0
  145.7779  133.2731  149.5834 H   0  0  0  0  0  0  0  0  0  0  0  0
  144.1983  132.5823  149.8319 H   0  0  0  0  0  0  0  0  0  0  0  0
  144.3725  135.0009  150.4351 H   0  0  0  0  0  0  0  0  0  0  0  0
  143.6089  133.2697  152.8321 H   0  0  0  0  0  0  0  0  0  0  0  0
  142.5990  133.5807  151.4284 H   0  0  0  0  0  0  0  0  0  0  0  0
  143.0466  134.9004  152.4876 H   0  0  0  0  0  0  0  0  0  0  0  0
  146.6253  135.0729  151.2015 H   0  0  0  0  0  0  0  0  0  0  0  0
  144.9046  135.8936  153.5750 H   0  0  0  0  0  0  0  0  0  0  0  0
  145.0295  136.8036  152.0699 H   0  0  0  0  0  0  0  0  0  0  0  0
  146.4440  136.5822  153.0813 H   0  0  0  0  0  0  0  0  0  0  0  0
  149.7122  140.9311  155.4893 H   0  0  0  0  0  0  0  0  0  0  0  0
  148.0995  140.5970  156.1016 H   0  0  0  0  0  0  0  0  0  0  0  0
  148.3926  140.6675  154.3584 H   0  0  0  0  0  0  0  0  0  0  0  0
  1  2  1  0  0  0  0
  1 24  1  0  0  0  0
  1 25  1  0  0  0  0
  1 26  1  0  0  0  0
  2 22  1  0  0  0  0
  2  3  2  0  0  0  0
  3  4  1  0  0  0  0
  4  5  1  0  0  0  0
  4 17  1  0  0  0  0
  5  6  1  0  0  0  0
  5 27  1  0  0  0  0
  5 28  1  0  0  0  0
  6  7  2  0  0  0  0
  6  8  1  0  0  0  0
  8  9  1  0  0  0  0
  8 29  1  0  0  0  0
  9 15  1  0  0  0  0
  9 10  1  0  0  0  0
  9 30  1  0  0  0  0
 10 11  1  0  0  0  0
 10 31  1  0  0  0  0
 10 32  1  0  0  0  0
 11 12  1  0  0  0  0
 11 33  1  0  0  0  0
 11 34  1  0  0  0  0
 12 13  1  0  0  0  0
 12 35  1  0  0  0  0
 12 36  1  0  0  0  0
 13 14  1  0  0  0  0
 13 15  1  0  0  0  0
 13 37  1  0  0  0  0
 14 38  1  0  0  0  0
 14 39  1  0  0  0  0
 14 40  1  0  0  0  0
 15 16  1  0  0  0  0
 15 41  1  0  0  0  0
 16 42  1  0  0  0  0
 16 43  1  0  0  0  0
 16 44  1  0  0  0  0
 17 18  2  0  0  0  0
 17 19  1  0  0  0  0
 19 20  1  0  0  0  0
 19 22  2  0  0  0  0
 20 21  3  0  0  0  0
 22 23  1  0  0  0  0
 23 45  1  0  0  0  0
 23 46  1  0  0  0  0
 23 47  1  0  0  0  0
M  END
> <s_m_source_file>
AV-unprocessed.smi

> <i_m_source_file_index>
1662

> <i_lp_mmshare_version>
43012

> <i_f3d_flags>
0

> <s_epik_input>
TiNDYyhjMVtDSDNdKWMoPU8pbihuYzFbQ0gzXSlbQ0gyXUMoPU8pW05IXVtDQEBIXTJbQ0gyXVtDSDJdW0NIMl1bQ0BASF0oW0NIM10pW0NASF0yW0NIM10=

> <s_epik_cmdline>
J2VwaWtfcHl0aG9uJywgJy1waCcsICc3LjAnLCAnLXRuJywgJzgnLCAnLW1hJywgJzIwMCcsICctbWV0YWxfYmluZGluZycsICctaW1hZScsICc8aW5maWxlLm1hZT4nLCAnLW9tYWUnLCAnPG91dGZpbGUubWFlPic=

> <r_lp_tautomer_probability>
1

> <r_epik_Ionization_Penalty>
1.90709e-08

> <r_epik_Ionization_Penalty_Charging>
2.37982e-11

> <r_epik_Ionization_Penalty_Neutral>
1.90471e-08

> <r_epik_State_Penalty>
-0

> <r_epik_Charging_Adjusted_Penalty>
2.37982e-11

> <i_epik_Tot_Q>
0

> <i_epik_Tot_abs_Q>
0

> <r_epik_Metal_State_Penalty>
-0

> <b_epik_Metal_Only>
0

> <s_lp_Force_Field>
OPLS_2005

> <r_lp_Energy>
29.144

> <b_lp_Chiralities_Consistent>
1

> <s_lp_Variant>
AV-unprocessed.smi:1662-1

> <Gold.Version>
5.8.1

> <Gold.Id.Protein>
6NUR|6NUR_protein|mol2

> <Gold.PLP.Fitness>
43.7213

> <Gold.PLP.PLP>
-35.7067

> <Gold.PLP.part.hbond>
-4.0000

> <Gold.PLP.part.metal>
0.0000

> <Gold.PLP.part.buried>
-5.4046

> <Gold.PLP.part.nonpolar>
-29.3072

> <Gold.PLP.part.repulsive>
1.4246

> <Gold.PLP.ligand.clash>
0.0000

> <Gold.PLP.ligand.torsion>
0.3795

> <Gold.PLP.Chemscore.Hbond>
2.9193

> <Gold.PLP.Chemscore.CHOScore>
0.0000

> <Gold.PLP.Chemscore.Metal>
0.0000

> <Gold.Chemscore.Hbonds>
donor molecule, donor type, donor heavy atom, donor atom, acceptor molecule, acceptor atom, score
      L1  H     8    29       P1  7948  1.00
      P1  H  7997  8010       L1    21  1.00
      P1  H 10752 10765       L1    18  1.00

> <Gold.PLP.Chemscore.Internal.Correction>
0.0158

> <Gold.Rescore>
     Score         DG    S(hbond)    S(metal)    S(lipo)     H(rot)  DE(clash)    DE(int)     intcor
     18.91     -19.49       2.89        0.00      68.97       1.45       0.13       0.45       ----

> <Gold.Chemscore.Fitness>
18.9123

> <Gold.Chemscore.DG>
-19.4918

> <Gold.Chemscore.ZeroCoef>
-5.4800

> <Gold.Chemscore.Hbond>
2.8908

> <Gold.Chemscore.Metal>
0.0000

> <Gold.Chemscore.Lipo>
68.9693

> <Gold.Chemscore.Internal_Hbond>
0.0000

> <Gold.Chemscore.DEClash>
0.1307

> <Gold.Chemscore.DEInternal>
0.4488

> <Gold.Chemscore.Rot>
1.4504

> <Gold.Chemscore.Internal.Correction>
   9.000000E+99

> <Gold.Chemscore.Hbonds>
donor molecule, donor type, donor heavy atom, donor atom, acceptor molecule, acceptor atom, score
      L1  H     8    29       P1  7948  0.49
      P1  H  7997  8010       L1    21  0.97
      P1  H 10752 10765       L1    18  1.00

> <Gold.Chemscore.Hbond.Weighted>
-9.6554

> <Gold.Chemscore.Metal.Weighted>
-0.0000

> <Gold.Chemscore.Lipo.Weighted>
-8.0694

> <Gold.Chemscore.Internal_Hbond.Weighted>
0.0000

> <Gold.Chemscore.DEClash.Weighted>
0.1307

> <Gold.Chemscore.DEInternal.Weighted>
0.4488

> <Gold.Chemscore.Rot.Weighted>
3.7129

> <Gold.Chemscore.Internal.Correction.Weighted>
   9.000000E+99

> <Gold.Protein.RotatedTorsions>
[ 6907 6896 6895 6894 ] final   52.34 input  -60.11 | X-H torsion
[ 7974 7965 7964 7962 ] final   29.22 input  175.53 | X-H torsion
[ 8008 7997 7996 7995 ] final   81.28 input   59.86 | X-H torsion
[ 10167 10162 10161 10158 ] final   87.85 input  -65.29 | X-H torsion
[ 10718 10713 10712 10709 ] final -163.38 input   66.30 | X-H torsion
[ 10763 10752 10751 10750 ] final -173.00 input  -60.55 | X-H torsion
[ 11005 11000 10999 10996 ] final -153.26 input  -57.11 | X-H torsion

> <Gold.Protein.ActiveResidues>
 VAL166  LYS551  ARG553  GLY616  TRP617  ASP618  TYR619  PRO620  LYS621  CYS622 
 ASP623  PHE694  ASN695  SER759  ASP760  ASP761  ALA762  ILE779  LEU786  VAL792 
 PHE793  MET794  SER795  GLU796  ALA797  LYS798  CYS799  TRP800  GLU811  SER814 

> <Gold.Protein.RotatedAtoms>
  152.3223  134.7365  160.0310 H   0  0  0  0  0  0  0  0  0  0  0  0  # atno 6907 bound_to 6896
  151.7809  133.3344  159.3479 H   0  0  0  0  0  0  0  0  0  0  0  0  # atno 6908 bound_to 6896
  150.7376  134.5863  159.6009 H   0  0  0  0  0  0  0  0  0  0  0  0  # atno 6909 bound_to 6896
  146.1684  139.6951  142.8985 H   0  0  0  0  0  0  0  0  0  0  0  0  # atno 7974 bound_to 7965
  155.8950  140.3436  155.5984 H   0  0  0  0  0  0  0  0  0  0  0  0  # atno 8008 bound_to 7997
  155.7566  140.0827  157.2194 H   0  0  0  0  0  0  0  0  0  0  0  0  # atno 8009 bound_to 7997
  154.4037  140.1543  156.2772 H   0  0  0  0  0  0  0  0  0  0  0  0  # atno 8010 bound_to 7997
  139.8732  144.6481  150.8926 H   0  0  0  0  0  0  0  0  0  0  0  0  # atno 10167 bound_to 10162
  156.6239  130.8902  151.2963 H   0  0  0  0  0  0  0  0  0  0  0  0  # atno 10718 bound_to 10713
  154.6129  135.2866  155.0412 H   0  0  0  0  0  0  0  0  0  0  0  0  # atno 10763 bound_to 10752
  154.1635  135.6484  153.4995 H   0  0  0  0  0  0  0  0  0  0  0  0  # atno 10764 bound_to 10752
  153.0203  135.5384  154.6890 H   0  0  0  0  0  0  0  0  0  0  0  0  # atno 10765 bound_to 10752
  140.7100  134.3843  157.5199 H   0  0  0  0  0  0  0  0  0  0  0  0  # atno 11005 bound_to 11000
  145.4406  141.0422  143.2860 LP  0  0  0  0  0  0  0  0  0  0  0  0  # atno 17320 bound_to 7965
  144.8126  139.5934  143.7022 LP  0  0  0  0  0  0  0  0  0  0  0  0  # atno 17321 bound_to 7965
  140.7757  143.3646  151.1763 LP  0  0  0  0  0  0  0  0  0  0  0  0  # atno 17342 bound_to 10162
  139.7264  143.9141  152.3004 LP  0  0  0  0  0  0  0  0  0  0  0  0  # atno 17343 bound_to 10162
  157.7220  130.9571  150.1476 LP  0  0  0  0  0  0  0  0  0  0  0  0  # atno 17370 bound_to 10713
  156.2289  130.3680  149.8468 LP  0  0  0  0  0  0  0  0  0  0  0  0  # atno 17371 bound_to 10713
  139.8874  134.8884  156.2531 LP  0  0  0  0  0  0  0  0  0  0  0  0  # atno 17394 bound_to 11000
  141.0092  133.7105  156.1084 LP  0  0  0  0  0  0  0  0  0  0  0  0  # atno 17395 bound_to 11000

$$$$
