AV-unprocessed.smi:906|AV-procd|sdf|4103|dock5
  -GOLD-   22720 1593D 1   1.00000     0.00000
 Structure written by MMmdl.
 48 49  0  0  0  0  0  0  0  0  2 V2000
  151.2163  145.2520  158.9448 C   0  0  0  0  0  0  0  0  0  0  0  0
  151.3831  143.7775  158.6450 C   0  0  0  0  0  0  0  0  0  0  0  0
  152.1804  142.9324  159.4463 C   0  0  0  0  0  0  0  0  0  0  0  0
  152.2896  141.5667  159.1108 C   0  0  0  0  0  0  0  0  0  0  0  0
  151.5993  141.0739  157.9819 C   0  0  0  0  0  0  0  0  0  0  0  0
  151.6913  139.6109  157.5960 C   0  0  0  0  0  0  0  0  0  0  0  0
  150.6950  139.2418  156.4846 C   0  0  0  0  0  0  0  0  0  0  0  0
  150.3370  137.8292  156.5325 N   0  0  0  0  0  0  0  0  0  0  0  0
  151.0325  136.8352  155.9537 C   0  0  0  0  0  0  0  0  0  0  0  0
  152.0726  137.0452  155.3278 O   0  0  0  0  0  0  0  0  0  0  0  0
  150.5188  135.5950  156.1467 N   0  0  0  0  0  0  0  0  0  0  0  0
  149.1076  135.2495  156.3706 C   0  0  0  0  0  0  0  0  0  0  0  0
  148.5682  134.5366  155.1157 C   0  0  0  0  0  0  0  0  0  0  0  0
  149.3566  133.3291  154.8397 N   0  0  0  0  0  0  0  0  0  0  0  0
  148.7697  132.5318  153.7491 C   0  0  1  0  0  0  0  0  0  0  0  0
  149.1000  133.0650  152.3375 C   0  0  0  0  0  0  0  0  0  0  0  0
  149.0891  131.0251  153.8980 C   0  0  0  0  0  0  0  0  0  0  0  0
  148.5601  130.5496  155.0261 F   0  0  0  0  0  0  0  0  0  0  0  0
  148.5454  130.3627  152.8771 F   0  0  0  0  0  0  0  0  0  0  0  0
  150.4000  130.7840  153.8981 F   0  0  0  0  0  0  0  0  0  0  0  0
  150.7798  133.6572  154.6765 C   0  0  0  0  0  0  0  0  0  0  0  0
  151.3028  134.3752  155.9354 C   0  0  0  0  0  0  0  0  0  0  0  0
  150.8153  141.9654  157.2186 C   0  0  0  0  0  0  0  0  0  0  0  0
  150.7365  143.2666  157.5730 N   0  3  0  0  0  0  0  0  0  0  0  0
  152.0427  145.6204  159.5533 H   0  0  0  0  0  0  0  0  0  0  0  0
  150.2867  145.4239  159.4881 H   0  0  0  0  0  0  0  0  0  0  0  0
  151.1898  145.8341  158.0231 H   0  0  0  0  0  0  0  0  0  0  0  0
  152.7025  143.3231  160.3078 H   0  0  0  0  0  0  0  0  0  0  0  0
  152.8950  140.9070  159.7155 H   0  0  0  0  0  0  0  0  0  0  0  0
  152.7124  139.3981  157.2768 H   0  0  0  0  0  0  0  0  0  0  0  0
  151.5120  138.9960  158.4791 H   0  0  0  0  0  0  0  0  0  0  0  0
  149.7816  139.8275  156.5926 H   0  0  0  0  0  0  0  0  0  0  0  0
  151.1065  139.4872  155.5037 H   0  0  0  0  0  0  0  0  0  0  0  0
  149.4985  137.5858  157.0397 H   0  0  0  0  0  0  0  0  0  0  0  0
  149.0319  134.5909  157.2375 H   0  0  0  0  0  0  0  0  0  0  0  0
  148.4742  136.1056  156.6010 H   0  0  0  0  0  0  0  0  0  0  0  0
  147.5241  134.2663  155.2769 H   0  0  0  0  0  0  0  0  0  0  0  0
  148.5975  135.2168  154.2641 H   0  0  0  0  0  0  0  0  0  0  0  0
  147.6886  132.6091  153.8733 H   0  0  0  0  0  0  0  0  0  0  0  0
  148.5476  132.5081  151.5807 H   0  0  0  0  0  0  0  0  0  0  0  0
  150.1586  132.9620  152.0993 H   0  0  0  0  0  0  0  0  0  0  0  0
  148.8288  134.1133  152.2195 H   0  0  0  0  0  0  0  0  0  0  0  0
  151.3663  132.7538  154.5222 H   0  0  0  0  0  0  0  0  0  0  0  0
  150.9284  134.2940  153.8038 H   0  0  0  0  0  0  0  0  0  0  0  0
  152.3698  134.5747  155.8281 H   0  0  0  0  0  0  0  0  0  0  0  0
  151.2103  133.7262  156.8078 H   0  0  0  0  0  0  0  0  0  0  0  0
  150.2513  141.6787  156.3426 H   0  0  0  0  0  0  0  0  0  0  0  0
  150.1630  143.8917  157.0061 H   0  0  0  0  0  0  0  0  0  0  0  0
  1  2  1  0  0  0  0
  1 25  1  0  0  0  0
  1 26  1  0  0  0  0
  1 27  1  0  0  0  0
  2 24  1  0  0  0  0
  2  3  2  0  0  0  0
  3  4  1  0  0  0  0
  3 28  1  0  0  0  0
  4  5  2  0  0  0  0
  4 29  1  0  0  0  0
  5  6  1  0  0  0  0
  5 23  1  0  0  0  0
  6  7  1  0  0  0  0
  6 30  1  0  0  0  0
  6 31  1  0  0  0  0
  7  8  1  0  0  0  0
  7 32  1  0  0  0  0
  7 33  1  0  0  0  0
  8  9  1  0  0  0  0
  8 34  1  0  0  0  0
  9 10  2  0  0  0  0
  9 11  1  0  0  0  0
 11 22  1  0  0  0  0
 11 12  1  0  0  0  0
 12 13  1  0  0  0  0
 12 35  1  0  0  0  0
 12 36  1  0  0  0  0
 13 14  1  0  0  0  0
 13 37  1  0  0  0  0
 13 38  1  0  0  0  0
 14 15  1  0  0  0  0
 14 21  1  0  0  0  0
 15 16  1  0  0  0  0
 15 17  1  0  0  0  0
 15 39  1  0  0  0  0
 16 40  1  0  0  0  0
 16 41  1  0  0  0  0
 16 42  1  0  0  0  0
 17 18  1  0  0  0  0
 17 19  1  0  0  0  0
 17 20  1  0  0  0  0
 21 22  1  0  0  0  0
 21 43  1  0  0  0  0
 21 44  1  0  0  0  0
 22 45  1  0  0  0  0
 22 46  1  0  0  0  0
 23 24  2  0  0  0  0
 23 47  1  0  0  0  0
 24 48  1  0  0  0  0
M  CHG  1  24   1
M  END
> <s_m_source_file>
AV-unprocessed.smi

> <i_m_source_file_index>
906

> <i_lp_mmshare_version>
43012

> <i_f3d_flags>
0

> <s_epik_input>
W0NIM11jMVtjSF1bY0hdYyhbY0hdbjEpW0NIMl1bQ0gyXVtOSF1DKD1PKU4yW0NIMl1bQ0gyXU4oW0NASF0oW0NIM10pQyhGKShGKUYpW0NIMl1bQ0gyXTI=

> <s_epik_cmdline>
J2VwaWtfcHl0aG9uJywgJy1waCcsICc3LjAnLCAnLXRuJywgJzgnLCAnLW1hJywgJzIwMCcsICctbWV0YWxfYmluZGluZycsICctaW1hZScsICc8aW5maWxlLm1hZT4nLCAnLW9tYWUnLCAnPG91dGZpbGUubWFlPic=

> <r_epik_Ionization_Penalty>
1.4413

> <r_epik_Ionization_Penalty_Charging>
1.42075

> <r_epik_Ionization_Penalty_Neutral>
0.0205507

> <r_epik_State_Penalty>
1.52216

> <r_epik_Charging_Adjusted_Penalty>
2.94291

> <i_epik_Tot_Q>
1

> <i_epik_Tot_abs_Q>
1

> <r_epik_Metal_State_Penalty>
1.57308

> <b_epik_Metal_Only>
0

> <s_lp_Force_Field>
OPLS_2005

> <r_lp_Energy>
53.1846

> <b_lp_Chiralities_Consistent>
1

> <s_lp_Variant>
AV-unprocessed.smi:906-4

> <Gold.Version>
5.8.1

> <Gold.Id.Protein>
6NUR|6NUR_protein|mol2

> <Gold.PLP.Fitness>
44.9821

> <Gold.PLP.PLP>
-37.5525

> <Gold.PLP.part.hbond>
-1.9836

> <Gold.PLP.part.metal>
0.0000

> <Gold.PLP.part.buried>
-5.7098

> <Gold.PLP.part.nonpolar>
-30.6169

> <Gold.PLP.part.repulsive>
0.0944

> <Gold.PLP.ligand.clash>
0.0000

> <Gold.PLP.ligand.torsion>
1.1223

> <Gold.PLP.Chemscore.Hbond>
3.0000

> <Gold.PLP.Chemscore.CHOScore>
0.0000

> <Gold.PLP.Chemscore.Metal>
0.0000

> <Gold.Chemscore.Hbonds>
donor molecule, donor type, donor heavy atom, donor atom, acceptor molecule, acceptor atom, score
      L1  H    24    48       P1  8028  2.00
      P1  H 10752 10764       L1    10  0.91

> <Gold.PLP.Chemscore.Internal.Correction>
0.6741

> <Gold.Rescore>
     Score         DG    S(hbond)    S(metal)    S(lipo)     H(rot)  DE(clash)    DE(int)     intcor
     17.81     -19.29       1.97        0.00      98.04       1.66       0.02       1.46       ----

> <Gold.Chemscore.Fitness>
17.8064

> <Gold.Chemscore.DG>
-19.2863

> <Gold.Chemscore.ZeroCoef>
-5.4800

> <Gold.Chemscore.Hbond>
1.9681

> <Gold.Chemscore.Metal>
0.0000

> <Gold.Chemscore.Lipo>
98.0367

> <Gold.Chemscore.Internal_Hbond>
0.0000

> <Gold.Chemscore.DEClash>
0.0202

> <Gold.Chemscore.DEInternal>
1.4597

> <Gold.Chemscore.Rot>
1.6553

> <Gold.Chemscore.Internal.Correction>
   9.000000E+99

> <Gold.Chemscore.Hbonds>
donor molecule, donor type, donor heavy atom, donor atom, acceptor molecule, acceptor atom, score
      L1  H    24    48       P1  8028  0.92
      P1  H 10752 10764       L1    10  0.83

> <Gold.Chemscore.Hbond.Weighted>
-6.5736

> <Gold.Chemscore.Metal.Weighted>
-0.0000

> <Gold.Chemscore.Lipo.Weighted>
-11.4703

> <Gold.Chemscore.Internal_Hbond.Weighted>
0.0000

> <Gold.Chemscore.DEClash.Weighted>
0.0202

> <Gold.Chemscore.DEInternal.Weighted>
1.4597

> <Gold.Chemscore.Rot.Weighted>
4.2376

> <Gold.Chemscore.Internal.Correction.Weighted>
   9.000000E+99

> <Gold.Protein.RotatedTorsions>
[ 6907 6896 6895 6894 ] final -132.91 input  -60.11 | X-H torsion
[ 7974 7965 7964 7962 ] final   -9.64 input  175.53 | X-H torsion
[ 8008 7997 7996 7995 ] final   19.59 input   59.86 | X-H torsion
[ 10167 10162 10161 10158 ] final -131.39 input  -65.29 | X-H torsion
[ 10718 10713 10712 10709 ] final -164.53 input   66.30 | X-H torsion
[ 10763 10752 10751 10750 ] final  -45.61 input  -60.55 | X-H torsion
[ 11005 11000 10999 10996 ] final   15.45 input  -57.11 | X-H torsion

> <Gold.Protein.ActiveResidues>
 VAL166  LYS551  ARG553  GLY616  TRP617  ASP618  TYR619  PRO620  LYS621  CYS622 
 ASP623  PHE694  ASN695  SER759  ASP760  ASP761  ALA762  ILE779  LEU786  VAL792 
 PHE793  MET794  SER795  GLU796  ALA797  LYS798  CYS799  TRP800  GLU811  SER814 

> <Gold.Protein.RotatedAtoms>
  150.9678  133.6376  159.2742 H   0  0  0  0  0  0  0  0  0  0  0  0  # atno 6907 bound_to 6896
  151.3676  135.0915  159.9464 H   0  0  0  0  0  0  0  0  0  0  0  0  # atno 6908 bound_to 6896
  152.5172  133.9239  159.7602 H   0  0  0  0  0  0  0  0  0  0  0  0  # atno 6909 bound_to 6896
  146.2245  140.2647  142.8353 H   0  0  0  0  0  0  0  0  0  0  0  0  # atno 7974 bound_to 7965
  154.9230  140.3030  155.5206 H   0  0  0  0  0  0  0  0  0  0  0  0  # atno 8008 bound_to 7997
  156.3008  140.2368  156.4218 H   0  0  0  0  0  0  0  0  0  0  0  0  # atno 8009 bound_to 7997
  154.8312  140.0418  157.1467 H   0  0  0  0  0  0  0  0  0  0  0  0  # atno 8010 bound_to 7997
  139.9194  143.6400  152.2557 H   0  0  0  0  0  0  0  0  0  0  0  0  # atno 10167 bound_to 10162
  156.6404  130.8966  151.2995 H   0  0  0  0  0  0  0  0  0  0  0  0  # atno 10718 bound_to 10713
  154.0313  135.6656  153.4781 H   0  0  0  0  0  0  0  0  0  0  0  0  # atno 10763 bound_to 10752
  153.0539  135.5068  154.7930 H   0  0  0  0  0  0  0  0  0  0  0  0  # atno 10764 bound_to 10752
  154.6876  135.3055  154.9490 H   0  0  0  0  0  0  0  0  0  0  0  0  # atno 10765 bound_to 10752
  140.4582  134.1155  155.7712 H   0  0  0  0  0  0  0  0  0  0  0  0  # atno 11005 bound_to 11000
  144.9313  140.7978  143.5687 LP  0  0  0  0  0  0  0  0  0  0  0  0  # atno 17320 bound_to 7965
  145.2591  139.2000  143.4902 LP  0  0  0  0  0  0  0  0  0  0  0  0  # atno 17321 bound_to 7965
  139.6874  144.7650  151.1499 LP  0  0  0  0  0  0  0  0  0  0  0  0  # atno 17342 bound_to 10162
  140.7666  143.5637  150.9071 LP  0  0  0  0  0  0  0  0  0  0  0  0  # atno 17343 bound_to 10162
  157.7173  130.9513  150.1302 LP  0  0  0  0  0  0  0  0  0  0  0  0  # atno 17370 bound_to 10713
  156.2164  130.3670  149.8609 LP  0  0  0  0  0  0  0  0  0  0  0  0  # atno 17371 bound_to 10713
  141.1633  133.8750  157.1785 LP  0  0  0  0  0  0  0  0  0  0  0  0  # atno 17394 bound_to 11000
  139.9963  135.0045  157.0089 LP  0  0  0  0  0  0  0  0  0  0  0  0  # atno 17395 bound_to 11000

$$$$
