#       Name:                AV-unprocessed.smi:1409
#       Creating user name   scv26
#       Creation time:       Fri Mar 27 05:36:09 2020


#       File generated by GOLD software.
#

@<TRIPOS>MOLECULE
AV-unprocessed.smi:1409
    42    43     1
SMALL
NO_CHARGES


@<TRIPOS>ATOM
      1 ****        -3.1176  -3.8180   1.2090 C.3            1 S1                 0.0000
      2 ****        -2.4570  -2.5573   1.2196 O.3            1 S1                 0.0000
      3 ****        -3.2261  -1.4092   1.2112 C.ar           1 S1                 0.0000
      4 ****        -4.5767  -1.5368   1.1908 N.ar           1 S1                 0.0000
      5 ****        -5.3281  -0.4166   1.1842 C.ar           1 S1                 0.0000
      6 ****        -4.7799   0.8789   1.2046 C.ar           1 S1                 0.0000
      7 ****        -3.3794   1.0141   1.2260 C.ar           1 S1                 0.0000
      8 ****        -2.5770  -0.1525   1.2174 C.ar           1 S1                 0.0000
      9 ****        -1.1559  -0.1276   1.2605 N.am           1 S1                 0.0000
     10 ****        -0.3256   0.8418   0.8410 C.2            1 S1                 0.0000
     11 ****        -0.6733   1.8973   0.3117 O.2            1 S1                 0.0000
     12 ****         0.9550   0.5050   1.0482 N.am           1 S1                 0.0000
     13 ****         2.1073   1.3191   0.6757 C.3            1 S1                 0.0000
     14 ****         2.4606   1.1833  -0.8189 C.3            1 S1                 0.0000
     15 ****         2.7710  -0.2663  -1.2485 C.3            1 S1                 0.0000
     16 ****         3.3829  -0.2387  -2.6517 C.3            1 S1                 0.0000
     17 ****         4.3842   1.2923  -2.7191 S.o2           1 S1                 0.0000
     18 ****         5.7936   0.9670  -2.4531 O.2            1 S1                 0.0000
     19 ****         3.9971   2.0675  -3.9074 O.2            1 S1                 0.0000
     20 ****         3.6595   2.0592  -1.2188 C.3            1 S1                 0.0000
     21 ****        -2.3736  -4.6144   1.2092 H              1 S1                 0.0000
     22 ****        -3.7313  -3.9407   0.3154 H              1 S1                 0.0000
     23 ****        -3.7422  -3.9483   2.0940 H              1 S1                 0.0000
     24 ****        -6.3988  -0.5573   1.1688 H              1 S1                 0.0000
     25 ****        -5.4193   1.7493   1.2095 H              1 S1                 0.0000
     26 ****        -2.9499   2.0033   1.2639 H              1 S1                 0.0000
     27 ****        -0.7201  -0.9787   1.5845 H              1 S1                 0.0000
     28 ****         1.1482  -0.3831   1.4878 H              1 S1                 0.0000
     29 ****         1.9190   2.3646   0.9263 H              1 S1                 0.0000
     30 ****         2.9521   1.0047   1.2891 H              1 S1                 0.0000
     31 ****         1.6079   1.5193  -1.4111 H              1 S1                 0.0000
     32 ****         3.4950  -0.6982  -0.5562 H              1 S1                 0.0000
     33 ****         1.8840  -0.8999  -1.2189 H              1 S1                 0.0000
     34 ****         4.0039  -1.1082  -2.8678 H              1 S1                 0.0000
     35 ****         2.6034  -0.1662  -3.4105 H              1 S1                 0.0000
     36 ****         3.3787   3.0924  -1.4239 H              1 S1                 0.0000
     37 ****         4.4268   2.0574  -0.4442 H              1 S1                 0.0000
     38 ****        -1.8697  -2.5250   0.4109 LP             1 S1                 0.0000
     39 ****        -1.8912  -2.5275   2.0437 LP             1 S1                 0.0000
     40 ****        -5.0051  -2.4403   1.1809 LP             1 S1                 0.0000
     41 ****        -1.6440   2.0866   0.1642 LP             1 S1                 0.0000
     42 ****         0.0150   2.5655   0.0293 LP             1 S1                 0.0000
@<TRIPOS>BOND
    1    1    2 1     
    2    1   21 1     
    3    1   22 1     
    4    1   23 1     
    5    2    3 1     
    6    3    8 ar    
    7    3    4 ar    
    8    4    5 ar    
    9    5    6 ar    
   10    5   24 1     
   11    6    7 ar    
   12    6   25 1     
   13    7    8 ar    
   14    7   26 1     
   15    8    9 1     
   16    9   10 am    
   17    9   27 1     
   18   10   11 2     
   19   10   12 am    
   20   12   13 1     
   21   12   28 1     
   22   13   14 1     
   23   13   29 1     
   24   13   30 1     
   25   14   20 1     
   26   14   15 1     
   27   14   31 1     
   28   15   16 1     
   29   15   32 1     
   30   15   33 1     
   31   16   17 1     
   32   16   34 1     
   33   16   35 1     
   34   17   18 2     
   35   17   19 2     
   36   17   20 1     
   37   20   36 1     
   38   20   37 1     
   39    2   38 1     
   40    2   39 1     
   41    4   40 1     
   42   11   41 1     
   43   11   42 1     
@<TRIPOS>SUBSTRUCTURE
      1 S1             1
@<TRIPOS>SET
LONE_PAIRS      STATIC     ATOMS    <user>   **** ""
7 38 39 40 41 42 18 19
DONOR_HYDROGENS      STATIC     ATOMS    <user>   **** ""
2 27 28
ATOM$BLUE        STATIC     ATOMS    COLORGROUP SYSTEM
7 38 39 40 41 42 18 19
ATOM$RED        STATIC     ATOMS    COLORGROUP SYSTEM
2 27 28
