#       Name:                AV-unprocessed.smi:122
#       Creating user name   scv26
#       Creation time:       Thu Mar 26 18:27:19 2020


#       File generated by GOLD software.
#

@<TRIPOS>MOLECULE
AV-unprocessed.smi:122
    56    58     1
SMALL
NO_CHARGES


@<TRIPOS>ATOM
      1 ****        -2.1242  -3.8459  -3.1031 C.3            1 S1                 0.0000
      2 ****        -2.9766  -4.7276  -1.7321 S.o2           1 S1                 0.0000
      3 ****        -4.4160  -4.7703  -2.0315 O.2            1 S1                 0.0000
      4 ****        -2.2458  -5.9737  -1.4553 O.2            1 S1                 0.0000
      5 ****        -2.7427  -3.6607  -0.3858 N.pl3          1 S1                 0.0000
      6 ****        -3.5402  -2.4136  -0.3367 C.3            1 S1                 0.0000
      7 ****        -3.4655  -1.7403   1.0457 C.3            1 S1                 0.0000
      8 ****        -2.0597  -1.5665   1.4088 N.am           1 S1                 0.0000
      9 ****        -1.4386  -0.3634   1.4272 C.2            1 S1                 0.0000
     10 ****        -2.0436   0.6874   1.2049 O.2            1 S1                 0.0000
     11 ****         0.0734  -0.3118   1.7304 C.3            1 S1                 0.0000
     12 ****         0.6518   1.0474   1.6383 N.am           1 S1                 0.0000
     13 ****         0.6764   1.8573   2.8009 C.2            1 S1                 0.0000
     14 ****         0.2355   1.4456   3.8749 O.2            1 S1                 0.0000
     15 ****         1.2425   3.1903   2.6280 C.2            1 S1                 0.0000
     16 ****         1.3072   4.0265   3.6779 F              1 S1                 0.0000
     17 ****         1.7017   3.6009   1.4279 C.2            1 S1                 0.0000
     18 ****         1.6691   2.8001   0.2998 N.am           1 S1                 0.0000
     19 ****         2.1729   3.2814  -1.0447 C.3            1 S1                 0.0000
     20 ****         3.5100   2.6026  -1.3981 C.3            1 S1                 0.0000
     21 ****         4.3960   3.7782  -1.7590 C.3            1 S1                 0.0000
     22 ****         3.8133   4.8862  -0.8951 C.3            1 S1                 0.0000
     23 ****         2.4137   4.6593  -0.9975 O.3            1 S1                 0.0000
     24 ****         1.1280   1.4988   0.3843 C.2            1 S1                 0.0000
     25 ****         1.0702   0.7773  -0.6142 O.2            1 S1                 0.0000
     26 ****        -1.4250  -2.8730   1.5865 C.3            1 S1                 0.0000
     27 ****        -1.3967  -3.5966   0.2285 C.3            1 S1                 0.0000
     28 ****        -2.2211  -4.4272  -4.0197 H              1 S1                 0.0000
     29 ****        -1.0682  -3.7264  -2.8628 H              1 S1                 0.0000
     30 ****        -2.5788  -2.8665  -3.2487 H              1 S1                 0.0000
     31 ****        -3.1723  -1.7304  -1.1030 H              1 S1                 0.0000
     32 ****        -4.5802  -2.6319  -0.5791 H              1 S1                 0.0000
     33 ****        -4.0174  -0.7996   1.0300 H              1 S1                 0.0000
     34 ****        -3.9631  -2.3601   1.7931 H              1 S1                 0.0000
     35 ****         0.2449  -0.7357   2.7209 H              1 S1                 0.0000
     36 ****         0.5943  -0.9879   1.0505 H              1 S1                 0.0000
     37 ****         2.1046   4.6002   1.3676 H              1 S1                 0.0000
     38 ****         1.3669   3.0795  -1.7526 H              1 S1                 0.0000
     39 ****         3.9100   2.0793  -0.5278 H              1 S1                 0.0000
     40 ****         3.3846   1.8899  -2.2138 H              1 S1                 0.0000
     41 ****         5.4527   3.5942  -1.5635 H              1 S1                 0.0000
     42 ****         4.2791   4.0278  -2.8146 H              1 S1                 0.0000
     43 ****         4.1375   4.7814   0.1413 H              1 S1                 0.0000
     44 ****         4.0854   5.8826  -1.2437 H              1 S1                 0.0000
     45 ****        -0.4198  -2.8195   2.0013 H              1 S1                 0.0000
     46 ****        -1.9993  -3.4590   2.3058 H              1 S1                 0.0000
     47 ****        -1.0052  -4.6050   0.3616 H              1 S1                 0.0000
     48 ****        -0.7211  -3.0811  -0.4550 H              1 S1                 0.0000
     49 ****        -3.0229   0.6675   1.0033 LP             1 S1                 0.0000
     50 ****        -1.5551   1.5597   1.2262 LP             1 S1                 0.0000
     51 ****        -0.1488   0.5245   3.9376 LP             1 S1                 0.0000
     52 ****         0.2618   2.0325   4.6842 LP             1 S1                 0.0000
     53 ****         1.9521   5.0524  -0.2022 LP             1 S1                 0.0000
     54 ****         2.0654   5.0884  -1.8309 LP             1 S1                 0.0000
     55 ****         0.6824  -0.1419  -0.5451 LP             1 S1                 0.0000
     56 ****         1.4111   1.1114  -1.4929 LP             1 S1                 0.0000
@<TRIPOS>BOND
    1    1    2 1     
    2    1   28 1     
    3    1   29 1     
    4    1   30 1     
    5    2    3 2     
    6    2    4 2     
    7    2    5 1     
    8    5   27 1     
    9    5    6 1     
   10    6    7 1     
   11    6   31 1     
   12    6   32 1     
   13    7    8 1     
   14    7   33 1     
   15    7   34 1     
   16    8    9 am    
   17    8   26 1     
   18    9   10 2     
   19    9   11 1     
   20   11   12 1     
   21   11   35 1     
   22   11   36 1     
   23   12   24 am    
   24   12   13 am    
   25   13   14 2     
   26   13   15 1     
   27   15   16 1     
   28   15   17 2     
   29   17   18 1     
   30   17   37 1     
   31   18   19 1     
   32   18   24 am    
   33   19   23 1     
   34   19   20 1     
   35   19   38 1     
   36   20   21 1     
   37   20   39 1     
   38   20   40 1     
   39   21   22 1     
   40   21   41 1     
   41   21   42 1     
   42   22   23 1     
   43   22   43 1     
   44   22   44 1     
   45   24   25 2     
   46   26   27 1     
   47   26   45 1     
   48   26   46 1     
   49   27   47 1     
   50   27   48 1     
   51   10   49 1     
   52   10   50 1     
   53   14   51 1     
   54   14   52 1     
   55   23   53 1     
   56   23   54 1     
   57   25   55 1     
   58   25   56 1     
@<TRIPOS>SUBSTRUCTURE
      1 S1             1
@<TRIPOS>SET
LONE_PAIRS      STATIC     ATOMS    <user>   **** ""
10 3 4 49 50 51 52 53 54 55 56
ATOM$BLUE        STATIC     ATOMS    COLORGROUP SYSTEM
10 3 4 49 50 51 52 53 54 55 56
