AV-unprocessed.smi:1570|AV-procd|sdf|6317|dock6
  -GOLD-   22720 6523D 1   1.00000     0.00000
 Structure written by MMmdl.
 51 53  0  0  0  0  0  0  0  0  1 V2000
  155.1152  140.8180  160.2043 C   0  0  0  0  0  0  0  0  0  0  0  0
  153.6335  140.4430  160.3315 C   0  0  0  0  0  0  0  0  0  0  0  0
  152.8118  141.2147  159.4024 N   0  0  0  0  0  0  0  0  0  0  0  0
  152.4032  140.8259  158.1717 C   0  0  0  0  0  0  0  0  0  0  0  0
  152.6462  139.7443  157.6363 O   0  0  0  0  0  0  0  0  0  0  0  0
  151.6847  141.8365  157.6286 N   0  0  0  0  0  0  0  0  0  0  0  0
  151.0596  141.8469  156.3077 C   0  0  0  0  0  0  0  0  0  0  0  0
  149.5565  141.5016  156.3789 C   0  0  1  0  0  0  0  0  0  0  0  0
  148.8908  141.9501  155.2155 O   0  0  0  0  0  0  0  0  0  0  0  0
  149.2756  139.9944  156.5768 C   0  0  0  0  0  0  0  0  0  0  0  0
  150.3138  139.0671  156.1176 N   0  0  0  0  0  0  0  0  0  0  0  0
  150.6461  139.2347  154.7045 C   0  0  0  0  0  0  0  0  0  0  0  0
  151.7265  138.2443  154.2257 C   0  0  1  0  0  0  0  0  0  0  0  0
  153.1367  138.5963  154.7294 C   0  0  0  0  0  0  0  0  0  0  0  0
  151.3602  136.9059  154.5653 O   0  0  0  0  0  0  0  0  0  0  0  0
  151.0268  136.6965  155.9364 C   0  0  2  0  0  0  0  0  0  0  0  0
  150.5908  135.2375  156.1053 C   0  0  0  0  0  0  0  0  0  0  0  0
  149.9200  137.6834  156.3477 C   0  0  0  0  0  0  0  0  0  0  0  0
  151.6353  142.9047  158.5357 C   0  0  0  0  0  0  0  0  0  0  0  0
  151.0212  144.1665  158.4488 C   0  0  0  0  0  0  0  0  0  0  0  0
  151.1656  145.0336  159.5568 C   0  0  0  0  0  0  0  0  0  0  0  0
  151.9021  144.6337  160.7021 C   0  0  0  0  0  0  0  0  0  0  0  0
  152.5080  143.3569  160.7645 C   0  0  0  0  0  0  0  0  0  0  0  0
  152.3471  142.5141  159.6508 C   0  0  0  0  0  0  0  0  0  0  0  0
  155.7223  140.2413  160.9021 H   0  0  0  0  0  0  0  0  0  0  0  0
  155.2743  141.8747  160.4203 H   0  0  0  0  0  0  0  0  0  0  0  0
  155.4874  140.6210  159.1986 H   0  0  0  0  0  0  0  0  0  0  0  0
  153.5043  139.3760  160.1440 H   0  0  0  0  0  0  0  0  0  0  0  0
  153.2908  140.6135  161.3521 H   0  0  0  0  0  0  0  0  0  0  0  0
  151.2236  142.8035  155.8108 H   0  0  0  0  0  0  0  0  0  0  0  0
  151.5720  141.1059  155.6915 H   0  0  0  0  0  0  0  0  0  0  0  0
  149.1014  142.0276  157.2191 H   0  0  0  0  0  0  0  0  0  0  0  0
  149.0027  142.8860  155.1500 H   0  0  0  0  0  0  0  0  0  0  0  0
  149.1554  139.8498  157.6515 H   0  0  0  0  0  0  0  0  0  0  0  0
  148.3103  139.7288  156.1424 H   0  0  0  0  0  0  0  0  0  0  0  0
  149.7464  139.0956  154.1030 H   0  0  0  0  0  0  0  0  0  0  0  0
  150.9936  140.2479  154.5092 H   0  0  0  0  0  0  0  0  0  0  0  0
  151.7593  138.2857  153.1367 H   0  0  0  0  0  0  0  0  0  0  0  0
  153.4427  139.5781  154.3677 H   0  0  0  0  0  0  0  0  0  0  0  0
  153.8683  137.8704  154.3741 H   0  0  0  0  0  0  0  0  0  0  0  0
  153.1899  138.6205  155.8176 H   0  0  0  0  0  0  0  0  0  0  0  0
  151.9105  136.8631  156.5534 H   0  0  0  0  0  0  0  0  0  0  0  0
  150.3305  135.0242  157.1422 H   0  0  0  0  0  0  0  0  0  0  0  0
  151.3915  134.5560  155.8175 H   0  0  0  0  0  0  0  0  0  0  0  0
  149.7214  135.0103  155.4877 H   0  0  0  0  0  0  0  0  0  0  0  0
  149.6873  137.5372  157.4034 H   0  0  0  0  0  0  0  0  0  0  0  0
  149.0058  137.4626  155.7940 H   0  0  0  0  0  0  0  0  0  0  0  0
  150.4607  144.4662  157.5758 H   0  0  0  0  0  0  0  0  0  0  0  0
  150.7100  146.0125  159.5303 H   0  0  0  0  0  0  0  0  0  0  0  0
  152.0012  145.3120  161.5368 H   0  0  0  0  0  0  0  0  0  0  0  0
  153.0701  143.0474  161.6331 H   0  0  0  0  0  0  0  0  0  0  0  0
  1  2  1  0  0  0  0
  1 25  1  0  0  0  0
  1 26  1  0  0  0  0
  1 27  1  0  0  0  0
  2  3  1  0  0  0  0
  2 28  1  0  0  0  0
  2 29  1  0  0  0  0
  3 24  1  0  0  0  0
  3  4  1  0  0  0  0
  4  5  2  0  0  0  0
  4  6  1  0  0  0  0
  6  7  1  0  0  0  0
  6 19  1  0  0  0  0
  7  8  1  0  0  0  0
  7 30  1  0  0  0  0
  7 31  1  0  0  0  0
  8  9  1  0  0  0  0
  8 10  1  0  0  0  0
  8 32  1  0  0  0  0
  9 33  1  0  0  0  0
 10 11  1  0  0  0  0
 10 34  1  0  0  0  0
 10 35  1  0  0  0  0
 11 18  1  0  0  0  0
 11 12  1  0  0  0  0
 12 13  1  0  0  0  0
 12 36  1  0  0  0  0
 12 37  1  0  0  0  0
 13 14  1  0  0  0  0
 13 15  1  0  0  0  0
 13 38  1  0  0  0  0
 14 39  1  0  0  0  0
 14 40  1  0  0  0  0
 14 41  1  0  0  0  0
 15 16  1  0  0  0  0
 16 17  1  0  0  0  0
 16 18  1  0  0  0  0
 16 42  1  0  0  0  0
 17 43  1  0  0  0  0
 17 44  1  0  0  0  0
 17 45  1  0  0  0  0
 18 46  1  0  0  0  0
 18 47  1  0  0  0  0
 19 24  2  0  0  0  0
 19 20  1  0  0  0  0
 20 21  2  0  0  0  0
 20 48  1  0  0  0  0
 21 22  1  0  0  0  0
 21 49  1  0  0  0  0
 22 23  2  0  0  0  0
 22 50  1  0  0  0  0
 23 24  1  0  0  0  0
 23 51  1  0  0  0  0
M  END
> <s_m_source_file>
AV-unprocessed.smi

> <i_m_source_file_index>
1570

> <i_lp_mmshare_version>
43012

> <i_f3d_flags>
0

> <s_epik_input>
W2NIXTFbY0hdW2NIXVtjSF1jKGMxMiluKFtDSDJdW0NIM10pYyg9TyluMltDSDJdW0NASF0oW09IXSlbQ0gyXU4zW0NIMl1bQ0BASF0oW0NIM10pT1tDQEBIXShbQ0gzXSlbQ0gyXTM=

> <s_epik_cmdline>
J2VwaWtfcHl0aG9uJywgJy1waCcsICc3LjAnLCAnLXRuJywgJzgnLCAnLW1hJywgJzIwMCcsICctbWV0YWxfYmluZGluZycsICctaW1hZScsICc8aW5maWxlLm1hZT4nLCAnLW9tYWUnLCAnPG91dGZpbGUubWFlPic=

> <r_epik_Ionization_Penalty>
0.214359

> <r_epik_Ionization_Penalty_Charging>
2.30976e-09

> <r_epik_Ionization_Penalty_Neutral>
0.214359

> <r_epik_State_Penalty>
0.204533

> <r_epik_Charging_Adjusted_Penalty>
0.204533

> <i_epik_Tot_Q>
0

> <i_epik_Tot_abs_Q>
0

> <r_epik_Metal_State_Penalty>
0.204533

> <b_epik_Metal_Only>
0

> <s_lp_Force_Field>
OPLS_2005

> <r_lp_Energy>
65.1855

> <b_lp_Chiralities_Consistent>
1

> <s_lp_Variant>
AV-unprocessed.smi:1570-6

> <Gold.Version>
5.8.1

> <Gold.Id.Protein>
6NUR|6NUR_protein|mol2

> <Gold.PLP.Fitness>
57.0810

> <Gold.PLP.PLP>
-50.6952

> <Gold.PLP.part.hbond>
-3.0000

> <Gold.PLP.part.metal>
0.0000

> <Gold.PLP.part.buried>
-8.4844

> <Gold.PLP.part.nonpolar>
-40.6858

> <Gold.PLP.part.repulsive>
0.1599

> <Gold.PLP.ligand.clash>
0.0000

> <Gold.PLP.ligand.torsion>
1.3139

> <Gold.PLP.Chemscore.Hbond>
2.9913

> <Gold.PLP.Chemscore.CHOScore>
0.0000

> <Gold.PLP.Chemscore.Metal>
0.0000

> <Gold.Chemscore.Hbonds>
donor molecule, donor type, donor heavy atom, donor atom, acceptor molecule, acceptor atom, score
      L1  H     9    33       P1  8028  1.00
      P1  H  7997  8009       L1     5  1.00
      P1  H 10752 10764       L1    15  0.79

> <Gold.PLP.Chemscore.Internal.Correction>
0.0399

> <Gold.Rescore>
     Score         DG    S(hbond)    S(metal)    S(lipo)     H(rot)  DE(clash)    DE(int)     intcor
     21.23     -22.52       2.02        0.00     133.05       2.06       0.30       0.99       ----

> <Gold.Chemscore.Fitness>
21.2307

> <Gold.Chemscore.DG>
-22.5231

> <Gold.Chemscore.ZeroCoef>
-5.4800

> <Gold.Chemscore.Hbond>
2.0189

> <Gold.Chemscore.Metal>
0.0000

> <Gold.Chemscore.Lipo>
133.0509

> <Gold.Chemscore.Internal_Hbond>
0.0000

> <Gold.Chemscore.DEClash>
0.2988

> <Gold.Chemscore.DEInternal>
0.9936

> <Gold.Chemscore.Rot>
2.0574

> <Gold.Chemscore.Internal.Correction>
   9.000000E+99

> <Gold.Chemscore.Hbonds>
donor molecule, donor type, donor heavy atom, donor atom, acceptor molecule, acceptor atom, score
      L1  H     9    33       P1  8028  0.99
      P1  H  7997  8009       L1     5  0.33
      P1  H 10752 10764       L1    15  0.09

> <Gold.Chemscore.Hbond.Weighted>
-6.7430

> <Gold.Chemscore.Metal.Weighted>
-0.0000

> <Gold.Chemscore.Lipo.Weighted>
-15.5670

> <Gold.Chemscore.Internal_Hbond.Weighted>
0.0000

> <Gold.Chemscore.DEClash.Weighted>
0.2988

> <Gold.Chemscore.DEInternal.Weighted>
0.9936

> <Gold.Chemscore.Rot.Weighted>
5.2669

> <Gold.Chemscore.Internal.Correction.Weighted>
   9.000000E+99

> <Gold.Protein.RotatedTorsions>
[ 6907 6896 6895 6894 ] final  138.95 input  -60.11 | X-H torsion
[ 7974 7965 7964 7962 ] final  109.60 input  175.53 | X-H torsion
[ 8008 7997 7996 7995 ] final  165.11 input   59.86 | X-H torsion
[ 10167 10162 10161 10158 ] final  179.38 input  -65.29 | X-H torsion
[ 10718 10713 10712 10709 ] final  130.97 input   66.30 | X-H torsion
[ 10763 10752 10751 10750 ] final  -62.29 input  -60.55 | X-H torsion
[ 11005 11000 10999 10996 ] final -175.40 input  -57.11 | X-H torsion

> <Gold.Protein.ActiveResidues>
 VAL166  LYS551  ARG553  GLY616  TRP617  ASP618  TYR619  PRO620  LYS621  CYS622 
 ASP623  PHE694  ASN695  SER759  ASP760  ASP761  ALA762  ILE779  LEU786  VAL792 
 PHE793  MET794  SER795  GLU796  ALA797  LYS798  CYS799  TRP800  GLU811  SER814 

> <Gold.Protein.RotatedAtoms>
  152.2606  133.5294  159.5378 H   0  0  0  0  0  0  0  0  0  0  0  0  # atno 6907 bound_to 6896
  150.7124  134.0835  159.3915 H   0  0  0  0  0  0  0  0  0  0  0  0  # atno 6908 bound_to 6896
  151.8753  135.0474  160.0534 H   0  0  0  0  0  0  0  0  0  0  0  0  # atno 6909 bound_to 6896
  145.2657  139.2685  143.3993 H   0  0  0  0  0  0  0  0  0  0  0  0  # atno 7974 bound_to 7965
  156.1826  140.1678  156.8245 H   0  0  0  0  0  0  0  0  0  0  0  0  # atno 8008 bound_to 7997
  154.5378  140.0743  156.8490 H   0  0  0  0  0  0  0  0  0  0  0  0  # atno 8009 bound_to 7997
  155.3276  140.3377  155.4242 H   0  0  0  0  0  0  0  0  0  0  0  0  # atno 8010 bound_to 7997
  139.5334  144.2568  152.0740 H   0  0  0  0  0  0  0  0  0  0  0  0  # atno 10167 bound_to 10162
  157.5012  131.1094  150.9425 H   0  0  0  0  0  0  0  0  0  0  0  0  # atno 10718 bound_to 10713
  154.2976  135.6241  153.5411 H   0  0  0  0  0  0  0  0  0  0  0  0  # atno 10763 bound_to 10752
  152.9844  135.5670  154.5320 H   0  0  0  0  0  0  0  0  0  0  0  0  # atno 10764 bound_to 10752
  154.4944  135.2869  155.1447 H   0  0  0  0  0  0  0  0  0  0  0  0  # atno 10765 bound_to 10752
  140.4637  134.6230  157.4853 H   0  0  0  0  0  0  0  0  0  0  0  0  # atno 11005 bound_to 11000
  146.3262  140.3086  142.8625 LP  0  0  0  0  0  0  0  0  0  0  0  0  # atno 17320 bound_to 7965
  144.9379  140.8046  143.5649 LP  0  0  0  0  0  0  0  0  0  0  0  0  # atno 17321 bound_to 7965
  140.2035  144.4634  150.6420 LP  0  0  0  0  0  0  0  0  0  0  0  0  # atno 17342 bound_to 10162
  140.6526  143.2229  151.6042 LP  0  0  0  0  0  0  0  0  0  0  0  0  # atno 17343 bound_to 10162
  157.0095  130.5631  149.5319 LP  0  0  0  0  0  0  0  0  0  0  0  0  # atno 17370 bound_to 10713
  156.0230  130.5325  150.8329 LP  0  0  0  0  0  0  0  0  0  0  0  0  # atno 17371 bound_to 10713
  139.9929  134.6957  155.9659 LP  0  0  0  0  0  0  0  0  0  0  0  0  # atno 17394 bound_to 11000
  141.1609  133.6539  156.4316 LP  0  0  0  0  0  0  0  0  0  0  0  0  # atno 17395 bound_to 11000

$$$$
