#       Name:                AV-unprocessed.smi:2829
#       Creating user name   scv26
#       Creation time:       Fri Mar 27 15:35:04 2020


#       File generated by GOLD software.
#

@<TRIPOS>MOLECULE
AV-unprocessed.smi:2829
    56    59     1
SMALL
NO_CHARGES


@<TRIPOS>ATOM
      1 ****        -6.3318  -0.7155  -0.7950 C.3            1 S1                 0.0000
      2 ****        -5.6407   0.5209  -0.1765 C.3            1 S1                 0.0000
      3 ****        -6.0688   1.7519  -1.0026 C.3            1 S1                 0.0000
      4 ****        -6.1493   0.6597   1.2737 C.3            1 S1                 0.0000
      5 ****        -4.1060   0.3999  -0.1807 C.ar           1 S1                 0.0000
      6 ****        -3.4201  -0.7249  -0.6924 C.ar           1 S1                 0.0000
      7 ****        -2.0163  -0.7152  -0.6395 C.ar           1 S1                 0.0000
      8 ****        -1.3724   0.4086  -0.0843 C.ar           1 S1                 0.0000
      9 ****         0.0453   0.3489  -0.0663 N.am           1 S1                 0.0000
     10 ****         0.9140   1.2702   0.3950 C.2            1 S1                 0.0000
     11 ****         0.5947   2.3439   0.9018 O.2            1 S1                 0.0000
     12 ****         2.2044   0.9093   0.2813 N.am           1 S1                 0.0000
     13 ****         3.3881   1.6763   0.6843 C.3            1 S1                 0.0000
     14 ****         4.0403   2.4804  -0.4712 C.3            1 S1                 0.0000
     15 ****         3.3867   2.6812  -1.8180 C.3            1 S1                 0.0000
     16 ****         4.0642   1.6194  -2.6883 C.3            1 S1                 0.0000
     17 ****         4.5645   0.6560  -1.7646 O.3            1 S1                 0.0000
     18 ****         5.0598   1.3585  -0.6289 C.3            1 S1                 0.0000
     19 ****         4.6433   0.7885   0.7335 C.3            1 S1                 0.0000
     20 ****         4.6056  -0.7282   0.9869 C.3            1 S1                 0.0000
     21 ****         5.9476  -0.5893   1.7110 C.3            1 S1                 0.0000
     22 ****         5.6218   0.8933   1.9133 C.3            1 S1                 0.0000
     23 ****        -2.0942   1.4551   0.3896 N.ar           1 S1                 0.0000
     24 ****        -3.4297   1.4512   0.3437 N.ar           1 S1                 0.0000
     25 ****        -7.4171  -0.6072  -0.7861 H              1 S1                 0.0000
     26 ****        -6.0985  -1.6265  -0.2423 H              1 S1                 0.0000
     27 ****        -6.0357  -0.8654  -1.8341 H              1 S1                 0.0000
     28 ****        -5.7151   1.6796  -2.0317 H              1 S1                 0.0000
     29 ****        -5.6744   2.6785  -0.5842 H              1 S1                 0.0000
     30 ****        -7.1544   1.8517  -1.0344 H              1 S1                 0.0000
     31 ****        -7.2373   0.7245   1.3088 H              1 S1                 0.0000
     32 ****        -5.7591   1.5563   1.7561 H              1 S1                 0.0000
     33 ****        -5.8513  -0.1958   1.8812 H              1 S1                 0.0000
     34 ****        -3.9279  -1.5777  -1.1156 H              1 S1                 0.0000
     35 ****        -1.4502  -1.5539  -1.0177 H              1 S1                 0.0000
     36 ****         0.4501  -0.4923  -0.4499 H              1 S1                 0.0000
     37 ****         2.3856  -0.0133  -0.0877 H              1 S1                 0.0000
     38 ****         3.2610   2.2592   1.5981 H              1 S1                 0.0000
     39 ****         4.5187   3.3812  -0.0833 H              1 S1                 0.0000
     40 ****         2.3088   2.5307  -1.7842 H              1 S1                 0.0000
     41 ****         3.5596   3.6817  -2.2151 H              1 S1                 0.0000
     42 ****         3.3818   1.1673  -3.4083 H              1 S1                 0.0000
     43 ****         4.9023   2.0520  -3.2369 H              1 S1                 0.0000
     44 ****         6.0920   1.6983  -0.7244 H              1 S1                 0.0000
     45 ****         3.7995  -1.0276   1.6587 H              1 S1                 0.0000
     46 ****         4.6333  -1.3475   0.0900 H              1 S1                 0.0000
     47 ****         6.0337  -1.1683   2.6308 H              1 S1                 0.0000
     48 ****         6.8015  -0.7472   1.0502 H              1 S1                 0.0000
     49 ****         6.4622   1.5703   1.7584 H              1 S1                 0.0000
     50 ****         5.1202   1.0851   2.8632 H              1 S1                 0.0000
     51 ****        -0.3713   2.5852   0.9950 LP             1 S1                 0.0000
     52 ****         1.3009   2.9759   1.2208 LP             1 S1                 0.0000
     53 ****         5.3024   0.1301  -2.1877 LP             1 S1                 0.0000
     54 ****         3.8300   0.0365  -1.4878 LP             1 S1                 0.0000
     55 ****        -1.6184   2.2432   0.7801 LP             1 S1                 0.0000
     56 ****        -3.9375   2.2350   0.7013 LP             1 S1                 0.0000
@<TRIPOS>BOND
    1    1    2 1     
    2    1   25 1     
    3    1   26 1     
    4    1   27 1     
    5    2    3 1     
    6    2    4 1     
    7    2    5 1     
    8    3   28 1     
    9    3   29 1     
   10    3   30 1     
   11    4   31 1     
   12    4   32 1     
   13    4   33 1     
   14    5   24 ar    
   15    5    6 ar    
   16    6    7 ar    
   17    6   34 1     
   18    7    8 ar    
   19    7   35 1     
   20    8    9 1     
   21    8   23 ar    
   22    9   10 am    
   23    9   36 1     
   24   10   11 2     
   25   10   12 am    
   26   12   13 1     
   27   12   37 1     
   28   13   19 1     
   29   13   14 1     
   30   13   38 1     
   31   14   18 1     
   32   14   15 1     
   33   14   39 1     
   34   15   16 1     
   35   15   40 1     
   36   15   41 1     
   37   16   17 1     
   38   16   42 1     
   39   16   43 1     
   40   17   18 1     
   41   18   19 1     
   42   18   44 1     
   43   19   22 1     
   44   19   20 1     
   45   20   21 1     
   46   20   45 1     
   47   20   46 1     
   48   21   22 1     
   49   21   47 1     
   50   21   48 1     
   51   22   49 1     
   52   22   50 1     
   53   23   24 ar    
   54   11   51 1     
   55   11   52 1     
   56   17   53 1     
   57   17   54 1     
   58   23   55 1     
   59   24   56 1     
@<TRIPOS>SUBSTRUCTURE
      1 S1             1
@<TRIPOS>SET
LONE_PAIRS      STATIC     ATOMS    <user>   **** ""
6 51 52 53 54 55 56
DONOR_HYDROGENS      STATIC     ATOMS    <user>   **** ""
2 36 37
ATOM$BLUE        STATIC     ATOMS    COLORGROUP SYSTEM
6 51 52 53 54 55 56
ATOM$RED        STATIC     ATOMS    COLORGROUP SYSTEM
2 36 37
