AV-unprocessed.smi:232|AV-procd|sdf|1778|dock6
  -GOLD-   2262020323D 1   1.00000     0.00000
 Structure written by MMmdl.
 52 55  0  0  0  0  0  0  0  0  1 V2000
  151.5645  145.5452  160.0211 C   0  0  0  0  0  0  0  0  0  0  0  0
  151.5440  145.0174  158.5808 C   0  0  0  0  0  0  0  0  0  0  0  0
  152.1316  143.5955  158.4472 C   0  0  1  0  0  0  0  0  0  0  0  0
  153.3660  143.3609  159.3406 C   0  0  0  0  0  0  0  0  0  0  0  0
  153.0799  142.0665  160.1097 C   0  0  0  0  0  0  0  0  0  0  0  0
  151.9252  141.4126  159.3504 C   0  0  2  0  0  0  0  0  0  0  0  0
  152.4338  140.4663  158.2431 C   0  0  0  0  0  0  0  0  0  0  0  0
  151.1788  142.5528  158.8300 N   0  0  0  0  0  0  0  0  0  0  0  0
  150.0823  142.2840  158.0715 C   0  0  0  0  0  0  0  0  0  0  0  0
  150.2243  141.6752  156.8636 N   0  0  0  0  0  0  0  0  0  0  0  0
  149.1529  141.3895  156.1187 C   0  0  0  0  0  0  0  0  0  0  0  0
  147.8664  141.6191  156.3854 N   0  0  0  0  0  0  0  0  0  0  0  0
  147.7160  142.2326  157.5937 C   0  0  0  0  0  0  0  0  0  0  0  0
  148.7587  142.5979  158.4918 C   0  0  0  0  0  0  0  0  0  0  0  0
  148.2179  143.2142  159.6145 N   0  0  0  0  0  0  0  0  0  0  0  0
  146.9320  143.2160  159.3919 C   0  0  0  0  0  0  0  0  0  0  0  0
  146.5442  142.6499  158.1998 N   0  0  0  0  0  0  0  0  0  0  0  0
  145.1881  142.5363  157.6956 C   0  0  0  0  0  0  0  0  0  0  0  0
  144.4478  143.8896  157.6471 C   0  0  2  0  0  0  0  0  0  0  0  0
  143.0677  143.6162  157.7828 O   0  0  0  0  0  0  0  0  0  0  0  0
  144.6796  144.6965  156.3499 C   0  0  1  0  0  0  0  0  0  0  0  0
  144.4235  143.9196  155.0565 C   0  0  0  0  0  0  0  0  0  0  0  0
  144.1216  145.0071  154.0369 C   0  0  0  0  0  0  0  0  0  0  0  0
  143.8143  146.2390  154.8917 C   0  0  0  0  0  0  0  0  0  0  0  0
  143.7338  145.7476  156.2207 O   0  0  0  0  0  0  0  0  0  0  0  0
  151.1684  146.5599  160.0666 H   0  0  0  0  0  0  0  0  0  0  0  0
  152.5810  145.5676  160.4152 H   0  0  0  0  0  0  0  0  0  0  0  0
  150.9609  144.9263  160.6850 H   0  0  0  0  0  0  0  0  0  0  0  0
  150.5221  145.0310  158.1998 H   0  0  0  0  0  0  0  0  0  0  0  0
  152.1030  145.7163  157.9591 H   0  0  0  0  0  0  0  0  0  0  0  0
  152.4247  143.4276  157.4096 H   0  0  0  0  0  0  0  0  0  0  0  0
  154.2574  143.2543  158.7214 H   0  0  0  0  0  0  0  0  0  0  0  0
  153.5479  144.1818  160.0350 H   0  0  0  0  0  0  0  0  0  0  0  0
  153.9558  141.4237  160.2032 H   0  0  0  0  0  0  0  0  0  0  0  0
  152.7492  142.3166  161.1188 H   0  0  0  0  0  0  0  0  0  0  0  0
  151.3176  140.8449  160.0545 H   0  0  0  0  0  0  0  0  0  0  0  0
  153.0366  139.6631  158.6673 H   0  0  0  0  0  0  0  0  0  0  0  0
  153.0500  140.9909  157.5124 H   0  0  0  0  0  0  0  0  0  0  0  0
  151.6071  139.9992  157.7071 H   0  0  0  0  0  0  0  0  0  0  0  0
  149.3562  140.9072  155.1740 H   0  0  0  0  0  0  0  0  0  0  0  0
  146.2267  143.6402  160.0918 H   0  0  0  0  0  0  0  0  0  0  0  0
  145.2242  142.0865  156.7025 H   0  0  0  0  0  0  0  0  0  0  0  0
  144.6487  141.8346  158.3334 H   0  0  0  0  0  0  0  0  0  0  0  0
  144.7457  144.4956  158.5038 H   0  0  0  0  0  0  0  0  0  0  0  0
  142.5874  144.4144  157.6247 H   0  0  0  0  0  0  0  0  0  0  0  0
  145.6879  145.1155  156.3367 H   0  0  0  0  0  0  0  0  0  0  0  0
  145.2664  143.2915  154.7669 H   0  0  0  0  0  0  0  0  0  0  0  0
  143.5498  143.2766  155.1727 H   0  0  0  0  0  0  0  0  0  0  0  0
  144.9775  145.1950  153.3879 H   0  0  0  0  0  0  0  0  0  0  0  0
  143.2755  144.7290  153.4074 H   0  0  0  0  0  0  0  0  0  0  0  0
  144.6257  146.9656  154.8273 H   0  0  0  0  0  0  0  0  0  0  0  0
  142.8879  146.7340  154.5999 H   0  0  0  0  0  0  0  0  0  0  0  0
  1  2  1  0  0  0  0
  1 26  1  0  0  0  0
  1 27  1  0  0  0  0
  1 28  1  0  0  0  0
  2  3  1  0  0  0  0
  2 29  1  0  0  0  0
  2 30  1  0  0  0  0
  3  8  1  0  0  0  0
  3  4  1  0  0  0  0
  3 31  1  0  0  0  0
  4  5  1  0  0  0  0
  4 32  1  0  0  0  0
  4 33  1  0  0  0  0
  5  6  1  0  0  0  0
  5 34  1  0  0  0  0
  5 35  1  0  0  0  0
  6  7  1  0  0  0  0
  6  8  1  0  0  0  0
  6 36  1  0  0  0  0
  7 37  1  0  0  0  0
  7 38  1  0  0  0  0
  7 39  1  0  0  0  0
  8  9  1  0  0  0  0
  9 14  1  0  0  0  0
  9 10  2  0  0  0  0
 10 11  1  0  0  0  0
 11 12  2  0  0  0  0
 11 40  1  0  0  0  0
 12 13  1  0  0  0  0
 13 17  1  0  0  0  0
 13 14  2  0  0  0  0
 14 15  1  0  0  0  0
 15 16  2  0  0  0  0
 16 17  1  0  0  0  0
 16 41  1  0  0  0  0
 17 18  1  0  0  0  0
 18 19  1  0  0  0  0
 18 42  1  0  0  0  0
 18 43  1  0  0  0  0
 19 20  1  0  0  0  0
 19 21  1  0  0  0  0
 19 44  1  0  0  0  0
 20 45  1  0  0  0  0
 21 25  1  0  0  0  0
 21 22  1  0  0  0  0
 21 46  1  0  0  0  0
 22 23  1  0  0  0  0
 22 47  1  0  0  0  0
 22 48  1  0  0  0  0
 23 24  1  0  0  0  0
 23 49  1  0  0  0  0
 23 50  1  0  0  0  0
 24 25  1  0  0  0  0
 24 51  1  0  0  0  0
 24 52  1  0  0  0  0
M  END
> <s_m_source_file>
AV-unprocessed.smi

> <i_m_source_file_index>
232

> <i_lp_mmshare_version>
43012

> <i_f3d_flags>
0

> <s_epik_input>
W0NIM11bQ0gyXVtDQEBIXTFbQ0gyXVtDSDJdW0NAQEhdKFtDSDNdKU4xYyhuW2NIXW4yKWMoYzIzKW5bY0hdbjNbQ0gyXVtDQEhdKFtPSF0pW0NAQEhdNFtDSDJdW0NIMl1bQ0gyXU80

> <s_epik_cmdline>
J2VwaWtfcHl0aG9uJywgJy1waCcsICc3LjAnLCAnLXRuJywgJzgnLCAnLW1hJywgJzIwMCcsICctbWV0YWxfYmluZGluZycsICctaW1hZScsICc8aW5maWxlLm1hZT4nLCAnLW9tYWUnLCAnPG91dGZpbGUubWFlPic=

> <r_lp_tautomer_probability>
1

> <r_epik_Ionization_Penalty>
0.00258048

> <r_epik_Ionization_Penalty_Charging>
0

> <r_epik_Ionization_Penalty_Neutral>
0.00258048

> <r_epik_State_Penalty>
0.00168551

> <r_epik_Charging_Adjusted_Penalty>
0.00168551

> <i_epik_Tot_Q>
0

> <i_epik_Tot_abs_Q>
0

> <r_epik_Metal_State_Penalty>
-0

> <b_epik_Metal_Only>
0

> <s_lp_Force_Field>
OPLS_2005

> <r_lp_Energy>
52.3854

> <b_lp_Chiralities_Consistent>
1

> <s_lp_Variant>
AV-unprocessed.smi:232-12

> <Gold.Version>
5.8.1

> <Gold.Id.Protein>
6NUR|6NUR_protein|mol2

> <Gold.PLP.Fitness>
44.1503

> <Gold.PLP.PLP>
-43.4293

> <Gold.PLP.part.hbond>
-1.0000

> <Gold.PLP.part.metal>
0.0000

> <Gold.PLP.part.buried>
-7.6578

> <Gold.PLP.part.nonpolar>
-35.3394

> <Gold.PLP.part.repulsive>
0.3791

> <Gold.PLP.ligand.clash>
0.0000

> <Gold.PLP.ligand.torsion>
0.8305

> <Gold.PLP.Chemscore.Hbond>
0.6880

> <Gold.PLP.Chemscore.CHOScore>
0.0000

> <Gold.PLP.Chemscore.Metal>
0.0000

> <Gold.Chemscore.Hbonds>
donor molecule, donor type, donor heavy atom, donor atom, acceptor molecule, acceptor atom, score
      P1  H  6933  6944       L1    15  0.69

> <Gold.PLP.Chemscore.Internal.Correction>
0.3180

> <Gold.Rescore>
     Score         DG    S(hbond)    S(metal)    S(lipo)     H(rot)  DE(clash)    DE(int)     intcor
     11.31     -13.12       0.68        0.00      99.11       2.43       0.06       1.75       ----

> <Gold.Chemscore.Fitness>
11.3135

> <Gold.Chemscore.DG>
-13.1205

> <Gold.Chemscore.ZeroCoef>
-5.4800

> <Gold.Chemscore.Hbond>
0.6754

> <Gold.Chemscore.Metal>
0.0000

> <Gold.Chemscore.Lipo>
99.1060

> <Gold.Chemscore.Internal_Hbond>
0.0000

> <Gold.Chemscore.DEClash>
0.0557

> <Gold.Chemscore.DEInternal>
1.7513

> <Gold.Chemscore.Rot>
2.4260

> <Gold.Chemscore.Internal.Correction>
   9.000000E+99

> <Gold.Chemscore.Hbonds>
donor molecule, donor type, donor heavy atom, donor atom, acceptor molecule, acceptor atom, score
      P1  H  6933  6944       L1    15  0.40

> <Gold.Chemscore.Hbond.Weighted>
-2.2558

> <Gold.Chemscore.Metal.Weighted>
-0.0000

> <Gold.Chemscore.Lipo.Weighted>
-11.5954

> <Gold.Chemscore.Internal_Hbond.Weighted>
0.0000

> <Gold.Chemscore.DEClash.Weighted>
0.0557

> <Gold.Chemscore.DEInternal.Weighted>
1.7513

> <Gold.Chemscore.Rot.Weighted>
6.2107

> <Gold.Chemscore.Internal.Correction.Weighted>
   9.000000E+99

> <Gold.Protein.RotatedTorsions>
[ 6907 6896 6895 6894 ] final  -57.81 input  -60.11 | X-H torsion
[ 7974 7965 7964 7962 ] final  -74.59 input  175.53 | X-H torsion
[ 8008 7997 7996 7995 ] final   55.10 input   59.86 | X-H torsion
[ 10167 10162 10161 10158 ] final   -0.20 input  -65.29 | X-H torsion
[ 10718 10713 10712 10709 ] final   79.95 input   66.30 | X-H torsion
[ 10763 10752 10751 10750 ] final   16.97 input  -60.55 | X-H torsion
[ 11005 11000 10999 10996 ] final  111.77 input  -57.11 | X-H torsion

> <Gold.Protein.ActiveResidues>
 VAL166  LYS551  ARG553  GLY616  TRP617  ASP618  TYR619  PRO620  LYS621  CYS622 
 ASP623  PHE694  ASN695  SER759  ASP760  ASP761  ALA762  ILE779  LEU786  VAL792 
 PHE793  MET794  SER795  GLU796  ALA797  LYS798  CYS799  TRP800  GLU811  SER814 

> <Gold.Protein.RotatedAtoms>
  150.8056  134.7179  159.6640 H   0  0  0  0  0  0  0  0  0  0  0  0  # atno 6907 bound_to 6896
  152.4175  134.6011  160.0010 H   0  0  0  0  0  0  0  0  0  0  0  0  # atno 6908 bound_to 6896
  151.6236  133.3300  159.3129 H   0  0  0  0  0  0  0  0  0  0  0  0  # atno 6909 bound_to 6896
  145.6371  140.9321  143.1056 H   0  0  0  0  0  0  0  0  0  0  0  0  # atno 7974 bound_to 7965
  155.4955  140.3473  155.4362 H   0  0  0  0  0  0  0  0  0  0  0  0  # atno 8008 bound_to 7997
  156.0948  140.1420  156.9573 H   0  0  0  0  0  0  0  0  0  0  0  0  # atno 8009 bound_to 7997
  154.4657  140.0918  156.6990 H   0  0  0  0  0  0  0  0  0  0  0  0  # atno 8010 bound_to 7997
  140.6757  143.6923  150.8018 H   0  0  0  0  0  0  0  0  0  0  0  0  # atno 10167 bound_to 10162
  157.6792  130.9937  150.2008 H   0  0  0  0  0  0  0  0  0  0  0  0  # atno 10718 bound_to 10713
  153.1382  135.6754  153.9069 H   0  0  0  0  0  0  0  0  0  0  0  0  # atno 10763 bound_to 10752
  153.8534  135.3090  155.3435 H   0  0  0  0  0  0  0  0  0  0  0  0  # atno 10764 bound_to 10752
  154.7765  135.4911  153.9839 H   0  0  0  0  0  0  0  0  0  0  0  0  # atno 10765 bound_to 10752
  139.8911  134.9515  156.6483 H   0  0  0  0  0  0  0  0  0  0  0  0  # atno 11005 bound_to 11000
  144.7171  139.8157  143.7395 LP  0  0  0  0  0  0  0  0  0  0  0  0  # atno 17320 bound_to 7965
  146.1310  139.4346  143.0168 LP  0  0  0  0  0  0  0  0  0  0  0  0  # atno 17321 bound_to 7965
  140.0615  143.5150  152.2625 LP  0  0  0  0  0  0  0  0  0  0  0  0  # atno 17342 bound_to 10162
  139.6048  144.7593  151.3087 LP  0  0  0  0  0  0  0  0  0  0  0  0  # atno 17343 bound_to 10162
  156.2699  130.3720  149.8042 LP  0  0  0  0  0  0  0  0  0  0  0  0  # atno 17370 bound_to 10713
  156.5762  130.8446  151.3370 LP  0  0  0  0  0  0  0  0  0  0  0  0  # atno 17371 bound_to 10713
  140.7540  133.8873  155.8368 LP  0  0  0  0  0  0  0  0  0  0  0  0  # atno 17394 bound_to 11000
  140.9977  134.1193  157.4347 LP  0  0  0  0  0  0  0  0  0  0  0  0  # atno 17395 bound_to 11000

$$$$
