#       Name:                AV-unprocessed.smi:3301
#       Creating user name   scv26
#       Creation time:       Fri Mar 27 18:58:54 2020


#       File generated by GOLD software.
#

@<TRIPOS>MOLECULE
AV-unprocessed.smi:3301
    41    42     1
SMALL
NO_CHARGES


@<TRIPOS>ATOM
      1 ****        -1.8160  -2.4634  -1.3197 C.3            1 S1                 0.0000
      2 ****        -1.3372  -1.1433  -0.6942 C.3            1 S1                 0.0000
      3 ****        -1.7245  -1.0039   0.7942 C.3            1 S1                 0.0000
      4 ****        -3.1741  -1.0343   1.0096 N.pl3          1 S1                 0.0000
      5 ****        -4.0708  -0.0345   0.7335 C.2            1 S1                 0.0000
      6 ****        -5.3054  -0.5044   1.1009 C.2            1 S1                 0.0000
      7 ****        -5.1095  -1.7686   1.5891 N.pl3          1 S1                 1.0000
      8 ****        -3.8121  -2.0880   1.5359 C.2            1 S1                 0.0000
      9 ****         0.1102  -1.0339  -0.8502 N.am           1 S1                 0.0000
     10 ****         0.8011   0.1165  -0.8705 C.2            1 S1                 0.0000
     11 ****         0.2691   1.2235  -0.7739 O.2            1 S1                 0.0000
     12 ****         2.3198  -0.0107  -1.0439 C.3            1 S1                 0.0000
     13 ****         3.0589   1.0978  -0.4377 N.am           1 S1                 0.0000
     14 ****         3.6111   2.1611  -1.2612 C.3            1 S1                 0.0000
     15 ****         4.4408   3.0248  -0.3000 C.3            1 S1                 0.0000
     16 ****         4.0697   2.5590   1.1124 C.3            1 S1                 0.0000
     17 ****         3.2833   1.2824   0.8693 C.2            1 S1                 0.0000
     18 ****         2.9140   0.5415   1.7794 O.2            1 S1                 0.0000
     19 ****        -2.9029  -2.5444  -1.3003 H              1 S1                 0.0000
     20 ****        -1.4074  -3.3245  -0.7898 H              1 S1                 0.0000
     21 ****        -1.5063  -2.5370  -2.3628 H              1 S1                 0.0000
     22 ****        -1.8047  -0.3306  -1.2537 H              1 S1                 0.0000
     23 ****        -1.2691  -1.7988   1.3871 H              1 S1                 0.0000
     24 ****        -1.3608  -0.0596   1.2020 H              1 S1                 0.0000
     25 ****        -3.7706   0.9116   0.3061 H              1 S1                 0.0000
     26 ****        -6.2823  -0.0457   1.0539 H              1 S1                 0.0000
     27 ****        -3.3691  -3.0156   1.8522 H              1 S1                 0.0000
     28 ****         0.6265  -1.8968  -0.9443 H              1 S1                 0.0000
     29 ****         2.6649  -0.9510  -0.6103 H              1 S1                 0.0000
     30 ****         2.5426  -0.0611  -2.1103 H              1 S1                 0.0000
     31 ****         4.2228   1.7600  -2.0704 H              1 S1                 0.0000
     32 ****         2.7954   2.7365  -1.7014 H              1 S1                 0.0000
     33 ****         5.5058   2.8658  -0.4758 H              1 S1                 0.0000
     34 ****         4.2411   4.0874  -0.4421 H              1 S1                 0.0000
     35 ****         4.9497   2.3722   1.7288 H              1 S1                 0.0000
     36 ****         3.4343   3.2866   1.6183 H              1 S1                 0.0000
     37 ****        -5.8393  -2.3755   1.9411 H              1 S1                 0.0000
     38 ****        -0.7234   1.2943  -0.6747 LP             1 S1                 0.0000
     39 ****         0.8299   2.0512  -0.7947 LP             1 S1                 0.0000
     40 ****         2.3950  -0.2873   1.5700 LP             1 S1                 0.0000
     41 ****         3.1329   0.7680   2.7285 LP             1 S1                 0.0000
@<TRIPOS>BOND
    1    1    2 1     
    2    1   19 1     
    3    1   20 1     
    4    1   21 1     
    5    2    3 1     
    6    2    9 1     
    7    2   22 1     
    8    3    4 1     
    9    3   23 1     
   10    3   24 1     
   11    4    8 1     
   12    4    5 1     
   13    5    6 2     
   14    5   25 1     
   15    6    7 1     
   16    6   26 1     
   17    7    8 2     
   18    7   37 1     
   19    8   27 1     
   20    9   10 am    
   21    9   28 1     
   22   10   11 2     
   23   10   12 1     
   24   12   13 1     
   25   12   29 1     
   26   12   30 1     
   27   13   17 am    
   28   13   14 1     
   29   14   15 1     
   30   14   31 1     
   31   14   32 1     
   32   15   16 1     
   33   15   33 1     
   34   15   34 1     
   35   16   17 1     
   36   16   35 1     
   37   16   36 1     
   38   17   18 2     
   39   11   38 1     
   40   11   39 1     
   41   18   40 1     
   42   18   41 1     
@<TRIPOS>SUBSTRUCTURE
      1 S1             1
@<TRIPOS>SET
LONE_PAIRS      STATIC     ATOMS    <user>   **** ""
4 38 39 40 41
DONOR_HYDROGENS      STATIC     ATOMS    <user>   **** ""
2 37 28
ATOM$BLUE        STATIC     ATOMS    COLORGROUP SYSTEM
4 38 39 40 41
ATOM$RED        STATIC     ATOMS    COLORGROUP SYSTEM
2 37 28
