#       Name:                AV-unprocessed.smi:2008
#       Creating user name   scv26
#       Creation time:       Fri Mar 27 10:38:20 2020


#       File generated by GOLD software.
#

@<TRIPOS>MOLECULE
AV-unprocessed.smi:2008
    51    52     1
SMALL
NO_CHARGES


@<TRIPOS>ATOM
      1 ****        -8.3542   2.2940   1.4691 C.3            1 S1                 0.0000
      2 ****        -7.1328   2.9047   1.0678 O.3            1 S1                 0.0000
      3 ****        -5.9965   2.1236   1.0153 C.ar           1 S1                 0.0000
      4 ****        -4.7842   2.7231   0.6209 C.ar           1 S1                 0.0000
      5 ****        -3.6196   1.9337   0.5653 C.ar           1 S1                 0.0000
      6 ****        -3.7033   0.5646   0.9154 C.ar           1 S1                 0.0000
      7 ****        -2.6085  -0.3418   0.8861 N.am           1 S1                 0.0000
      8 ****        -1.2925  -0.0699   0.9054 C.2            1 S1                 0.0000
      9 ****        -0.7957   1.0542   0.9721 O.2            1 S1                 0.0000
     10 ****        -0.5624  -1.1935   0.8563 N.am           1 S1                 0.0000
     11 ****         0.8955  -1.2410   0.8803 C.3            1 S1                 0.0000
     12 ****         1.4958  -0.9152  -0.5029 C.3            1 S1                 0.0000
     13 ****         2.9864  -0.8767  -0.4892 N.4            1 S1                 1.0000
     14 ****         3.5612  -2.2506  -0.3940 C.3            1 S1                 0.0000
     15 ****         5.0888  -2.2315  -0.2493 C.3            1 S1                 0.0000
     16 ****         5.7248  -1.4916  -1.4250 C.3            1 S1                 0.0000
     17 ****         5.1366  -0.0817  -1.5090 C.3            1 S1                 0.0000
     18 ****         3.5948  -0.0950  -1.6171 C.3            1 S1                 0.0000
     19 ****         3.1041   1.3679  -1.6801 C.3            1 S1                 0.0000
     20 ****        -4.9674   0.0589   1.2833 C.ar           1 S1                 0.0000
     21 ****        -6.0871   0.8101   1.3392 N.ar           1 S1                 0.0000
     22 ****        -9.1505   3.0380   1.4569 H              1 S1                 0.0000
     23 ****        -8.2875   1.8976   2.4833 H              1 S1                 0.0000
     24 ****        -8.6414   1.4912   0.7886 H              1 S1                 0.0000
     25 ****        -4.7486   3.7708   0.3608 H              1 S1                 0.0000
     26 ****        -2.6972   2.3914   0.2440 H              1 S1                 0.0000
     27 ****        -2.8598  -1.3195   0.9070 H              1 S1                 0.0000
     28 ****        -1.0490  -2.0771   0.8092 H              1 S1                 0.0000
     29 ****         1.2766  -0.5505   1.6348 H              1 S1                 0.0000
     30 ****         1.1735  -2.2419   1.2066 H              1 S1                 0.0000
     31 ****         1.1524  -1.6307  -1.2517 H              1 S1                 0.0000
     32 ****         1.0874   0.0460  -0.8010 H              1 S1                 0.0000
     33 ****         3.1499  -2.7817   0.4627 H              1 S1                 0.0000
     34 ****         3.2810  -2.8236  -1.2795 H              1 S1                 0.0000
     35 ****         5.3665  -1.7484   0.6886 H              1 S1                 0.0000
     36 ****         5.4726  -3.2511  -0.1998 H              1 S1                 0.0000
     37 ****         6.8072  -1.4432  -1.3017 H              1 S1                 0.0000
     38 ****         5.5366  -2.0313  -2.3542 H              1 S1                 0.0000
     39 ****         5.4388   0.4877  -0.6286 H              1 S1                 0.0000
     40 ****         5.5675   0.4339  -2.3682 H              1 S1                 0.0000
     41 ****         3.3225  -0.5871  -2.5524 H              1 S1                 0.0000
     42 ****         3.7058   1.9507  -2.3783 H              1 S1                 0.0000
     43 ****         3.1726   1.8543  -0.7064 H              1 S1                 0.0000
     44 ****         2.0777   1.4527  -2.0344 H              1 S1                 0.0000
     45 ****        -5.0860  -0.9823   1.5460 H              1 S1                 0.0000
     46 ****         3.2498  -0.3901   0.3559 H              1 S1                 0.0000
     47 ****        -6.9501   3.6502   1.7088 LP             1 S1                 0.0000
     48 ****        -7.2765   3.2800   0.1522 LP             1 S1                 0.0000
     49 ****        -1.3863   1.8599   1.0174 LP             1 S1                 0.0000
     50 ****         0.1984   1.1617   0.9810 LP             1 S1                 0.0000
     51 ****        -6.9612   0.4083   1.6125 LP             1 S1                 0.0000
@<TRIPOS>BOND
    1    1    2 1     
    2    1   22 1     
    3    1   23 1     
    4    1   24 1     
    5    2    3 1     
    6    3   21 ar    
    7    3    4 ar    
    8    4    5 ar    
    9    4   25 1     
   10    5    6 ar    
   11    5   26 1     
   12    6    7 1     
   13    6   20 ar    
   14    7    8 am    
   15    7   27 1     
   16    8    9 2     
   17    8   10 am    
   18   10   11 1     
   19   10   28 1     
   20   11   12 1     
   21   11   29 1     
   22   11   30 1     
   23   12   13 1     
   24   12   31 1     
   25   12   32 1     
   26   13   18 1     
   27   13   14 1     
   28   13   46 1     
   29   14   15 1     
   30   14   33 1     
   31   14   34 1     
   32   15   16 1     
   33   15   35 1     
   34   15   36 1     
   35   16   17 1     
   36   16   37 1     
   37   16   38 1     
   38   17   18 1     
   39   17   39 1     
   40   17   40 1     
   41   18   19 1     
   42   18   41 1     
   43   19   42 1     
   44   19   43 1     
   45   19   44 1     
   46   20   21 ar    
   47   20   45 1     
   48    2   47 1     
   49    2   48 1     
   50    9   49 1     
   51    9   50 1     
   52   21   51 1     
@<TRIPOS>SUBSTRUCTURE
      1 S1             1
@<TRIPOS>SET
LONE_PAIRS      STATIC     ATOMS    <user>   **** ""
5 47 48 49 50 51
DONOR_HYDROGENS      STATIC     ATOMS    <user>   **** ""
3 27 28 46
ATOM$BLUE        STATIC     ATOMS    COLORGROUP SYSTEM
5 47 48 49 50 51
ATOM$RED        STATIC     ATOMS    COLORGROUP SYSTEM
3 27 28 46
