AV-unprocessed.smi:2856|AV-procd|sdf|10993|dock5
  -GOLD-   2272015443D 1   1.00000     0.00000
 Structure written by MMmdl.
 37 38  0  0  0  0  0  0  0  0  1 V2000
  148.8516  132.8099  153.2264 C   0  0  0  0  0  0  0  0  0  0  0  0
  147.1087  132.8571  153.7258 S   0  0  0  0  0  0  0  0  0  0  0  0
  146.2819  133.0689  152.1160 C   0  0  2  0  0  0  0  0  0  0  0  0
  145.2501  134.2083  152.2188 C   0  0  0  0  0  0  0  0  0  0  0  0
  144.4847  134.4118  150.9036 C   0  0  0  0  0  0  0  0  0  0  0  0
  143.7989  133.1117  150.4643 C   0  0  0  0  0  0  0  0  0  0  0  0
  144.8189  131.9720  150.3312 C   0  0  0  0  0  0  0  0  0  0  0  0
  145.6150  131.7560  151.6351 C   0  0  1  0  0  0  0  0  0  0  0  0
  146.6262  130.7255  151.4105 N   0  0  0  0  0  0  0  0  0  0  0  0
  146.5018  129.4282  151.7241 C   0  0  0  0  0  0  0  0  0  0  0  0
  145.4857  128.9396  152.2191 O   0  0  0  0  0  0  0  0  0  0  0  0
  147.6225  128.7487  151.4278 N   0  0  0  0  0  0  0  0  0  0  0  0
  147.8822  127.3718  151.6457 C   0  0  0  0  0  0  0  0  0  0  0  0
  148.5582  126.5943  150.6680 C   0  0  0  0  0  0  0  0  0  0  0  0
  148.6122  125.3560  151.2432 C   0  0  0  0  0  0  0  0  0  0  0  0
  149.1746  124.0516  150.7926 C   0  0  0  0  0  0  0  0  0  0  0  0
  148.0203  125.3761  152.4682 O   0  0  0  0  0  0  0  0  0  0  0  0
  147.5545  126.6717  152.7209 N   0  0  0  0  0  0  0  0  0  0  0  0
  149.4873  132.7139  154.1063 H   0  0  0  0  0  0  0  0  0  0  0  0
  149.1238  133.7270  152.7044 H   0  0  0  0  0  0  0  0  0  0  0  0
  149.0486  131.9625  152.5704 H   0  0  0  0  0  0  0  0  0  0  0  0
  147.0365  133.3728  151.3890 H   0  0  0  0  0  0  0  0  0  0  0  0
  144.5405  133.9894  153.0180 H   0  0  0  0  0  0  0  0  0  0  0  0
  145.7491  135.1369  152.4978 H   0  0  0  0  0  0  0  0  0  0  0  0
  143.7424  135.2013  151.0237 H   0  0  0  0  0  0  0  0  0  0  0  0
  145.1720  134.7475  150.1262 H   0  0  0  0  0  0  0  0  0  0  0  0
  143.0335  132.8361  151.1908 H   0  0  0  0  0  0  0  0  0  0  0  0
  143.2848  133.2639  149.5148 H   0  0  0  0  0  0  0  0  0  0  0  0
  144.3029  131.0527  150.0516 H   0  0  0  0  0  0  0  0  0  0  0  0
  145.5050  132.2000  149.5140 H   0  0  0  0  0  0  0  0  0  0  0  0
  144.9206  131.4304  152.4121 H   0  0  0  0  0  0  0  0  0  0  0  0
  147.4967  131.0319  151.0018 H   0  0  0  0  0  0  0  0  0  0  0  0
  148.3763  129.2759  151.0128 H   0  0  0  0  0  0  0  0  0  0  0  0
  148.9413  126.8919  149.7032 H   0  0  0  0  0  0  0  0  0  0  0  0
  149.6238  124.1418  149.8034 H   0  0  0  0  0  0  0  0  0  0  0  0
  148.3948  123.2916  150.7416 H   0  0  0  0  0  0  0  0  0  0  0  0
  149.9434  123.7033  151.4825 H   0  0  0  0  0  0  0  0  0  0  0  0
  1  2  1  0  0  0  0
  1 19  1  0  0  0  0
  1 20  1  0  0  0  0
  1 21  1  0  0  0  0
  2  3  1  0  0  0  0
  3  8  1  0  0  0  0
  3  4  1  0  0  0  0
  3 22  1  0  0  0  0
  4  5  1  0  0  0  0
  4 23  1  0  0  0  0
  4 24  1  0  0  0  0
  5  6  1  0  0  0  0
  5 25  1  0  0  0  0
  5 26  1  0  0  0  0
  6  7  1  0  0  0  0
  6 27  1  0  0  0  0
  6 28  1  0  0  0  0
  7  8  1  0  0  0  0
  7 29  1  0  0  0  0
  7 30  1  0  0  0  0
  8  9  1  0  0  0  0
  8 31  1  0  0  0  0
  9 10  1  0  0  0  0
  9 32  1  0  0  0  0
 10 11  2  0  0  0  0
 10 12  1  0  0  0  0
 12 13  1  0  0  0  0
 12 33  1  0  0  0  0
 13 18  2  0  0  0  0
 13 14  1  0  0  0  0
 14 15  2  0  0  0  0
 14 34  1  0  0  0  0
 15 16  1  0  0  0  0
 15 17  1  0  0  0  0
 16 35  1  0  0  0  0
 16 36  1  0  0  0  0
 16 37  1  0  0  0  0
 17 18  1  0  0  0  0
M  END
> <s_m_source_file>
AV-unprocessed.smi

> <i_m_source_file_index>
2856

> <i_lp_mmshare_version>
43012

> <i_f3d_flags>
0

> <s_epik_input>
W0NIM11TW0NAQEhdMVtDSDJdW0NIMl1bQ0gyXVtDSDJdW0NASF0xW05IXUMoPU8pW05IXWMyW2NIXWMoW0NIM10pb24y

> <s_epik_cmdline>
J2VwaWtfcHl0aG9uJywgJy1waCcsICc3LjAnLCAnLXRuJywgJzgnLCAnLW1hJywgJzIwMCcsICctbWV0YWxfYmluZGluZycsICctaW1hZScsICc8aW5maWxlLm1hZT4nLCAnLW9tYWUnLCAnPG91dGZpbGUubWFlPic=

> <r_lp_tautomer_probability>
1

> <r_epik_Ionization_Penalty>
2.20874e-05

> <r_epik_Ionization_Penalty_Charging>
0

> <r_epik_Ionization_Penalty_Neutral>
2.20874e-05

> <r_epik_State_Penalty>
-0

> <r_epik_Charging_Adjusted_Penalty>
0

> <i_epik_Tot_Q>
0

> <i_epik_Tot_abs_Q>
0

> <r_epik_Metal_State_Penalty>
-0

> <b_epik_Metal_Only>
0

> <s_lp_Force_Field>
OPLS_2005

> <r_lp_Energy>
6.84472

> <b_lp_Chiralities_Consistent>
1

> <s_lp_Variant>
AV-unprocessed.smi:2856-1

> <Gold.Version>
5.8.1

> <Gold.Id.Protein>
6NUR|6NUR_protein|mol2

> <Gold.PLP.Fitness>
40.9757

> <Gold.PLP.PLP>
-38.1487

> <Gold.PLP.part.hbond>
-3.4709

> <Gold.PLP.part.metal>
0.0000

> <Gold.PLP.part.buried>
-6.4373

> <Gold.PLP.part.nonpolar>
-28.8115

> <Gold.PLP.part.repulsive>
0.2906

> <Gold.PLP.ligand.clash>
0.0000

> <Gold.PLP.ligand.torsion>
1.2900

> <Gold.PLP.Chemscore.Hbond>
1.8000

> <Gold.PLP.Chemscore.CHOScore>
0.0000

> <Gold.PLP.Chemscore.Metal>
0.0000

> <Gold.Chemscore.Hbonds>
donor molecule, donor type, donor heavy atom, donor atom, acceptor molecule, acceptor atom, score
      L1  H     9    32       P1 10747  1.00
      L1  H    12    33       P1 10747  0.80

> <Gold.PLP.Chemscore.Internal.Correction>
0.0070

> <Gold.Rescore>
     Score         DG    S(hbond)    S(metal)    S(lipo)     H(rot)  DE(clash)    DE(int)     intcor
     12.71     -14.82       1.12        0.00      74.23       1.21       0.19       1.92       ----

> <Gold.Chemscore.Fitness>
12.7080

> <Gold.Chemscore.DG>
-14.8194

> <Gold.Chemscore.ZeroCoef>
-5.4800

> <Gold.Chemscore.Hbond>
1.1243

> <Gold.Chemscore.Metal>
0.0000

> <Gold.Chemscore.Lipo>
74.2251

> <Gold.Chemscore.Internal_Hbond>
0.0000

> <Gold.Chemscore.DEClash>
0.1893

> <Gold.Chemscore.DEInternal>
1.9221

> <Gold.Chemscore.Rot>
1.2109

> <Gold.Chemscore.Internal.Correction>
   9.000000E+99

> <Gold.Chemscore.Hbonds>
donor molecule, donor type, donor heavy atom, donor atom, acceptor molecule, acceptor atom, score
      L1  H     9    32       P1 10747  0.98
      L1  H    12    33       P1 10747  0.11

> <Gold.Chemscore.Hbond.Weighted>
-3.7550

> <Gold.Chemscore.Metal.Weighted>
-0.0000

> <Gold.Chemscore.Lipo.Weighted>
-8.6843

> <Gold.Chemscore.Internal_Hbond.Weighted>
0.0000

> <Gold.Chemscore.DEClash.Weighted>
0.1893

> <Gold.Chemscore.DEInternal.Weighted>
1.9221

> <Gold.Chemscore.Rot.Weighted>
3.1000

> <Gold.Chemscore.Internal.Correction.Weighted>
   9.000000E+99

> <Gold.Protein.RotatedTorsions>
[ 6907 6896 6895 6894 ] final  121.72 input  -60.11 | X-H torsion
[ 7974 7965 7964 7962 ] final -152.89 input  175.53 | X-H torsion
[ 8008 7997 7996 7995 ] final -130.03 input   59.86 | X-H torsion
[ 10167 10162 10161 10158 ] final   31.18 input  -65.29 | X-H torsion
[ 10718 10713 10712 10709 ] final  101.41 input   66.30 | X-H torsion
[ 10763 10752 10751 10750 ] final -144.21 input  -60.55 | X-H torsion
[ 11005 11000 10999 10996 ] final   65.88 input  -57.11 | X-H torsion

> <Gold.Protein.ActiveResidues>
 VAL166  LYS551  ARG553  GLY616  TRP617  ASP618  TYR619  PRO620  LYS621  CYS622 
 ASP623  PHE694  ASN695  SER759  ASP760  ASP761  ALA762  ILE779  LEU786  VAL792 
 PHE793  MET794  SER795  GLU796  ALA797  LYS798  CYS799  TRP800  GLU811  SER814 

> <Gold.Protein.RotatedAtoms>
  152.4299  133.7260  159.6560 H   0  0  0  0  0  0  0  0  0  0  0  0  # atno 6907 bound_to 6896
  150.8178  133.8296  159.3158 H   0  0  0  0  0  0  0  0  0  0  0  0  # atno 6908 bound_to 6896
  151.5987  135.1051  160.0107 H   0  0  0  0  0  0  0  0  0  0  0  0  # atno 6909 bound_to 6896
  144.7770  140.4600  143.5866 H   0  0  0  0  0  0  0  0  0  0  0  0  # atno 7974 bound_to 7965
  155.2890  140.0447  157.3021 H   0  0  0  0  0  0  0  0  0  0  0  0  # atno 8008 bound_to 7997
  154.5552  140.2329  155.8389 H   0  0  0  0  0  0  0  0  0  0  0  0  # atno 8009 bound_to 7997
  156.2001  140.3028  155.9516 H   0  0  0  0  0  0  0  0  0  0  0  0  # atno 8010 bound_to 7997
  140.4611  144.0905  150.6213 H   0  0  0  0  0  0  0  0  0  0  0  0  # atno 10167 bound_to 10162
  157.6830  131.0725  150.5248 H   0  0  0  0  0  0  0  0  0  0  0  0  # atno 10718 bound_to 10713
  154.8438  135.3446  154.6310 H   0  0  0  0  0  0  0  0  0  0  0  0  # atno 10763 bound_to 10752
  153.6920  135.6974  153.5092 H   0  0  0  0  0  0  0  0  0  0  0  0  # atno 10764 bound_to 10752
  153.2588  135.4329  155.0828 H   0  0  0  0  0  0  0  0  0  0  0  0  # atno 10765 bound_to 10752
  139.9866  134.6658  156.0165 H   0  0  0  0  0  0  0  0  0  0  0  0  # atno 11005 bound_to 11000
  145.6159  139.1518  143.3050 LP  0  0  0  0  0  0  0  0  0  0  0  0  # atno 17320 bound_to 7965
  146.1955  140.6272  142.9126 LP  0  0  0  0  0  0  0  0  0  0  0  0  # atno 17321 bound_to 7965
  140.4092  143.2665  151.9854 LP  0  0  0  0  0  0  0  0  0  0  0  0  # atno 17342 bound_to 10162
  139.4806  144.5930  151.7738 LP  0  0  0  0  0  0  0  0  0  0  0  0  # atno 17343 bound_to 10162
  156.5560  130.4243  149.6085 LP  0  0  0  0  0  0  0  0  0  0  0  0  # atno 17370 bound_to 10713
  156.2862  130.7098  151.1935 LP  0  0  0  0  0  0  0  0  0  0  0  0  # atno 17371 bound_to 10713
  141.1530  133.6546  156.4073 LP  0  0  0  0  0  0  0  0  0  0  0  0  # atno 17394 bound_to 11000
  140.4990  134.6504  157.5241 LP  0  0  0  0  0  0  0  0  0  0  0  0  # atno 17395 bound_to 11000

$$$$
