AV-unprocessed.smi:2919|AV-procd|sdf|11192|dock9
  -GOLD-   2272016 83D 1   1.00000     0.00000
 Structure written by MMmdl.
 34 36  0  0  0  0  0  0  0  0  1 V2000
  149.8106  138.6406  154.0543 C   0  0  0  0  0  0  0  0  0  0  0  0
  150.4180  139.0682  155.3787 C   0  0  0  0  0  0  0  0  0  0  0  0
  150.6751  140.3902  155.4876 N   0  0  0  0  0  0  0  0  0  0  0  0
  151.2092  140.8853  156.6050 N   0  0  0  0  0  0  0  0  0  0  0  0
  151.5078  140.0785  157.6521 C   0  0  0  0  0  0  0  0  0  0  0  0
  152.0694  140.6753  158.7963 N   0  0  0  0  0  0  0  0  0  0  0  0
  152.4662  142.0793  158.8120 C   0  0  2  0  0  0  0  0  0  0  0  0
  152.9516  142.5529  160.1884 C   0  0  0  0  0  0  0  0  0  0  0  0
  152.0218  143.7415  160.4614 C   0  0  1  0  0  0  0  0  0  0  0  0
  152.3061  144.9291  159.5317 C   0  0  0  0  0  0  0  0  0  0  0  0
  151.7410  144.4278  158.2030 C   0  0  0  0  0  0  0  0  0  0  0  0
  151.2691  143.0154  158.5729 C   0  0  2  0  0  0  0  0  0  0  0  0
  150.8195  143.2479  159.8982 O   0  0  0  0  0  0  0  0  0  0  0  0
  151.2626  138.6814  157.6071 C   0  0  0  0  0  0  0  0  0  0  0  0
  151.5852  137.8155  158.7396 C   0  0  0  0  0  0  0  0  0  0  0  0
  151.8404  137.1299  159.6362 N   0  0  0  0  0  0  0  0  0  0  0  0
  150.6943  138.1511  156.4215 C   0  0  0  0  0  0  0  0  0  0  0  0
  150.3979  136.6599  156.2829 C   0  0  0  0  0  0  0  0  0  0  0  0
  148.8316  138.1877  154.2124 H   0  0  0  0  0  0  0  0  0  0  0  0
  150.4550  137.9170  153.5547 H   0  0  0  0  0  0  0  0  0  0  0  0
  149.6796  139.4893  153.3816 H   0  0  0  0  0  0  0  0  0  0  0  0
  152.3757  140.0871  159.5583 H   0  0  0  0  0  0  0  0  0  0  0  0
  153.2212  142.2462  158.0422 H   0  0  0  0  0  0  0  0  0  0  0  0
  152.8116  141.7851  160.9509 H   0  0  0  0  0  0  0  0  0  0  0  0
  154.0040  142.8384  160.1867 H   0  0  0  0  0  0  0  0  0  0  0  0
  151.9465  144.0108  161.5152 H   0  0  0  0  0  0  0  0  0  0  0  0
  151.7717  145.8204  159.8625 H   0  0  0  0  0  0  0  0  0  0  0  0
  153.3691  145.1668  159.4782 H   0  0  0  0  0  0  0  0  0  0  0  0
  150.8986  145.0454  157.8893 H   0  0  0  0  0  0  0  0  0  0  0  0
  152.4797  144.4250  157.4006 H   0  0  0  0  0  0  0  0  0  0  0  0
  150.5101  142.6189  157.8973 H   0  0  0  0  0  0  0  0  0  0  0  0
  151.3172  136.0827  156.3870 H   0  0  0  0  0  0  0  0  0  0  0  0
  149.9544  136.3938  155.3252 H   0  0  0  0  0  0  0  0  0  0  0  0
  149.7042  136.3399  157.0612 H   0  0  0  0  0  0  0  0  0  0  0  0
  1  2  1  0  0  0  0
  1 19  1  0  0  0  0
  1 20  1  0  0  0  0
  1 21  1  0  0  0  0
  2 17  1  0  0  0  0
  2  3  2  0  0  0  0
  3  4  1  0  0  0  0
  4  5  2  0  0  0  0
  5  6  1  0  0  0  0
  5 14  1  0  0  0  0
  6  7  1  0  0  0  0
  6 22  1  0  0  0  0
  7 12  1  0  0  0  0
  7  8  1  0  0  0  0
  7 23  1  0  0  0  0
  8  9  1  0  0  0  0
  8 24  1  0  0  0  0
  8 25  1  0  0  0  0
  9 13  1  0  0  0  0
  9 10  1  0  0  0  0
  9 26  1  0  0  0  0
 10 11  1  0  0  0  0
 10 27  1  0  0  0  0
 10 28  1  0  0  0  0
 11 12  1  0  0  0  0
 11 29  1  0  0  0  0
 11 30  1  0  0  0  0
 12 13  1  0  0  0  0
 12 31  1  0  0  0  0
 14 15  1  0  0  0  0
 14 17  2  0  0  0  0
 15 16  3  0  0  0  0
 17 18  1  0  0  0  0
 18 32  1  0  0  0  0
 18 33  1  0  0  0  0
 18 34  1  0  0  0  0
M  END
> <s_m_source_file>
AV-unprocessed.smi

> <i_m_source_file_index>
2919

> <i_lp_mmshare_version>
43012

> <i_f3d_flags>
0

> <s_epik_input>
W0NIM11jMW5uYyhjKEMjTiljMVtDSDNdKVtOSF1bQ0BIXShbQ0gyXVtDQEBIXTIzKVtDQEBIXShPMylbQ0gyXVtDSDJdMg==

> <s_epik_cmdline>
J2VwaWtfcHl0aG9uJywgJy1waCcsICc3LjAnLCAnLXRuJywgJzgnLCAnLW1hJywgJzIwMCcsICctbWV0YWxfYmluZGluZycsICctaW1hZScsICc8aW5maWxlLm1hZT4nLCAnLW9tYWUnLCAnPG91dGZpbGUubWFlPic=

> <r_lp_tautomer_probability>
1

> <r_epik_Ionization_Penalty>
0.00143865

> <r_epik_Ionization_Penalty_Charging>
0

> <r_epik_Ionization_Penalty_Neutral>
0.00143865

> <r_epik_State_Penalty>
-0

> <r_epik_Charging_Adjusted_Penalty>
0

> <i_epik_Tot_Q>
0

> <i_epik_Tot_abs_Q>
0

> <r_epik_Metal_State_Penalty>
-0

> <b_epik_Metal_Only>
0

> <s_lp_Force_Field>
OPLS_2005

> <r_lp_Energy>
49.0133

> <b_lp_Chiralities_Consistent>
1

> <s_lp_Variant>
AV-unprocessed.smi:2919-1

> <Gold.Version>
5.8.1

> <Gold.Id.Protein>
6NUR|6NUR_protein|mol2

> <Gold.PLP.Fitness>
42.1058

> <Gold.PLP.PLP>
-36.1320

> <Gold.PLP.part.hbond>
-2.4219

> <Gold.PLP.part.metal>
0.0000

> <Gold.PLP.part.buried>
-5.7347

> <Gold.PLP.part.nonpolar>
-27.4513

> <Gold.PLP.part.repulsive>
0.2129

> <Gold.PLP.ligand.clash>
0.0000

> <Gold.PLP.ligand.torsion>
0.0230

> <Gold.PLP.Chemscore.Hbond>
2.0000

> <Gold.PLP.Chemscore.CHOScore>
0.0000

> <Gold.PLP.Chemscore.Metal>
0.0000

> <Gold.Chemscore.Hbonds>
donor molecule, donor type, donor heavy atom, donor atom, acceptor molecule, acceptor atom, score
      P1  H  6896  6908       L1    16  1.00
      P1  H  7989  7998       L1     3  0.44

> <Gold.PLP.Chemscore.Internal.Correction>
0.0199

> <Gold.Rescore>
     Score         DG    S(hbond)    S(metal)    S(lipo)     H(rot)  DE(clash)    DE(int)     intcor
     20.15     -20.27       1.86        0.00      95.18       1.00       0.03       0.09       ----

> <Gold.Chemscore.Fitness>
20.1534

> <Gold.Chemscore.DG>
-20.2735

> <Gold.Chemscore.ZeroCoef>
-5.4800

> <Gold.Chemscore.Hbond>
1.8614

> <Gold.Chemscore.Metal>
0.0000

> <Gold.Chemscore.Lipo>
95.1824

> <Gold.Chemscore.Internal_Hbond>
0.0000

> <Gold.Chemscore.DEClash>
0.0294

> <Gold.Chemscore.DEInternal>
0.0907

> <Gold.Chemscore.Rot>
1.0000

> <Gold.Chemscore.Internal.Correction>
   9.000000E+99

> <Gold.Chemscore.Hbonds>
donor molecule, donor type, donor heavy atom, donor atom, acceptor molecule, acceptor atom, score
      P1  H  6896  6908       L1    16  0.95
      P1  H  7989  7998       L1     3  0.16

> <Gold.Chemscore.Hbond.Weighted>
-6.2172

> <Gold.Chemscore.Metal.Weighted>
-0.0000

> <Gold.Chemscore.Lipo.Weighted>
-11.1363

> <Gold.Chemscore.Internal_Hbond.Weighted>
0.0000

> <Gold.Chemscore.DEClash.Weighted>
0.0294

> <Gold.Chemscore.DEInternal.Weighted>
0.0907

> <Gold.Chemscore.Rot.Weighted>
2.5600

> <Gold.Chemscore.Internal.Correction.Weighted>
   9.000000E+99

> <Gold.Protein.RotatedTorsions>
[ 6907 6896 6895 6894 ] final -122.32 input  -60.11 | X-H torsion
[ 7974 7965 7964 7962 ] final   51.82 input  175.53 | X-H torsion
[ 8008 7997 7996 7995 ] final   53.93 input   59.86 | X-H torsion
[ 10167 10162 10161 10158 ] final  143.81 input  -65.29 | X-H torsion
[ 10718 10713 10712 10709 ] final  -15.33 input   66.30 | X-H torsion
[ 10763 10752 10751 10750 ] final  152.03 input  -60.55 | X-H torsion
[ 11005 11000 10999 10996 ] final  178.40 input  -57.11 | X-H torsion

> <Gold.Protein.ActiveResidues>
 VAL166  LYS551  ARG553  GLY616  TRP617  ASP618  TYR619  PRO620  LYS621  CYS622 
 ASP623  PHE694  ASN695  SER759  ASP760  ASP761  ALA762  ILE779  LEU786  VAL792 
 PHE793  MET794  SER795  GLU796  ALA797  LYS798  CYS799  TRP800  GLU811  SER814 

> <Gold.Protein.RotatedAtoms>
  150.8565  133.7707  159.3006 H   0  0  0  0  0  0  0  0  0  0  0  0  # atno 6907 bound_to 6896
  151.5363  135.1067  159.9925 H   0  0  0  0  0  0  0  0  0  0  0  0  # atno 6908 bound_to 6896
  152.4594  133.7746  159.6873 H   0  0  0  0  0  0  0  0  0  0  0  0  # atno 6909 bound_to 6896
  145.9875  139.4305  143.0094 H   0  0  0  0  0  0  0  0  0  0  0  0  # atno 7974 bound_to 7965
  155.4763  140.3467  155.4333 H   0  0  0  0  0  0  0  0  0  0  0  0  # atno 8008 bound_to 7997
  156.1068  140.1450  156.9422 H   0  0  0  0  0  0  0  0  0  0  0  0  # atno 8009 bound_to 7997
  154.4729  140.0894  156.7169 H   0  0  0  0  0  0  0  0  0  0  0  0  # atno 8010 bound_to 7997
  139.4961  144.6015  151.6471 H   0  0  0  0  0  0  0  0  0  0  0  0  # atno 10167 bound_to 10162
  156.6033  130.4830  149.6231 H   0  0  0  0  0  0  0  0  0  0  0  0  # atno 10718 bound_to 10713
  154.1134  135.2837  155.3225 H   0  0  0  0  0  0  0  0  0  0  0  0  # atno 10763 bound_to 10752
  154.6473  135.5381  153.7863 H   0  0  0  0  0  0  0  0  0  0  0  0  # atno 10764 bound_to 10752
  153.0337  135.6501  154.1292 H   0  0  0  0  0  0  0  0  0  0  0  0  # atno 10765 bound_to 10752
  140.3947  134.6831  157.4527 H   0  0  0  0  0  0  0  0  0  0  0  0  # atno 11005 bound_to 11000
  145.7679  140.9909  143.1165 LP  0  0  0  0  0  0  0  0  0  0  0  0  # atno 17320 bound_to 7965
  144.6879  139.9411  143.7475 LP  0  0  0  0  0  0  0  0  0  0  0  0  # atno 17321 bound_to 7965
  140.5665  144.0180  150.6195 LP  0  0  0  0  0  0  0  0  0  0  0  0  # atno 17342 bound_to 10162
  140.3284  143.3093  152.0713 LP  0  0  0  0  0  0  0  0  0  0  0  0  # atno 17343 bound_to 10162
  156.2451  130.6874  151.1592 LP  0  0  0  0  0  0  0  0  0  0  0  0  # atno 17370 bound_to 10713
  157.7274  131.0639  150.5868 LP  0  0  0  0  0  0  0  0  0  0  0  0  # atno 17371 bound_to 10713
  140.0381  134.6308  155.9017 LP  0  0  0  0  0  0  0  0  0  0  0  0  # atno 17394 bound_to 11000
  141.1878  133.6561  156.5299 LP  0  0  0  0  0  0  0  0  0  0  0  0  # atno 17395 bound_to 11000

$$$$
