AV-unprocessed.smi:1682|AV-procd|sdf|6743|dock1
  -GOLD-   22720 7493D 1   1.00000     0.00000
 Structure written by MMmdl.
 38 39  0  0  0  0  0  0  0  0  1 V2000
  150.2965  139.9258  154.3842 O   0  0  0  0  0  0  0  0  0  0  0  0
  149.3744  140.6914  154.6683 C   0  0  0  0  0  0  0  0  0  0  0  0
  149.5086  141.7178  155.5221 N   0  0  0  0  0  0  0  0  0  0  0  0
  150.7335  142.0497  156.2405 C   0  0  0  0  0  0  0  0  0  0  0  0
  150.5154  142.0317  157.7629 C   0  0  0  0  0  0  0  0  0  0  0  0
  151.0995  143.2549  158.4432 C   0  0  0  0  0  0  0  0  0  0  0  0
  151.8696  144.1847  157.7126 C   0  0  0  0  0  0  0  0  0  0  0  0
  152.3874  145.3056  158.3896 C   0  0  0  0  0  0  0  0  0  0  0  0
  152.1157  145.4535  159.7632 C   0  0  0  0  0  0  0  0  0  0  0  0
  151.3341  144.4699  160.4013 C   0  0  0  0  0  0  0  0  0  0  0  0
  150.8322  143.3914  159.7615 N   0  0  0  0  0  0  0  0  0  0  0  0
  147.9845  140.4931  154.0433 C   0  0  2  0  0  0  0  0  0  0  0  0
  147.5286  141.7531  153.2805 C   0  0  0  0  0  0  0  0  0  0  0  0
  146.4011  142.3097  154.1343 C   0  0  0  0  0  0  0  0  0  0  0  0
  145.8537  143.3849  153.8961 O   0  0  0  0  0  0  0  0  0  0  0  0
  146.1172  141.4861  155.1486 N   0  0  0  0  0  0  0  0  0  0  0  0
  145.1073  141.6968  156.1835 C   0  0  0  0  0  0  0  0  0  0  0  0
  145.3569  142.9852  156.9880 C   0  0  0  0  0  0  0  0  0  0  0  0
  144.5348  143.0084  158.0360 F   0  0  0  0  0  0  0  0  0  0  0  0
  146.6130  143.0171  157.4332 F   0  0  0  0  0  0  0  0  0  0  0  0
  145.1274  144.0686  156.2466 F   0  0  0  0  0  0  0  0  0  0  0  0
  146.8906  140.2560  155.1062 C   0  0  0  0  0  0  0  0  0  0  0  0
  148.7032  142.3009  155.6975 H   0  0  0  0  0  0  0  0  0  0  0  0
  151.5304  141.3584  155.9606 H   0  0  0  0  0  0  0  0  0  0  0  0
  151.0562  143.0411  155.9211 H   0  0  0  0  0  0  0  0  0  0  0  0
  149.4491  141.9769  157.9871 H   0  0  0  0  0  0  0  0  0  0  0  0
  150.9646  141.1382  158.1981 H   0  0  0  0  0  0  0  0  0  0  0  0
  152.0593  144.0442  156.6586 H   0  0  0  0  0  0  0  0  0  0  0  0
  152.9821  146.0386  157.8646 H   0  0  0  0  0  0  0  0  0  0  0  0
  152.4971  146.3000  160.3146 H   0  0  0  0  0  0  0  0  0  0  0  0
  151.1057  144.5521  161.4536 H   0  0  0  0  0  0  0  0  0  0  0  0
  148.0203  139.6410  153.3622 H   0  0  0  0  0  0  0  0  0  0  0  0
  148.3155  142.4986  153.1519 H   0  0  0  0  0  0  0  0  0  0  0  0
  147.1430  141.4973  152.2932 H   0  0  0  0  0  0  0  0  0  0  0  0
  144.1164  141.7271  155.7277 H   0  0  0  0  0  0  0  0  0  0  0  0
  145.1052  140.8384  156.8566 H   0  0  0  0  0  0  0  0  0  0  0  0
  146.2396  139.4316  154.8123 H   0  0  0  0  0  0  0  0  0  0  0  0
  147.2953  140.0193  156.0917 H   0  0  0  0  0  0  0  0  0  0  0  0
  1  2  2  0  0  0  0
  2  3  1  0  0  0  0
  2 12  1  0  0  0  0
  3  4  1  0  0  0  0
  3 23  1  0  0  0  0
  4  5  1  0  0  0  0
  4 24  1  0  0  0  0
  4 25  1  0  0  0  0
  5  6  1  0  0  0  0
  5 26  1  0  0  0  0
  5 27  1  0  0  0  0
  6 11  1  0  0  0  0
  6  7  2  0  0  0  0
  7  8  1  0  0  0  0
  7 28  1  0  0  0  0
  8  9  2  0  0  0  0
  8 29  1  0  0  0  0
  9 10  1  0  0  0  0
  9 30  1  0  0  0  0
 10 11  2  0  0  0  0
 10 31  1  0  0  0  0
 12 22  1  0  0  0  0
 12 13  1  0  0  0  0
 12 32  1  0  0  0  0
 13 14  1  0  0  0  0
 13 33  1  0  0  0  0
 13 34  1  0  0  0  0
 14 15  2  0  0  0  0
 14 16  1  0  0  0  0
 16 17  1  0  0  0  0
 16 22  1  0  0  0  0
 17 18  1  0  0  0  0
 17 35  1  0  0  0  0
 17 36  1  0  0  0  0
 18 19  1  0  0  0  0
 18 20  1  0  0  0  0
 18 21  1  0  0  0  0
 22 37  1  0  0  0  0
 22 38  1  0  0  0  0
M  END
> <s_m_source_file>
AV-unprocessed.smi

> <i_m_source_file_index>
1682

> <i_lp_mmshare_version>
43012

> <i_f3d_flags>
0

> <s_epik_input>
RkMoRikoRilbQ0gyXU4oW0NIMl0xKUMoPU8pW0NIMl1bQ0BIXTFDKD1PKVtOSF1bQ0gyXVtDSDJdYzJbY0hdW2NIXVtjSF1bY0hdbjI=

> <s_epik_cmdline>
J2VwaWtfcHl0aG9uJywgJy1waCcsICc3LjAnLCAnLXRuJywgJzgnLCAnLW1hJywgJzIwMCcsICctbWV0YWxfYmluZGluZycsICctaW1hZScsICc8aW5maWxlLm1hZT4nLCAnLW9tYWUnLCAnPG91dGZpbGUubWFlPic=

> <r_epik_Ionization_Penalty>
0.0252359

> <r_epik_Ionization_Penalty_Charging>
0

> <r_epik_Ionization_Penalty_Neutral>
0.0252359

> <r_epik_State_Penalty>
0.020532

> <r_epik_Charging_Adjusted_Penalty>
0.020532

> <i_epik_Tot_Q>
0

> <i_epik_Tot_abs_Q>
0

> <r_epik_Metal_State_Penalty>
0.0196899

> <b_epik_Metal_Only>
0

> <s_lp_Force_Field>
OPLS_2005

> <r_lp_Energy>
9.5977

> <b_lp_Chiralities_Consistent>
1

> <s_lp_Variant>
AV-unprocessed.smi:1682-1

> <Gold.Version>
5.8.1

> <Gold.Id.Protein>
6NUR|6NUR_protein|mol2

> <Gold.PLP.Fitness>
44.6002

> <Gold.PLP.PLP>
-42.3050

> <Gold.PLP.part.hbond>
-2.8718

> <Gold.PLP.part.metal>
0.0000

> <Gold.PLP.part.buried>
-8.0790

> <Gold.PLP.part.nonpolar>
-32.2280

> <Gold.PLP.part.repulsive>
0.5209

> <Gold.PLP.ligand.clash>
0.0000

> <Gold.PLP.ligand.torsion>
0.4559

> <Gold.PLP.Chemscore.Hbond>
1.0000

> <Gold.PLP.Chemscore.CHOScore>
0.0000

> <Gold.PLP.Chemscore.Metal>
0.0000

> <Gold.Chemscore.Hbonds>
donor molecule, donor type, donor heavy atom, donor atom, acceptor molecule, acceptor atom, score
      L1  H     3    23       P1  8028  0.01
      P1  H  7989  7998       L1     1  1.00

> <Gold.PLP.Chemscore.Internal.Correction>
0.2071

> <Gold.Rescore>
     Score         DG    S(hbond)    S(metal)    S(lipo)     H(rot)  DE(clash)    DE(int)     intcor
     11.16     -14.64       1.01        0.00      95.07       2.09       1.36       2.11       ----

> <Gold.Chemscore.Fitness>
11.1635

> <Gold.Chemscore.DG>
-14.6365

> <Gold.Chemscore.ZeroCoef>
-5.4800

> <Gold.Chemscore.Hbond>
1.0118

> <Gold.Chemscore.Metal>
0.0000

> <Gold.Chemscore.Lipo>
95.0738

> <Gold.Chemscore.Internal_Hbond>
0.0000

> <Gold.Chemscore.DEClash>
1.3596

> <Gold.Chemscore.DEInternal>
2.1135

> <Gold.Chemscore.Rot>
2.0884

> <Gold.Chemscore.Internal.Correction>
   9.000000E+99

> <Gold.Chemscore.Hbonds>
donor molecule, donor type, donor heavy atom, donor atom, acceptor molecule, acceptor atom, score
      L1  H     3    23       P1  8028  0.04
      P1  H  7989  7998       L1     1  0.70

> <Gold.Chemscore.Hbond.Weighted>
-3.3793

> <Gold.Chemscore.Metal.Weighted>
-0.0000

> <Gold.Chemscore.Lipo.Weighted>
-11.1236

> <Gold.Chemscore.Internal_Hbond.Weighted>
0.0000

> <Gold.Chemscore.DEClash.Weighted>
1.3596

> <Gold.Chemscore.DEInternal.Weighted>
2.1135

> <Gold.Chemscore.Rot.Weighted>
5.3464

> <Gold.Chemscore.Internal.Correction.Weighted>
   9.000000E+99

> <Gold.Protein.RotatedTorsions>
[ 6907 6896 6895 6894 ] final  131.83 input  -60.11 | X-H torsion
[ 7974 7965 7964 7962 ] final  -96.71 input  175.53 | X-H torsion
[ 8008 7997 7996 7995 ] final -114.61 input   59.86 | X-H torsion
[ 10167 10162 10161 10158 ] final   93.32 input  -65.29 | X-H torsion
[ 10718 10713 10712 10709 ] final -105.71 input   66.30 | X-H torsion
[ 10763 10752 10751 10750 ] final -151.31 input  -60.55 | X-H torsion
[ 11005 11000 10999 10996 ] final  -65.83 input  -57.11 | X-H torsion

> <Gold.Protein.ActiveResidues>
 VAL166  LYS551  ARG553  GLY616  TRP617  ASP618  TYR619  PRO620  LYS621  CYS622 
 ASP623  PHE694  ASN695  SER759  ASP760  ASP761  ALA762  ILE779  LEU786  VAL792 
 PHE793  MET794  SER795  GLU796  ALA797  LYS798  CYS799  TRP800  GLU811  SER814 

> <Gold.Protein.RotatedAtoms>
  152.3386  133.6040  159.5859 H   0  0  0  0  0  0  0  0  0  0  0  0  # atno 6907 bound_to 6896
  150.7465  133.9758  159.3569 H   0  0  0  0  0  0  0  0  0  0  0  0  # atno 6908 bound_to 6896
  151.7624  135.0807  160.0398 H   0  0  0  0  0  0  0  0  0  0  0  0  # atno 6909 bound_to 6896
  145.3433  140.9464  143.2595 H   0  0  0  0  0  0  0  0  0  0  0  0  # atno 7974 bound_to 7965
  155.0390  140.0392  157.2502 H   0  0  0  0  0  0  0  0  0  0  0  0  # atno 8008 bound_to 7997
  154.7232  140.2716  155.6498 H   0  0  0  0  0  0  0  0  0  0  0  0  # atno 8009 bound_to 7997
  156.2822  140.2698  156.1910 H   0  0  0  0  0  0  0  0  0  0  0  0  # atno 8010 bound_to 7997
  139.8192  144.6739  150.9541 H   0  0  0  0  0  0  0  0  0  0  0  0  # atno 10167 bound_to 10162
  156.0358  130.5577  150.7578 H   0  0  0  0  0  0  0  0  0  0  0  0  # atno 10718 bound_to 10713
  154.8065  135.3263  154.7417 H   0  0  0  0  0  0  0  0  0  0  0  0  # atno 10763 bound_to 10752
  153.8074  135.6898  153.4850 H   0  0  0  0  0  0  0  0  0  0  0  0  # atno 10764 bound_to 10752
  153.1814  135.4585  154.9978 H   0  0  0  0  0  0  0  0  0  0  0  0  # atno 10765 bound_to 10752
  141.1465  133.6688  156.6046 H   0  0  0  0  0  0  0  0  0  0  0  0  # atno 11005 bound_to 11000
  144.8773  139.4952  143.6739 LP  0  0  0  0  0  0  0  0  0  0  0  0  # atno 17320 bound_to 7965
  146.2998  139.7392  142.9099 LP  0  0  0  0  0  0  0  0  0  0  0  0  # atno 17321 bound_to 7965
  140.7814  143.4109  151.0995 LP  0  0  0  0  0  0  0  0  0  0  0  0  # atno 17342 bound_to 10162
  139.7770  143.8410  152.3131 LP  0  0  0  0  0  0  0  0  0  0  0  0  # atno 17343 bound_to 10162
  157.5106  131.0925  151.0203 LP  0  0  0  0  0  0  0  0  0  0  0  0  # atno 17370 bound_to 10713
  157.0560  130.5806  149.5378 LP  0  0  0  0  0  0  0  0  0  0  0  0  # atno 17371 bound_to 10713
  140.3662  134.7645  157.4567 LP  0  0  0  0  0  0  0  0  0  0  0  0  # atno 17394 bound_to 11000
  140.0746  134.5815  155.8604 LP  0  0  0  0  0  0  0  0  0  0  0  0  # atno 17395 bound_to 11000

$$$$
