#       Name:                AV-unprocessed.smi:1844
#       Creating user name   scv26
#       Creation time:       Fri Mar 27 09:21:28 2020


#       File generated by GOLD software.
#

@<TRIPOS>MOLECULE
AV-unprocessed.smi:1844
    51    52     1
SMALL
NO_CHARGES


@<TRIPOS>ATOM
      1 ****        -6.5976  -3.3778  -1.8249 C.3            1 S1                 0.0000
      2 ****        -5.6963  -2.2355  -1.8271 N.am           1 S1                 0.0000
      3 ****        -4.3610  -2.3190  -1.7079 C.2            1 S1                 0.0000
      4 ****        -3.7895  -3.4042  -1.5897 O.2            1 S1                 0.0000
      5 ****        -3.6814  -1.0214  -1.7351 C.2            1 S1                 0.0000
      6 ****        -4.3875   0.2460  -1.8528 C.2            1 S1                 0.0000
      7 ****        -3.7094   1.4104  -1.8628 C.2            1 S1                 0.0000
      8 ****        -2.2480   1.4539  -1.7597 C.2            1 S1                 0.0000
      9 ****        -1.6238   2.5153  -1.7639 O.2            1 S1                 0.0000
     10 ****        -1.6235   0.2414  -1.6595 N.am           1 S1                 0.0000
     11 ****        -0.1572   0.1544  -1.5538 C.3            1 S1                 0.0000
     12 ****         0.3688   0.3498  -0.1246 C.2            1 S1                 0.0000
     13 ****        -0.3978   0.3615   0.8398 O.2            1 S1                 0.0000
     14 ****         1.6976   0.4935  -0.0092 N.am           1 S1                 0.0000
     15 ****         2.4248   0.6908   1.2430 C.3            1 S1                 0.0000
     16 ****         2.4492   2.1931   1.5958 C.3            1 S1                 0.0000
     17 ****         3.2622   2.4659   2.8692 C.3            1 S1                 0.0000
     18 ****         4.6872   1.9118   2.7407 C.3            1 S1                 0.0000
     19 ****         4.6661   0.4119   2.4109 C.3            1 S1                 0.0000
     20 ****         3.8588   0.1151   1.1306 C.3            1 S1                 0.0000
     21 ****         3.8655  -1.3941   0.8270 C.3            1 S1                 0.0000
     22 ****        -2.3380  -0.9726  -1.6431 C.2            1 S1                 0.0000
     23 ****        -7.6206  -3.0438  -1.9968 H              1 S1                 0.0000
     24 ****        -6.5640  -3.8948  -0.8654 H              1 S1                 0.0000
     25 ****        -6.3340  -4.0856  -2.6116 H              1 S1                 0.0000
     26 ****        -6.1116  -1.3204  -1.9228 H              1 S1                 0.0000
     27 ****        -5.4640   0.2847  -1.9316 H              1 S1                 0.0000
     28 ****        -4.2557   2.3384  -1.9489 H              1 S1                 0.0000
     29 ****         0.1937  -0.8128  -1.9167 H              1 S1                 0.0000
     30 ****         0.3118   0.8901  -2.2100 H              1 S1                 0.0000
     31 ****         2.2500   0.4663  -0.8540 H              1 S1                 0.0000
     32 ****         1.9102   0.1550   2.0432 H              1 S1                 0.0000
     33 ****         2.8774   2.7596   0.7676 H              1 S1                 0.0000
     34 ****         1.4324   2.5648   1.7286 H              1 S1                 0.0000
     35 ****         3.2957   3.5377   3.0663 H              1 S1                 0.0000
     36 ****         2.7660   2.0082   3.7258 H              1 S1                 0.0000
     37 ****         5.2225   2.4526   1.9593 H              1 S1                 0.0000
     38 ****         5.2370   2.0812   3.6671 H              1 S1                 0.0000
     39 ****         5.6894   0.0518   2.2989 H              1 S1                 0.0000
     40 ****         4.2377  -0.1367   3.2509 H              1 S1                 0.0000
     41 ****         4.3607   0.6173   0.3020 H              1 S1                 0.0000
     42 ****         3.3527  -1.9559   1.6084 H              1 S1                 0.0000
     43 ****         4.8849  -1.7750   0.7598 H              1 S1                 0.0000
     44 ****         3.3748  -1.6188  -0.1201 H              1 S1                 0.0000
     45 ****        -1.7171  -1.8522  -1.5446 H              1 S1                 0.0000
     46 ****        -4.3213  -4.2511  -1.5808 LP             1 S1                 0.0000
     47 ****        -2.7939  -3.4381  -1.5026 LP             1 S1                 0.0000
     48 ****        -2.1142   3.3835  -1.8393 LP             1 S1                 0.0000
     49 ****        -0.6264   2.5090  -1.6918 LP             1 S1                 0.0000
     50 ****        -1.3806   0.2424   0.6988 LP             1 S1                 0.0000
     51 ****        -0.0372   0.4900   1.7637 LP             1 S1                 0.0000
@<TRIPOS>BOND
    1    1    2 1     
    2    1   23 1     
    3    1   24 1     
    4    1   25 1     
    5    2    3 am    
    6    2   26 1     
    7    3    4 2     
    8    3    5 1     
    9    5   22 2     
   10    5    6 1     
   11    6    7 2     
   12    6   27 1     
   13    7    8 1     
   14    7   28 1     
   15    8    9 2     
   16    8   10 am    
   17   10   11 1     
   18   10   22 1     
   19   11   12 1     
   20   11   29 1     
   21   11   30 1     
   22   12   13 2     
   23   12   14 am    
   24   14   15 1     
   25   14   31 1     
   26   15   20 1     
   27   15   16 1     
   28   15   32 1     
   29   16   17 1     
   30   16   33 1     
   31   16   34 1     
   32   17   18 1     
   33   17   35 1     
   34   17   36 1     
   35   18   19 1     
   36   18   37 1     
   37   18   38 1     
   38   19   20 1     
   39   19   39 1     
   40   19   40 1     
   41   20   21 1     
   42   20   41 1     
   43   21   42 1     
   44   21   43 1     
   45   21   44 1     
   46   22   45 1     
   47    4   46 1     
   48    4   47 1     
   49    9   48 1     
   50    9   49 1     
   51   13   50 1     
   52   13   51 1     
@<TRIPOS>SUBSTRUCTURE
      1 S1             1
@<TRIPOS>SET
LONE_PAIRS      STATIC     ATOMS    <user>   **** ""
6 46 47 48 49 50 51
DONOR_HYDROGENS      STATIC     ATOMS    <user>   **** ""
2 26 31
ATOM$BLUE        STATIC     ATOMS    COLORGROUP SYSTEM
6 46 47 48 49 50 51
ATOM$RED        STATIC     ATOMS    COLORGROUP SYSTEM
2 26 31
