AV-unprocessed.smi:2524|AV-procd|sdf|9925|dock4
  -GOLD-   2272013563D 1   1.00000     0.00000
 Structure written by MMmdl.
 36 37  0  0  0  0  0  0  0  0  3 V2000
  151.5852  145.1976  159.9327 C   0  0  0  0  0  0  0  0  0  0  0  0
  152.2281  144.3836  159.0823 C   0  0  0  0  0  0  0  0  0  0  0  0
  151.6348  143.1238  158.4874 C   0  0  0  0  0  0  0  0  0  0  0  0
  152.2703  141.8592  159.0777 C   0  0  0  0  0  0  0  0  0  0  0  0
  151.7408  140.3529  158.1451 S   0  0  0  0  0  0  0  0  0  0  0  0
  152.9640  139.7783  157.5596 O   0  0  0  0  0  0  0  0  0  0  0  0
  151.0316  139.5213  159.1293 O   0  0  0  0  0  0  0  0  0  0  0  0
  150.7116  140.9711  157.0490 N   0  5  0  0  0  0  0  0  0  0  0  0
  150.9652  140.8444  155.6188 C   0  0  0  0  0  0  0  0  0  0  0  0
  150.2757  139.6115  154.9980 C   0  0  0  0  0  0  0  0  0  0  0  0
  148.9022  139.9750  154.4817 C   0  0  0  0  0  0  0  0  0  0  0  0
  148.0941  139.0177  153.8202 C   0  0  0  0  0  0  0  0  0  0  0  0
  146.8224  139.3874  153.3378 C   0  0  0  0  0  0  0  0  0  0  0  0
  146.3836  140.6537  153.5018 N   0  3  0  0  0  0  0  0  0  0  0  0
  147.1171  141.6055  154.1170 C   0  0  0  0  0  0  0  0  0  0  0  0
  148.3957  141.2907  154.6196 C   0  0  0  0  0  0  0  0  0  0  0  0
  151.0588  138.5507  154.2373 C   0  0  0  0  0  0  0  0  0  0  0  0
  150.4572  138.2180  155.5818 C   0  0  0  0  0  0  0  0  0  0  0  0
  150.5740  144.9906  160.2511 H   0  0  0  0  0  0  0  0  0  0  0  0
  152.0643  146.0835  160.3224 H   0  0  0  0  0  0  0  0  0  0  0  0
  153.2390  144.6223  158.7854 H   0  0  0  0  0  0  0  0  0  0  0  0
  150.5571  143.1105  158.6546 H   0  0  0  0  0  0  0  0  0  0  0  0
  151.7858  143.1504  157.4079 H   0  0  0  0  0  0  0  0  0  0  0  0
  153.3580  141.9178  159.0347 H   0  0  0  0  0  0  0  0  0  0  0  0
  151.9817  141.7428  160.1219 H   0  0  0  0  0  0  0  0  0  0  0  0
  150.6176  141.7221  155.0725 H   0  0  0  0  0  0  0  0  0  0  0  0
  152.0342  140.7726  155.4151 H   0  0  0  0  0  0  0  0  0  0  0  0
  148.4472  138.0049  153.6894 H   0  0  0  0  0  0  0  0  0  0  0  0
  146.1488  138.7133  152.8292 H   0  0  0  0  0  0  0  0  0  0  0  0
  146.6633  142.5832  154.1878 H   0  0  0  0  0  0  0  0  0  0  0  0
  148.9843  142.0514  155.1119 H   0  0  0  0  0  0  0  0  0  0  0  0
  150.5912  138.1019  153.3633 H   0  0  0  0  0  0  0  0  0  0  0  0
  152.1463  138.5970  154.1964 H   0  0  0  0  0  0  0  0  0  0  0  0
  151.1602  138.0560  156.3978 H   0  0  0  0  0  0  0  0  0  0  0  0
  149.5973  137.5510  155.5845 H   0  0  0  0  0  0  0  0  0  0  0  0
  145.4602  140.9016  153.1453 H   0  0  0  0  0  0  0  0  0  0  0  0
  1  2  2  0  0  0  0
  1 19  1  0  0  0  0
  1 20  1  0  0  0  0
  2  3  1  0  0  0  0
  2 21  1  0  0  0  0
  3  4  1  0  0  0  0
  3 22  1  0  0  0  0
  3 23  1  0  0  0  0
  4  5  1  0  0  0  0
  4 24  1  0  0  0  0
  4 25  1  0  0  0  0
  5  6  2  0  0  0  0
  5  7  2  0  0  0  0
  5  8  1  0  0  0  0
  8  9  1  0  0  0  0
  9 10  1  0  0  0  0
  9 26  1  0  0  0  0
  9 27  1  0  0  0  0
 10 18  1  0  0  0  0
 10 11  1  0  0  0  0
 10 17  1  0  0  0  0
 11 16  1  0  0  0  0
 11 12  2  0  0  0  0
 12 13  1  0  0  0  0
 12 28  1  0  0  0  0
 13 14  2  0  0  0  0
 13 29  1  0  0  0  0
 14 15  1  0  0  0  0
 14 36  1  0  0  0  0
 15 16  2  0  0  0  0
 15 30  1  0  0  0  0
 16 31  1  0  0  0  0
 17 18  1  0  0  0  0
 17 32  1  0  0  0  0
 17 33  1  0  0  0  0
 18 34  1  0  0  0  0
 18 35  1  0  0  0  0
M  CHG  1   8  -1
M  CHG  1  14   1
M  END
> <s_m_source_file>
AV-unprocessed.smi

> <i_m_source_file_index>
2524

> <i_lp_mmshare_version>
43012

> <i_f3d_flags>
0

> <s_epik_input>
W0NIMl09W0NIXVtDSDJdW0NIMl1TKD1PKSg9TylbTkhdW0NIMl1DMShbQ0gyXVtDSDJdMSljMltjSF1bY0hdbltjSF1bY0hdMg==

> <s_epik_cmdline>
J2VwaWtfcHl0aG9uJywgJy1waCcsICc3LjAnLCAnLXRuJywgJzgnLCAnLW1hJywgJzIwMCcsICctbWV0YWxfYmluZGluZycsICctaW1hZScsICc8aW5maWxlLm1hZT4nLCAnLW9tYWUnLCAnPG91dGZpbGUubWFlPic=

> <r_epik_Ionization_Penalty>
7.77019

> <r_epik_Ionization_Penalty_Charging>
7.77019

> <r_epik_Ionization_Penalty_Neutral>
0

> <r_epik_State_Penalty>
8.15763

> <r_epik_Charging_Adjusted_Penalty>
15.9278

> <i_epik_Tot_Q>
0

> <i_epik_Tot_abs_Q>
2

> <r_epik_Metal_State_Penalty>
4.11642

> <b_epik_Metal_Only>
1

> <s_lp_Force_Field>
OPLS_2005

> <r_lp_Energy>
17.0566

> <b_lp_Chiralities_Consistent>
1

> <s_lp_Variant>
AV-unprocessed.smi:2524-4

> <Gold.Version>
5.8.1

> <Gold.Id.Protein>
6NUR|6NUR_protein|mol2

> <Gold.PLP.Fitness>
46.5756

> <Gold.PLP.PLP>
-39.3751

> <Gold.PLP.part.hbond>
-2.2106

> <Gold.PLP.part.metal>
0.0000

> <Gold.PLP.part.buried>
-3.0337

> <Gold.PLP.part.nonpolar>
-34.6246

> <Gold.PLP.part.repulsive>
0.0547

> <Gold.PLP.ligand.clash>
0.0485

> <Gold.PLP.ligand.torsion>
2.0813

> <Gold.PLP.Chemscore.Hbond>
2.9840

> <Gold.PLP.Chemscore.CHOScore>
0.0000

> <Gold.PLP.Chemscore.Metal>
0.0000

> <Gold.Chemscore.Hbonds>
donor molecule, donor type, donor heavy atom, donor atom, acceptor molecule, acceptor atom, score
      L1  H    14    36       P1 10175  2.00
      P1  H  7997  8009       L1     6  1.00

> <Gold.PLP.Chemscore.Internal.Correction>
2.4595

> <Gold.Rescore>
     Score         DG    S(hbond)    S(metal)    S(lipo)     H(rot)  DE(clash)    DE(int)     intcor
     17.37     -19.68       1.96        0.00     102.61       1.70       0.28       2.03       ----

> <Gold.Chemscore.Fitness>
17.3702

> <Gold.Chemscore.DG>
-19.6832

> <Gold.Chemscore.ZeroCoef>
-5.4800

> <Gold.Chemscore.Hbond>
1.9626

> <Gold.Chemscore.Metal>
0.0000

> <Gold.Chemscore.Lipo>
102.6086

> <Gold.Chemscore.Internal_Hbond>
0.0000

> <Gold.Chemscore.DEClash>
0.2836

> <Gold.Chemscore.DEInternal>
2.0294

> <Gold.Chemscore.Rot>
1.7020

> <Gold.Chemscore.Internal.Correction>
   9.000000E+99

> <Gold.Chemscore.Hbonds>
donor molecule, donor type, donor heavy atom, donor atom, acceptor molecule, acceptor atom, score
      L1  H    14    36       P1 10175  0.48
      P1  H  7997  8009       L1     6  0.99

> <Gold.Chemscore.Hbond.Weighted>
-6.5552

> <Gold.Chemscore.Metal.Weighted>
-0.0000

> <Gold.Chemscore.Lipo.Weighted>
-12.0052

> <Gold.Chemscore.Internal_Hbond.Weighted>
0.0000

> <Gold.Chemscore.DEClash.Weighted>
0.2836

> <Gold.Chemscore.DEInternal.Weighted>
2.0294

> <Gold.Chemscore.Rot.Weighted>
4.3572

> <Gold.Chemscore.Internal.Correction.Weighted>
   9.000000E+99

> <Gold.Protein.RotatedTorsions>
[ 6907 6896 6895 6894 ] final   37.17 input  -60.11 | X-H torsion
[ 7974 7965 7964 7962 ] final  167.14 input  175.53 | X-H torsion
[ 8008 7997 7996 7995 ] final  177.96 input   59.86 | X-H torsion
[ 10167 10162 10161 10158 ] final  113.73 input  -65.29 | X-H torsion
[ 10718 10713 10712 10709 ] final   75.51 input   66.30 | X-H torsion
[ 10763 10752 10751 10750 ] final  -77.32 input  -60.55 | X-H torsion
[ 11005 11000 10999 10996 ] final  157.03 input  -57.11 | X-H torsion

> <Gold.Protein.ActiveResidues>
 VAL166  LYS551  ARG553  GLY616  TRP617  ASP618  TYR619  PRO620  LYS621  CYS622 
 ASP623  PHE694  ASN695  SER759  ASP760  ASP761  ALA762  ILE779  LEU786  VAL792 
 PHE793  MET794  SER795  GLU796  ALA797  LYS798  CYS799  TRP800  GLU811  SER814 

> <Gold.Protein.RotatedAtoms>
  152.1396  134.9073  160.0554 H   0  0  0  0  0  0  0  0  0  0  0  0  # atno 6907 bound_to 6896
  152.0146  133.3870  159.4242 H   0  0  0  0  0  0  0  0  0  0  0  0  # atno 6908 bound_to 6896
  150.6864  134.3614  159.4996 H   0  0  0  0  0  0  0  0  0  0  0  0  # atno 6909 bound_to 6896
  144.7435  139.8718  143.6389 H   0  0  0  0  0  0  0  0  0  0  0  0  # atno 7974 bound_to 7965
  156.0599  140.1345  156.9954 H   0  0  0  0  0  0  0  0  0  0  0  0  # atno 8008 bound_to 7997
  154.4476  140.0993  156.6572 H   0  0  0  0  0  0  0  0  0  0  0  0  # atno 8009 bound_to 7997
  155.5394  140.3460  155.4445 H   0  0  0  0  0  0  0  0  0  0  0  0  # atno 8010 bound_to 7997
  139.6440  144.7125  151.2180 H   0  0  0  0  0  0  0  0  0  0  0  0  # atno 10167 bound_to 10162
  157.6637  130.9730  150.1364 H   0  0  0  0  0  0  0  0  0  0  0  0  # atno 10718 bound_to 10713
  154.5115  135.5768  153.6608 H   0  0  0  0  0  0  0  0  0  0  0  0  # atno 10763 bound_to 10752
  152.9898  135.6160  154.2873 H   0  0  0  0  0  0  0  0  0  0  0  0  # atno 10764 bound_to 10752
  154.2788  135.2851  155.2686 H   0  0  0  0  0  0  0  0  0  0  0  0  # atno 10765 bound_to 10752
  140.1731  134.8529  157.2714 H   0  0  0  0  0  0  0  0  0  0  0  0  # atno 11005 bound_to 11000
  146.1275  139.4304  143.0190 LP  0  0  0  0  0  0  0  0  0  0  0  0  # atno 17320 bound_to 7965
  145.7213  141.0074  143.1401 LP  0  0  0  0  0  0  0  0  0  0  0  0  # atno 17321 bound_to 7965
  140.7505  143.6263  150.8465 LP  0  0  0  0  0  0  0  0  0  0  0  0  # atno 17342 bound_to 10162
  139.9904  143.5853  152.2912 LP  0  0  0  0  0  0  0  0  0  0  0  0  # atno 17343 bound_to 10162
  156.2198  130.3673  149.8570 LP  0  0  0  0  0  0  0  0  0  0  0  0  # atno 17370 bound_to 10713
  156.6426  130.8711  151.3517 LP  0  0  0  0  0  0  0  0  0  0  0  0  # atno 17371 bound_to 10713
  140.2354  134.3859  155.7503 LP  0  0  0  0  0  0  0  0  0  0  0  0  # atno 17394 bound_to 11000
  141.2219  133.7237  156.8706 LP  0  0  0  0  0  0  0  0  0  0  0  0  # atno 17395 bound_to 11000

$$$$
