#       Name:                AV-unprocessed.smi:2248
#       Creating user name   scv26
#       Creation time:       Fri Mar 27 12:29:43 2020


#       File generated by GOLD software.
#

@<TRIPOS>MOLECULE
AV-unprocessed.smi:2248
    40    41     1
SMALL
NO_CHARGES


@<TRIPOS>ATOM
      1 ****        -3.1559   4.4657  -0.0734 C.3            1 S1                 0.0000
      2 ****        -3.3679   2.9914   0.1988 C.ar           1 S1                 0.0000
      3 ****        -4.6656   2.4498   0.2825 C.ar           1 S1                 0.0000
      4 ****        -4.7935   1.0720   0.5332 C.ar           1 S1                 0.0000
      5 ****        -3.6274   0.2979   0.6875 C.ar           1 S1                 0.0000
      6 ****        -2.3622   0.9197   0.5893 C.ar           1 S1                 0.0000
      7 ****        -1.2503   0.0524   0.7574 N.am           1 S1                 0.0000
      8 ****         0.0576   0.3639   0.7374 C.2            1 S1                 0.0000
      9 ****         0.5199   1.4958   0.5893 O.2            1 S1                 0.0000
     10 ****         0.8180  -0.7279   0.9007 N.am           1 S1                 0.0000
     11 ****         2.2764  -0.7363   0.9043 C.3            1 S1                 0.0000
     12 ****         2.7905  -2.0699   1.3764 C.2            1 S1                 0.0000
     13 ****         3.5725  -2.6681   0.4804 C.2            1 S1                 0.0000
     14 ****         3.7321  -1.8595  -0.7811 C.3            1 S1                 0.0000
     15 ****         3.3422  -2.6374  -2.0524 C.3            1 S1                 0.0000
     16 ****         2.0078  -3.1022  -1.9947 O.3            1 S1                 0.0000
     17 ****         2.8782  -0.5922  -0.5194 C.3            1 S1                 0.0000
     18 ****        -2.2494   2.2495   0.3469 N.ar           1 S1                 0.0000
     19 ****         2.6580   0.0393   1.5705 H              1 S1                 0.0000
     20 ****         4.7821  -1.5741  -0.8544 H              1 S1                 0.0000
     21 ****        -4.0804   5.0281   0.0615 H              1 S1                 0.0000
     22 ****        -2.8117   4.6134  -1.0972 H              1 S1                 0.0000
     23 ****        -2.4073   4.8775   0.6042 H              1 S1                 0.0000
     24 ****        -5.5405   3.0710   0.1580 H              1 S1                 0.0000
     25 ****        -5.7696   0.6154   0.6050 H              1 S1                 0.0000
     26 ****        -3.7084  -0.7622   0.8796 H              1 S1                 0.0000
     27 ****        -1.4768  -0.9205   0.9006 H              1 S1                 0.0000
     28 ****         0.3582  -1.6195   1.0127 H              1 S1                 0.0000
     29 ****         2.5432  -2.4696   2.3489 H              1 S1                 0.0000
     30 ****         4.0524  -3.6262   0.6147 H              1 S1                 0.0000
     31 ****         3.4573  -2.0040  -2.9325 H              1 S1                 0.0000
     32 ****         4.0034  -3.4936  -2.1881 H              1 S1                 0.0000
     33 ****         1.8170  -3.5670  -2.7950 H              1 S1                 0.0000
     34 ****         2.1006  -0.4745  -1.2756 H              1 S1                 0.0000
     35 ****         3.4992   0.3023  -0.5771 H              1 S1                 0.0000
     36 ****        -0.0950   2.2755   0.4709 LP             1 S1                 0.0000
     37 ****         1.5101   1.6352   0.5875 LP             1 S1                 0.0000
     38 ****         1.3843  -2.3263  -1.8984 LP             1 S1                 0.0000
     39 ****         1.8982  -3.7168  -1.2134 LP             1 S1                 0.0000
     40 ****        -1.3475   2.6759   0.2786 LP             1 S1                 0.0000
@<TRIPOS>BOND
    1    1    2 1     
    2    1   21 1     
    3    1   22 1     
    4    1   23 1     
    5    2   18 ar    
    6    2    3 ar    
    7    3    4 ar    
    8    3   24 1     
    9    4    5 ar    
   10    4   25 1     
   11    5    6 ar    
   12    5   26 1     
   13    6    7 1     
   14    6   18 ar    
   15    7    8 am    
   16    7   27 1     
   17    8    9 2     
   18    8   10 am    
   19   10   11 1     
   20   10   28 1     
   21   11   19 1     
   22   11   17 1     
   23   11   12 1     
   24   12   13 2     
   25   12   29 1     
   26   13   14 1     
   27   13   30 1     
   28   14   20 1     
   29   14   15 1     
   30   14   17 1     
   31   15   16 1     
   32   15   31 1     
   33   15   32 1     
   34   16   33 1     
   35   17   34 1     
   36   17   35 1     
   37    9   36 1     
   38    9   37 1     
   39   16   38 1     
   40   16   39 1     
   41   18   40 1     
@<TRIPOS>SUBSTRUCTURE
      1 S1             1
@<TRIPOS>SET
LONE_PAIRS      STATIC     ATOMS    <user>   **** ""
5 36 37 38 39 40
DONOR_HYDROGENS      STATIC     ATOMS    <user>   **** ""
3 27 28 33
ATOM$BLUE        STATIC     ATOMS    COLORGROUP SYSTEM
5 36 37 38 39 40
ATOM$RED        STATIC     ATOMS    COLORGROUP SYSTEM
3 27 28 33
