AV-unprocessed.smi:159|AV-procd|sdf|1339|dock4
  -GOLD-   2262019 33D 1   1.00000     0.00000
 Structure written by MMmdl.
 28 29  0  0  0  0  0  0  0  0  1 V2000
  149.2706  138.8090  153.2521 N   0  0  0  0  0  0  0  0  0  0  0  0
  149.4904  139.3761  154.4465 C   0  0  0  0  0  0  0  0  0  0  0  0
  149.5487  140.8151  154.5723 C   0  0  0  0  0  0  0  0  0  0  0  0
  149.7692  141.3107  155.8098 C   0  0  0  0  0  0  0  0  0  0  0  0
  149.9240  140.4904  156.9187 N   0  0  0  0  0  0  0  0  0  0  0  0
  150.1747  141.0734  158.2916 C   0  0  1  0  0  0  0  0  0  0  0  0
  151.5174  140.5824  158.8451 C   0  0  0  0  0  0  0  0  0  0  0  0
  152.4010  141.7968  158.6538 C   0  0  0  0  0  0  0  0  0  0  0  0
  151.4095  142.9429  158.8425 C   0  0  1  0  0  0  0  0  0  0  0  0
  151.8766  144.2641  158.2144 C   0  0  0  0  0  0  0  0  0  0  0  0
  150.7660  145.0943  157.9512 O   0  0  0  0  0  0  0  0  0  0  0  0
  150.2398  142.4658  158.1854 O   0  0  0  0  0  0  0  0  0  0  0  0
  149.8839  139.0838  156.7599 C   0  0  0  0  0  0  0  0  0  0  0  0
  150.0552  138.3161  157.7063 O   0  0  0  0  0  0  0  0  0  0  0  0
  149.6557  138.5997  155.4996 N   0  0  0  0  0  0  0  0  0  0  0  0
  149.3217  140.8092  158.9187 H   0  0  0  0  0  0  0  0  0  0  0  0
  151.2038  143.0642  159.9080 H   0  0  0  0  0  0  0  0  0  0  0  0
  149.2335  137.8036  153.1667 H   0  0  0  0  0  0  0  0  0  0  0  0
  149.1471  139.3916  152.4364 H   0  0  0  0  0  0  0  0  0  0  0  0
  149.4259  141.4908  153.7379 H   0  0  0  0  0  0  0  0  0  0  0  0
  149.8237  142.3838  155.9193 H   0  0  0  0  0  0  0  0  0  0  0  0
  151.3961  140.3579  159.9055 H   0  0  0  0  0  0  0  0  0  0  0  0
  151.8770  139.6888  158.3331 H   0  0  0  0  0  0  0  0  0  0  0  0
  153.2318  141.8335  159.3589 H   0  0  0  0  0  0  0  0  0  0  0  0
  152.8110  141.8056  157.6430 H   0  0  0  0  0  0  0  0  0  0  0  0
  152.5264  144.7989  158.9077 H   0  0  0  0  0  0  0  0  0  0  0  0
  152.4480  144.0908  157.3021 H   0  0  0  0  0  0  0  0  0  0  0  0
  150.3432  144.7903  157.1626 H   0  0  0  0  0  0  0  0  0  0  0  0
  1  2  1  0  0  0  0
  1 18  1  0  0  0  0
  1 19  1  0  0  0  0
  2 15  2  0  0  0  0
  2  3  1  0  0  0  0
  3  4  2  0  0  0  0
  3 20  1  0  0  0  0
  4  5  1  0  0  0  0
  4 21  1  0  0  0  0
  5  6  1  0  0  0  0
  5 13  1  0  0  0  0
  6 16  1  0  0  0  0
  6 12  1  0  0  0  0
  6  7  1  0  0  0  0
  7  8  1  0  0  0  0
  7 22  1  0  0  0  0
  7 23  1  0  0  0  0
  8  9  1  0  0  0  0
  8 24  1  0  0  0  0
  8 25  1  0  0  0  0
  9 17  1  0  0  0  0
  9 10  1  0  0  0  0
  9 12  1  0  0  0  0
 10 11  1  0  0  0  0
 10 26  1  0  0  0  0
 10 27  1  0  0  0  0
 11 28  1  0  0  0  0
 13 14  2  0  0  0  0
 13 15  1  0  0  0  0
M  END
> <s_m_source_file>
AV-unprocessed.smi

> <i_m_source_file_index>
159

> <i_lp_mmshare_version>
43012

> <i_f3d_flags>
0

> <s_epik_input>
W05IMl1jMVtjSF1bY0hdbihjKD1PKW4xKVtDQEhdMltDSDJdW0NIMl1bQ0BIXShPMilbQ0gyXVtPSF0=

> <s_epik_cmdline>
J2VwaWtfcHl0aG9uJywgJy1waCcsICc3LjAnLCAnLXRuJywgJzgnLCAnLW1hJywgJzIwMCcsICctbWV0YWxfYmluZGluZycsICctaW1hZScsICc8aW5maWxlLm1hZT4nLCAnLW9tYWUnLCAnPG91dGZpbGUubWFlPic=

> <r_lp_tautomer_probability>
0.99996

> <r_epik_Ionization_Penalty>
0.00126102

> <r_epik_Ionization_Penalty_Charging>
4.46248e-08

> <r_epik_Ionization_Penalty_Neutral>
0.00126097

> <r_epik_State_Penalty>
1.15523e-05

> <r_epik_Charging_Adjusted_Penalty>
1.1597e-05

> <i_epik_Tot_Q>
0

> <i_epik_Tot_abs_Q>
0

> <r_epik_Metal_State_Penalty>
-0

> <b_epik_Metal_Only>
0

> <s_epik_Chemistry_Notes>
This compound contains an acetal/aminal-like group ( X-CH(R)-Y where X, Y are N, S, or O) that may be acid/base labile, releasing an aldehyde.

> <s_lp_Force_Field>
OPLS_2005

> <r_lp_Energy>
25.8801

> <b_lp_Chiralities_Consistent>
1

> <s_lp_Variant>
AV-unprocessed.smi:159-1

> <Gold.Version>
5.8.1

> <Gold.Id.Protein>
6NUR|6NUR_protein|mol2

> <Gold.PLP.Fitness>
35.6118

> <Gold.PLP.PLP>
-24.3993

> <Gold.PLP.part.hbond>
-3.7288

> <Gold.PLP.part.metal>
0.0000

> <Gold.PLP.part.buried>
-2.0007

> <Gold.PLP.part.nonpolar>
-18.4197

> <Gold.PLP.part.repulsive>
0.2599

> <Gold.PLP.ligand.clash>
0.0000

> <Gold.PLP.ligand.torsion>
0.2063

> <Gold.PLP.Chemscore.Hbond>
2.8706

> <Gold.PLP.Chemscore.CHOScore>
1.0000

> <Gold.PLP.Chemscore.Metal>
0.0000

> <Gold.Chemscore.Hbonds>
donor molecule, donor type, donor heavy atom, donor atom, acceptor molecule, acceptor atom, score
      L1  H     1    18       P1  7948  0.87
      L1  H     1    19       P1  7957  0.91
      L1  H    11    28       P1  8028  0.94
      L1  C     4    21       P1  8028  1.00

> <Gold.PLP.Chemscore.Internal.Correction>
0.0134

> <Gold.Rescore>
     Score         DG    S(hbond)    S(metal)    S(lipo)     H(rot)  DE(clash)    DE(int)     intcor
     12.67     -14.17       2.44        0.00      50.38       2.09       0.09       1.41       ----

> <Gold.Chemscore.Fitness>
12.6652

> <Gold.Chemscore.DG>
-14.1677

> <Gold.Chemscore.ZeroCoef>
-5.4800

> <Gold.Chemscore.Hbond>
2.4410

> <Gold.Chemscore.Metal>
0.0000

> <Gold.Chemscore.Lipo>
50.3777

> <Gold.Chemscore.Internal_Hbond>
0.0000

> <Gold.Chemscore.DEClash>
0.0890

> <Gold.Chemscore.DEInternal>
1.4135

> <Gold.Chemscore.Rot>
2.0935

> <Gold.Chemscore.Internal.Correction>
   9.000000E+99

> <Gold.Chemscore.Hbonds>
donor molecule, donor type, donor heavy atom, donor atom, acceptor molecule, acceptor atom, score
      L1  H     1    18       P1  7948  0.79
      L1  H     1    19       P1  7957  0.86
      L1  H    11    28       P1  8028  0.35

> <Gold.Chemscore.Hbond.Weighted>
-8.1529

> <Gold.Chemscore.Metal.Weighted>
-0.0000

> <Gold.Chemscore.Lipo.Weighted>
-5.8942

> <Gold.Chemscore.Internal_Hbond.Weighted>
0.0000

> <Gold.Chemscore.DEClash.Weighted>
0.0890

> <Gold.Chemscore.DEInternal.Weighted>
1.4135

> <Gold.Chemscore.Rot.Weighted>
5.3594

> <Gold.Chemscore.Internal.Correction.Weighted>
   9.000000E+99

> <Gold.Protein.RotatedTorsions>
[ 6907 6896 6895 6894 ] final -115.99 input  -60.11 | X-H torsion
[ 7974 7965 7964 7962 ] final  -71.83 input  175.53 | X-H torsion
[ 8008 7997 7996 7995 ] final -177.39 input   59.86 | X-H torsion
[ 10167 10162 10161 10158 ] final -100.24 input  -65.29 | X-H torsion
[ 10718 10713 10712 10709 ] final   95.00 input   66.30 | X-H torsion
[ 10763 10752 10751 10750 ] final  124.87 input  -60.55 | X-H torsion
[ 11005 11000 10999 10996 ] final -147.42 input  -57.11 | X-H torsion

> <Gold.Protein.ActiveResidues>
 VAL166  LYS551  ARG553  GLY616  TRP617  ASP618  TYR619  PRO620  LYS621  CYS622 
 ASP623  PHE694  ASN695  SER759  ASP760  ASP761  ALA762  ILE779  LEU786  VAL792 
 PHE793  MET794  SER795  GLU796  ALA797  LYS798  CYS799  TRP800  GLU811  SER814 

> <Gold.Protein.RotatedAtoms>
  150.8021  133.8579  159.3223 H   0  0  0  0  0  0  0  0  0  0  0  0  # atno 6907 bound_to 6896
  151.6389  135.1013  160.0146 H   0  0  0  0  0  0  0  0  0  0  0  0  # atno 6908 bound_to 6896
  152.4109  133.6922  159.6432 H   0  0  0  0  0  0  0  0  0  0  0  0  # atno 6909 bound_to 6896
  145.6729  140.9214  143.0873 H   0  0  0  0  0  0  0  0  0  0  0  0  # atno 7974 bound_to 7965
  156.0064  140.1231  157.0497 H   0  0  0  0  0  0  0  0  0  0  0  0  # atno 8008 bound_to 7997
  154.4260  140.1096  156.5837 H   0  0  0  0  0  0  0  0  0  0  0  0  # atno 8009 bound_to 7997
  155.6141  140.3472  155.4633 H   0  0  0  0  0  0  0  0  0  0  0  0  # atno 8010 bound_to 7997
  140.2540  143.3453  152.0688 H   0  0  0  0  0  0  0  0  0  0  0  0  # atno 10167 bound_to 10162
  157.6943  131.0531  150.4272 H   0  0  0  0  0  0  0  0  0  0  0  0  # atno 10718 bound_to 10713
  153.6683  135.3334  155.3146 H   0  0  0  0  0  0  0  0  0  0  0  0  # atno 10763 bound_to 10752
  154.8497  135.4380  154.1732 H   0  0  0  0  0  0  0  0  0  0  0  0  # atno 10764 bound_to 10752
  153.2716  135.7001  153.7551 H   0  0  0  0  0  0  0  0  0  0  0  0  # atno 10765 bound_to 10752
  140.7718  134.3180  157.5072 H   0  0  0  0  0  0  0  0  0  0  0  0  # atno 11005 bound_to 11000
  144.7051  139.8596  143.7432 LP  0  0  0  0  0  0  0  0  0  0  0  0  # atno 17320 bound_to 7965
  146.1030  139.4027  143.0335 LP  0  0  0  0  0  0  0  0  0  0  0  0  # atno 17321 bound_to 7965
  139.5037  144.6761  151.6124 LP  0  0  0  0  0  0  0  0  0  0  0  0  # atno 17342 bound_to 10162
  140.6018  143.9595  150.6391 LP  0  0  0  0  0  0  0  0  0  0  0  0  # atno 17343 bound_to 10162
  156.4642  130.4038  149.6557 LP  0  0  0  0  0  0  0  0  0  0  0  0  # atno 17370 bound_to 10713
  156.3661  130.7506  151.2484 LP  0  0  0  0  0  0  0  0  0  0  0  0  # atno 17371 bound_to 10713
  139.8754  134.9266  156.3403 LP  0  0  0  0  0  0  0  0  0  0  0  0  # atno 17394 bound_to 11000
  140.9566  133.7416  156.0344 LP  0  0  0  0  0  0  0  0  0  0  0  0  # atno 17395 bound_to 11000

$$$$
