AV-unprocessed.smi:275|AV-procd|sdf|2067|dock4
  -GOLD-   2262021323D 1   1.00000     0.00000
 Structure written by MMmdl.
 65 69  0  0  0  0  0  0  0  0  1 V2000
  148.8552  133.0098  152.7893 C   0  0  0  0  0  0  0  0  0  0  0  0
  147.9278  131.8837  153.2685 C   0  0  0  0  0  0  0  0  0  0  0  0
  146.9557  132.4298  154.3383 C   0  0  0  0  0  0  0  0  0  0  0  0
  148.7349  130.6149  153.6531 C   0  0  1  0  0  0  0  0  0  0  0  0
  149.2640  130.7104  155.0160 N   0  0  0  0  0  0  0  0  0  0  0  0
  150.6548  130.4106  155.1974 C   0  0  0  0  0  0  0  0  0  0  0  0
  151.1601  129.2830  154.6263 N   0  0  0  0  0  0  0  0  0  0  0  0
  152.4437  128.9421  154.7616 C   0  0  0  0  0  0  0  0  0  0  0  0
  153.4032  129.5713  155.4367 N   0  0  0  0  0  0  0  0  0  0  0  0
  152.9158  130.6874  156.0459 C   0  0  0  0  0  0  0  0  0  0  0  0
  151.5743  131.1684  155.9865 C   0  0  0  0  0  0  0  0  0  0  0  0
  151.4678  132.3236  156.7538 N   0  0  0  0  0  0  0  0  0  0  0  0
  152.6684  132.5205  157.2232 C   0  0  0  0  0  0  0  0  0  0  0  0
  153.6031  131.5892  156.8390 N   0  0  0  0  0  0  0  0  0  0  0  0
  155.0077  131.5691  157.2089 C   0  0  0  0  0  0  0  0  0  0  0  0
  155.6800  130.1932  156.9749 C   0  0  2  0  0  0  0  0  0  0  0  0
  156.3696  129.6391  158.2460 C   0  0  0  0  0  0  0  0  0  0  0  0
  157.3189  130.5511  158.7590 O   0  0  0  0  0  0  0  0  0  0  0  0
  156.6347  130.2280  155.7548 C   0  0  1  0  0  0  0  0  0  0  0  0
  157.1140  128.8683  155.2772 C   0  0  0  0  0  0  0  0  0  0  0  0
  157.5999  129.1764  153.8652 C   0  0  0  0  0  0  0  0  0  0  0  0
  156.7610  130.2229  153.3899 O   0  0  0  0  0  0  0  0  0  0  0  0
  156.0051  130.7684  154.4664 C   0  0  0  0  0  0  0  0  0  0  0  0
  148.3158  129.7169  155.5178 C   0  0  0  0  0  0  0  0  0  0  0  0
  148.0783  129.2705  154.0688 C   0  0  0  0  0  0  0  0  0  0  0  0
  148.8542  127.9974  153.6624 C   0  0  0  0  0  0  0  0  0  0  0  0
  148.7385  127.6665  152.1649 C   0  0  0  0  0  0  0  0  0  0  0  0
  147.2734  127.4843  151.7542 C   0  0  0  0  0  0  0  0  0  0  0  0
  146.4333  128.6964  152.1710 C   0  0  0  0  0  0  0  0  0  0  0  0
  146.6111  129.0127  153.6673 C   0  0  0  0  0  0  0  0  0  0  0  0
  149.5030  133.3572  153.5946 H   0  0  0  0  0  0  0  0  0  0  0  0
  148.2832  133.8665  152.4322 H   0  0  0  0  0  0  0  0  0  0  0  0
  149.4893  132.6764  151.9676 H   0  0  0  0  0  0  0  0  0  0  0  0
  147.3141  131.6306  152.4050 H   0  0  0  0  0  0  0  0  0  0  0  0
  147.4875  132.7872  155.2205 H   0  0  0  0  0  0  0  0  0  0  0  0
  146.2299  131.6899  154.6671 H   0  0  0  0  0  0  0  0  0  0  0  0
  146.3871  133.2726  153.9449 H   0  0  0  0  0  0  0  0  0  0  0  0
  149.5026  130.3996  152.9117 H   0  0  0  0  0  0  0  0  0  0  0  0
  152.7434  128.0354  154.2572 H   0  0  0  0  0  0  0  0  0  0  0  0
  152.9080  133.3576  157.8627 H   0  0  0  0  0  0  0  0  0  0  0  0
  155.5092  132.3451  156.6305 H   0  0  0  0  0  0  0  0  0  0  0  0
  155.0993  131.8609  158.2557 H   0  0  0  0  0  0  0  0  0  0  0  0
  154.8799  129.4916  156.7340 H   0  0  0  0  0  0  0  0  0  0  0  0
  155.6395  129.4200  159.0251 H   0  0  0  0  0  0  0  0  0  0  0  0
  156.8716  128.6951  158.0353 H   0  0  0  0  0  0  0  0  0  0  0  0
  157.2117  131.3787  158.3155 H   0  0  0  0  0  0  0  0  0  0  0  0
  157.5087  130.8376  155.9913 H   0  0  0  0  0  0  0  0  0  0  0  0
  157.8997  128.4432  155.9026 H   0  0  0  0  0  0  0  0  0  0  0  0
  156.2839  128.1612  155.2413 H   0  0  0  0  0  0  0  0  0  0  0  0
  158.6284  129.5387  153.8877 H   0  0  0  0  0  0  0  0  0  0  0  0
  157.5612  128.3052  153.2108 H   0  0  0  0  0  0  0  0  0  0  0  0
  154.9740  130.4263  154.3656 H   0  0  0  0  0  0  0  0  0  0  0  0
  156.0030  131.8580  154.4286 H   0  0  0  0  0  0  0  0  0  0  0  0
  148.7079  128.9299  156.1620 H   0  0  0  0  0  0  0  0  0  0  0  0
  147.4449  130.1885  155.9722 H   0  0  0  0  0  0  0  0  0  0  0  0
  149.9112  128.0925  153.9115 H   0  0  0  0  0  0  0  0  0  0  0  0
  148.4993  127.1452  154.2435 H   0  0  0  0  0  0  0  0  0  0  0  0
  149.1896  128.4645  151.5740 H   0  0  0  0  0  0  0  0  0  0  0  0
  149.3013  126.7604  151.9392 H   0  0  0  0  0  0  0  0  0  0  0  0
  147.2001  127.3269  150.6778 H   0  0  0  0  0  0  0  0  0  0  0  0
  146.8735  126.5866  152.2274 H   0  0  0  0  0  0  0  0  0  0  0  0
  146.7210  129.5584  151.5699 H   0  0  0  0  0  0  0  0  0  0  0  0
  145.3815  128.5084  151.9535 H   0  0  0  0  0  0  0  0  0  0  0  0
  146.2133  128.1815  154.2510 H   0  0  0  0  0  0  0  0  0  0  0  0
  145.9775  129.8591  153.9200 H   0  0  0  0  0  0  0  0  0  0  0  0
  1  2  1  0  0  0  0
  1 31  1  0  0  0  0
  1 32  1  0  0  0  0
  1 33  1  0  0  0  0
  2  3  1  0  0  0  0
  2  4  1  0  0  0  0
  2 34  1  0  0  0  0
  3 35  1  0  0  0  0
  3 36  1  0  0  0  0
  3 37  1  0  0  0  0
  4 25  1  0  0  0  0
  4  5  1  0  0  0  0
  4 38  1  0  0  0  0
  5  6  1  0  0  0  0
  5 24  1  0  0  0  0
  6 11  1  0  0  0  0
  6  7  2  0  0  0  0
  7  8  1  0  0  0  0
  8  9  2  0  0  0  0
  8 39  1  0  0  0  0
  9 10  1  0  0  0  0
 10 14  1  0  0  0  0
 10 11  2  0  0  0  0
 11 12  1  0  0  0  0
 12 13  2  0  0  0  0
 13 14  1  0  0  0  0
 13 40  1  0  0  0  0
 14 15  1  0  0  0  0
 15 16  1  0  0  0  0
 15 41  1  0  0  0  0
 15 42  1  0  0  0  0
 16 17  1  0  0  0  0
 16 19  1  0  0  0  0
 16 43  1  0  0  0  0
 17 18  1  0  0  0  0
 17 44  1  0  0  0  0
 17 45  1  0  0  0  0
 18 46  1  0  0  0  0
 19 23  1  0  0  0  0
 19 20  1  0  0  0  0
 19 47  1  0  0  0  0
 20 21  1  0  0  0  0
 20 48  1  0  0  0  0
 20 49  1  0  0  0  0
 21 22  1  0  0  0  0
 21 50  1  0  0  0  0
 21 51  1  0  0  0  0
 22 23  1  0  0  0  0
 23 52  1  0  0  0  0
 23 53  1  0  0  0  0
 24 25  1  0  0  0  0
 24 54  1  0  0  0  0
 24 55  1  0  0  0  0
 25 30  1  0  0  0  0
 25 26  1  0  0  0  0
 26 27  1  0  0  0  0
 26 56  1  0  0  0  0
 26 57  1  0  0  0  0
 27 28  1  0  0  0  0
 27 58  1  0  0  0  0
 27 59  1  0  0  0  0
 28 29  1  0  0  0  0
 28 60  1  0  0  0  0
 28 61  1  0  0  0  0
 29 30  1  0  0  0  0
 29 62  1  0  0  0  0
 29 63  1  0  0  0  0
 30 64  1  0  0  0  0
 30 65  1  0  0  0  0
M  END
> <s_m_source_file>
AV-unprocessed.smi

> <i_m_source_file_index>
275

> <i_lp_mmshare_version>
43012

> <i_f3d_flags>
0

> <s_epik_input>
W0NIMl0xW0NIMl1bQ0gyXVtDSDJdW0NIMl1DMTJbQ0BIXShbQ0hdKFtDSDNdKVtDSDNdKU4oW0NIMl0yKWMobltjSF1uMyljKGMzNCluW2NIXW40W0NIMl1bQ0BIXShbQ0gyXVtPSF0pW0NAQEhdNVtDSDJdW0NIMl1PW0NIMl01

> <s_epik_cmdline>
J2VwaWtfcHl0aG9uJywgJy1waCcsICc3LjAnLCAnLXRuJywgJzgnLCAnLW1hJywgJzIwMCcsICctbWV0YWxfYmluZGluZycsICctaW1hZScsICc8aW5maWxlLm1hZT4nLCAnLW9tYWUnLCAnPG91dGZpbGUubWFlPic=

> <r_lp_tautomer_probability>
1

> <r_epik_Ionization_Penalty>
0.00375122

> <r_epik_Ionization_Penalty_Charging>
0

> <r_epik_Ionization_Penalty_Neutral>
0.00375122

> <r_epik_State_Penalty>
0.00260593

> <r_epik_Charging_Adjusted_Penalty>
0.00260593

> <i_epik_Tot_Q>
0

> <i_epik_Tot_abs_Q>
0

> <r_epik_Metal_State_Penalty>
-0

> <b_epik_Metal_Only>
0

> <s_lp_Force_Field>
OPLS_2005

> <r_lp_Energy>
69.8585

> <b_lp_Chiralities_Consistent>
1

> <s_lp_Variant>
AV-unprocessed.smi:275-6

> <Gold.Version>
5.8.1

> <Gold.Id.Protein>
6NUR|6NUR_protein|mol2

> <Gold.PLP.Fitness>
43.1558

> <Gold.PLP.PLP>
-39.6048

> <Gold.PLP.part.hbond>
-1.0000

> <Gold.PLP.part.metal>
0.0000

> <Gold.PLP.part.buried>
-2.9869

> <Gold.PLP.part.nonpolar>
-36.5592

> <Gold.PLP.part.repulsive>
0.1790

> <Gold.PLP.ligand.clash>
0.0000

> <Gold.PLP.ligand.torsion>
1.3810

> <Gold.PLP.Chemscore.Hbond>
1.0000

> <Gold.PLP.Chemscore.CHOScore>
0.9448

> <Gold.PLP.Chemscore.Metal>
0.0000

> <Gold.Chemscore.Hbonds>
donor molecule, donor type, donor heavy atom, donor atom, acceptor molecule, acceptor atom, score
      P1  H 10713 10718       L1    22  0.75
      L1  C     8    39       P1 10737  0.61

> <Gold.PLP.Chemscore.Internal.Correction>
0.4786

> <Gold.Rescore>
     Score         DG    S(hbond)    S(metal)    S(lipo)     H(rot)  DE(clash)    DE(int)     intcor
      8.45     -12.40       0.97        0.00      86.90       2.54       0.05       3.90       ----

> <Gold.Chemscore.Fitness>
8.4495

> <Gold.Chemscore.DG>
-12.3955

> <Gold.Chemscore.ZeroCoef>
-5.4800

> <Gold.Chemscore.Hbond>
0.9716

> <Gold.Chemscore.Metal>
0.0000

> <Gold.Chemscore.Lipo>
86.8977

> <Gold.Chemscore.Internal_Hbond>
0.0000

> <Gold.Chemscore.DEClash>
0.0473

> <Gold.Chemscore.DEInternal>
3.8988

> <Gold.Chemscore.Rot>
2.5377

> <Gold.Chemscore.Internal.Correction>
   9.000000E+99

> <Gold.Chemscore.Hbonds>
donor molecule, donor type, donor heavy atom, donor atom, acceptor molecule, acceptor atom, score
      P1  H 10713 10718       L1    22  0.72

> <Gold.Chemscore.Hbond.Weighted>
-3.2450

> <Gold.Chemscore.Metal.Weighted>
-0.0000

> <Gold.Chemscore.Lipo.Weighted>
-10.1670

> <Gold.Chemscore.Internal_Hbond.Weighted>
0.0000

> <Gold.Chemscore.DEClash.Weighted>
0.0473

> <Gold.Chemscore.DEInternal.Weighted>
3.8988

> <Gold.Chemscore.Rot.Weighted>
6.4966

> <Gold.Chemscore.Internal.Correction.Weighted>
   9.000000E+99

> <Gold.Protein.RotatedTorsions>
[ 6907 6896 6895 6894 ] final  129.63 input  -60.11 | X-H torsion
[ 7974 7965 7964 7962 ] final  -88.65 input  175.53 | X-H torsion
[ 8008 7997 7996 7995 ] final   25.57 input   59.86 | X-H torsion
[ 10167 10162 10161 10158 ] final  114.90 input  -65.29 | X-H torsion
[ 10718 10713 10712 10709 ] final -162.58 input   66.30 | X-H torsion
[ 10763 10752 10751 10750 ] final   74.04 input  -60.55 | X-H torsion
[ 11005 11000 10999 10996 ] final  143.22 input  -57.11 | X-H torsion

> <Gold.Protein.ActiveResidues>
 VAL166  LYS551  ARG553  GLY616  TRP617  ASP618  TYR619  PRO620  LYS621  CYS622 
 ASP623  PHE694  ASN695  SER759  ASP760  ASP761  ALA762  ILE779  LEU786  VAL792 
 PHE793  MET794  SER795  GLU796  ALA797  LYS798  CYS799  TRP800  GLU811  SER814 

> <Gold.Protein.RotatedAtoms>
  152.3605  133.6291  159.6011 H   0  0  0  0  0  0  0  0  0  0  0  0  # atno 6907 bound_to 6896
  150.7598  133.9431  159.3471 H   0  0  0  0  0  0  0  0  0  0  0  0  # atno 6908 bound_to 6896
  151.7270  135.0884  160.0345 H   0  0  0  0  0  0  0  0  0  0  0  0  # atno 6909 bound_to 6896
  145.4503  140.9560  143.2026 H   0  0  0  0  0  0  0  0  0  0  0  0  # atno 7974 bound_to 7965
  155.0137  140.3139  155.4820 H   0  0  0  0  0  0  0  0  0  0  0  0  # atno 8008 bound_to 7997
  156.2904  140.2210  156.5194 H   0  0  0  0  0  0  0  0  0  0  0  0  # atno 8009 bound_to 7997
  154.7512  140.0466  157.0883 H   0  0  0  0  0  0  0  0  0  0  0  0  # atno 8010 bound_to 7997
  139.6355  144.7119  151.2343 H   0  0  0  0  0  0  0  0  0  0  0  0  # atno 10167 bound_to 10162
  156.6125  130.8856  151.2939 H   0  0  0  0  0  0  0  0  0  0  0  0  # atno 10718 bound_to 10713
  153.0560  135.5040  154.7983 H   0  0  0  0  0  0  0  0  0  0  0  0  # atno 10763 bound_to 10752
  154.6808  135.2968  154.9618 H   0  0  0  0  0  0  0  0  0  0  0  0  # atno 10764 bound_to 10752
  154.0405  135.6717  153.4842 H   0  0  0  0  0  0  0  0  0  0  0  0  # atno 10765 bound_to 10752
  140.0537  134.9242  157.1062 H   0  0  0  0  0  0  0  0  0  0  0  0  # atno 11005 bound_to 11000
  144.8066  139.6040  143.7048 LP  0  0  0  0  0  0  0  0  0  0  0  0  # atno 17320 bound_to 7965
  146.2508  139.6195  142.9428 LP  0  0  0  0  0  0  0  0  0  0  0  0  # atno 17321 bound_to 7965
  140.7463  143.6403  150.8341 LP  0  0  0  0  0  0  0  0  0  0  0  0  # atno 17342 bound_to 10162
  140.0034  143.5720  152.2867 LP  0  0  0  0  0  0  0  0  0  0  0  0  # atno 17343 bound_to 10162
  157.7250  130.9610  150.1597 LP  0  0  0  0  0  0  0  0  0  0  0  0  # atno 17370 bound_to 10713
  156.2378  130.3688  149.8371 LP  0  0  0  0  0  0  0  0  0  0  0  0  # atno 17371 bound_to 10713
  140.3878  134.2217  155.7167 LP  0  0  0  0  0  0  0  0  0  0  0  0  # atno 17394 bound_to 11000
  141.1942  133.8134  157.0767 LP  0  0  0  0  0  0  0  0  0  0  0  0  # atno 17395 bound_to 11000

$$$$
