AV-unprocessed.smi:1048|AV-procd|sdf|4605|dock5
  -GOLD-   22720 3103D 1   1.00000     0.00000
 Structure written by MMmdl.
 46 47  0  0  0  0  0  0  0  0  2 V2000
  144.7017  135.4507  151.4797 C   0  0  0  0  0  0  0  0  0  0  0  0
  145.6281  136.5569  152.0042 C   0  0  2  0  0  0  0  0  0  0  0  0
  145.0852  137.1890  153.2971 C   0  0  0  0  0  0  0  0  0  0  0  0
  145.9998  138.3210  153.7942 C   0  0  0  0  0  0  0  0  0  0  0  0
  146.1798  139.3596  152.7482 N   0  3  1  0  0  0  0  0  0  0  0  0
  146.9307  140.5423  153.2436 C   0  0  0  0  0  0  0  0  0  0  0  0
  148.3185  140.1641  153.8004 C   0  0  1  0  0  0  0  0  0  0  0  0
  149.2290  141.1565  153.3669 O   0  0  0  0  0  0  0  0  0  0  0  0
  148.3229  140.1280  155.3420 C   0  0  0  0  0  0  0  0  0  0  0  0
  148.7620  141.3968  155.9137 N   0  0  0  0  0  0  0  0  0  0  0  0
  149.7572  141.5369  156.8005 C   0  0  0  0  0  0  0  0  0  0  0  0
  150.4206  140.5926  157.2282 O   0  0  0  0  0  0  0  0  0  0  0  0
  149.9081  142.8230  157.1606 N   0  0  0  0  0  0  0  0  0  0  0  0
  150.8389  143.3844  158.0764 C   0  0  0  0  0  0  0  0  0  0  0  0
  151.7163  142.5070  158.7462 C   0  0  0  0  0  0  0  0  0  0  0  0
  152.6385  143.0312  159.6716 C   0  0  0  0  0  0  0  0  0  0  0  0
  152.6416  144.4206  159.8993 C   0  0  0  0  0  0  0  0  0  0  0  0
  151.7999  145.2737  159.2790 N   0  0  0  0  0  0  0  0  0  0  0  0
  150.9189  144.7641  158.3911 C   0  0  0  0  0  0  0  0  0  0  0  0
  146.7457  138.7822  151.5001 C   0  0  0  0  0  0  0  0  0  0  0  0
  145.8486  137.6588  150.9537 C   0  0  0  0  0  0  0  0  0  0  0  0
  143.7128  135.8418  151.2387 H   0  0  0  0  0  0  0  0  0  0  0  0
  144.5745  134.6604  152.2201 H   0  0  0  0  0  0  0  0  0  0  0  0
  145.1076  134.9939  150.5765 H   0  0  0  0  0  0  0  0  0  0  0  0
  146.5944  136.1021  152.2279 H   0  0  0  0  0  0  0  0  0  0  0  0
  144.0824  137.5826  153.1245 H   0  0  0  0  0  0  0  0  0  0  0  0
  144.9885  136.4288  154.0730 H   0  0  0  0  0  0  0  0  0  0  0  0
  145.5588  138.7677  154.6861 H   0  0  0  0  0  0  0  0  0  0  0  0
  146.9731  137.9227  154.0855 H   0  0  0  0  0  0  0  0  0  0  0  0
  147.0664  141.2633  152.4357 H   0  0  0  0  0  0  0  0  0  0  0  0
  146.3346  141.0512  154.0028 H   0  0  0  0  0  0  0  0  0  0  0  0
  148.6322  139.1951  153.4127 H   0  0  0  0  0  0  0  0  0  0  0  0
  149.3360  141.0840  152.4302 H   0  0  0  0  0  0  0  0  0  0  0  0
  147.3540  139.8198  155.7398 H   0  0  0  0  0  0  0  0  0  0  0  0
  149.0393  139.3805  155.6844 H   0  0  0  0  0  0  0  0  0  0  0  0
  148.2695  142.2267  155.6171 H   0  0  0  0  0  0  0  0  0  0  0  0
  149.2385  143.4723  156.7747 H   0  0  0  0  0  0  0  0  0  0  0  0
  151.6886  141.4446  158.5518 H   0  0  0  0  0  0  0  0  0  0  0  0
  153.3264  142.3836  160.1948 H   0  0  0  0  0  0  0  0  0  0  0  0
  153.3343  144.8579  160.6030 H   0  0  0  0  0  0  0  0  0  0  0  0
  150.2575  145.4921  157.9492 H   0  0  0  0  0  0  0  0  0  0  0  0
  146.8501  139.5526  150.7371 H   0  0  0  0  0  0  0  0  0  0  0  0
  147.7479  138.3980  151.6971 H   0  0  0  0  0  0  0  0  0  0  0  0
  146.3006  137.2333  150.0570 H   0  0  0  0  0  0  0  0  0  0  0  0
  144.8887  138.0770  150.6467 H   0  0  0  0  0  0  0  0  0  0  0  0
  145.2522  139.6929  152.5251 H   0  0  0  0  0  0  0  0  0  0  0  0
  1  2  1  0  0  0  0
  1 22  1  0  0  0  0
  1 23  1  0  0  0  0
  1 24  1  0  0  0  0
  2 21  1  0  0  0  0
  2  3  1  0  0  0  0
  2 25  1  0  0  0  0
  3  4  1  0  0  0  0
  3 26  1  0  0  0  0
  3 27  1  0  0  0  0
  4  5  1  0  0  0  0
  4 28  1  0  0  0  0
  4 29  1  0  0  0  0
  5  6  1  0  0  0  0
  5 20  1  0  0  0  0
  5 46  1  0  0  0  0
  6  7  1  0  0  0  0
  6 30  1  0  0  0  0
  6 31  1  0  0  0  0
  7  8  1  0  0  0  0
  7  9  1  0  0  0  0
  7 32  1  0  0  0  0
  8 33  1  0  0  0  0
  9 10  1  0  0  0  0
  9 34  1  0  0  0  0
  9 35  1  0  0  0  0
 10 11  1  0  0  0  0
 10 36  1  0  0  0  0
 11 12  2  0  0  0  0
 11 13  1  0  0  0  0
 13 14  1  0  0  0  0
 13 37  1  0  0  0  0
 14 19  1  0  0  0  0
 14 15  2  0  0  0  0
 15 16  1  0  0  0  0
 15 38  1  0  0  0  0
 16 17  2  0  0  0  0
 16 39  1  0  0  0  0
 17 18  1  0  0  0  0
 17 40  1  0  0  0  0
 18 19  2  0  0  0  0
 19 41  1  0  0  0  0
 20 21  1  0  0  0  0
 20 42  1  0  0  0  0
 20 43  1  0  0  0  0
 21 44  1  0  0  0  0
 21 45  1  0  0  0  0
M  CHG  1   5   1
M  END
> <s_m_source_file>
AV-unprocessed.smi

> <i_m_source_file_index>
1048

> <i_lp_mmshare_version>
43012

> <i_f3d_flags>
0

> <s_epik_input>
W0NIM11bQ0hdMVtDSDJdW0NIMl1OKFtDSDJdW0NIMl0xKVtDSDJdW0NASF0oW09IXSlbQ0gyXVtOSF1DKD1PKVtOSF1jMltjSF1bY0hdW2NIXW5bY0hdMg==

> <s_epik_cmdline>
J2VwaWtfcHl0aG9uJywgJy1waCcsICc3LjAnLCAnLXRuJywgJzgnLCAnLW1hJywgJzIwMCcsICctbWV0YWxfYmluZGluZycsICctaW1hZScsICc8aW5maWxlLm1hZT4nLCAnLW9tYWUnLCAnPG91dGZpbGUubWFlPic=

> <r_lp_tautomer_probability>
1

> <r_epik_Ionization_Penalty>
0.00581049

> <r_epik_Ionization_Penalty_Charging>
0.00147689

> <r_epik_Ionization_Penalty_Neutral>
0.0043336

> <r_epik_State_Penalty>
-0

> <r_epik_Charging_Adjusted_Penalty>
0.00147689

> <i_epik_Tot_Q>
1

> <i_epik_Tot_abs_Q>
1

> <r_epik_Metal_State_Penalty>
-0

> <b_epik_Metal_Only>
0

> <s_lp_Force_Field>
OPLS_2005

> <r_lp_Energy>
22.9407

> <b_lp_Chiralities_Consistent>
1

> <s_lp_Variant>
AV-unprocessed.smi:1048-2

> <Gold.Version>
5.8.1

> <Gold.Id.Protein>
6NUR|6NUR_protein|mol2

> <Gold.PLP.Fitness>
49.9506

> <Gold.PLP.PLP>
-37.3496

> <Gold.PLP.part.hbond>
-5.0000

> <Gold.PLP.part.metal>
0.0000

> <Gold.PLP.part.buried>
0.4931

> <Gold.PLP.part.nonpolar>
-34.2857

> <Gold.PLP.part.repulsive>
0.1699

> <Gold.PLP.ligand.clash>
0.0000

> <Gold.PLP.ligand.torsion>
1.1053

> <Gold.PLP.Chemscore.Hbond>
3.9060

> <Gold.PLP.Chemscore.CHOScore>
1.0099

> <Gold.PLP.Chemscore.Metal>
0.0000

> <Gold.Chemscore.Hbonds>
donor molecule, donor type, donor heavy atom, donor atom, acceptor molecule, acceptor atom, score
      L1  H     5    46       P1 10175  2.00
      L1  H     8    33       P1  7957  0.93
      L1  H    13    37       P1  8028  0.99
      P1  H  7989  7998       L1     8  0.01
      L1  C    19    41       P1  8028  0.07
      L1  C    19    41       P1  8029  0.74

> <Gold.PLP.Chemscore.Internal.Correction>
0.0640

> <Gold.Rescore>
     Score         DG    S(hbond)    S(metal)    S(lipo)     H(rot)  DE(clash)    DE(int)     intcor
     17.35     -21.83       2.84        0.00     108.81       2.29       1.88       2.60       ----

> <Gold.Chemscore.Fitness>
17.3491

> <Gold.Chemscore.DG>
-21.8265

> <Gold.Chemscore.ZeroCoef>
-5.4800

> <Gold.Chemscore.Hbond>
2.8350

> <Gold.Chemscore.Metal>
0.0000

> <Gold.Chemscore.Lipo>
108.8129

> <Gold.Chemscore.Internal_Hbond>
0.0000

> <Gold.Chemscore.DEClash>
1.8819

> <Gold.Chemscore.DEInternal>
2.5955

> <Gold.Chemscore.Rot>
2.2865

> <Gold.Chemscore.Internal.Correction>
   9.000000E+99

> <Gold.Chemscore.Hbonds>
donor molecule, donor type, donor heavy atom, donor atom, acceptor molecule, acceptor atom, score
      L1  H     5    46       P1 10175  1.00
      L1  H     8    33       P1  7957  0.91
      L1  H    13    37       P1  8028  0.88

> <Gold.Chemscore.Hbond.Weighted>
-9.4690

> <Gold.Chemscore.Metal.Weighted>
-0.0000

> <Gold.Chemscore.Lipo.Weighted>
-12.7311

> <Gold.Chemscore.Internal_Hbond.Weighted>
0.0000

> <Gold.Chemscore.DEClash.Weighted>
1.8819

> <Gold.Chemscore.DEInternal.Weighted>
2.5955

> <Gold.Chemscore.Rot.Weighted>
5.8536

> <Gold.Chemscore.Internal.Correction.Weighted>
   9.000000E+99

> <Gold.Protein.RotatedTorsions>
[ 6907 6896 6895 6894 ] final  -23.16 input  -60.11 | X-H torsion
[ 7974 7965 7964 7962 ] final   90.14 input  175.53 | X-H torsion
[ 8008 7997 7996 7995 ] final -170.52 input   59.86 | X-H torsion
[ 10167 10162 10161 10158 ] final   41.61 input  -65.29 | X-H torsion
[ 10718 10713 10712 10709 ] final  -49.54 input   66.30 | X-H torsion
[ 10763 10752 10751 10750 ] final  -19.76 input  -60.55 | X-H torsion
[ 11005 11000 10999 10996 ] final -123.97 input  -57.11 | X-H torsion

> <Gold.Protein.ActiveResidues>
 VAL166  LYS551  ARG553  GLY616  TRP617  ASP618  TYR619  PRO620  LYS621  CYS622 
 ASP623  PHE694  ASN695  SER759  ASP760  ASP761  ALA762  ILE779  LEU786  VAL792 
 PHE793  MET794  SER795  GLU796  ALA797  LYS798  CYS799  TRP800  GLU811  SER814 

> <Gold.Protein.RotatedAtoms>
  151.2081  135.0470  159.8899 H   0  0  0  0  0  0  0  0  0  0  0  0  # atno 6907 bound_to 6896
  152.5427  134.0775  159.8231 H   0  0  0  0  0  0  0  0  0  0  0  0  # atno 6908 bound_to 6896
  151.0925  133.5257  159.2646 H   0  0  0  0  0  0  0  0  0  0  0  0  # atno 6909 bound_to 6896
  145.5230  139.2280  143.2661 H   0  0  0  0  0  0  0  0  0  0  0  0  # atno 7974 bound_to 7965
  155.9194  140.1071  157.1218 H   0  0  0  0  0  0  0  0  0  0  0  0  # atno 8008 bound_to 7997
  154.4052  140.1259  156.4725 H   0  0  0  0  0  0  0  0  0  0  0  0  # atno 8009 bound_to 7997
  155.7214  140.3469  155.5020 H   0  0  0  0  0  0  0  0  0  0  0  0  # atno 8010 bound_to 7997
  140.3626  144.2208  150.6137 H   0  0  0  0  0  0  0  0  0  0  0  0  # atno 10167 bound_to 10162
  156.1884  130.4152  149.9407 H   0  0  0  0  0  0  0  0  0  0  0  0  # atno 10718 bound_to 10713
  153.6098  135.6996  153.5351 H   0  0  0  0  0  0  0  0  0  0  0  0  # atno 10763 bound_to 10752
  153.3026  135.4124  155.1265 H   0  0  0  0  0  0  0  0  0  0  0  0  # atno 10764 bound_to 10752
  154.8566  135.3652  154.5636 H   0  0  0  0  0  0  0  0  0  0  0  0  # atno 10765 bound_to 10752
  140.9877  134.0583  157.3691 H   0  0  0  0  0  0  0  0  0  0  0  0  # atno 11005 bound_to 11000
  146.2093  140.6043  142.9066 LP  0  0  0  0  0  0  0  0  0  0  0  0  # atno 17320 bound_to 7965
  144.7666  140.5543  143.6699 LP  0  0  0  0  0  0  0  0  0  0  0  0  # atno 17321 bound_to 7965
  140.5112  143.2290  151.8533 LP  0  0  0  0  0  0  0  0  0  0  0  0  # atno 17342 bound_to 10162
  139.4812  144.4948  151.9138 LP  0  0  0  0  0  0  0  0  0  0  0  0  # atno 17343 bound_to 10162
  156.7155  130.8986  151.3613 LP  0  0  0  0  0  0  0  0  0  0  0  0  # atno 17370 bound_to 10713
  157.6913  130.9236  150.0522 LP  0  0  0  0  0  0  0  0  0  0  0  0  # atno 17371 bound_to 10713
  139.8978  135.0152  156.7118 LP  0  0  0  0  0  0  0  0  0  0  0  0  # atno 17394 bound_to 11000
  140.7088  133.9241  155.8071 LP  0  0  0  0  0  0  0  0  0  0  0  0  # atno 17395 bound_to 11000

$$$$
