AV-unprocessed.smi:2189|AV-procd|sdf|8885|dock3
  -GOLD-   2272012 83D 1   1.00000     0.00000
 Structure written by MMmdl.
 40 42  0  0  0  0  0  0  0  0  2 V2000
  151.5773  140.5412  155.6020 O   0  0  0  0  0  0  0  0  0  0  0  0
  151.0367  141.5187  156.1227 C   0  0  0  0  0  0  0  0  0  0  0  0
  149.8481  141.9755  155.6824 N   0  0  0  0  0  0  0  0  0  0  0  0
  149.0619  141.4089  154.5887 C   0  0  0  0  0  0  0  0  0  0  0  0
  147.6724  140.9230  155.0458 C   0  0  0  0  0  0  0  0  0  0  0  0
  146.6058  142.0035  155.0210 C   0  0  0  0  0  0  0  0  0  0  0  0
  146.2876  142.7217  153.8474 C   0  0  0  0  0  0  0  0  0  0  0  0
  145.2691  143.6962  153.8913 C   0  0  0  0  0  0  0  0  0  0  0  0
  144.5929  143.9341  155.1058 C   0  0  0  0  0  0  0  0  0  0  0  0
  144.9529  143.1901  156.2478 C   0  0  0  0  0  0  0  0  0  0  0  0
  145.9346  142.2656  156.1660 N   0  3  0  0  0  0  0  0  0  0  0  0
  151.5942  142.2972  157.2447 C   0  0  0  0  0  0  0  0  0  0  0  0
  151.3159  143.6256  157.3326 C   0  0  0  0  0  0  0  0  0  0  0  0
  151.8147  144.4369  158.4152 C   0  0  0  0  0  0  0  0  0  0  0  0
  152.6036  143.8556  159.3249 C   0  0  0  0  0  0  0  0  0  0  0  0
  152.9649  142.5107  159.2734 N   0  0  0  0  0  0  0  0  0  0  0  0
  153.9263  142.0459  160.2676 C   0  0  0  0  0  0  0  0  0  0  0  0
  153.5362  140.6707  160.7776 C   0  0  0  0  0  0  0  0  0  0  0  0
  153.6376  139.5540  159.3334 S   0  0  0  0  0  0  0  0  0  0  0  0
  155.0209  139.5784  158.8328 O   0  0  0  0  0  0  0  0  0  0  0  0
  153.0260  138.2689  159.7039 O   0  0  0  0  0  0  0  0  0  0  0  0
  152.6483  140.3633  158.2511 N   0  0  0  0  0  0  0  0  0  0  0  0
  152.4392  141.6494  158.2694 C   0  0  0  0  0  0  0  0  0  0  0  0
  149.4525  142.7759  156.1544 H   0  0  0  0  0  0  0  0  0  0  0  0
  148.9646  142.1266  153.7724 H   0  0  0  0  0  0  0  0  0  0  0  0
  149.6213  140.5660  154.1823 H   0  0  0  0  0  0  0  0  0  0  0  0
  147.3469  140.0992  154.4095 H   0  0  0  0  0  0  0  0  0  0  0  0
  147.7411  140.5145  156.0550 H   0  0  0  0  0  0  0  0  0  0  0  0
  146.8091  142.5229  152.9226 H   0  0  0  0  0  0  0  0  0  0  0  0
  145.0076  144.2528  153.0034 H   0  0  0  0  0  0  0  0  0  0  0  0
  143.8084  144.6746  155.1598 H   0  0  0  0  0  0  0  0  0  0  0  0
  144.4869  143.3031  157.2158 H   0  0  0  0  0  0  0  0  0  0  0  0
  150.7148  144.1256  156.5866 H   0  0  0  0  0  0  0  0  0  0  0  0
  151.5560  145.4827  158.4914 H   0  0  0  0  0  0  0  0  0  0  0  0
  153.0070  144.4108  160.1595 H   0  0  0  0  0  0  0  0  0  0  0  0
  154.9228  142.0296  159.8250 H   0  0  0  0  0  0  0  0  0  0  0  0
  153.9715  142.7338  161.1124 H   0  0  0  0  0  0  0  0  0  0  0  0
  154.2221  140.3139  161.5455 H   0  0  0  0  0  0  0  0  0  0  0  0
  152.5231  140.6531  161.1811 H   0  0  0  0  0  0  0  0  0  0  0  0
  146.1735  141.7341  157.0036 H   0  0  0  0  0  0  0  0  0  0  0  0
  1  2  2  0  0  0  0
  2  3  1  0  0  0  0
  2 12  1  0  0  0  0
  3  4  1  0  0  0  0
  3 24  1  0  0  0  0
  4  5  1  0  0  0  0
  4 25  1  0  0  0  0
  4 26  1  0  0  0  0
  5  6  1  0  0  0  0
  5 27  1  0  0  0  0
  5 28  1  0  0  0  0
  6 11  1  0  0  0  0
  6  7  2  0  0  0  0
  7  8  1  0  0  0  0
  7 29  1  0  0  0  0
  8  9  2  0  0  0  0
  8 30  1  0  0  0  0
  9 10  1  0  0  0  0
  9 31  1  0  0  0  0
 10 11  2  0  0  0  0
 10 32  1  0  0  0  0
 11 40  1  0  0  0  0
 12 23  1  0  0  0  0
 12 13  2  0  0  0  0
 13 14  1  0  0  0  0
 13 33  1  0  0  0  0
 14 15  2  0  0  0  0
 14 34  1  0  0  0  0
 15 16  1  0  0  0  0
 15 35  1  0  0  0  0
 16 23  1  0  0  0  0
 16 17  1  0  0  0  0
 17 18  1  0  0  0  0
 17 36  1  0  0  0  0
 17 37  1  0  0  0  0
 18 19  1  0  0  0  0
 18 38  1  0  0  0  0
 18 39  1  0  0  0  0
 19 20  2  0  0  0  0
 19 21  2  0  0  0  0
 19 22  1  0  0  0  0
 22 23  2  0  0  0  0
M  CHG  1  11   1
M  END
> <s_m_source_file>
AV-unprocessed.smi

> <i_m_source_file_index>
2189

> <i_lp_mmshare_version>
43012

> <i_f3d_flags>
0

> <s_epik_input>
W0NIMl0xW0NIMl1TKD1PKSg9TylOPUMoTjEyKUMoPVtDSF1bQ0hdPVtDSF0yKUMoPU8pW05IXVtDSDJdW0NIMl1jM1tjSF1bY0hdW2NIXVtjSF1uMw==

> <s_epik_cmdline>
J2VwaWtfcHl0aG9uJywgJy1waCcsICc3LjAnLCAnLXRuJywgJzgnLCAnLW1hJywgJzIwMCcsICctbWV0YWxfYmluZGluZycsICctaW1hZScsICc8aW5maWxlLm1hZT4nLCAnLW9tYWUnLCAnPG91dGZpbGUubWFlPic=

> <r_epik_Ionization_Penalty>
2.08937

> <r_epik_Ionization_Penalty_Charging>
2.08928

> <r_epik_Ionization_Penalty_Neutral>
8.13788e-05

> <r_epik_State_Penalty>
2.22459

> <r_epik_Charging_Adjusted_Penalty>
4.31388

> <i_epik_Tot_Q>
1

> <i_epik_Tot_abs_Q>
1

> <r_epik_Metal_State_Penalty>
2.35797

> <b_epik_Metal_Only>
0

> <s_lp_Force_Field>
OPLS_2005

> <r_lp_Energy>
32.7786

> <b_lp_Chiralities_Consistent>
1

> <s_lp_Variant>
AV-unprocessed.smi:2189-2

> <Gold.Version>
5.8.1

> <Gold.Id.Protein>
6NUR|6NUR_protein|mol2

> <Gold.PLP.Fitness>
55.1666

> <Gold.PLP.PLP>
-49.0082

> <Gold.PLP.part.hbond>
-3.1102

> <Gold.PLP.part.metal>
0.0000

> <Gold.PLP.part.buried>
-7.0000

> <Gold.PLP.part.nonpolar>
-38.6397

> <Gold.PLP.part.repulsive>
0.1565

> <Gold.PLP.ligand.clash>
0.0000

> <Gold.PLP.ligand.torsion>
0.5718

> <Gold.PLP.Chemscore.Hbond>
2.3690

> <Gold.PLP.Chemscore.CHOScore>
0.0000

> <Gold.PLP.Chemscore.Metal>
0.0000

> <Gold.Chemscore.Hbonds>
donor molecule, donor type, donor heavy atom, donor atom, acceptor molecule, acceptor atom, score
      L1  H     3    24       P1  8028  0.65
      P1  H  7989  7998       L1     1  0.60
      P1  H  7997  8008       L1    20  1.00

> <Gold.PLP.Chemscore.Internal.Correction>
0.1951

> <Gold.Rescore>
     Score         DG    S(hbond)    S(metal)    S(lipo)     H(rot)  DE(clash)    DE(int)     intcor
     19.12     -21.05       2.24        0.00     102.77       1.54       0.04       1.88       ----

> <Gold.Chemscore.Fitness>
19.1179

> <Gold.Chemscore.DG>
-21.0451

> <Gold.Chemscore.ZeroCoef>
-5.4800

> <Gold.Chemscore.Hbond>
2.2370

> <Gold.Chemscore.Metal>
0.0000

> <Gold.Chemscore.Lipo>
102.7717

> <Gold.Chemscore.Internal_Hbond>
0.0000

> <Gold.Chemscore.DEClash>
0.0428

> <Gold.Chemscore.DEInternal>
1.8844

> <Gold.Chemscore.Rot>
1.5355

> <Gold.Chemscore.Internal.Correction>
   9.000000E+99

> <Gold.Chemscore.Hbonds>
donor molecule, donor type, donor heavy atom, donor atom, acceptor molecule, acceptor atom, score
      L1  H     3    24       P1  8028  0.62
      P1  H  7989  7998       L1     1  0.38
      P1  H  7997  8008       L1    20  0.94

> <Gold.Chemscore.Hbond.Weighted>
-7.4717

> <Gold.Chemscore.Metal.Weighted>
-0.0000

> <Gold.Chemscore.Lipo.Weighted>
-12.0243

> <Gold.Chemscore.Internal_Hbond.Weighted>
0.0000

> <Gold.Chemscore.DEClash.Weighted>
0.0428

> <Gold.Chemscore.DEInternal.Weighted>
1.8844

> <Gold.Chemscore.Rot.Weighted>
3.9309

> <Gold.Chemscore.Internal.Correction.Weighted>
   9.000000E+99

> <Gold.Protein.RotatedTorsions>
[ 6907 6896 6895 6894 ] final  157.60 input  -60.11 | X-H torsion
[ 7974 7965 7964 7962 ] final    6.20 input  175.53 | X-H torsion
[ 8008 7997 7996 7995 ] final -132.55 input   59.86 | X-H torsion
[ 10167 10162 10161 10158 ] final  147.98 input  -65.29 | X-H torsion
[ 10718 10713 10712 10709 ] final  -90.95 input   66.30 | X-H torsion
[ 10763 10752 10751 10750 ] final  121.46 input  -60.55 | X-H torsion
[ 11005 11000 10999 10996 ] final -168.37 input  -57.11 | X-H torsion

> <Gold.Protein.ActiveResidues>
 VAL166  LYS551  ARG553  GLY616  TRP617  ASP618  TYR619  PRO620  LYS621  CYS622 
 ASP623  PHE694  ASN695  SER759  ASP760  ASP761  ALA762  ILE779  LEU786  VAL792 
 PHE793  MET794  SER795  GLU796  ALA797  LYS798  CYS799  TRP800  GLU811  SER814 

> <Gold.Protein.RotatedAtoms>
  152.0127  133.3867  159.4225 H   0  0  0  0  0  0  0  0  0  0  0  0  # atno 6907 bound_to 6896
  150.6898  134.3712  159.5002 H   0  0  0  0  0  0  0  0  0  0  0  0  # atno 6908 bound_to 6896
  152.1475  134.9014  160.0601 H   0  0  0  0  0  0  0  0  0  0  0  0  # atno 6909 bound_to 6896
  146.2436  140.0270  142.8393 H   0  0  0  0  0  0  0  0  0  0  0  0  # atno 7974 bound_to 7965
  155.3307  140.0467  157.3042 H   0  0  0  0  0  0  0  0  0  0  0  0  # atno 8008 bound_to 7997
  154.5330  140.2263  155.8737 H   0  0  0  0  0  0  0  0  0  0  0  0  # atno 8009 bound_to 7997
  156.1807  140.3074  155.9149 H   0  0  0  0  0  0  0  0  0  0  0  0  # atno 8010 bound_to 7997
  139.4881  144.5714  151.7047 H   0  0  0  0  0  0  0  0  0  0  0  0  # atno 10167 bound_to 10162
  155.9990  130.4929  150.5401 H   0  0  0  0  0  0  0  0  0  0  0  0  # atno 10718 bound_to 10713
  153.6144  135.3424  155.2989 H   0  0  0  0  0  0  0  0  0  0  0  0  # atno 10763 bound_to 10752
  154.8612  135.4258  154.2275 H   0  0  0  0  0  0  0  0  0  0  0  0  # atno 10764 bound_to 10752
  153.3133  135.7033  153.7168 H   0  0  0  0  0  0  0  0  0  0  0  0  # atno 10765 bound_to 10752
  140.5427  134.5506  157.5103 H   0  0  0  0  0  0  0  0  0  0  0  0  # atno 11005 bound_to 11000
  145.1189  140.9451  143.4612 LP  0  0  0  0  0  0  0  0  0  0  0  0  # atno 17320 bound_to 7965
  145.0501  139.3189  143.5933 LP  0  0  0  0  0  0  0  0  0  0  0  0  # atno 17321 bound_to 7965
  140.5302  144.0742  150.6051 LP  0  0  0  0  0  0  0  0  0  0  0  0  # atno 17342 bound_to 10162
  140.3729  143.2844  152.0257 LP  0  0  0  0  0  0  0  0  0  0  0  0  # atno 17343 bound_to 10162
  157.3338  131.0704  151.1840 LP  0  0  0  0  0  0  0  0  0  0  0  0  # atno 17370 bound_to 10713
  157.2712  130.6705  149.6020 LP  0  0  0  0  0  0  0  0  0  0  0  0  # atno 17371 bound_to 10713
  139.9495  134.7642  156.0481 LP  0  0  0  0  0  0  0  0  0  0  0  0  # atno 17394 bound_to 11000
  141.1217  133.6611  156.3233 LP  0  0  0  0  0  0  0  0  0  0  0  0  # atno 17395 bound_to 11000

$$$$
