AV-unprocessed.smi:3336|AV-procd|sdf|12853|dock3
  -GOLD-   2272019243D 1   1.00000     0.00000
 Structure written by MMmdl.
 42 43  0  0  0  0  0  0  0  0  2 V2000
  146.7614  134.4819  153.2865 C   0  0  0  0  0  0  0  0  0  0  0  0
  145.9347  135.6968  152.8330 C   0  0  2  0  0  0  0  0  0  0  0  0
  145.5185  135.6035  151.3468 C   0  0  0  0  0  0  0  0  0  0  0  0
  144.8356  134.3635  151.0265 N   0  0  0  0  0  0  0  0  0  0  0  0
  144.4091  133.9099  149.7957 C   0  0  0  0  0  0  0  0  0  0  0  0
  143.8135  132.6976  149.9950 C   0  0  0  0  0  0  0  0  0  0  0  0
  143.9188  132.4951  151.3996 C   0  0  0  0  0  0  0  0  0  0  0  0
  144.5284  133.4959  152.0147 N   0  0  0  0  0  0  0  0  0  0  0  0
  146.7092  136.9350  153.0870 N   0  3  0  0  0  0  0  0  0  0  0  0
  146.9680  137.2704  154.5098 C   0  0  2  0  0  0  0  0  0  0  0  0
  145.7300  136.8998  155.3433 C   0  0  0  0  0  0  0  0  0  0  0  0
  147.3061  138.7666  154.6931 C   0  0  0  0  0  0  0  0  0  0  0  0
  146.4558  139.4902  155.2153 O   0  0  0  0  0  0  0  0  0  0  0  0
  148.5087  139.2509  154.2921 N   0  0  0  0  0  0  0  0  0  0  0  0
  148.8823  140.6629  154.4316 C   0  0  0  0  0  0  0  0  0  0  0  0
  150.0886  140.7636  155.3816 C   0  0  0  0  0  0  0  0  0  0  0  0
  151.1666  139.9895  154.8646 O   0  0  0  0  0  0  0  0  0  0  0  0
  150.8330  138.6149  154.6973 C   0  0  0  0  0  0  0  0  0  0  0  0
  149.6314  138.4805  153.7436 C   0  0  0  0  0  0  0  0  0  0  0  0
  146.1894  133.5566  153.2139 H   0  0  0  0  0  0  0  0  0  0  0  0
  147.0707  134.5860  154.3272 H   0  0  0  0  0  0  0  0  0  0  0  0
  147.6617  134.3654  152.6818 H   0  0  0  0  0  0  0  0  0  0  0  0
  145.0357  135.7185  153.4505 H   0  0  0  0  0  0  0  0  0  0  0  0
  144.8578  136.4252  151.0705 H   0  0  0  0  0  0  0  0  0  0  0  0
  146.3977  135.6851  150.7063 H   0  0  0  0  0  0  0  0  0  0  0  0
  144.5650  134.4784  148.8905 H   0  0  0  0  0  0  0  0  0  0  0  0
  143.3678  132.0542  149.2508 H   0  0  0  0  0  0  0  0  0  0  0  0
  143.5718  131.6574  151.9863 H   0  0  0  0  0  0  0  0  0  0  0  0
  147.6098  136.8409  152.6387 H   0  0  0  0  0  0  0  0  0  0  0  0
  147.8059  136.6563  154.8325 H   0  0  0  0  0  0  0  0  0  0  0  0
  145.8795  137.0989  156.4043 H   0  0  0  0  0  0  0  0  0  0  0  0
  145.4971  135.8392  155.2445 H   0  0  0  0  0  0  0  0  0  0  0  0
  144.8510  137.4616  155.0239 H   0  0  0  0  0  0  0  0  0  0  0  0
  149.1428  141.0653  153.4513 H   0  0  0  0  0  0  0  0  0  0  0  0
  148.0705  141.2877  154.8056 H   0  0  0  0  0  0  0  0  0  0  0  0
  150.4116  141.8005  155.4734 H   0  0  0  0  0  0  0  0  0  0  0  0
  149.8263  140.4193  156.3834 H   0  0  0  0  0  0  0  0  0  0  0  0
  151.6975  138.0901  154.2907 H   0  0  0  0  0  0  0  0  0  0  0  0
  150.6133  138.1651  155.6669 H   0  0  0  0  0  0  0  0  0  0  0  0
  149.4214  137.4245  153.5942 H   0  0  0  0  0  0  0  0  0  0  0  0
  149.8889  138.8760  152.7598 H   0  0  0  0  0  0  0  0  0  0  0  0
  146.2163  137.7027  152.6543 H   0  0  0  0  0  0  0  0  0  0  0  0
  1  2  1  0  0  0  0
  1 20  1  0  0  0  0
  1 21  1  0  0  0  0
  1 22  1  0  0  0  0
  2  3  1  0  0  0  0
  2  9  1  0  0  0  0
  2 23  1  0  0  0  0
  3  4  1  0  0  0  0
  3 24  1  0  0  0  0
  3 25  1  0  0  0  0
  4  8  1  0  0  0  0
  4  5  1  0  0  0  0
  5  6  2  0  0  0  0
  5 26  1  0  0  0  0
  6  7  1  0  0  0  0
  6 27  1  0  0  0  0
  7  8  2  0  0  0  0
  7 28  1  0  0  0  0
  9 10  1  0  0  0  0
  9 29  1  0  0  0  0
  9 42  1  0  0  0  0
 10 11  1  0  0  0  0
 10 12  1  0  0  0  0
 10 30  1  0  0  0  0
 11 31  1  0  0  0  0
 11 32  1  0  0  0  0
 11 33  1  0  0  0  0
 12 13  2  0  0  0  0
 12 14  1  0  0  0  0
 14 19  1  0  0  0  0
 14 15  1  0  0  0  0
 15 16  1  0  0  0  0
 15 34  1  0  0  0  0
 15 35  1  0  0  0  0
 16 17  1  0  0  0  0
 16 36  1  0  0  0  0
 16 37  1  0  0  0  0
 17 18  1  0  0  0  0
 18 19  1  0  0  0  0
 18 38  1  0  0  0  0
 18 39  1  0  0  0  0
 19 40  1  0  0  0  0
 19 41  1  0  0  0  0
M  CHG  1   9   1
M  END
> <s_m_source_file>
AV-unprocessed.smi

> <i_m_source_file_index>
3336

> <i_lp_mmshare_version>
43012

> <i_f3d_flags>
0

> <s_epik_input>
bjFbY0hdW2NIXVtjSF1uMVtDSDJdW0NAQEhdKFtDSDNdKVtOSF1bQ0BIXShbQ0gzXSlDKD1PKU4yW0NIMl1bQ0gyXU9bQ0gyXVtDSDJdMg==

> <s_epik_cmdline>
J2VwaWtfcHl0aG9uJywgJy1waCcsICc3LjAnLCAnLXRuJywgJzgnLCAnLW1hJywgJzIwMCcsICctbWV0YWxfYmluZGluZycsICctaW1hZScsICc8aW5maWxlLm1hZT4nLCAnLW9tYWUnLCAnPG91dGZpbGUubWFlPic=

> <r_lp_tautomer_probability>
1

> <r_epik_Ionization_Penalty>
0.200288

> <r_epik_Ionization_Penalty_Charging>
0.200285

> <r_epik_Ionization_Penalty_Neutral>
3.37705e-06

> <r_epik_State_Penalty>
0.190126

> <r_epik_Charging_Adjusted_Penalty>
0.39041

> <i_epik_Tot_Q>
1

> <i_epik_Tot_abs_Q>
1

> <r_epik_Metal_State_Penalty>
0.190133

> <b_epik_Metal_Only>
0

> <s_lp_Force_Field>
OPLS_2005

> <r_lp_Energy>
27.4401

> <b_lp_Chiralities_Consistent>
1

> <s_lp_Variant>
AV-unprocessed.smi:3336-1

> <Gold.Version>
5.8.1

> <Gold.Id.Protein>
6NUR|6NUR_protein|mol2

> <Gold.PLP.Fitness>
38.2577

> <Gold.PLP.PLP>
-27.4211

> <Gold.PLP.part.hbond>
-2.0000

> <Gold.PLP.part.metal>
0.0000

> <Gold.PLP.part.buried>
2.2494

> <Gold.PLP.part.nonpolar>
-27.0681

> <Gold.PLP.part.repulsive>
0.2336

> <Gold.PLP.ligand.clash>
0.0000

> <Gold.PLP.ligand.torsion>
0.6132

> <Gold.PLP.Chemscore.Hbond>
3.0000

> <Gold.PLP.Chemscore.CHOScore>
1.0000

> <Gold.PLP.Chemscore.Metal>
0.0000

> <Gold.Chemscore.Hbonds>
donor molecule, donor type, donor heavy atom, donor atom, acceptor molecule, acceptor atom, score
      L1  H     9    29       P1  7948  2.00
      P1  H  7989  7998       L1    17  1.00
      L1  C     5    26       P1  7921  1.00

> <Gold.PLP.Chemscore.Internal.Correction>
0.0632

> <Gold.Rescore>
     Score         DG    S(hbond)    S(metal)    S(lipo)     H(rot)  DE(clash)    DE(int)     intcor
     11.82     -13.84       1.68        0.00      63.93       1.85       0.14       1.88       ----

> <Gold.Chemscore.Fitness>
11.8198

> <Gold.Chemscore.DG>
-13.8394

> <Gold.Chemscore.ZeroCoef>
-5.4800

> <Gold.Chemscore.Hbond>
1.6844

> <Gold.Chemscore.Metal>
0.0000

> <Gold.Chemscore.Lipo>
63.9307

> <Gold.Chemscore.Internal_Hbond>
0.0000

> <Gold.Chemscore.DEClash>
0.1353

> <Gold.Chemscore.DEInternal>
1.8842

> <Gold.Chemscore.Rot>
1.8541

> <Gold.Chemscore.Internal.Correction>
   9.000000E+99

> <Gold.Chemscore.Hbonds>
donor molecule, donor type, donor heavy atom, donor atom, acceptor molecule, acceptor atom, score
      L1  H     9    29       P1  7948  1.00
      P1  H  7989  7998       L1    17  0.38

> <Gold.Chemscore.Hbond.Weighted>
-5.6260

> <Gold.Chemscore.Metal.Weighted>
-0.0000

> <Gold.Chemscore.Lipo.Weighted>
-7.4799

> <Gold.Chemscore.Internal_Hbond.Weighted>
0.0000

> <Gold.Chemscore.DEClash.Weighted>
0.1353

> <Gold.Chemscore.DEInternal.Weighted>
1.8842

> <Gold.Chemscore.Rot.Weighted>
4.7465

> <Gold.Chemscore.Internal.Correction.Weighted>
   9.000000E+99

> <Gold.Protein.RotatedTorsions>
[ 6907 6896 6895 6894 ] final -104.39 input  -60.11 | X-H torsion
[ 7974 7965 7964 7962 ] final  127.78 input  175.53 | X-H torsion
[ 8008 7997 7996 7995 ] final -123.46 input   59.86 | X-H torsion
[ 10167 10162 10161 10158 ] final   11.33 input  -65.29 | X-H torsion
[ 10718 10713 10712 10709 ] final  -33.50 input   66.30 | X-H torsion
[ 10763 10752 10751 10750 ] final  160.13 input  -60.55 | X-H torsion
[ 11005 11000 10999 10996 ] final   82.87 input  -57.11 | X-H torsion

> <Gold.Protein.ActiveResidues>
 VAL166  LYS551  ARG553  GLY616  TRP617  ASP618  TYR619  PRO620  LYS621  CYS622 
 ASP623  PHE694  ASN695  SER759  ASP760  ASP761  ALA762  ILE779  LEU786  VAL792 
 PHE793  MET794  SER795  GLU796  ALA797  LYS798  CYS799  TRP800  GLU811  SER814 

> <Gold.Protein.RotatedAtoms>
  150.7285  134.0284  159.3724 H   0  0  0  0  0  0  0  0  0  0  0  0  # atno 6907 bound_to 6896
  151.8253  135.0637  160.0439 H   0  0  0  0  0  0  0  0  0  0  0  0  # atno 6908 bound_to 6896
  152.2974  133.5585  159.5632 H   0  0  0  0  0  0  0  0  0  0  0  0  # atno 6909 bound_to 6896
  145.0468  139.3917  143.5074 H   0  0  0  0  0  0  0  0  0  0  0  0  # atno 7974 bound_to 7965
  155.1809  140.0410  157.2882 H   0  0  0  0  0  0  0  0  0  0  0  0  # atno 8008 bound_to 7997
  154.6204  140.2499  155.7529 H   0  0  0  0  0  0  0  0  0  0  0  0  # atno 8009 bound_to 7997
  156.2430  140.2896  156.0509 H   0  0  0  0  0  0  0  0  0  0  0  0  # atno 8010 bound_to 7997
  140.6139  143.8350  150.7096 H   0  0  0  0  0  0  0  0  0  0  0  0  # atno 10167 bound_to 10162
  156.3619  130.4325  149.7616 H   0  0  0  0  0  0  0  0  0  0  0  0  # atno 10718 bound_to 10713
  154.2425  135.2774  155.2848 H   0  0  0  0  0  0  0  0  0  0  0  0  # atno 10763 bound_to 10752
  154.5533  135.5669  153.6944 H   0  0  0  0  0  0  0  0  0  0  0  0  # atno 10764 bound_to 10752
  152.9997  135.6280  154.2570 H   0  0  0  0  0  0  0  0  0  0  0  0  # atno 10765 bound_to 10752
  139.9049  134.8103  156.2233 H   0  0  0  0  0  0  0  0  0  0  0  0  # atno 11005 bound_to 11000
  146.3514  140.0097  142.8668 LP  0  0  0  0  0  0  0  0  0  0  0  0  # atno 17320 bound_to 7965
  145.1578  140.9657  143.4395 LP  0  0  0  0  0  0  0  0  0  0  0  0  # atno 17321 bound_to 7965
  140.1925  143.4025  152.1853 LP  0  0  0  0  0  0  0  0  0  0  0  0  # atno 17342 bound_to 10162
  139.5383  144.7231  151.4820 LP  0  0  0  0  0  0  0  0  0  0  0  0  # atno 17343 bound_to 10162
  156.4777  130.8026  151.3042 LP  0  0  0  0  0  0  0  0  0  0  0  0  # atno 17370 bound_to 10713
  157.7474  131.0016  150.2968 LP  0  0  0  0  0  0  0  0  0  0  0  0  # atno 17371 bound_to 10713
  141.0392  133.6947  156.1567 LP  0  0  0  0  0  0  0  0  0  0  0  0  # atno 17394 bound_to 11000
  140.6981  134.4594  157.5587 LP  0  0  0  0  0  0  0  0  0  0  0  0  # atno 17395 bound_to 11000

$$$$
