AV-unprocessed.smi:398|AV-procd|sdf|2489|dock4
  -GOLD-   2262022433D 1   1.00000     0.00000
 Structure written by MMmdl.
 34 36  0  0  0  0  0  0  0  0  1 V2000
  153.0864  136.6009  156.3356 N   0  0  0  0  0  0  0  0  0  0  0  0
  152.7895  137.6751  156.6479 C   0  0  0  0  0  0  0  0  0  0  0  0
  152.4163  138.9879  157.0591 C   0  0  0  0  0  0  0  0  0  0  0  0
  152.6843  139.4484  158.2984 C   0  0  0  0  0  0  0  0  0  0  0  0
  152.3387  140.7178  158.7082 N   0  0  0  0  0  0  0  0  0  0  0  0
  152.4886  141.1323  160.0747 C   0  0  0  0  0  0  0  0  0  0  0  0
  153.0696  142.4955  160.3962 C   0  0  0  0  0  0  0  0  0  0  0  0
  153.8787  141.2499  160.6612 C   0  0  0  0  0  0  0  0  0  0  0  0
  151.6065  141.5663  157.8493 C   0  0  0  0  0  0  0  0  0  0  0  0
  151.2028  142.6672  158.2323 O   0  0  0  0  0  0  0  0  0  0  0  0
  151.3382  141.1084  156.5364 N   0  0  0  0  0  0  0  0  0  0  0  0
  150.5865  141.9896  155.6157 C   0  0  0  0  0  0  0  0  0  0  0  0
  149.2597  141.3838  155.1313 C   0  0  0  0  0  0  0  0  0  0  0  0
  149.0614  140.1687  155.1804 O   0  0  0  0  0  0  0  0  0  0  0  0
  148.3558  142.2592  154.6680 N   0  0  0  0  0  0  0  0  0  0  0  0
  147.0616  141.9271  154.1663 C   0  0  0  0  0  0  0  0  0  0  0  0
  146.1679  143.0650  153.7226 C   0  0  0  0  0  0  0  0  0  0  0  0
  145.8610  142.3275  154.9965 C   0  0  0  0  0  0  0  0  0  0  0  0
  151.7205  139.8207  156.0809 C   0  0  0  0  0  0  0  0  0  0  0  0
  151.4589  139.4493  154.9354 O   0  0  0  0  0  0  0  0  0  0  0  0
  153.1948  138.8008  158.9971 H   0  0  0  0  0  0  0  0  0  0  0  0
  151.7178  140.7742  160.7549 H   0  0  0  0  0  0  0  0  0  0  0  0
  153.3890  143.1276  159.5697 H   0  0  0  0  0  0  0  0  0  0  0  0
  152.6616  143.0240  161.2554 H   0  0  0  0  0  0  0  0  0  0  0  0
  154.0122  140.9495  161.6984 H   0  0  0  0  0  0  0  0  0  0  0  0
  154.7293  141.0612  160.0089 H   0  0  0  0  0  0  0  0  0  0  0  0
  150.3730  142.9536  156.0800 H   0  0  0  0  0  0  0  0  0  0  0  0
  151.1937  142.2451  154.7454 H   0  0  0  0  0  0  0  0  0  0  0  0
  148.6045  143.2377  154.6679 H   0  0  0  0  0  0  0  0  0  0  0  0
  146.9655  140.9981  153.6057 H   0  0  0  0  0  0  0  0  0  0  0  0
  146.5518  144.0797  153.8109 H   0  0  0  0  0  0  0  0  0  0  0  0
  145.5157  142.8875  152.8697 H   0  0  0  0  0  0  0  0  0  0  0  0
  145.0040  141.6571  154.9941 H   0  0  0  0  0  0  0  0  0  0  0  0
  146.0405  142.8501  155.9343 H   0  0  0  0  0  0  0  0  0  0  0  0
  1  2  3  0  0  0  0
  2  3  1  0  0  0  0
  3 19  1  0  0  0  0
  3  4  2  0  0  0  0
  4  5  1  0  0  0  0
  4 21  1  0  0  0  0
  5  6  1  0  0  0  0
  5  9  1  0  0  0  0
  6  8  1  0  0  0  0
  6  7  1  0  0  0  0
  6 22  1  0  0  0  0
  7  8  1  0  0  0  0
  7 23  1  0  0  0  0
  7 24  1  0  0  0  0
  8 25  1  0  0  0  0
  8 26  1  0  0  0  0
  9 10  2  0  0  0  0
  9 11  1  0  0  0  0
 11 12  1  0  0  0  0
 11 19  1  0  0  0  0
 12 13  1  0  0  0  0
 12 27  1  0  0  0  0
 12 28  1  0  0  0  0
 13 14  2  0  0  0  0
 13 15  1  0  0  0  0
 15 16  1  0  0  0  0
 15 29  1  0  0  0  0
 16 18  1  0  0  0  0
 16 17  1  0  0  0  0
 16 30  1  0  0  0  0
 17 18  1  0  0  0  0
 17 31  1  0  0  0  0
 17 32  1  0  0  0  0
 18 33  1  0  0  0  0
 18 34  1  0  0  0  0
 19 20  2  0  0  0  0
M  END
> <s_m_source_file>
AV-unprocessed.smi

> <i_m_source_file_index>
398

> <i_lp_mmshare_version>
43012

> <i_f3d_flags>
0

> <s_epik_input>
TiNDYzFbY0hdbihbQ0hdMltDSDJdW0NIMl0yKWMoPU8pbihjMT1PKVtDSDJdQyg9TylbTkhdW0NIXTNbQ0gyXVtDSDJdMw==

> <s_epik_cmdline>
J2VwaWtfcHl0aG9uJywgJy1waCcsICc3LjAnLCAnLXRuJywgJzgnLCAnLW1hJywgJzIwMCcsICctbWV0YWxfYmluZGluZycsICctaW1hZScsICc8aW5maWxlLm1hZT4nLCAnLW9tYWUnLCAnPG91dGZpbGUubWFlPic=

> <r_lp_tautomer_probability>
1

> <r_epik_Ionization_Penalty>
2.07526e-08

> <r_epik_Ionization_Penalty_Charging>
8.22213e-11

> <r_epik_Ionization_Penalty_Neutral>
2.06703e-08

> <r_epik_State_Penalty>
-0

> <r_epik_Charging_Adjusted_Penalty>
8.22213e-11

> <i_epik_Tot_Q>
0

> <i_epik_Tot_abs_Q>
0

> <r_epik_Metal_State_Penalty>
-0

> <b_epik_Metal_Only>
0

> <s_lp_Force_Field>
OPLS_2005

> <r_lp_Energy>
41.1586

> <b_lp_Chiralities_Consistent>
1

> <s_lp_Variant>
AV-unprocessed.smi:398-1

> <Gold.Version>
5.8.1

> <Gold.Id.Protein>
6NUR|6NUR_protein|mol2

> <Gold.PLP.Fitness>
46.7943

> <Gold.PLP.PLP>
-38.8407

> <Gold.PLP.part.hbond>
-2.9978

> <Gold.PLP.part.metal>
0.0000

> <Gold.PLP.part.buried>
-5.5735

> <Gold.PLP.part.nonpolar>
-30.9661

> <Gold.PLP.part.repulsive>
0.3672

> <Gold.PLP.ligand.clash>
0.0000

> <Gold.PLP.ligand.torsion>
0.4895

> <Gold.PLP.Chemscore.Hbond>
2.8880

> <Gold.PLP.Chemscore.CHOScore>
0.0000

> <Gold.PLP.Chemscore.Metal>
0.0000

> <Gold.Chemscore.Hbonds>
donor molecule, donor type, donor heavy atom, donor atom, acceptor molecule, acceptor atom, score
      L1  H    15    29       P1  8028  0.96
      P1  H  7989  7998       L1    20  1.00
      P1  H 10752 10765       L1     1  0.91

> <Gold.PLP.Chemscore.Internal.Correction>
0.2687

> <Gold.Rescore>
     Score         DG    S(hbond)    S(metal)    S(lipo)     H(rot)  DE(clash)    DE(int)     intcor
     12.52     -16.89       2.61        0.00      63.74       1.87       0.16       4.20       ----

> <Gold.Chemscore.Fitness>
12.5204

> <Gold.Chemscore.DG>
-16.8850

> <Gold.Chemscore.ZeroCoef>
-5.4800

> <Gold.Chemscore.Hbond>
2.6116

> <Gold.Chemscore.Metal>
0.0000

> <Gold.Chemscore.Lipo>
63.7417

> <Gold.Chemscore.Internal_Hbond>
0.0000

> <Gold.Chemscore.DEClash>
0.1618

> <Gold.Chemscore.DEInternal>
4.2028

> <Gold.Chemscore.Rot>
1.8654

> <Gold.Chemscore.Internal.Correction>
   9.000000E+99

> <Gold.Chemscore.Hbonds>
donor molecule, donor type, donor heavy atom, donor atom, acceptor molecule, acceptor atom, score
      L1  H    15    29       P1  8028  0.92
      P1  H  7989  7998       L1    20  0.87
      P1  H 10752 10765       L1     1  0.89

> <Gold.Chemscore.Hbond.Weighted>
-8.7227

> <Gold.Chemscore.Metal.Weighted>
-0.0000

> <Gold.Chemscore.Lipo.Weighted>
-7.4578

> <Gold.Chemscore.Internal_Hbond.Weighted>
0.0000

> <Gold.Chemscore.DEClash.Weighted>
0.1618

> <Gold.Chemscore.DEInternal.Weighted>
4.2028

> <Gold.Chemscore.Rot.Weighted>
4.7755

> <Gold.Chemscore.Internal.Correction.Weighted>
   9.000000E+99

> <Gold.Protein.RotatedTorsions>
[ 6907 6896 6895 6894 ] final   20.39 input  -60.11 | X-H torsion
[ 7974 7965 7964 7962 ] final  -44.90 input  175.53 | X-H torsion
[ 8008 7997 7996 7995 ] final  -19.33 input   59.86 | X-H torsion
[ 10167 10162 10161 10158 ] final  120.77 input  -65.29 | X-H torsion
[ 10718 10713 10712 10709 ] final  -20.86 input   66.30 | X-H torsion
[ 10763 10752 10751 10750 ] final -130.46 input  -60.55 | X-H torsion
[ 11005 11000 10999 10996 ] final -145.09 input  -57.11 | X-H torsion

> <Gold.Protein.ActiveResidues>
 VAL166  LYS551  ARG553  GLY616  TRP617  ASP618  TYR619  PRO620  LYS621  CYS622 
 ASP623  PHE694  ASN695  SER759  ASP760  ASP761  ALA762  ILE779  LEU786  VAL792 
 PHE793  MET794  SER795  GLU796  ALA797  LYS798  CYS799  TRP800  GLU811  SER814 

> <Gold.Protein.RotatedAtoms>
  151.8956  135.0399  160.0501 H   0  0  0  0  0  0  0  0  0  0  0  0  # atno 6907 bound_to 6896
  152.2400  133.5123  159.5273 H   0  0  0  0  0  0  0  0  0  0  0  0  # atno 6908 bound_to 6896
  150.7051  134.1018  159.4011 H   0  0  0  0  0  0  0  0  0  0  0  0  # atno 6909 bound_to 6896
  145.9875  140.7217  142.9333 H   0  0  0  0  0  0  0  0  0  0  0  0  # atno 7974 bound_to 7965
  154.4844  140.2092  155.9689 H   0  0  0  0  0  0  0  0  0  0  0  0  # atno 8008 bound_to 7997
  156.1214  140.3212  155.8183 H   0  0  0  0  0  0  0  0  0  0  0  0  # atno 8009 bound_to 7997
  155.4461  140.0513  157.2996 H   0  0  0  0  0  0  0  0  0  0  0  0  # atno 8010 bound_to 7997
  139.5961  144.7042  151.3173 H   0  0  0  0  0  0  0  0  0  0  0  0  # atno 10167 bound_to 10162
  156.5261  130.4644  149.6571 H   0  0  0  0  0  0  0  0  0  0  0  0  # atno 10718 bound_to 10713
  154.8755  135.3862  154.4087 H   0  0  0  0  0  0  0  0  0  0  0  0  # atno 10763 bound_to 10752
  153.4803  135.7030  153.5947 H   0  0  0  0  0  0  0  0  0  0  0  0  # atno 10764 bound_to 10752
  153.4365  135.3866  155.2170 H   0  0  0  0  0  0  0  0  0  0  0  0  # atno 10765 bound_to 10752
  140.7958  134.2914  157.4997 H   0  0  0  0  0  0  0  0  0  0  0  0  # atno 11005 bound_to 11000
  144.6879  140.3012  143.7263 LP  0  0  0  0  0  0  0  0  0  0  0  0  # atno 17320 bound_to 7965
  145.7679  139.1847  143.2229 LP  0  0  0  0  0  0  0  0  0  0  0  0  # atno 17321 bound_to 7965
  140.7213  143.7128  150.7756 LP  0  0  0  0  0  0  0  0  0  0  0  0  # atno 17342 bound_to 10162
  140.0695  143.5075  152.2587 LP  0  0  0  0  0  0  0  0  0  0  0  0  # atno 17343 bound_to 10162
  156.3104  130.7225  151.2117 LP  0  0  0  0  0  0  0  0  0  0  0  0  # atno 17370 bound_to 10713
  157.7429  131.0483  150.4987 LP  0  0  0  0  0  0  0  0  0  0  0  0  # atno 17371 bound_to 10713
  139.8726  134.9401  156.3760 LP  0  0  0  0  0  0  0  0  0  0  0  0  # atno 17394 bound_to 11000
  140.9344  133.7557  156.0065 LP  0  0  0  0  0  0  0  0  0  0  0  0  # atno 17395 bound_to 11000

$$$$
