AV-unprocessed.smi:1655|AV-procd|sdf|6644|dock1
  -GOLD-   22720 7343D 1   1.00000     0.00000
 Structure written by MMmdl.
 34 35  0  0  0  0  0  0  0  0  1 V2000
  143.8816  144.0577  162.4237 C   0  0  0  0  0  0  0  0  0  0  0  0
  145.0339  143.8843  161.4948 C   0  0  0  0  0  0  0  0  0  0  0  0
  145.9375  144.7588  160.9594 C   0  0  0  0  0  0  0  0  0  0  0  0
  146.7575  143.9208  160.1575 C   0  0  0  0  0  0  0  0  0  0  0  0
  147.8393  144.4573  159.4135 N   0  0  0  0  0  0  0  0  0  0  0  0
  149.1522  144.3474  159.6801 C   0  0  0  0  0  0  0  0  0  0  0  0
  149.6332  143.7483  160.6424 O   0  0  0  0  0  0  0  0  0  0  0  0
  149.8910  144.9775  158.7553 N   0  0  0  0  0  0  0  0  0  0  0  0
  151.3480  145.0455  158.7495 C   0  0  0  0  0  0  0  0  0  0  0  0
  151.9808  143.6797  159.0646 C   0  0  0  0  0  0  0  0  0  0  0  0
  152.7620  143.6809  160.3870 C   0  0  2  0  0  0  0  0  0  0  0  0
  153.1489  142.2891  160.8822 C   0  0  0  0  0  0  0  0  0  0  0  0
  153.3083  142.4792  162.3826 C   0  0  0  0  0  0  0  0  0  0  0  0
  152.6141  143.8148  162.6674 C   0  0  0  0  0  0  0  0  0  0  0  0
  151.9630  144.1657  161.4539 O   0  0  0  0  0  0  0  0  0  0  0  0
  146.3892  142.6494  160.2016 N   0  0  0  0  0  0  0  0  0  0  0  0
  145.2832  142.6196  161.0591 O   0  0  0  0  0  0  0  0  0  0  0  0
  143.6728  145.1141  162.5934 H   0  0  0  0  0  0  0  0  0  0  0  0
  144.0900  143.5949  163.3883 H   0  0  0  0  0  0  0  0  0  0  0  0
  142.9824  143.5972  162.0144 H   0  0  0  0  0  0  0  0  0  0  0  0
  145.9974  145.8254  161.1171 H   0  0  0  0  0  0  0  0  0  0  0  0
  147.5867  144.9766  158.5860 H   0  0  0  0  0  0  0  0  0  0  0  0
  149.4116  145.4447  157.9996 H   0  0  0  0  0  0  0  0  0  0  0  0
  151.6647  145.3826  157.7622 H   0  0  0  0  0  0  0  0  0  0  0  0
  151.6912  145.8006  159.4591 H   0  0  0  0  0  0  0  0  0  0  0  0
  151.2076  142.9109  159.0985 H   0  0  0  0  0  0  0  0  0  0  0  0
  152.6555  143.4023  158.2538 H   0  0  0  0  0  0  0  0  0  0  0  0
  153.6550  144.3029  160.3000 H   0  0  0  0  0  0  0  0  0  0  0  0
  152.3402  141.5826  160.6900 H   0  0  0  0  0  0  0  0  0  0  0  0
  154.0507  141.9067  160.4036 H   0  0  0  0  0  0  0  0  0  0  0  0
  152.8478  141.6576  162.9318 H   0  0  0  0  0  0  0  0  0  0  0  0
  154.3596  142.5267  162.6685 H   0  0  0  0  0  0  0  0  0  0  0  0
  151.9010  143.7496  163.4894 H   0  0  0  0  0  0  0  0  0  0  0  0
  153.3488  144.5823  162.9148 H   0  0  0  0  0  0  0  0  0  0  0  0
  1  2  1  0  0  0  0
  1 18  1  0  0  0  0
  1 19  1  0  0  0  0
  1 20  1  0  0  0  0
  2 17  1  0  0  0  0
  2  3  2  0  0  0  0
  3  4  1  0  0  0  0
  3 21  1  0  0  0  0
  4  5  1  0  0  0  0
  4 16  2  0  0  0  0
  5  6  1  0  0  0  0
  5 22  1  0  0  0  0
  6  7  2  0  0  0  0
  6  8  1  0  0  0  0
  8  9  1  0  0  0  0
  8 23  1  0  0  0  0
  9 10  1  0  0  0  0
  9 24  1  0  0  0  0
  9 25  1  0  0  0  0
 10 11  1  0  0  0  0
 10 26  1  0  0  0  0
 10 27  1  0  0  0  0
 11 15  1  0  0  0  0
 11 12  1  0  0  0  0
 11 28  1  0  0  0  0
 12 13  1  0  0  0  0
 12 29  1  0  0  0  0
 12 30  1  0  0  0  0
 13 14  1  0  0  0  0
 13 31  1  0  0  0  0
 13 32  1  0  0  0  0
 14 15  1  0  0  0  0
 14 33  1  0  0  0  0
 14 34  1  0  0  0  0
 16 17  1  0  0  0  0
M  END
> <s_m_source_file>
AV-unprocessed.smi

> <i_m_source_file_index>
1655

> <i_lp_mmshare_version>
43012

> <i_f3d_flags>
0

> <s_epik_input>
W0NIM11jMVtjSF1jKG5vMSlbTkhdQyg9TylbTkhdW0NIMl1bQ0gyXVtDQEBIXTJbQ0gyXVtDSDJdW0NIMl1PMg==

> <s_epik_cmdline>
J2VwaWtfcHl0aG9uJywgJy1waCcsICc3LjAnLCAnLXRuJywgJzgnLCAnLW1hJywgJzIwMCcsICctbWV0YWxfYmluZGluZycsICctaW1hZScsICc8aW5maWxlLm1hZT4nLCAnLW9tYWUnLCAnPG91dGZpbGUubWFlPic=

> <r_lp_tautomer_probability>
1

> <r_epik_Ionization_Penalty>
2.23964e-05

> <r_epik_Ionization_Penalty_Charging>
0

> <r_epik_Ionization_Penalty_Neutral>
2.23964e-05

> <r_epik_State_Penalty>
-0

> <r_epik_Charging_Adjusted_Penalty>
0

> <i_epik_Tot_Q>
0

> <i_epik_Tot_abs_Q>
0

> <r_epik_Metal_State_Penalty>
-0

> <b_epik_Metal_Only>
0

> <s_lp_Force_Field>
OPLS_2005

> <r_lp_Energy>
15.5425

> <b_lp_Chiralities_Consistent>
1

> <s_lp_Variant>
AV-unprocessed.smi:1655-1

> <Gold.Version>
5.8.1

> <Gold.Id.Protein>
6NUR|6NUR_protein|mol2

> <Gold.PLP.Fitness>
48.5490

> <Gold.PLP.PLP>
-43.1332

> <Gold.PLP.part.hbond>
-4.0102

> <Gold.PLP.part.metal>
0.0000

> <Gold.PLP.part.buried>
-6.7981

> <Gold.PLP.part.nonpolar>
-34.6382

> <Gold.PLP.part.repulsive>
0.6408

> <Gold.PLP.ligand.clash>
0.0000

> <Gold.PLP.ligand.torsion>
1.2145

> <Gold.PLP.Chemscore.Hbond>
2.6100

> <Gold.PLP.Chemscore.CHOScore>
0.0000

> <Gold.PLP.Chemscore.Metal>
0.0000

> <Gold.Chemscore.Hbonds>
donor molecule, donor type, donor heavy atom, donor atom, acceptor molecule, acceptor atom, score
      L1  H     5    22       P1  8029  1.00
      L1  H     8    23       P1  8029  0.99
      P1  H  6933  6944       L1     7  0.24
      P1  H  6934  6946       L1    16  0.60

> <Gold.PLP.Chemscore.Internal.Correction>
0.0147

> <Gold.Rescore>
     Score         DG    S(hbond)    S(metal)    S(lipo)     H(rot)  DE(clash)    DE(int)     intcor
     15.69     -19.87       2.29        0.00      91.63       1.55       0.01       4.17       ----

> <Gold.Chemscore.Fitness>
15.6891

> <Gold.Chemscore.DG>
-19.8678

> <Gold.Chemscore.ZeroCoef>
-5.4800

> <Gold.Chemscore.Hbond>
2.2863

> <Gold.Chemscore.Metal>
0.0000

> <Gold.Chemscore.Lipo>
91.6256

> <Gold.Chemscore.Internal_Hbond>
0.0000

> <Gold.Chemscore.DEClash>
0.0060

> <Gold.Chemscore.DEInternal>
4.1727

> <Gold.Chemscore.Rot>
1.5503

> <Gold.Chemscore.Internal.Correction>
   9.000000E+99

> <Gold.Chemscore.Hbonds>
donor molecule, donor type, donor heavy atom, donor atom, acceptor molecule, acceptor atom, score
      L1  H     5    22       P1  8029  0.98
      L1  H     8    23       P1  8029  0.33
      P1  H  6933  6944       L1     7  0.23
      P1  H  6934  6946       L1    16  0.04

> <Gold.Chemscore.Hbond.Weighted>
-7.6364

> <Gold.Chemscore.Metal.Weighted>
-0.0000

> <Gold.Chemscore.Lipo.Weighted>
-10.7202

> <Gold.Chemscore.Internal_Hbond.Weighted>
0.0000

> <Gold.Chemscore.DEClash.Weighted>
0.0060

> <Gold.Chemscore.DEInternal.Weighted>
4.1727

> <Gold.Chemscore.Rot.Weighted>
3.9687

> <Gold.Chemscore.Internal.Correction.Weighted>
   9.000000E+99

> <Gold.Protein.RotatedTorsions>
[ 6907 6896 6895 6894 ] final   95.48 input  -60.11 | X-H torsion
[ 7974 7965 7964 7962 ] final   52.64 input  175.53 | X-H torsion
[ 8008 7997 7996 7995 ] final   15.82 input   59.86 | X-H torsion
[ 10167 10162 10161 10158 ] final  160.09 input  -65.29 | X-H torsion
[ 10718 10713 10712 10709 ] final  103.30 input   66.30 | X-H torsion
[ 10763 10752 10751 10750 ] final  173.00 input  -60.55 | X-H torsion
[ 11005 11000 10999 10996 ] final  143.25 input  -57.11 | X-H torsion

> <Gold.Protein.ActiveResidues>
 VAL166  LYS551  ARG553  GLY616  TRP617  ASP618  TYR619  PRO620  LYS621  CYS622 
 ASP623  PHE694  ASN695  SER759  ASP760  ASP761  ALA762  ILE779  LEU786  VAL792 
 PHE793  MET794  SER795  GLU796  ALA797  LYS798  CYS799  TRP800  GLU811  SER814 

> <Gold.Protein.RotatedAtoms>
  152.5443  134.1033  159.8326 H   0  0  0  0  0  0  0  0  0  0  0  0  # atno 6907 bound_to 6896
  151.1108  133.5167  159.2613 H   0  0  0  0  0  0  0  0  0  0  0  0  # atno 6908 bound_to 6896
  151.1887  135.0402  159.8877 H   0  0  0  0  0  0  0  0  0  0  0  0  # atno 6909 bound_to 6896
  145.9793  139.4226  143.0142 H   0  0  0  0  0  0  0  0  0  0  0  0  # atno 7974 bound_to 7965
  154.8681  140.2954  155.5498 H   0  0  0  0  0  0  0  0  0  0  0  0  # atno 8008 bound_to 7997
  156.3021  140.2465  156.3599 H   0  0  0  0  0  0  0  0  0  0  0  0  # atno 8009 bound_to 7997
  154.8846  140.0396  157.1791 H   0  0  0  0  0  0  0  0  0  0  0  0  # atno 8010 bound_to 7997
  139.4837  144.4668  151.8631 H   0  0  0  0  0  0  0  0  0  0  0  0  # atno 10167 bound_to 10162
  157.6776  131.0775  150.5535 H   0  0  0  0  0  0  0  0  0  0  0  0  # atno 10718 bound_to 10713
  154.4340  135.2760  155.1893 H   0  0  0  0  0  0  0  0  0  0  0  0  # atno 10763 bound_to 10752
  154.3788  135.6092  153.5783 H   0  0  0  0  0  0  0  0  0  0  0  0  # atno 10764 bound_to 10752
  152.9837  135.5875  154.4656 H   0  0  0  0  0  0  0  0  0  0  0  0  # atno 10765 bound_to 10752
  140.0540  134.9241  157.1067 H   0  0  0  0  0  0  0  0  0  0  0  0  # atno 11005 bound_to 11000
  145.7793  140.9863  143.1107 LP  0  0  0  0  0  0  0  0  0  0  0  0  # atno 17320 bound_to 7965
  144.6857  139.9545  143.7479 LP  0  0  0  0  0  0  0  0  0  0  0  0  # atno 17321 bound_to 7965
  140.4134  144.2339  150.5888 LP  0  0  0  0  0  0  0  0  0  0  0  0  # atno 17342 bound_to 10162
  140.4945  143.2337  151.8770 LP  0  0  0  0  0  0  0  0  0  0  0  0  # atno 17343 bound_to 10162
  156.5839  130.4311  149.5965 LP  0  0  0  0  0  0  0  0  0  0  0  0  # atno 17370 bound_to 10713
  156.2639  130.6978  151.1755 LP  0  0  0  0  0  0  0  0  0  0  0  0  # atno 17371 bound_to 10713
  140.3874  134.2222  155.7168 LP  0  0  0  0  0  0  0  0  0  0  0  0  # atno 17394 bound_to 11000
  141.1943  133.8131  157.0762 LP  0  0  0  0  0  0  0  0  0  0  0  0  # atno 17395 bound_to 11000

$$$$
