AV-unprocessed.smi:717|AV-procd|sdf|3490|dock8
  -GOLD-   22720 0483D 1   1.00000     0.00000
 Structure written by MMmdl.
 43 44  0  0  0  0  0  0  0  0  1 V2000
  149.1028  140.7054  158.1378 O   0  0  0  0  0  0  0  0  0  0  0  0
  150.0461  139.9505  157.9001 C   0  0  0  0  0  0  0  0  0  0  0  0
  151.3896  140.5183  157.4356 C   0  0  0  0  0  0  0  0  0  0  0  0
  151.7267  141.7930  158.1886 C   0  0  0  0  0  0  0  0  0  0  0  0
  152.7019  141.7962  159.2077 C   0  0  0  0  0  0  0  0  0  0  0  0
  152.9763  143.0024  159.8800 C   0  0  0  0  0  0  0  0  0  0  0  0
  152.2622  144.1574  159.5036 C   0  0  0  0  0  0  0  0  0  0  0  0
  151.3274  144.1669  158.5289 N   0  0  0  0  0  0  0  0  0  0  0  0
  151.0698  143.0059  157.8893 C   0  0  0  0  0  0  0  0  0  0  0  0
  149.9735  138.6169  158.0292 N   0  0  0  0  0  0  0  0  0  0  0  0
  148.7922  137.8773  158.4589 C   0  0  0  0  0  0  0  0  0  0  0  0
  149.0831  137.0065  159.6927 C   0  0  0  0  0  0  0  0  0  0  0  0
  147.8062  136.6108  160.4473 C   0  0  0  0  0  0  0  0  0  0  0  0
  148.0880  136.1827  161.8962 C   0  0  0  0  0  0  0  0  0  0  0  0
  146.8194  135.7819  162.6698 C   0  0  0  0  0  0  0  0  0  0  0  0
  146.3360  134.3654  162.3545 C   0  0  0  0  0  0  0  0  0  0  0  0
  144.8904  134.3377  162.8536 C   0  0  0  0  0  0  0  0  0  0  0  0
  144.3715  135.7761  162.7125 C   0  0  0  0  0  0  0  0  0  0  0  0
  145.5889  136.6471  162.3702 C   0  0  0  0  0  0  0  0  0  0  0  0
  152.1675  139.7719  157.6002 H   0  0  0  0  0  0  0  0  0  0  0  0
  151.3713  140.7254  156.3641 H   0  0  0  0  0  0  0  0  0  0  0  0
  153.2283  140.8908  159.4725 H   0  0  0  0  0  0  0  0  0  0  0  0
  153.7153  143.0412  160.6666 H   0  0  0  0  0  0  0  0  0  0  0  0
  152.4472  145.0988  159.9991 H   0  0  0  0  0  0  0  0  0  0  0  0
  150.3154  143.0456  157.1173 H   0  0  0  0  0  0  0  0  0  0  0  0
  150.7966  138.0737  157.8119 H   0  0  0  0  0  0  0  0  0  0  0  0
  147.9729  138.5688  158.6625 H   0  0  0  0  0  0  0  0  0  0  0  0
  148.4688  137.2490  157.6286 H   0  0  0  0  0  0  0  0  0  0  0  0
  149.6171  136.1062  159.3859 H   0  0  0  0  0  0  0  0  0  0  0  0
  149.7473  137.5435  160.3710 H   0  0  0  0  0  0  0  0  0  0  0  0
  147.1119  137.4520  160.4482 H   0  0  0  0  0  0  0  0  0  0  0  0
  147.3089  135.8001  159.9140 H   0  0  0  0  0  0  0  0  0  0  0  0
  148.8035  135.3593  161.9045 H   0  0  0  0  0  0  0  0  0  0  0  0
  148.5704  137.0091  162.4195 H   0  0  0  0  0  0  0  0  0  0  0  0
  147.0247  135.8331  163.7404 H   0  0  0  0  0  0  0  0  0  0  0  0
  146.3538  134.1950  161.2771 H   0  0  0  0  0  0  0  0  0  0  0  0
  146.9530  133.5975  162.8225 H   0  0  0  0  0  0  0  0  0  0  0  0
  144.2807  133.6196  162.3043 H   0  0  0  0  0  0  0  0  0  0  0  0
  144.8727  134.0461  163.9045 H   0  0  0  0  0  0  0  0  0  0  0  0
  143.6160  135.8498  161.9296 H   0  0  0  0  0  0  0  0  0  0  0  0
  143.9074  136.1027  163.6438 H   0  0  0  0  0  0  0  0  0  0  0  0
  145.5954  137.5829  162.9300 H   0  0  0  0  0  0  0  0  0  0  0  0
  145.5615  136.9014  161.3096 H   0  0  0  0  0  0  0  0  0  0  0  0
  1  2  2  0  0  0  0
  2  3  1  0  0  0  0
  2 10  1  0  0  0  0
  3  4  1  0  0  0  0
  3 20  1  0  0  0  0
  3 21  1  0  0  0  0
  4  9  1  0  0  0  0
  4  5  2  0  0  0  0
  5  6  1  0  0  0  0
  5 22  1  0  0  0  0
  6  7  2  0  0  0  0
  6 23  1  0  0  0  0
  7  8  1  0  0  0  0
  7 24  1  0  0  0  0
  8  9  2  0  0  0  0
  9 25  1  0  0  0  0
 10 11  1  0  0  0  0
 10 26  1  0  0  0  0
 11 12  1  0  0  0  0
 11 27  1  0  0  0  0
 11 28  1  0  0  0  0
 12 13  1  0  0  0  0
 12 29  1  0  0  0  0
 12 30  1  0  0  0  0
 13 14  1  0  0  0  0
 13 31  1  0  0  0  0
 13 32  1  0  0  0  0
 14 15  1  0  0  0  0
 14 33  1  0  0  0  0
 14 34  1  0  0  0  0
 15 19  1  0  0  0  0
 15 16  1  0  0  0  0
 15 35  1  0  0  0  0
 16 17  1  0  0  0  0
 16 36  1  0  0  0  0
 16 37  1  0  0  0  0
 17 18  1  0  0  0  0
 17 38  1  0  0  0  0
 17 39  1  0  0  0  0
 18 19  1  0  0  0  0
 18 40  1  0  0  0  0
 18 41  1  0  0  0  0
 19 42  1  0  0  0  0
 19 43  1  0  0  0  0
M  END
> <s_m_source_file>
AV-unprocessed.smi

> <i_m_source_file_index>
717

> <i_lp_mmshare_version>
43012

> <i_f3d_flags>
0

> <s_epik_input>
W2NIXTFuW2NIXVtjSF1bY0hdYzFbQ0gyXUMoPU8pW05IXVtDSDJdW0NIMl1bQ0gyXVtDSDJdW0NIXTJbQ0gyXVtDSDJdW0NIMl1bQ0gyXTI=

> <s_epik_cmdline>
J2VwaWtfcHl0aG9uJywgJy1waCcsICc3LjAnLCAnLXRuJywgJzgnLCAnLW1hJywgJzIwMCcsICctbWV0YWxfYmluZGluZycsICctaW1hZScsICc8aW5maWxlLm1hZT4nLCAnLW9tYWUnLCAnPG91dGZpbGUubWFlPic=

> <r_epik_Ionization_Penalty>
0.00412097

> <r_epik_Ionization_Penalty_Charging>
0

> <r_epik_Ionization_Penalty_Neutral>
0.00412097

> <r_epik_State_Penalty>
0.00295657

> <r_epik_Charging_Adjusted_Penalty>
0.00295657

> <i_epik_Tot_Q>
0

> <i_epik_Tot_abs_Q>
0

> <r_epik_Metal_State_Penalty>
-0

> <b_epik_Metal_Only>
0

> <s_lp_Force_Field>
OPLS_2005

> <r_lp_Energy>
20.3192

> <b_lp_Chiralities_Consistent>
1

> <s_lp_Variant>
AV-unprocessed.smi:717-1

> <Gold.Version>
5.8.1

> <Gold.Id.Protein>
6NUR|6NUR_protein|mol2

> <Gold.PLP.Fitness>
42.0275

> <Gold.PLP.PLP>
-40.6463

> <Gold.PLP.part.hbond>
0.0000

> <Gold.PLP.part.metal>
0.0000

> <Gold.PLP.part.buried>
-5.6078

> <Gold.PLP.part.nonpolar>
-35.5104

> <Gold.PLP.part.repulsive>
0.2432

> <Gold.PLP.ligand.clash>
0.0000

> <Gold.PLP.ligand.torsion>
0.8585

> <Gold.PLP.Chemscore.Hbond>
0.0000

> <Gold.PLP.Chemscore.CHOScore>
0.9982

> <Gold.PLP.Chemscore.Metal>
0.0000

> <Gold.Chemscore.Hbonds>
donor molecule, donor type, donor heavy atom, donor atom, acceptor molecule, acceptor atom, score
      L1  C     9    25       P1  8028  0.74

> <Gold.PLP.Chemscore.Internal.Correction>
0.1037

> <Gold.Rescore>
     Score         DG    S(hbond)    S(metal)    S(lipo)     H(rot)  DE(clash)    DE(int)     intcor
     12.75     -14.82       0.00        0.00     116.34       1.67       0.05       2.03       ----

> <Gold.Chemscore.Fitness>
12.7457

> <Gold.Chemscore.DG>
-14.8223

> <Gold.Chemscore.ZeroCoef>
-5.4800

> <Gold.Chemscore.Hbond>
0.0000

> <Gold.Chemscore.Metal>
0.0000

> <Gold.Chemscore.Lipo>
116.3361

> <Gold.Chemscore.Internal_Hbond>
0.0000

> <Gold.Chemscore.DEClash>
0.0495

> <Gold.Chemscore.DEInternal>
2.0271

> <Gold.Chemscore.Rot>
1.6676

> <Gold.Chemscore.Internal.Correction>
   9.000000E+99

> <Gold.Chemscore.Hbond.Weighted>
-0.0000

> <Gold.Chemscore.Metal.Weighted>
-0.0000

> <Gold.Chemscore.Lipo.Weighted>
-13.6113

> <Gold.Chemscore.Internal_Hbond.Weighted>
0.0000

> <Gold.Chemscore.DEClash.Weighted>
0.0495

> <Gold.Chemscore.DEInternal.Weighted>
2.0271

> <Gold.Chemscore.Rot.Weighted>
4.2690

> <Gold.Chemscore.Internal.Correction.Weighted>
   9.000000E+99

> <Gold.Protein.RotatedTorsions>
[ 6907 6896 6895 6894 ] final  169.44 input  -60.11 | X-H torsion
[ 7974 7965 7964 7962 ] final   90.44 input  175.53 | X-H torsion
[ 8008 7997 7996 7995 ] final   77.56 input   59.86 | X-H torsion
[ 10167 10162 10161 10158 ] final -123.83 input  -65.29 | X-H torsion
[ 10718 10713 10712 10709 ] final   68.34 input   66.30 | X-H torsion
[ 10763 10752 10751 10750 ] final   73.38 input  -60.55 | X-H torsion
[ 11005 11000 10999 10996 ] final   95.67 input  -57.11 | X-H torsion

> <Gold.Protein.ActiveResidues>
 VAL166  LYS551  ARG553  GLY616  TRP617  ASP618  TYR619  PRO620  LYS621  CYS622 
 ASP623  PHE694  ASN695  SER759  ASP760  ASP761  ALA762  ILE779  LEU786  VAL792 
 PHE793  MET794  SER795  GLU796  ALA797  LYS798  CYS799  TRP800  GLU811  SER814 

> <Gold.Protein.RotatedAtoms>
  151.8319  133.3410  159.3615 H   0  0  0  0  0  0  0  0  0  0  0  0  # atno 6907 bound_to 6896
  150.7261  134.5475  159.5787 H   0  0  0  0  0  0  0  0  0  0  0  0  # atno 6908 bound_to 6896
  152.2930  134.7701  160.0425 H   0  0  0  0  0  0  0  0  0  0  0  0  # atno 6909 bound_to 6896
  145.5190  139.2279  143.2682 H   0  0  0  0  0  0  0  0  0  0  0  0  # atno 7974 bound_to 7965
  155.8433  140.3461  155.5646 H   0  0  0  0  0  0  0  0  0  0  0  0  # atno 8008 bound_to 7997
  155.8117  140.0900  157.1919 H   0  0  0  0  0  0  0  0  0  0  0  0  # atno 8009 bound_to 7997
  154.4005  140.1446  156.3382 H   0  0  0  0  0  0  0  0  0  0  0  0  # atno 8010 bound_to 7997
  139.9993  143.5558  152.2310 H   0  0  0  0  0  0  0  0  0  0  0  0  # atno 10167 bound_to 10162
  157.6284  130.9368  150.0364 H   0  0  0  0  0  0  0  0  0  0  0  0  # atno 10718 bound_to 10713
  153.0518  135.5065  154.7885 H   0  0  0  0  0  0  0  0  0  0  0  0  # atno 10763 bound_to 10752
  154.6742  135.2958  154.9704 H   0  0  0  0  0  0  0  0  0  0  0  0  # atno 10764 bound_to 10752
  154.0512  135.6704  153.4853 H   0  0  0  0  0  0  0  0  0  0  0  0  # atno 10765 bound_to 10752
  139.8787  134.8911  156.4045 H   0  0  0  0  0  0  0  0  0  0  0  0  # atno 11005 bound_to 11000
  146.2118  140.6001  142.9056 LP  0  0  0  0  0  0  0  0  0  0  0  0  # atno 17320 bound_to 7965
  144.7686  140.5587  143.6686 LP  0  0  0  0  0  0  0  0  0  0  0  0  # atno 17321 bound_to 7965
  139.6283  144.7640  151.2590 LP  0  0  0  0  0  0  0  0  0  0  0  0  # atno 17342 bound_to 10162
  140.7425  143.6524  150.8237 LP  0  0  0  0  0  0  0  0  0  0  0  0  # atno 17343 bound_to 10162
  156.1470  130.3642  149.9495 LP  0  0  0  0  0  0  0  0  0  0  0  0  # atno 17370 bound_to 10713
  156.7523  130.9120  151.3638 LP  0  0  0  0  0  0  0  0  0  0  0  0  # atno 17371 bound_to 10713
  140.9244  133.7623  155.9946 LP  0  0  0  0  0  0  0  0  0  0  0  0  # atno 17394 bound_to 11000
  140.8403  134.3074  157.5316 LP  0  0  0  0  0  0  0  0  0  0  0  0  # atno 17395 bound_to 11000

$$$$
