AV-unprocessed.smi:21|AV-procd|sdf|168|dock8
  -GOLD-   2262015413D 1   1.00000     0.00000
 Structure written by MMmdl.
 61 64  0  0  0  0  0  0  0  0  1 V2000
  145.7336  134.9722  150.6574 C   0  0  0  0  0  0  0  0  0  0  0  0
  146.5310  134.1126  151.4571 O   0  0  0  0  0  0  0  0  0  0  0  0
  145.7810  133.0869  152.0927 C   0  0  2  0  0  0  0  0  0  0  0  0
  146.2638  132.8218  153.5261 C   0  0  0  0  0  0  0  0  0  0  0  0
  146.3280  131.2917  153.6186 C   0  0  2  0  0  0  0  0  0  0  0  0
  147.2425  130.7652  154.7505 C   0  0  0  0  0  0  0  0  0  0  0  0
  148.6578  130.6893  154.3813 N   0  0  0  0  0  0  0  0  0  0  0  0
  149.1493  129.4217  153.8493 C   0  0  0  0  0  0  0  0  0  0  0  0
  149.5290  131.4763  155.0684 C   0  0  0  0  0  0  0  0  0  0  0  0
  150.4320  130.8943  155.9032 N   0  0  0  0  0  0  0  0  0  0  0  0
  151.2454  131.6435  156.6519 C   0  0  0  0  0  0  0  0  0  0  0  0
  151.3204  132.9724  156.7264 N   0  0  0  0  0  0  0  0  0  0  0  0
  150.4391  133.5659  155.8723 C   0  0  0  0  0  0  0  0  0  0  0  0
  149.5318  132.9003  154.9992 C   0  0  0  0  0  0  0  0  0  0  0  0
  148.8308  133.8393  154.2506 N   0  0  0  0  0  0  0  0  0  0  0  0
  149.2768  134.9889  154.6746 C   0  0  0  0  0  0  0  0  0  0  0  0
  150.2110  134.9180  155.6826 N   0  0  0  0  0  0  0  0  0  0  0  0
  150.8444  136.0366  156.3598 C   0  0  0  0  0  0  0  0  0  0  0  0
  149.8495  137.0865  156.9314 C   0  0  1  0  0  0  0  0  0  0  0  0
  149.8817  137.0348  158.4772 C   0  0  0  0  0  0  0  0  0  0  0  0
  149.2188  135.8870  158.9664 O   0  0  0  0  0  0  0  0  0  0  0  0
  150.1093  138.5381  156.4307 C   0  0  1  0  0  0  0  0  0  0  0  0
  151.3433  139.2417  156.9747 C   0  0  0  0  0  0  0  0  0  0  0  0
  151.5570  140.3516  155.9571 C   0  0  0  0  0  0  0  0  0  0  0  0
  151.2433  139.7532  154.7103 O   0  0  0  0  0  0  0  0  0  0  0  0
  150.3759  138.6424  154.9189 C   0  0  0  0  0  0  0  0  0  0  0  0
  146.7431  130.8886  152.2840 N   0  0  0  0  0  0  0  0  0  0  0  0
  146.5442  129.4732  152.0013 C   0  0  0  0  0  0  0  0  0  0  0  0
  145.9838  131.7409  151.3839 C   0  0  0  0  0  0  0  0  0  0  0  0
  144.7170  133.3301  152.0786 H   0  0  0  0  0  0  0  0  0  0  0  0
  145.3138  130.9259  153.7889 H   0  0  0  0  0  0  0  0  0  0  0  0
  146.3649  135.7215  150.1808 H   0  0  0  0  0  0  0  0  0  0  0  0
  144.9855  135.4964  151.2527 H   0  0  0  0  0  0  0  0  0  0  0  0
  145.2245  134.4164  149.8692 H   0  0  0  0  0  0  0  0  0  0  0  0
  147.2597  133.2442  153.6712 H   0  0  0  0  0  0  0  0  0  0  0  0
  145.5981  133.2643  154.2671 H   0  0  0  0  0  0  0  0  0  0  0  0
  147.1777  131.4321  155.6099 H   0  0  0  0  0  0  0  0  0  0  0  0
  146.8665  129.8090  155.1066 H   0  0  0  0  0  0  0  0  0  0  0  0
  150.0782  129.5666  153.2965 H   0  0  0  0  0  0  0  0  0  0  0  0
  148.4205  128.9860  153.1657 H   0  0  0  0  0  0  0  0  0  0  0  0
  149.3304  128.7063  154.6523 H   0  0  0  0  0  0  0  0  0  0  0  0
  151.9233  131.1003  157.2933 H   0  0  0  0  0  0  0  0  0  0  0  0
  148.9097  135.9265  154.2831 H   0  0  0  0  0  0  0  0  0  0  0  0
  151.4530  135.6093  157.1567 H   0  0  0  0  0  0  0  0  0  0  0  0
  151.5406  136.5177  155.6718 H   0  0  0  0  0  0  0  0  0  0  0  0
  148.8396  136.8125  156.6250 H   0  0  0  0  0  0  0  0  0  0  0  0
  150.9087  137.0429  158.8437 H   0  0  0  0  0  0  0  0  0  0  0  0
  149.3809  137.8965  158.9165 H   0  0  0  0  0  0  0  0  0  0  0  0
  148.7249  136.1291  159.7351 H   0  0  0  0  0  0  0  0  0  0  0  0
  149.2414  139.1558  156.6682 H   0  0  0  0  0  0  0  0  0  0  0  0
  151.2044  139.6515  157.9731 H   0  0  0  0  0  0  0  0  0  0  0  0
  152.2011  138.5680  156.9877 H   0  0  0  0  0  0  0  0  0  0  0  0
  150.8632  141.1734  156.1387 H   0  0  0  0  0  0  0  0  0  0  0  0
  152.5703  140.7523  155.9740 H   0  0  0  0  0  0  0  0  0  0  0  0
  150.8814  137.7509  154.5460 H   0  0  0  0  0  0  0  0  0  0  0  0
  149.4536  138.7664  154.3511 H   0  0  0  0  0  0  0  0  0  0  0  0
  146.8227  129.2460  150.9718 H   0  0  0  0  0  0  0  0  0  0  0  0
  145.5019  129.1840  152.1420 H   0  0  0  0  0  0  0  0  0  0  0  0
  147.1608  128.8527  152.6511 H   0  0  0  0  0  0  0  0  0  0  0  0
  145.0050  131.2994  151.1887 H   0  0  0  0  0  0  0  0  0  0  0  0
  146.4889  131.8467  150.4232 H   0  0  0  0  0  0  0  0  0  0  0  0
  1  2  1  0  0  0  0
  1 32  1  0  0  0  0
  1 33  1  0  0  0  0
  1 34  1  0  0  0  0
  2  3  1  0  0  0  0
  3 30  1  0  0  0  0
  3 29  1  0  0  0  0
  3  4  1  0  0  0  0
  4  5  1  0  0  0  0
  4 35  1  0  0  0  0
  4 36  1  0  0  0  0
  5 31  1  0  0  0  0
  5  6  1  0  0  0  0
  5 27  1  0  0  0  0
  6  7  1  0  0  0  0
  6 37  1  0  0  0  0
  6 38  1  0  0  0  0
  7  8  1  0  0  0  0
  7  9  1  0  0  0  0
  8 39  1  0  0  0  0
  8 40  1  0  0  0  0
  8 41  1  0  0  0  0
  9 14  1  0  0  0  0
  9 10  2  0  0  0  0
 10 11  1  0  0  0  0
 11 12  2  0  0  0  0
 11 42  1  0  0  0  0
 12 13  1  0  0  0  0
 13 17  1  0  0  0  0
 13 14  2  0  0  0  0
 14 15  1  0  0  0  0
 15 16  2  0  0  0  0
 16 17  1  0  0  0  0
 16 43  1  0  0  0  0
 17 18  1  0  0  0  0
 18 19  1  0  0  0  0
 18 44  1  0  0  0  0
 18 45  1  0  0  0  0
 19 20  1  0  0  0  0
 19 22  1  0  0  0  0
 19 46  1  0  0  0  0
 20 21  1  0  0  0  0
 20 47  1  0  0  0  0
 20 48  1  0  0  0  0
 21 49  1  0  0  0  0
 22 26  1  0  0  0  0
 22 23  1  0  0  0  0
 22 50  1  0  0  0  0
 23 24  1  0  0  0  0
 23 51  1  0  0  0  0
 23 52  1  0  0  0  0
 24 25  1  0  0  0  0
 24 53  1  0  0  0  0
 24 54  1  0  0  0  0
 25 26  1  0  0  0  0
 26 55  1  0  0  0  0
 26 56  1  0  0  0  0
 27 28  1  0  0  0  0
 27 29  1  0  0  0  0
 28 57  1  0  0  0  0
 28 58  1  0  0  0  0
 28 59  1  0  0  0  0
 29 60  1  0  0  0  0
 29 61  1  0  0  0  0
M  END
> <s_m_source_file>
AV-unprocessed.smi

> <i_m_source_file_index>
21

> <i_lp_mmshare_version>
43012

> <i_f3d_flags>
0

> <s_epik_input>
W0NIM11PW0NASF0xW0NIMl1bQ0BIXShOKFtDSDNdKVtDSDJdMSlbQ0gyXU4oW0NIM10pYyhuW2NIXW4yKWMoYzIzKW5bY0hdbjNbQ0gyXVtDQEhdKFtDSDJdW09IXSlbQ0BASF00W0NIMl1bQ0gyXU9bQ0gyXTQ=

> <s_epik_cmdline>
J2VwaWtfcHl0aG9uJywgJy1waCcsICc3LjAnLCAnLXRuJywgJzgnLCAnLW1hJywgJzIwMCcsICctbWV0YWxfYmluZGluZycsICctaW1hZScsICc8aW5maWxlLm1hZT4nLCAnLW9tYWUnLCAnPG91dGZpbGUubWFlPic=

> <r_lp_tautomer_probability>
1

> <r_epik_Ionization_Penalty>
2.17574

> <r_epik_Ionization_Penalty_Charging>
0

> <r_epik_Ionization_Penalty_Neutral>
2.17574

> <r_epik_State_Penalty>
2.31336

> <r_epik_Charging_Adjusted_Penalty>
2.31336

> <i_epik_Tot_Q>
0

> <i_epik_Tot_abs_Q>
0

> <r_epik_Metal_State_Penalty>
2.31025

> <b_epik_Metal_Only>
0

> <s_lp_Force_Field>
OPLS_2005

> <r_lp_Energy>
69.8341

> <b_lp_Chiralities_Consistent>
1

> <s_lp_Variant>
AV-unprocessed.smi:21-48

> <Gold.Version>
5.8.1

> <Gold.Id.Protein>
6NUR|6NUR_protein|mol2

> <Gold.PLP.Fitness>
42.5645

> <Gold.PLP.PLP>
-39.9724

> <Gold.PLP.part.hbond>
-2.0000

> <Gold.PLP.part.metal>
0.0000

> <Gold.PLP.part.buried>
-6.3710

> <Gold.PLP.part.nonpolar>
-31.9422

> <Gold.PLP.part.repulsive>
1.0301

> <Gold.PLP.ligand.clash>
0.0000

> <Gold.PLP.ligand.torsion>
3.0525

> <Gold.PLP.Chemscore.Hbond>
2.0000

> <Gold.PLP.Chemscore.CHOScore>
0.6653

> <Gold.PLP.Chemscore.Metal>
0.0000

> <Gold.Chemscore.Hbonds>
donor molecule, donor type, donor heavy atom, donor atom, acceptor molecule, acceptor atom, score
      P1  H  6896  6908       L1    21  0.86
      P1  H  7989  7998       L1    25  1.00
      L1  C    16    43       P1  7948  0.73

> <Gold.PLP.Chemscore.Internal.Correction>
0.7010

> <Gold.Rescore>
     Score         DG    S(hbond)    S(metal)    S(lipo)     H(rot)  DE(clash)    DE(int)     intcor
      8.54     -12.72       1.89        0.00      73.77       3.00       0.01       4.16       ----

> <Gold.Chemscore.Fitness>
8.5433

> <Gold.Chemscore.DG>
-12.7212

> <Gold.Chemscore.ZeroCoef>
-5.4800

> <Gold.Chemscore.Hbond>
1.8857

> <Gold.Chemscore.Metal>
0.0000

> <Gold.Chemscore.Lipo>
73.7680

> <Gold.Chemscore.Internal_Hbond>
0.0000

> <Gold.Chemscore.DEClash>
0.0141

> <Gold.Chemscore.DEInternal>
4.1638

> <Gold.Chemscore.Rot>
3.0031

> <Gold.Chemscore.Internal.Correction>
   9.000000E+99

> <Gold.Chemscore.Hbonds>
donor molecule, donor type, donor heavy atom, donor atom, acceptor molecule, acceptor atom, score
      P1  H  6896  6908       L1    21  0.40
      P1  H  7989  7998       L1    25  0.65

> <Gold.Chemscore.Hbond.Weighted>
-6.2983

> <Gold.Chemscore.Metal.Weighted>
-0.0000

> <Gold.Chemscore.Lipo.Weighted>
-8.6309

> <Gold.Chemscore.Internal_Hbond.Weighted>
0.0000

> <Gold.Chemscore.DEClash.Weighted>
0.0141

> <Gold.Chemscore.DEInternal.Weighted>
4.1638

> <Gold.Chemscore.Rot.Weighted>
7.6880

> <Gold.Chemscore.Internal.Correction.Weighted>
   9.000000E+99

> <Gold.Protein.RotatedTorsions>
[ 6907 6896 6895 6894 ] final  160.77 input  -60.11 | X-H torsion
[ 7974 7965 7964 7962 ] final  -29.37 input  175.53 | X-H torsion
[ 8008 7997 7996 7995 ] final -117.18 input   59.86 | X-H torsion
[ 10167 10162 10161 10158 ] final  106.89 input  -65.29 | X-H torsion
[ 10718 10713 10712 10709 ] final  141.71 input   66.30 | X-H torsion
[ 10763 10752 10751 10750 ] final -177.48 input  -60.55 | X-H torsion
[ 11005 11000 10999 10996 ] final   57.10 input  -57.11 | X-H torsion

> <Gold.Protein.ActiveResidues>
 VAL166  LYS551  ARG553  GLY616  TRP617  ASP618  TYR619  PRO620  LYS621  CYS622 
 ASP623  PHE694  ASN695  SER759  ASP760  ASP761  ALA762  ILE779  LEU786  VAL792 
 PHE793  MET794  SER795  GLU796  ALA797  LYS798  CYS799  TRP800  GLU811  SER814 

> <Gold.Protein.RotatedAtoms>
  151.9656  133.3709  159.4051 H   0  0  0  0  0  0  0  0  0  0  0  0  # atno 6907 bound_to 6896
  150.6957  134.4194  159.5207 H   0  0  0  0  0  0  0  0  0  0  0  0  # atno 6908 bound_to 6896
  152.1890  134.8689  160.0570 H   0  0  0  0  0  0  0  0  0  0  0  0  # atno 6909 bound_to 6896
  146.1221  140.5403  142.8730 H   0  0  0  0  0  0  0  0  0  0  0  0  # atno 7974 bound_to 7965
  155.0796  140.0394  157.2635 H   0  0  0  0  0  0  0  0  0  0  0  0  # atno 8008 bound_to 7997
  154.6917  140.2655  155.6781 H   0  0  0  0  0  0  0  0  0  0  0  0  # atno 8009 bound_to 7997
  156.2731  140.2758  156.1498 H   0  0  0  0  0  0  0  0  0  0  0  0  # atno 8010 bound_to 7997
  139.6972  144.7100  151.1248 H   0  0  0  0  0  0  0  0  0  0  0  0  # atno 10167 bound_to 10162
  157.3888  131.1002  151.0666 H   0  0  0  0  0  0  0  0  0  0  0  0  # atno 10718 bound_to 10713
  154.5596  135.2819  155.0932 H   0  0  0  0  0  0  0  0  0  0  0  0  # atno 10763 bound_to 10752
  154.2346  135.6368  153.5190 H   0  0  0  0  0  0  0  0  0  0  0  0  # atno 10764 bound_to 10752
  153.0025  135.5545  154.6186 H   0  0  0  0  0  0  0  0  0  0  0  0  # atno 10765 bound_to 10752
  140.0478  134.5780  155.9301 H   0  0  0  0  0  0  0  0  0  0  0  0  # atno 11005 bound_to 11000
  144.7607  140.5416  143.6737 LP  0  0  0  0  0  0  0  0  0  0  0  0  # atno 17320 bound_to 7965
  145.5443  139.1475  143.3429 LP  0  0  0  0  0  0  0  0  0  0  0  0  # atno 17321 bound_to 7965
  140.7699  143.5475  150.9242 LP  0  0  0  0  0  0  0  0  0  0  0  0  # atno 17342 bound_to 10162
  139.9155  143.6668  152.3107 LP  0  0  0  0  0  0  0  0  0  0  0  0  # atno 17343 bound_to 10162
  157.1708  130.6266  149.5640 LP  0  0  0  0  0  0  0  0  0  0  0  0  # atno 17370 bound_to 10713
  155.9793  130.4786  150.6708 LP  0  0  0  0  0  0  0  0  0  0  0  0  # atno 17371 bound_to 10713
  141.1915  133.6572  156.5462 LP  0  0  0  0  0  0  0  0  0  0  0  0  # atno 17394 bound_to 11000
  140.3965  134.7394  157.4754 LP  0  0  0  0  0  0  0  0  0  0  0  0  # atno 17395 bound_to 11000

$$$$
