AV-unprocessed.smi:2353|AV-procd|sdf|9380|dock5
  -GOLD-   2272013 03D 1   1.00000     0.00000
 Structure written by MMmdl.
 45 47  0  0  0  0  0  0  0  0  1 V2000
  153.5289  140.8801  159.7421 C   0  0  0  0  0  0  0  0  0  0  0  0
  152.5583  141.0989  158.5998 C   0  0  0  0  0  0  0  0  0  0  0  0
  152.0188  142.3775  158.3599 C   0  0  0  0  0  0  0  0  0  0  0  0
  151.1221  142.5727  157.2944 C   0  0  0  0  0  0  0  0  0  0  0  0
  150.7585  141.4929  156.4635 C   0  0  0  0  0  0  0  0  0  0  0  0
  149.7899  141.7212  155.3183 C   0  0  0  0  0  0  0  0  0  0  0  0
  151.2892  140.2028  156.6954 C   0  0  0  0  0  0  0  0  0  0  0  0
  150.8881  139.1903  155.8483 O   0  0  0  0  0  0  0  0  0  0  0  0
  151.7875  138.1202  155.5915 C   0  0  0  0  0  0  0  0  0  0  0  0
  151.0651  137.0668  154.7351 C   0  0  2  0  0  0  0  0  0  0  0  0
  150.4199  137.7550  153.6809 O   0  0  0  0  0  0  0  0  0  0  0  0
  149.9846  136.3121  155.5412 C   0  0  0  0  0  0  0  0  0  0  0  0
  150.0964  134.8571  155.3829 N   0  0  0  0  0  0  0  0  0  0  0  0
  149.1401  134.3090  154.5474 N   0  0  0  0  0  0  0  0  0  0  0  0
  149.1258  133.0420  154.2909 C   0  0  0  0  0  0  0  0  0  0  0  0
  148.1219  132.4851  153.4019 N   0  0  0  0  0  0  0  0  0  0  0  0
  147.3296  133.2778  152.5702 C   0  0  0  0  0  0  0  0  0  0  0  0
  146.5062  132.4063  151.8917 C   0  0  0  0  0  0  0  0  0  0  0  0
  146.7684  131.0954  152.2852 N   0  0  0  0  0  0  0  0  0  0  0  0
  147.7356  131.2203  153.1844 C   0  0  0  0  0  0  0  0  0  0  0  0
  150.1227  132.1702  154.9029 C   0  0  0  0  0  0  0  0  0  0  0  0
  151.0493  132.7156  155.7204 C   0  0  0  0  0  0  0  0  0  0  0  0
  151.0828  134.1484  156.0065 C   0  0  0  0  0  0  0  0  0  0  0  0
  151.9231  134.6705  156.7384 O   0  0  0  0  0  0  0  0  0  0  0  0
  152.1956  140.0181  157.7708 C   0  0  0  0  0  0  0  0  0  0  0  0
  153.5943  141.7597  160.3831 H   0  0  0  0  0  0  0  0  0  0  0  0
  154.5247  140.6654  159.3539 H   0  0  0  0  0  0  0  0  0  0  0  0
  153.2099  140.0371  160.3555 H   0  0  0  0  0  0  0  0  0  0  0  0
  152.2903  143.2124  158.9893 H   0  0  0  0  0  0  0  0  0  0  0  0
  150.7140  143.5571  157.1176 H   0  0  0  0  0  0  0  0  0  0  0  0
  148.8748  141.1499  155.4776 H   0  0  0  0  0  0  0  0  0  0  0  0
  150.2355  141.4015  154.3760 H   0  0  0  0  0  0  0  0  0  0  0  0
  149.5224  142.7742  155.2250 H   0  0  0  0  0  0  0  0  0  0  0  0
  152.6389  138.5182  155.0375 H   0  0  0  0  0  0  0  0  0  0  0  0
  152.1658  137.6780  156.5151 H   0  0  0  0  0  0  0  0  0  0  0  0
  151.7962  136.3665  154.3290 H   0  0  0  0  0  0  0  0  0  0  0  0
  149.9995  137.1212  153.1203 H   0  0  0  0  0  0  0  0  0  0  0  0
  150.0760  136.5530  156.6018 H   0  0  0  0  0  0  0  0  0  0  0  0
  148.9873  136.6588  155.2623 H   0  0  0  0  0  0  0  0  0  0  0  0
  147.3776  134.3524  152.5027 H   0  0  0  0  0  0  0  0  0  0  0  0
  145.7463  132.6217  151.1552 H   0  0  0  0  0  0  0  0  0  0  0  0
  148.1712  130.3726  153.6927 H   0  0  0  0  0  0  0  0  0  0  0  0
  150.1459  131.1069  154.7339 H   0  0  0  0  0  0  0  0  0  0  0  0
  151.7891  132.0755  156.1786 H   0  0  0  0  0  0  0  0  0  0  0  0
  152.6296  139.0520  157.9792 H   0  0  0  0  0  0  0  0  0  0  0  0
  1  2  1  0  0  0  0
  1 26  1  0  0  0  0
  1 27  1  0  0  0  0
  1 28  1  0  0  0  0
  2 25  1  0  0  0  0
  2  3  2  0  0  0  0
  3  4  1  0  0  0  0
  3 29  1  0  0  0  0
  4  5  2  0  0  0  0
  4 30  1  0  0  0  0
  5  6  1  0  0  0  0
  5  7  1  0  0  0  0
  6 31  1  0  0  0  0
  6 32  1  0  0  0  0
  6 33  1  0  0  0  0
  7  8  1  0  0  0  0
  7 25  2  0  0  0  0
  8  9  1  0  0  0  0
  9 10  1  0  0  0  0
  9 34  1  0  0  0  0
  9 35  1  0  0  0  0
 10 11  1  0  0  0  0
 10 12  1  0  0  0  0
 10 36  1  0  0  0  0
 11 37  1  0  0  0  0
 12 13  1  0  0  0  0
 12 38  1  0  0  0  0
 12 39  1  0  0  0  0
 13 23  1  0  0  0  0
 13 14  1  0  0  0  0
 14 15  2  0  0  0  0
 15 16  1  0  0  0  0
 15 21  1  0  0  0  0
 16 20  1  0  0  0  0
 16 17  1  0  0  0  0
 17 18  2  0  0  0  0
 17 40  1  0  0  0  0
 18 19  1  0  0  0  0
 18 41  1  0  0  0  0
 19 20  2  0  0  0  0
 20 42  1  0  0  0  0
 21 22  2  0  0  0  0
 21 43  1  0  0  0  0
 22 23  1  0  0  0  0
 22 44  1  0  0  0  0
 23 24  2  0  0  0  0
 25 45  1  0  0  0  0
M  END
> <s_m_source_file>
AV-unprocessed.smi

> <i_m_source_file_index>
2353

> <i_lp_mmshare_version>
43012

> <i_f3d_flags>
0

> <s_epik_input>
W0NIM11jMVtjSF1bY0hdYyhbQ0gzXSljKFtjSF0xKU9bQ0gyXVtDQEhdKFtPSF0pW0NIMl1uMm5jKFtjSF1bY0hdYzI9TyktbjNbY0hdW2NIXW5bY0hdMw==

> <s_epik_cmdline>
J2VwaWtfcHl0aG9uJywgJy1waCcsICc3LjAnLCAnLXRuJywgJzgnLCAnLW1hJywgJzIwMCcsICctbWV0YWxfYmluZGluZycsICctaW1hZScsICc8aW5maWxlLm1hZT4nLCAnLW9tYWUnLCAnPG91dGZpbGUubWFlPic=

> <r_lp_tautomer_probability>
1

> <r_epik_Ionization_Penalty>
0.03707

> <r_epik_Ionization_Penalty_Charging>
0.0370699

> <r_epik_Ionization_Penalty_Neutral>
1.17174e-07

> <r_epik_State_Penalty>
0.0310055

> <r_epik_Charging_Adjusted_Penalty>
0.0680754

> <i_epik_Tot_Q>
0

> <i_epik_Tot_abs_Q>
0

> <r_epik_Metal_State_Penalty>
0.0291724

> <b_epik_Metal_Only>
0

> <s_lp_Force_Field>
OPLS_2005

> <r_lp_Energy>
36.9493

> <b_lp_Chiralities_Consistent>
1

> <s_lp_Variant>
AV-unprocessed.smi:2353-1

> <Gold.Version>
5.8.1

> <Gold.Id.Protein>
6NUR|6NUR_protein|mol2

> <Gold.PLP.Fitness>
48.3106

> <Gold.PLP.PLP>
-44.0072

> <Gold.PLP.part.hbond>
-3.1593

> <Gold.PLP.part.metal>
0.0000

> <Gold.PLP.part.buried>
-5.0532

> <Gold.PLP.part.nonpolar>
-36.3415

> <Gold.PLP.part.repulsive>
0.8572

> <Gold.PLP.ligand.clash>
0.0000

> <Gold.PLP.ligand.torsion>
1.4336

> <Gold.PLP.Chemscore.Hbond>
1.3728

> <Gold.PLP.Chemscore.CHOScore>
1.0000

> <Gold.PLP.Chemscore.Metal>
0.0000

> <Gold.Chemscore.Hbonds>
donor molecule, donor type, donor heavy atom, donor atom, acceptor molecule, acceptor atom, score
      L1  H    11    37       P1  7948  0.85
      P1  H 10752 10763       L1    24  0.56
      L1  C    17    40       P1  7948  1.00

> <Gold.PLP.Chemscore.Internal.Correction>
0.0524

> <Gold.Rescore>
     Score         DG    S(hbond)    S(metal)    S(lipo)     H(rot)  DE(clash)    DE(int)     intcor
     14.06     -15.66       1.75        0.00      93.87       2.60       0.18       1.43       ----

> <Gold.Chemscore.Fitness>
14.0597

> <Gold.Chemscore.DG>
-15.6640

> <Gold.Chemscore.ZeroCoef>
-5.4800

> <Gold.Chemscore.Hbond>
1.7526

> <Gold.Chemscore.Metal>
0.0000

> <Gold.Chemscore.Lipo>
93.8702

> <Gold.Chemscore.Internal_Hbond>
0.0000

> <Gold.Chemscore.DEClash>
0.1789

> <Gold.Chemscore.DEInternal>
1.4253

> <Gold.Chemscore.Rot>
2.5986

> <Gold.Chemscore.Internal.Correction>
   9.000000E+99

> <Gold.Chemscore.Hbonds>
donor molecule, donor type, donor heavy atom, donor atom, acceptor molecule, acceptor atom, score
      L1  H    11    37       P1  7948  0.15
      P1  H 10752 10763       L1    24  0.12

> <Gold.Chemscore.Hbond.Weighted>
-5.8535

> <Gold.Chemscore.Metal.Weighted>
-0.0000

> <Gold.Chemscore.Lipo.Weighted>
-10.9828

> <Gold.Chemscore.Internal_Hbond.Weighted>
0.0000

> <Gold.Chemscore.DEClash.Weighted>
0.1789

> <Gold.Chemscore.DEInternal.Weighted>
1.4253

> <Gold.Chemscore.Rot.Weighted>
6.6524

> <Gold.Chemscore.Internal.Correction.Weighted>
   9.000000E+99

> <Gold.Protein.RotatedTorsions>
[ 6907 6896 6895 6894 ] final -108.79 input  -60.11 | X-H torsion
[ 7974 7965 7964 7962 ] final  -39.78 input  175.53 | X-H torsion
[ 8008 7997 7996 7995 ] final  -35.89 input   59.86 | X-H torsion
[ 10167 10162 10161 10158 ] final -124.53 input  -65.29 | X-H torsion
[ 10718 10713 10712 10709 ] final -106.77 input   66.30 | X-H torsion
[ 10763 10752 10751 10750 ] final  102.44 input  -60.55 | X-H torsion
[ 11005 11000 10999 10996 ] final  -71.27 input  -57.11 | X-H torsion

> <Gold.Protein.ActiveResidues>
 VAL166  LYS551  ARG553  GLY616  TRP617  ASP618  TYR619  PRO620  LYS621  CYS622 
 ASP623  PHE694  ASN695  SER759  ASP760  ASP761  ALA762  ILE779  LEU786  VAL792 
 PHE793  MET794  SER795  GLU796  ALA797  LYS798  CYS799  TRP800  GLU811  SER814 

> <Gold.Protein.RotatedAtoms>
  150.7523  133.9625  159.3519 H   0  0  0  0  0  0  0  0  0  0  0  0  # atno 6907 bound_to 6896
  151.7552  135.0821  160.0346 H   0  0  0  0  0  0  0  0  0  0  0  0  # atno 6908 bound_to 6896
  152.3440  133.6063  159.5933 H   0  0  0  0  0  0  0  0  0  0  0  0  # atno 6909 bound_to 6896
  146.0365  140.6665  142.9108 H   0  0  0  0  0  0  0  0  0  0  0  0  # atno 7974 bound_to 7965
  154.4085  140.1645  156.2285 H   0  0  0  0  0  0  0  0  0  0  0  0  # atno 8008 bound_to 7997
  155.9303  140.3415  155.6220 H   0  0  0  0  0  0  0  0  0  0  0  0  # atno 8009 bound_to 7997
  155.7115  140.0757  157.2360 H   0  0  0  0  0  0  0  0  0  0  0  0  # atno 8010 bound_to 7997
  139.9918  143.5633  152.2339 H   0  0  0  0  0  0  0  0  0  0  0  0  # atno 10167 bound_to 10162
  156.0405  130.5629  150.7727 H   0  0  0  0  0  0  0  0  0  0  0  0  # atno 10718 bound_to 10713
  153.3396  135.4010  155.1561 H   0  0  0  0  0  0  0  0  0  0  0  0  # atno 10763 bound_to 10752
  154.8641  135.3630  154.5363 H   0  0  0  0  0  0  0  0  0  0  0  0  # atno 10764 bound_to 10752
  153.5807  135.7076  153.5524 H   0  0  0  0  0  0  0  0  0  0  0  0  # atno 10765 bound_to 10752
  141.1589  133.6813  156.6880 H   0  0  0  0  0  0  0  0  0  0  0  0  # atno 11005 bound_to 11000
  144.7054  140.3830  143.7122 LP  0  0  0  0  0  0  0  0  0  0  0  0  # atno 17320 bound_to 7965
  145.6955  139.1649  143.2622 LP  0  0  0  0  0  0  0  0  0  0  0  0  # atno 17321 bound_to 7965
  139.6335  144.7647  151.2487 LP  0  0  0  0  0  0  0  0  0  0  0  0  # atno 17342 bound_to 10162
  140.7452  143.6439  150.8310 LP  0  0  0  0  0  0  0  0  0  0  0  0  # atno 17343 bound_to 10162
  157.5217  131.0932  151.0070 LP  0  0  0  0  0  0  0  0  0  0  0  0  # atno 17370 bound_to 10713
  157.0399  130.5745  149.5355 LP  0  0  0  0  0  0  0  0  0  0  0  0  # atno 17371 bound_to 10713
  140.3052  134.8131  157.4131 LP  0  0  0  0  0  0  0  0  0  0  0  0  # atno 17394 bound_to 11000
  140.1227  134.5199  155.8170 LP  0  0  0  0  0  0  0  0  0  0  0  0  # atno 17395 bound_to 11000

$$$$
