AV-unprocessed.smi:793|AV-procd|sdf|3755|dock2
  -GOLD-   22720 1183D 1   1.00000     0.00000
 Structure written by MMmdl.
 38 39  0  0  0  0  0  0  0  0  2 V2000
  152.4412  138.8152  154.3649 C   0  0  0  0  0  0  0  0  0  0  0  0
  152.4156  139.5142  155.7300 C   0  0  0  0  0  0  0  0  0  0  0  0
  151.2802  140.5487  155.8471 C   0  0  1  0  0  0  0  0  0  0  0  0
  150.0460  139.8631  155.6401 O   0  0  0  0  0  0  0  0  0  0  0  0
  149.4682  139.9787  154.3415 C   0  0  0  0  0  0  0  0  0  0  0  0
  148.9929  141.4167  154.1078 C   0  0  0  0  0  0  0  0  0  0  0  0
  147.6275  141.5210  154.8000 C   0  0  0  0  0  0  0  0  0  0  0  0
  147.1395  140.0810  155.0192 C   0  0  0  0  0  0  0  0  0  0  0  0
  148.1678  139.1758  154.3345 C   0  0  0  0  0  0  0  0  0  0  0  0
  151.2840  141.2406  157.2211 C   0  0  0  0  0  0  0  0  0  0  0  0
  151.0985  140.5741  158.2395 O   0  0  0  0  0  0  0  0  0  0  0  0
  151.5002  142.5685  157.2021 N   0  0  0  0  0  0  0  0  0  0  0  0
  151.5653  143.4845  158.2890 C   0  0  0  0  0  0  0  0  0  0  0  0
  151.0408  144.8008  158.2420 C   0  0  0  0  0  0  0  0  0  0  0  0
  151.1173  145.6729  159.2705 N   0  0  0  0  0  0  0  0  0  0  0  0
  151.7338  145.2657  160.3997 C   0  0  0  0  0  0  0  0  0  0  0  0
  152.3065  143.9885  160.5505 C   0  0  0  0  0  0  0  0  0  0  0  0
  152.2255  143.0833  159.4747 C   0  0  0  0  0  0  0  0  0  0  0  0
  152.7812  141.8397  159.5977 O   0  5  0  0  0  0  0  0  0  0  0  0
  153.2573  138.0943  154.3130 H   0  0  0  0  0  0  0  0  0  0  0  0
  152.5808  139.5345  153.5576 H   0  0  0  0  0  0  0  0  0  0  0  0
  151.5110  138.2780  154.1783 H   0  0  0  0  0  0  0  0  0  0  0  0
  152.3194  138.7637  156.5159 H   0  0  0  0  0  0  0  0  0  0  0  0
  153.3779  140.0031  155.8887 H   0  0  0  0  0  0  0  0  0  0  0  0
  151.4154  141.2968  155.0631 H   0  0  0  0  0  0  0  0  0  0  0  0
  150.1434  139.6321  153.5570 H   0  0  0  0  0  0  0  0  0  0  0  0
  149.6993  142.1658  154.4655 H   0  0  0  0  0  0  0  0  0  0  0  0
  148.8646  141.5799  153.0371 H   0  0  0  0  0  0  0  0  0  0  0  0
  147.7247  142.0304  155.7596 H   0  0  0  0  0  0  0  0  0  0  0  0
  146.9266  142.0971  154.1950 H   0  0  0  0  0  0  0  0  0  0  0  0
  147.1129  139.8642  156.0878 H   0  0  0  0  0  0  0  0  0  0  0  0
  146.1343  139.9204  154.6282 H   0  0  0  0  0  0  0  0  0  0  0  0
  147.8611  138.9943  153.3036 H   0  0  0  0  0  0  0  0  0  0  0  0
  148.2680  138.2058  154.8229 H   0  0  0  0  0  0  0  0  0  0  0  0
  151.7156  142.9695  156.3006 H   0  0  0  0  0  0  0  0  0  0  0  0
  150.5617  145.1940  157.3593 H   0  0  0  0  0  0  0  0  0  0  0  0
  151.7781  145.9826  161.2061 H   0  0  0  0  0  0  0  0  0  0  0  0
  152.7970  143.7123  161.4724 H   0  0  0  0  0  0  0  0  0  0  0  0
  1  2  1  0  0  0  0
  1 20  1  0  0  0  0
  1 21  1  0  0  0  0
  1 22  1  0  0  0  0
  2  3  1  0  0  0  0
  2 23  1  0  0  0  0
  2 24  1  0  0  0  0
  3  4  1  0  0  0  0
  3 10  1  0  0  0  0
  3 25  1  0  0  0  0
  4  5  1  0  0  0  0
  5  9  1  0  0  0  0
  5  6  1  0  0  0  0
  5 26  1  0  0  0  0
  6  7  1  0  0  0  0
  6 27  1  0  0  0  0
  6 28  1  0  0  0  0
  7  8  1  0  0  0  0
  7 29  1  0  0  0  0
  7 30  1  0  0  0  0
  8  9  1  0  0  0  0
  8 31  1  0  0  0  0
  8 32  1  0  0  0  0
  9 33  1  0  0  0  0
  9 34  1  0  0  0  0
 10 11  2  0  0  0  0
 10 12  1  0  0  0  0
 12 35  1  0  0  0  0
 12 13  1  0  0  0  0
 13 18  1  0  0  0  0
 13 14  2  0  0  0  0
 14 36  1  0  0  0  0
 14 15  1  0  0  0  0
 15 16  2  0  0  0  0
 16 37  1  0  0  0  0
 16 17  1  0  0  0  0
 17 18  2  0  0  0  0
 17 38  1  0  0  0  0
 18 19  1  0  0  0  0
M  CHG  1  19  -1
M  END
> <s_m_source_file>
AV-unprocessed.smi

> <i_m_source_file_index>
793

> <i_lp_mmshare_version>
43012

> <i_f3d_flags>
0

> <s_epik_input>
W0NIMl0xW0NIMl1bQ0gyXVtDSDJdW0NIXTFPW0NAQEhdKFtDSDJdW0NIM10pQyg9TylbTkhdYzJbY0hdbltjSF1bY0hdYzJbT0hd

> <s_epik_cmdline>
J2VwaWtfcHl0aG9uJywgJy1waCcsICc3LjAnLCAnLXRuJywgJzgnLCAnLW1hJywgJzIwMCcsICctbWV0YWxfYmluZGluZycsICctaW1hZScsICc8aW5maWxlLm1hZT4nLCAnLW9tYWUnLCAnPG91dGZpbGUubWFlPic=

> <r_lp_tautomer_probability>
1

> <r_epik_Ionization_Penalty>
5.91611

> <r_epik_Ionization_Penalty_Charging>
1.01889

> <r_epik_Ionization_Penalty_Neutral>
4.89722

> <r_epik_State_Penalty>
4.89706

> <r_epik_Charging_Adjusted_Penalty>
5.91595

> <i_epik_Tot_Q>
-1

> <i_epik_Tot_abs_Q>
1

> <r_epik_Metal_State_Penalty>
1.05012

> <b_epik_Metal_Only>
1

> <s_lp_Force_Field>
OPLS_2005

> <r_lp_Energy>
29.623

> <b_lp_Chiralities_Consistent>
1

> <s_lp_Variant>
AV-unprocessed.smi:793-4

> <Gold.Version>
5.8.1

> <Gold.Id.Protein>
6NUR|6NUR_protein|mol2

> <Gold.PLP.Fitness>
40.6274

> <Gold.PLP.PLP>
-39.3566

> <Gold.PLP.part.hbond>
-1.0000

> <Gold.PLP.part.metal>
0.0000

> <Gold.PLP.part.buried>
-3.7164

> <Gold.PLP.part.nonpolar>
-35.4712

> <Gold.PLP.part.repulsive>
0.2362

> <Gold.PLP.ligand.clash>
0.0000

> <Gold.PLP.ligand.torsion>
0.9156

> <Gold.PLP.Chemscore.Hbond>
0.0000

> <Gold.PLP.Chemscore.CHOScore>
1.0000

> <Gold.PLP.Chemscore.Metal>
0.0000

> <Gold.Chemscore.Hbonds>
donor molecule, donor type, donor heavy atom, donor atom, acceptor molecule, acceptor atom, score
      L1  C    14    36       P1  8028  0.82
      L1  C    14    36       P1  8029  0.01

> <Gold.PLP.Chemscore.Internal.Correction>
0.1019

> <Gold.Rescore>
     Score         DG    S(hbond)    S(metal)    S(lipo)     H(rot)  DE(clash)    DE(int)     intcor
      9.13     -14.08       0.00        0.00     106.20       1.49       0.02       4.93       ----

> <Gold.Chemscore.Fitness>
9.1340

> <Gold.Chemscore.DG>
-14.0832

> <Gold.Chemscore.ZeroCoef>
-5.4800

> <Gold.Chemscore.Hbond>
0.0000

> <Gold.Chemscore.Metal>
0.0000

> <Gold.Chemscore.Lipo>
106.2041

> <Gold.Chemscore.Internal_Hbond>
0.0000

> <Gold.Chemscore.DEClash>
0.0182

> <Gold.Chemscore.DEInternal>
4.9311

> <Gold.Chemscore.Rot>
1.4932

> <Gold.Chemscore.Internal.Correction>
   9.000000E+99

> <Gold.Chemscore.Hbond.Weighted>
-0.0000

> <Gold.Chemscore.Metal.Weighted>
-0.0000

> <Gold.Chemscore.Lipo.Weighted>
-12.4259

> <Gold.Chemscore.Internal_Hbond.Weighted>
0.0000

> <Gold.Chemscore.DEClash.Weighted>
0.0182

> <Gold.Chemscore.DEInternal.Weighted>
4.9311

> <Gold.Chemscore.Rot.Weighted>
3.8226

> <Gold.Chemscore.Internal.Correction.Weighted>
   9.000000E+99

> <Gold.Protein.RotatedTorsions>
[ 6907 6896 6895 6894 ] final  113.48 input  -60.11 | X-H torsion
[ 7974 7965 7964 7962 ] final   52.45 input  175.53 | X-H torsion
[ 8008 7997 7996 7995 ] final   -1.72 input   59.86 | X-H torsion
[ 10167 10162 10161 10158 ] final   11.57 input  -65.29 | X-H torsion
[ 10718 10713 10712 10709 ] final  -72.26 input   66.30 | X-H torsion
[ 10763 10752 10751 10750 ] final    4.23 input  -60.55 | X-H torsion
[ 11005 11000 10999 10996 ] final -129.77 input  -57.11 | X-H torsion

> <Gold.Protein.ActiveResidues>
 VAL166  LYS551  ARG553  GLY616  TRP617  ASP618  TYR619  PRO620  LYS621  CYS622 
 ASP623  PHE694  ASN695  SER759  ASP760  ASP761  ALA762  ILE779  LEU786  VAL792 
 PHE793  MET794  SER795  GLU796  ALA797  LYS798  CYS799  TRP800  GLU811  SER814 

> <Gold.Protein.RotatedAtoms>
  152.4858  133.8369  159.7132 H   0  0  0  0  0  0  0  0  0  0  0  0  # atno 6907 bound_to 6896
  150.8944  133.7192  159.2902 H   0  0  0  0  0  0  0  0  0  0  0  0  # atno 6908 bound_to 6896
  151.4654  135.1045  159.9789 H   0  0  0  0  0  0  0  0  0  0  0  0  # atno 6909 bound_to 6896
  145.9812  139.4244  143.0131 H   0  0  0  0  0  0  0  0  0  0  0  0  # atno 7974 bound_to 7965
  154.6436  140.2552  155.7293 H   0  0  0  0  0  0  0  0  0  0  0  0  # atno 8008 bound_to 7997
  156.2541  140.2882  156.0761 H   0  0  0  0  0  0  0  0  0  0  0  0  # atno 8009 bound_to 7997
  155.1558  140.0383  157.2822 H   0  0  0  0  0  0  0  0  0  0  0  0  # atno 8010 bound_to 7997
  140.6123  143.8381  150.7079 H   0  0  0  0  0  0  0  0  0  0  0  0  # atno 10167 bound_to 10162
  156.0327  130.4368  150.2567 H   0  0  0  0  0  0  0  0  0  0  0  0  # atno 10718 bound_to 10713
  153.2738  135.6934  153.7454 H   0  0  0  0  0  0  0  0  0  0  0  0  # atno 10763 bound_to 10752
  153.6467  135.3384  155.3088 H   0  0  0  0  0  0  0  0  0  0  0  0  # atno 10764 bound_to 10752
  154.8473  135.4444  154.1769 H   0  0  0  0  0  0  0  0  0  0  0  0  # atno 10765 bound_to 10752
  140.9403  134.1202  157.4157 H   0  0  0  0  0  0  0  0  0  0  0  0  # atno 11005 bound_to 11000
  145.7766  140.9874  143.1121 LP  0  0  0  0  0  0  0  0  0  0  0  0  # atno 17320 bound_to 7965
  144.6862  139.9513  143.7478 LP  0  0  0  0  0  0  0  0  0  0  0  0  # atno 17321 bound_to 7965
  140.1953  143.4003  152.1833 LP  0  0  0  0  0  0  0  0  0  0  0  0  # atno 17342 bound_to 10162
  139.5371  144.7220  151.4857 LP  0  0  0  0  0  0  0  0  0  0  0  0  # atno 17343 bound_to 10162
  157.0668  131.0105  151.3204 LP  0  0  0  0  0  0  0  0  0  0  0  0  # atno 17370 bound_to 10713
  157.5029  130.7891  149.7624 LP  0  0  0  0  0  0  0  0  0  0  0  0  # atno 17371 bound_to 10713
  139.8818  135.0034  156.6186 LP  0  0  0  0  0  0  0  0  0  0  0  0  # atno 17394 bound_to 11000
  140.7743  133.8712  155.8517 LP  0  0  0  0  0  0  0  0  0  0  0  0  # atno 17395 bound_to 11000

$$$$
