AV-unprocessed.smi:513|AV-procd|sdf|2772|dock1
  -GOLD-   2262023243D 1   1.00000     0.00000
 Structure written by MMmdl.
 43 45  0  0  0  0  0  0  0  0  2 V2000
  148.3118  132.3713  153.2014 C   0  0  0  0  0  0  0  0  0  0  0  0
  149.1658  133.4684  153.4729 O   0  0  0  0  0  0  0  0  0  0  0  0
  149.6679  133.4498  154.7976 C   0  0  0  0  0  0  0  0  0  0  0  0
  148.5944  134.0069  155.7392 C   0  0  0  0  0  0  0  0  0  0  0  0
  148.2734  135.3958  155.4212 N   0  0  0  0  0  0  0  0  0  0  0  0
  147.0592  135.9445  155.1388 C   0  0  0  0  0  0  0  0  0  0  0  0
  145.8808  135.1952  155.1388 N   0  0  0  0  0  0  0  0  0  0  0  0
  145.6156  134.1094  156.0798 C   0  0  0  0  0  0  0  0  0  0  0  0
  144.2307  134.2622  156.7364 C   0  0  0  0  0  0  0  0  0  0  0  0
  143.1710  134.3469  155.7097 N   0  3  0  0  0  0  0  0  0  0  0  0
  143.4474  135.3800  154.6899 C   0  0  0  0  0  0  0  0  0  0  0  0
  144.8550  135.1846  154.0967 C   0  0  0  0  0  0  0  0  0  0  0  0
  147.0971  137.2374  154.8063 N   0  0  0  0  0  0  0  0  0  0  0  0
  148.4441  137.5493  154.9068 C   0  0  0  0  0  0  0  0  0  0  0  0
  149.1681  136.4561  155.2580 C   0  0  0  0  0  0  0  0  0  0  0  0
  150.6328  136.4911  155.3803 C   0  0  0  0  0  0  0  0  0  0  0  0
  151.3142  135.5112  155.6727 O   0  0  0  0  0  0  0  0  0  0  0  0
  151.1594  137.7132  155.1234 N   0  0  0  0  0  0  0  0  0  0  0  0
  150.4876  138.8516  154.7720 C   0  0  0  0  0  0  0  0  0  0  0  0
  151.1109  139.8908  154.5560 O   0  0  0  0  0  0  0  0  0  0  0  0
  149.1217  138.7790  154.6699 N   0  0  0  0  0  0  0  0  0  0  0  0
  148.3457  139.9617  154.2919 C   0  0  0  0  0  0  0  0  0  0  0  0
  152.1637  137.7909  155.1915 H   0  0  0  0  0  0  0  0  0  0  0  0
  147.9434  132.4391  152.1778 H   0  0  0  0  0  0  0  0  0  0  0  0
  147.4498  132.3668  153.8698 H   0  0  0  0  0  0  0  0  0  0  0  0
  148.8416  131.4236  153.3068 H   0  0  0  0  0  0  0  0  0  0  0  0
  149.9321  132.4318  155.0882 H   0  0  0  0  0  0  0  0  0  0  0  0
  150.5727  134.0568  154.8575 H   0  0  0  0  0  0  0  0  0  0  0  0
  147.6991  133.3959  155.6853 H   0  0  0  0  0  0  0  0  0  0  0  0
  148.9173  133.9293  156.7753 H   0  0  0  0  0  0  0  0  0  0  0  0
  145.6860  133.1546  155.5566 H   0  0  0  0  0  0  0  0  0  0  0  0
  146.3849  134.0971  156.8528 H   0  0  0  0  0  0  0  0  0  0  0  0
  144.0252  133.4201  157.3972 H   0  0  0  0  0  0  0  0  0  0  0  0
  144.2039  135.1643  157.3492 H   0  0  0  0  0  0  0  0  0  0  0  0
  143.1148  133.4527  155.2436 H   0  0  0  0  0  0  0  0  0  0  0  0
  142.6913  135.3238  153.9070 H   0  0  0  0  0  0  0  0  0  0  0  0
  143.3602  136.3653  155.1496 H   0  0  0  0  0  0  0  0  0  0  0  0
  145.0682  135.9367  153.3382 H   0  0  0  0  0  0  0  0  0  0  0  0
  144.9023  134.2272  153.5756 H   0  0  0  0  0  0  0  0  0  0  0  0
  148.6790  140.8470  154.8359 H   0  0  0  0  0  0  0  0  0  0  0  0
  147.2830  139.8426  154.5034 H   0  0  0  0  0  0  0  0  0  0  0  0
  148.4542  140.1562  153.2241 H   0  0  0  0  0  0  0  0  0  0  0  0
  142.2853  134.5405  156.1548 H   0  0  0  0  0  0  0  0  0  0  0  0
  1  2  1  0  0  0  0
  1 24  1  0  0  0  0
  1 25  1  0  0  0  0
  1 26  1  0  0  0  0
  2  3  1  0  0  0  0
  3  4  1  0  0  0  0
  3 27  1  0  0  0  0
  3 28  1  0  0  0  0
  4  5  1  0  0  0  0
  4 29  1  0  0  0  0
  4 30  1  0  0  0  0
  5 15  1  0  0  0  0
  5  6  1  0  0  0  0
  6  7  1  0  0  0  0
  6 13  2  0  0  0  0
  7 12  1  0  0  0  0
  7  8  1  0  0  0  0
  8  9  1  0  0  0  0
  8 31  1  0  0  0  0
  8 32  1  0  0  0  0
  9 10  1  0  0  0  0
  9 33  1  0  0  0  0
  9 34  1  0  0  0  0
 10 11  1  0  0  0  0
 10 35  1  0  0  0  0
 10 43  1  0  0  0  0
 11 12  1  0  0  0  0
 11 36  1  0  0  0  0
 11 37  1  0  0  0  0
 12 38  1  0  0  0  0
 12 39  1  0  0  0  0
 13 14  1  0  0  0  0
 14 21  1  0  0  0  0
 14 15  2  0  0  0  0
 15 16  1  0  0  0  0
 16 17  2  0  0  0  0
 16 18  1  0  0  0  0
 18 23  1  0  0  0  0
 18 19  1  0  0  0  0
 19 20  2  0  0  0  0
 19 21  1  0  0  0  0
 21 22  1  0  0  0  0
 22 40  1  0  0  0  0
 22 41  1  0  0  0  0
 22 42  1  0  0  0  0
M  CHG  1  10   1
M  END
> <s_m_source_file>
AV-unprocessed.smi

> <i_m_source_file_index>
513

> <i_lp_mmshare_version>
43012

> <i_f3d_flags>
0

> <s_epik_input>
W0NIM11uMWMoPU8pW25IXWMoPU8pYyhjMTIpbihbQ0gyXVtDSDJdT1tDSDNdKWMobjIpTjNbQ0gyXVtDSDJdW05IXVtDSDJdW0NIMl0z

> <s_epik_cmdline>
J2VwaWtfcHl0aG9uJywgJy1waCcsICc3LjAnLCAnLXRuJywgJzgnLCAnLW1hJywgJzIwMCcsICctbWV0YWxfYmluZGluZycsICctaW1hZScsICc8aW5maWxlLm1hZT4nLCAnLW9tYWUnLCAnPG91dGZpbGUubWFlPic=

> <r_epik_Ionization_Penalty>
0.00860422

> <r_epik_Ionization_Penalty_Charging>
0.00860232

> <r_epik_Ionization_Penalty_Neutral>
1.90009e-06

> <r_epik_State_Penalty>
0.00646614

> <r_epik_Charging_Adjusted_Penalty>
0.0150685

> <i_epik_Tot_Q>
1

> <i_epik_Tot_abs_Q>
1

> <r_epik_Metal_State_Penalty>
0.0348233

> <b_epik_Metal_Only>
0

> <s_lp_Force_Field>
OPLS_2005

> <r_lp_Energy>
48.3968

> <b_lp_Chiralities_Consistent>
1

> <s_lp_Variant>
AV-unprocessed.smi:513-1

> <Gold.Version>
5.8.1

> <Gold.Id.Protein>
6NUR|6NUR_protein|mol2

> <Gold.PLP.Fitness>
36.8695

> <Gold.PLP.PLP>
-22.8798

> <Gold.PLP.part.hbond>
-4.0000

> <Gold.PLP.part.metal>
0.0000

> <Gold.PLP.part.buried>
-6.1617

> <Gold.PLP.part.nonpolar>
-14.8665

> <Gold.PLP.part.repulsive>
0.5187

> <Gold.PLP.ligand.clash>
0.0032

> <Gold.PLP.ligand.torsion>
0.7916

> <Gold.PLP.Chemscore.Hbond>
5.0000

> <Gold.PLP.Chemscore.CHOScore>
0.0000

> <Gold.PLP.Chemscore.Metal>
0.0000

> <Gold.Chemscore.Hbonds>
donor molecule, donor type, donor heavy atom, donor atom, acceptor molecule, acceptor atom, score
      L1  H    10    35       P1 10957  2.00
      L1  H    10    43       P1 11000  1.00
      P1  H  7989  7998       L1    20  1.00
      P1  H 10752 10763       L1    17  1.00

> <Gold.PLP.Chemscore.Internal.Correction>
0.5763

> <Gold.Rescore>
     Score         DG    S(hbond)    S(metal)    S(lipo)     H(rot)  DE(clash)    DE(int)     intcor
     15.76     -17.61       3.84        0.00      28.28       1.57       0.00       1.84       ----

> <Gold.Chemscore.Fitness>
15.7620

> <Gold.Chemscore.DG>
-17.6077

> <Gold.Chemscore.ZeroCoef>
-5.4800

> <Gold.Chemscore.Hbond>
3.8431

> <Gold.Chemscore.Metal>
0.0000

> <Gold.Chemscore.Lipo>
28.2848

> <Gold.Chemscore.Internal_Hbond>
0.0000

> <Gold.Chemscore.DEClash>
0.0015

> <Gold.Chemscore.DEInternal>
1.8443

> <Gold.Chemscore.Rot>
1.5693

> <Gold.Chemscore.Internal.Correction>
   9.000000E+99

> <Gold.Chemscore.Hbonds>
donor molecule, donor type, donor heavy atom, donor atom, acceptor molecule, acceptor atom, score
      L1  H    10    35       P1 10957  1.00
      L1  H    10    43       P1 11000  0.36
      P1  H  7989  7998       L1    20  0.93
      P1  H 10752 10763       L1    17  0.82

> <Gold.Chemscore.Hbond.Weighted>
-12.8359

> <Gold.Chemscore.Metal.Weighted>
-0.0000

> <Gold.Chemscore.Lipo.Weighted>
-3.3093

> <Gold.Chemscore.Internal_Hbond.Weighted>
0.0000

> <Gold.Chemscore.DEClash.Weighted>
0.0015

> <Gold.Chemscore.DEInternal.Weighted>
1.8443

> <Gold.Chemscore.Rot.Weighted>
4.0175

> <Gold.Chemscore.Internal.Correction.Weighted>
   9.000000E+99

> <Gold.Protein.RotatedTorsions>
[ 6907 6896 6895 6894 ] final  104.67 input  -60.11 | X-H torsion
[ 7974 7965 7964 7962 ] final -155.34 input  175.53 | X-H torsion
[ 8008 7997 7996 7995 ] final -146.47 input   59.86 | X-H torsion
[ 10167 10162 10161 10158 ] final -101.08 input  -65.29 | X-H torsion
[ 10718 10713 10712 10709 ] final  -51.50 input   66.30 | X-H torsion
[ 10763 10752 10751 10750 ] final   70.78 input  -60.55 | X-H torsion
[ 11005 11000 10999 10996 ] final  130.40 input  -57.11 | X-H torsion

> <Gold.Protein.ActiveResidues>
 VAL166  LYS551  ARG553  GLY616  TRP617  ASP618  TYR619  PRO620  LYS621  CYS622 
 ASP623  PHE694  ASN695  SER759  ASP760  ASP761  ALA762  ILE779  LEU786  VAL792 
 PHE793  MET794  SER795  GLU796  ALA797  LYS798  CYS799  TRP800  GLU811  SER814 

> <Gold.Protein.RotatedAtoms>
  152.5256  133.9642  159.7731 H   0  0  0  0  0  0  0  0  0  0  0  0  # atno 6907 bound_to 6896
  150.9927  133.6126  159.2713 H   0  0  0  0  0  0  0  0  0  0  0  0  # atno 6908 bound_to 6896
  151.3263  135.0837  159.9376 H   0  0  0  0  0  0  0  0  0  0  0  0  # atno 6909 bound_to 6896
  144.7645  140.4263  143.5952 H   0  0  0  0  0  0  0  0  0  0  0  0  # atno 7974 bound_to 7965
  155.5600  140.0624  157.2831 H   0  0  0  0  0  0  0  0  0  0  0  0  # atno 8008 bound_to 7997
  154.4393  140.1887  156.0818 H   0  0  0  0  0  0  0  0  0  0  0  0  # atno 8009 bound_to 7997
  156.0454  140.3290  155.7294 H   0  0  0  0  0  0  0  0  0  0  0  0  # atno 8010 bound_to 7997
  140.2451  143.3511  152.0766 H   0  0  0  0  0  0  0  0  0  0  0  0  # atno 10167 bound_to 10162
  156.1705  130.4149  149.9655 H   0  0  0  0  0  0  0  0  0  0  0  0  # atno 10718 bound_to 10713
  153.0361  135.5161  154.7493 H   0  0  0  0  0  0  0  0  0  0  0  0  # atno 10763 bound_to 10752
  154.6469  135.2920  155.0038 H   0  0  0  0  0  0  0  0  0  0  0  0  # atno 10764 bound_to 10752
  154.0936  135.6646  153.4909 H   0  0  0  0  0  0  0  0  0  0  0  0  # atno 10765 bound_to 10752
  139.9670  134.9588  156.9289 H   0  0  0  0  0  0  0  0  0  0  0  0  # atno 11005 bound_to 11000
  145.6513  139.1565  143.2860 LP  0  0  0  0  0  0  0  0  0  0  0  0  # atno 17320 bound_to 7965
  146.1740  140.6602  142.9220 LP  0  0  0  0  0  0  0  0  0  0  0  0  # atno 17321 bound_to 7965
  139.5064  144.6814  151.6000 LP  0  0  0  0  0  0  0  0  0  0  0  0  # atno 17342 bound_to 10162
  140.6084  143.9482  150.6435 LP  0  0  0  0  0  0  0  0  0  0  0  0  # atno 17343 bound_to 10162
  156.7456  130.9096  151.3634 LP  0  0  0  0  0  0  0  0  0  0  0  0  # atno 17370 bound_to 10713
  157.6799  130.9130  150.0241 LP  0  0  0  0  0  0  0  0  0  0  0  0  # atno 17371 bound_to 10713
  140.5375  134.0753  155.7332 LP  0  0  0  0  0  0  0  0  0  0  0  0  # atno 17394 bound_to 11000
  141.1350  133.9237  157.2454 LP  0  0  0  0  0  0  0  0  0  0  0  0  # atno 17395 bound_to 11000

$$$$
