AV-unprocessed.smi:557|AV-procd|sdf|2920|dock10
  -GOLD-   2262023413D 1   1.00000     0.00000
 Structure written by MMmdl.
 47 49  0  0  0  0  0  0  0  0  2 V2000
  151.0101  141.3454  156.7813 C   0  0  0  0  0  0  0  0  0  0  0  0
  150.9094  140.1188  156.0198 N   0  0  0  0  0  0  0  0  0  0  0  0
  151.3539  138.8582  156.3560 C   0  0  0  0  0  0  0  0  0  0  0  0
  151.0331  138.0213  155.3243 C   0  0  0  0  0  0  0  0  0  0  0  0
  151.2982  136.5478  155.1905 C   0  0  0  0  0  0  0  0  0  0  0  0
  150.1410  135.7140  155.7564 C   0  0  0  0  0  0  0  0  0  0  0  0
  149.2289  135.3104  154.6894 N   0  0  0  0  0  0  0  0  0  0  0  0
  148.3631  134.2829  154.7047 C   0  0  0  0  0  0  0  0  0  0  0  0
  148.2481  133.5428  155.6796 O   0  0  0  0  0  0  0  0  0  0  0  0
  147.6430  134.1419  153.5787 N   0  0  0  0  0  0  0  0  0  0  0  0
  146.6434  133.1047  153.3428 C   0  0  2  0  0  0  0  0  0  0  0  0
  147.2388  131.6856  153.3608 C   0  0  0  0  0  0  0  0  0  0  0  0
  146.4924  130.9142  152.2549 C   0  0  0  0  0  0  0  0  0  0  0  0
  145.4682  131.8483  151.7505 N   0  3  2  0  0  0  0  0  0  0  0  0
  144.9696  131.6241  150.3762 C   0  0  0  0  0  0  0  0  0  0  0  0
  143.8504  132.6391  150.0705 C   0  0  0  0  0  0  0  0  0  0  0  0
  144.3078  134.0889  150.3306 C   0  0  0  0  0  0  0  0  0  0  0  0
  144.9064  134.2399  151.7427 C   0  0  0  0  0  0  0  0  0  0  0  0
  146.0196  133.1978  151.9475 C   0  0  1  0  0  0  0  0  0  0  0  0
  150.3826  138.8800  154.3928 C   0  0  0  0  0  0  0  0  0  0  0  0
  150.3101  140.1330  154.8114 N   0  0  0  0  0  0  0  0  0  0  0  0
  151.6871  141.2065  157.6249 H   0  0  0  0  0  0  0  0  0  0  0  0
  150.0261  141.6257  157.1579 H   0  0  0  0  0  0  0  0  0  0  0  0
  151.3936  142.1466  156.1489 H   0  0  0  0  0  0  0  0  0  0  0  0
  151.8574  138.6622  157.2913 H   0  0  0  0  0  0  0  0  0  0  0  0
  151.4553  136.2837  154.1440 H   0  0  0  0  0  0  0  0  0  0  0  0
  152.2216  136.2795  155.7056 H   0  0  0  0  0  0  0  0  0  0  0  0
  150.5319  134.8253  156.2547 H   0  0  0  0  0  0  0  0  0  0  0  0
  149.5965  136.2954  156.5024 H   0  0  0  0  0  0  0  0  0  0  0  0
  149.2531  135.8723  153.8505 H   0  0  0  0  0  0  0  0  0  0  0  0
  147.8066  134.7990  152.8295 H   0  0  0  0  0  0  0  0  0  0  0  0
  145.8554  133.1541  154.0977 H   0  0  0  0  0  0  0  0  0  0  0  0
  148.3080  131.6978  153.1438 H   0  0  0  0  0  0  0  0  0  0  0  0
  147.1094  131.2196  154.3382 H   0  0  0  0  0  0  0  0  0  0  0  0
  147.1839  130.6473  151.4542 H   0  0  0  0  0  0  0  0  0  0  0  0
  146.0320  129.9976  152.6245 H   0  0  0  0  0  0  0  0  0  0  0  0
  145.7870  131.7300  149.6614 H   0  0  0  0  0  0  0  0  0  0  0  0
  144.5899  130.6058  150.2857 H   0  0  0  0  0  0  0  0  0  0  0  0
  143.5189  132.5307  149.0374 H   0  0  0  0  0  0  0  0  0  0  0  0
  142.9838  132.4189  150.6955 H   0  0  0  0  0  0  0  0  0  0  0  0
  145.0556  134.3704  149.5880 H   0  0  0  0  0  0  0  0  0  0  0  0
  143.4708  134.7761  150.2018 H   0  0  0  0  0  0  0  0  0  0  0  0
  145.3002  135.2482  151.8706 H   0  0  0  0  0  0  0  0  0  0  0  0
  144.1259  134.1099  152.4937 H   0  0  0  0  0  0  0  0  0  0  0  0
  146.8104  133.3613  151.2114 H   0  0  0  0  0  0  0  0  0  0  0  0
  149.9643  138.6305  153.4289 H   0  0  0  0  0  0  0  0  0  0  0  0
  144.6770  131.7707  152.3739 H   0  0  0  0  0  0  0  0  0  0  0  0
  1  2  1  0  0  0  0
  1 22  1  0  0  0  0
  1 23  1  0  0  0  0
  1 24  1  0  0  0  0
  2 21  1  0  0  0  0
  2  3  1  0  0  0  0
  3  4  2  0  0  0  0
  3 25  1  0  0  0  0
  4  5  1  0  0  0  0
  4 20  1  0  0  0  0
  5  6  1  0  0  0  0
  5 26  1  0  0  0  0
  5 27  1  0  0  0  0
  6  7  1  0  0  0  0
  6 28  1  0  0  0  0
  6 29  1  0  0  0  0
  7  8  1  0  0  0  0
  7 30  1  0  0  0  0
  8  9  2  0  0  0  0
  8 10  1  0  0  0  0
 10 11  1  0  0  0  0
 10 31  1  0  0  0  0
 11 19  1  0  0  0  0
 11 12  1  0  0  0  0
 11 32  1  0  0  0  0
 12 13  1  0  0  0  0
 12 33  1  0  0  0  0
 12 34  1  0  0  0  0
 13 14  1  0  0  0  0
 13 35  1  0  0  0  0
 13 36  1  0  0  0  0
 14 19  1  0  0  0  0
 14 15  1  0  0  0  0
 14 47  1  0  0  0  0
 15 16  1  0  0  0  0
 15 37  1  0  0  0  0
 15 38  1  0  0  0  0
 16 17  1  0  0  0  0
 16 39  1  0  0  0  0
 16 40  1  0  0  0  0
 17 18  1  0  0  0  0
 17 41  1  0  0  0  0
 17 42  1  0  0  0  0
 18 19  1  0  0  0  0
 18 43  1  0  0  0  0
 18 44  1  0  0  0  0
 19 45  1  0  0  0  0
 20 21  2  0  0  0  0
 20 46  1  0  0  0  0
M  CHG  1  14   1
M  END
> <s_m_source_file>
AV-unprocessed.smi

> <i_m_source_file_index>
557

> <i_lp_mmshare_version>
43012

> <i_f3d_flags>
0

> <s_epik_input>
W0NIM11uMVtjSF1jKFtjSF1uMSlbQ0gyXVtDSDJdW05IXUMoPU8pW05IXVtDQEhdKFtDSDJdW0NIMl0yKVtDQEhdKE4yMylbQ0gyXVtDSDJdW0NIMl1bQ0gyXTM=

> <s_epik_cmdline>
J2VwaWtfcHl0aG9uJywgJy1waCcsICc3LjAnLCAnLXRuJywgJzgnLCAnLW1hJywgJzIwMCcsICctbWV0YWxfYmluZGluZycsICctaW1hZScsICc8aW5maWxlLm1hZT4nLCAnLW9tYWUnLCAnPG91dGZpbGUubWFlPic=

> <r_lp_tautomer_probability>
1

> <r_epik_Ionization_Penalty>
0.000956547

> <r_epik_Ionization_Penalty_Charging>
0.000435796

> <r_epik_Ionization_Penalty_Neutral>
0.000520752

> <r_epik_State_Penalty>
-0

> <r_epik_Charging_Adjusted_Penalty>
0.000435796

> <i_epik_Tot_Q>
1

> <i_epik_Tot_abs_Q>
1

> <r_epik_Metal_State_Penalty>
-0

> <b_epik_Metal_Only>
0

> <s_lp_Force_Field>
OPLS_2005

> <r_lp_Energy>
39.998

> <b_lp_Chiralities_Consistent>
1

> <s_lp_Variant>
AV-unprocessed.smi:557-7

> <Gold.Version>
5.8.1

> <Gold.Id.Protein>
6NUR|6NUR_protein|mol2

> <Gold.PLP.Fitness>
46.7781

> <Gold.PLP.PLP>
-36.0680

> <Gold.PLP.part.hbond>
-3.0000

> <Gold.PLP.part.metal>
0.0000

> <Gold.PLP.part.buried>
-3.5542

> <Gold.PLP.part.nonpolar>
-29.4742

> <Gold.PLP.part.repulsive>
0.1526

> <Gold.PLP.ligand.clash>
0.0000

> <Gold.PLP.ligand.torsion>
0.7829

> <Gold.PLP.Chemscore.Hbond>
3.0000

> <Gold.PLP.Chemscore.CHOScore>
1.0851

> <Gold.PLP.Chemscore.Metal>
0.0000

> <Gold.Chemscore.Hbonds>
donor molecule, donor type, donor heavy atom, donor atom, acceptor molecule, acceptor atom, score
      L1  H     7    30       P1  7948  1.00
      L1  H    10    31       P1  7948  0.98
      P1  H  7989  7998       L1    21  0.80
      L1  C    20    46       P1  7957  0.62

> <Gold.PLP.Chemscore.Internal.Correction>
0.0205

> <Gold.Rescore>
     Score         DG    S(hbond)    S(metal)    S(lipo)     H(rot)  DE(clash)    DE(int)     intcor
     17.19     -18.13       1.75        0.00      93.20       1.60       0.16       0.77       ----

> <Gold.Chemscore.Fitness>
17.1923

> <Gold.Chemscore.DG>
-18.1299

> <Gold.Chemscore.ZeroCoef>
-5.4800

> <Gold.Chemscore.Hbond>
1.7504

> <Gold.Chemscore.Metal>
0.0000

> <Gold.Chemscore.Lipo>
93.1979

> <Gold.Chemscore.Internal_Hbond>
0.0000

> <Gold.Chemscore.DEClash>
0.1640

> <Gold.Chemscore.DEInternal>
0.7736

> <Gold.Chemscore.Rot>
1.6018

> <Gold.Chemscore.Internal.Correction>
   9.000000E+99

> <Gold.Chemscore.Hbonds>
donor molecule, donor type, donor heavy atom, donor atom, acceptor molecule, acceptor atom, score
      L1  H     7    30       P1  7948  0.72
      L1  H    10    31       P1  7948  0.81
      P1  H  7989  7998       L1    21  0.07

> <Gold.Chemscore.Hbond.Weighted>
-5.8464

> <Gold.Chemscore.Metal.Weighted>
-0.0000

> <Gold.Chemscore.Lipo.Weighted>
-10.9042

> <Gold.Chemscore.Internal_Hbond.Weighted>
0.0000

> <Gold.Chemscore.DEClash.Weighted>
0.1640

> <Gold.Chemscore.DEInternal.Weighted>
0.7736

> <Gold.Chemscore.Rot.Weighted>
4.1006

> <Gold.Chemscore.Internal.Correction.Weighted>
   9.000000E+99

> <Gold.Protein.RotatedTorsions>
[ 6907 6896 6895 6894 ] final  -51.15 input  -60.11 | X-H torsion
[ 7974 7965 7964 7962 ] final  -36.60 input  175.53 | X-H torsion
[ 8008 7997 7996 7995 ] final   98.15 input   59.86 | X-H torsion
[ 10167 10162 10161 10158 ] final   77.52 input  -65.29 | X-H torsion
[ 10718 10713 10712 10709 ] final -156.48 input   66.30 | X-H torsion
[ 10763 10752 10751 10750 ] final   67.36 input  -60.55 | X-H torsion
[ 11005 11000 10999 10996 ] final -115.61 input  -57.11 | X-H torsion

> <Gold.Protein.ActiveResidues>
 VAL166  LYS551  ARG553  GLY616  TRP617  ASP618  TYR619  PRO620  LYS621  CYS622 
 ASP623  PHE694  ASN695  SER759  ASP760  ASP761  ALA762  ILE779  LEU786  VAL792 
 PHE793  MET794  SER795  GLU796  ALA797  LYS798  CYS799  TRP800  GLU811  SER814 

> <Gold.Protein.RotatedAtoms>
  150.8639  134.7998  159.7103 H   0  0  0  0  0  0  0  0  0  0  0  0  # atno 6907 bound_to 6896
  152.4667  134.5055  159.9748 H   0  0  0  0  0  0  0  0  0  0  0  0  # atno 6908 bound_to 6896
  151.5155  133.3438  159.2928 H   0  0  0  0  0  0  0  0  0  0  0  0  # atno 6909 bound_to 6896
  146.0648  140.6297  142.8980 H   0  0  0  0  0  0  0  0  0  0  0  0  # atno 7974 bound_to 7965
  156.0974  140.3248  155.7896 H   0  0  0  0  0  0  0  0  0  0  0  0  # atno 8008 bound_to 7997
  155.4894  140.0560  157.2973 H   0  0  0  0  0  0  0  0  0  0  0  0  # atno 8009 bound_to 7997
  154.4675  140.1996  156.0095 H   0  0  0  0  0  0  0  0  0  0  0  0  # atno 8010 bound_to 7997
  139.9807  144.5828  150.7903 H   0  0  0  0  0  0  0  0  0  0  0  0  # atno 10167 bound_to 10162
  156.5271  130.8504  151.2703 H   0  0  0  0  0  0  0  0  0  0  0  0  # atno 10718 bound_to 10713
  153.0183  135.5287  154.6967 H   0  0  0  0  0  0  0  0  0  0  0  0  # atno 10763 bound_to 10752
  154.6087  135.2876  155.0458 H   0  0  0  0  0  0  0  0  0  0  0  0  # atno 10764 bound_to 10752
  154.1488  135.6566  153.5011 H   0  0  0  0  0  0  0  0  0  0  0  0  # atno 10765 bound_to 10752
  141.0477  133.9737  157.2890 H   0  0  0  0  0  0  0  0  0  0  0  0  # atno 11005 bound_to 11000
  144.7196  140.4327  143.7018 LP  0  0  0  0  0  0  0  0  0  0  0  0  # atno 17320 bound_to 7965
  145.6497  139.1563  143.2869 LP  0  0  0  0  0  0  0  0  0  0  0  0  # atno 17321 bound_to 7965
  140.7490  143.2931  151.3276 LP  0  0  0  0  0  0  0  0  0  0  0  0  # atno 17342 bound_to 10162
  139.6412  144.0536  152.2555 LP  0  0  0  0  0  0  0  0  0  0  0  0  # atno 17343 bound_to 10162
  157.7428  130.9897  150.2542 LP  0  0  0  0  0  0  0  0  0  0  0  0  # atno 17370 bound_to 10713
  156.3095  130.3770  149.7675 LP  0  0  0  0  0  0  0  0  0  0  0  0  # atno 17371 bound_to 10713
  139.9325  135.0199  156.8446 LP  0  0  0  0  0  0  0  0  0  0  0  0  # atno 17394 bound_to 11000
  140.6116  134.0077  155.7579 LP  0  0  0  0  0  0  0  0  0  0  0  0  # atno 17395 bound_to 11000

$$$$
