AV-unprocessed.smi:3165|AV-procd|sdf|12092|dock2
  -GOLD-   2272017523D 1   1.00000     0.00000
 Structure written by MMmdl.
 37 38  0  0  0  0  0  0  0  0  1 V2000
  149.8072  141.2958  157.7864 C   0  0  0  0  0  0  0  0  0  0  0  0
  150.8915  140.4144  157.1464 C   0  0  1  0  0  0  0  0  0  0  0  0
  150.9736  140.6008  155.6097 C   0  0  0  0  0  0  0  0  0  0  0  0
  149.6910  140.4913  154.9323 N   0  0  0  0  0  0  0  0  0  0  0  0
  148.9075  141.5001  154.4113 C   0  0  0  0  0  0  0  0  0  0  0  0
  147.7947  140.9172  153.8764 C   0  0  0  0  0  0  0  0  0  0  0  0
  147.9872  139.5300  154.1272 C   0  0  0  0  0  0  0  0  0  0  0  0
  149.1198  139.2789  154.7630 N   0  0  0  0  0  0  0  0  0  0  0  0
  152.1700  140.6509  157.8258 N   0  0  0  0  0  0  0  0  0  0  0  0
  152.1000  140.7835  159.2810 C   0  0  0  0  0  0  0  0  0  0  0  0
  152.4936  142.1994  159.7272 C   0  0  1  0  0  0  0  0  0  0  0  0
  152.0641  143.2824  158.7157 C   0  0  0  0  0  0  0  0  0  0  0  0
  152.3993  144.6801  159.2485 C   0  0  0  0  0  0  0  0  0  0  0  0
  151.7996  144.8578  160.6470 C   0  0  0  0  0  0  0  0  0  0  0  0
  152.2236  143.6973  161.5611 C   0  0  0  0  0  0  0  0  0  0  0  0
  151.8502  142.4539  160.9739 O   0  0  0  0  0  0  0  0  0  0  0  0
  148.8410  141.1404  157.3058 H   0  0  0  0  0  0  0  0  0  0  0  0
  150.0507  142.3562  157.7109 H   0  0  0  0  0  0  0  0  0  0  0  0
  149.6881  141.0616  158.8447 H   0  0  0  0  0  0  0  0  0  0  0  0
  150.6002  139.3787  157.3260 H   0  0  0  0  0  0  0  0  0  0  0  0
  151.4361  141.5513  155.3426 H   0  0  0  0  0  0  0  0  0  0  0  0
  151.6307  139.8357  155.1944 H   0  0  0  0  0  0  0  0  0  0  0  0
  149.2062  142.5369  154.4606 H   0  0  0  0  0  0  0  0  0  0  0  0
  146.9692  141.4067  153.3816 H   0  0  0  0  0  0  0  0  0  0  0  0
  147.3414  138.7036  153.8691 H   0  0  0  0  0  0  0  0  0  0  0  0
  152.6162  141.4732  157.4324 H   0  0  0  0  0  0  0  0  0  0  0  0
  151.0981  140.5457  159.6407 H   0  0  0  0  0  0  0  0  0  0  0  0
  152.7795  140.0727  159.7508 H   0  0  0  0  0  0  0  0  0  0  0  0
  153.5742  142.2358  159.8805 H   0  0  0  0  0  0  0  0  0  0  0  0
  152.5563  143.1261  157.7553 H   0  0  0  0  0  0  0  0  0  0  0  0
  150.9911  143.2105  158.5322 H   0  0  0  0  0  0  0  0  0  0  0  0
  153.4819  144.8050  159.2943 H   0  0  0  0  0  0  0  0  0  0  0  0
  152.0222  145.4471  158.5717 H   0  0  0  0  0  0  0  0  0  0  0  0
  152.1130  145.8106  161.0745 H   0  0  0  0  0  0  0  0  0  0  0  0
  150.7116  144.8875  160.5778 H   0  0  0  0  0  0  0  0  0  0  0  0
  153.2992  143.7176  161.7430 H   0  0  0  0  0  0  0  0  0  0  0  0
  151.7361  143.7883  162.5319 H   0  0  0  0  0  0  0  0  0  0  0  0
  1  2  1  0  0  0  0
  1 17  1  0  0  0  0
  1 18  1  0  0  0  0
  1 19  1  0  0  0  0
  2  3  1  0  0  0  0
  2  9  1  0  0  0  0
  2 20  1  0  0  0  0
  3  4  1  0  0  0  0
  3 21  1  0  0  0  0
  3 22  1  0  0  0  0
  4  8  1  0  0  0  0
  4  5  1  0  0  0  0
  5  6  2  0  0  0  0
  5 23  1  0  0  0  0
  6  7  1  0  0  0  0
  6 24  1  0  0  0  0
  7  8  2  0  0  0  0
  7 25  1  0  0  0  0
  9 10  1  0  0  0  0
  9 26  1  0  0  0  0
 10 11  1  0  0  0  0
 10 27  1  0  0  0  0
 10 28  1  0  0  0  0
 11 16  1  0  0  0  0
 11 12  1  0  0  0  0
 11 29  1  0  0  0  0
 12 13  1  0  0  0  0
 12 30  1  0  0  0  0
 12 31  1  0  0  0  0
 13 14  1  0  0  0  0
 13 32  1  0  0  0  0
 13 33  1  0  0  0  0
 14 15  1  0  0  0  0
 14 34  1  0  0  0  0
 14 35  1  0  0  0  0
 15 16  1  0  0  0  0
 15 36  1  0  0  0  0
 15 37  1  0  0  0  0
M  END
> <s_m_source_file>
AV-unprocessed.smi

> <i_m_source_file_index>
3165

> <i_lp_mmshare_version>
43012

> <i_f3d_flags>
0

> <s_epik_input>
bjFbY0hdW2NIXVtjSF1uMVtDSDJdW0NAQEhdKFtDSDNdKVtOSF1bQ0gyXVtDQEBIXTJbQ0gyXVtDSDJdW0NIMl1bQ0gyXU8y

> <s_epik_cmdline>
J2VwaWtfcHl0aG9uJywgJy1waCcsICc3LjAnLCAnLXRuJywgJzgnLCAnLW1hJywgJzIwMCcsICctbWV0YWxfYmluZGluZycsICctaW1hZScsICc8aW5maWxlLm1hZT4nLCAnLW9tYWUnLCAnPG91dGZpbGUubWFlPic=

> <r_lp_tautomer_probability>
1

> <r_epik_Ionization_Penalty>
2.51982

> <r_epik_Ionization_Penalty_Charging>
0

> <r_epik_Ionization_Penalty_Neutral>
2.51982

> <r_epik_State_Penalty>
2.68614

> <r_epik_Charging_Adjusted_Penalty>
2.68614

> <i_epik_Tot_Q>
0

> <i_epik_Tot_abs_Q>
0

> <r_epik_Metal_State_Penalty>
2.6861

> <b_epik_Metal_Only>
0

> <s_lp_Force_Field>
OPLS_2005

> <r_lp_Energy>
14.4807

> <b_lp_Chiralities_Consistent>
1

> <s_lp_Variant>
AV-unprocessed.smi:3165-8

> <Gold.Version>
5.8.1

> <Gold.Id.Protein>
6NUR|6NUR_protein|mol2

> <Gold.PLP.Fitness>
39.6583

> <Gold.PLP.PLP>
-38.2247

> <Gold.PLP.part.hbond>
-1.0000

> <Gold.PLP.part.metal>
0.0000

> <Gold.PLP.part.buried>
-2.7330

> <Gold.PLP.part.nonpolar>
-34.3947

> <Gold.PLP.part.repulsive>
0.1685

> <Gold.PLP.ligand.clash>
0.0000

> <Gold.PLP.ligand.torsion>
1.0153

> <Gold.PLP.Chemscore.Hbond>
0.1430

> <Gold.PLP.Chemscore.CHOScore>
1.0000

> <Gold.PLP.Chemscore.Metal>
0.0000

> <Gold.Chemscore.Hbonds>
donor molecule, donor type, donor heavy atom, donor atom, acceptor molecule, acceptor atom, score
      P1  H  6933  6945       L1    16  0.13
      L1  C     5    23       P1  8028  1.00

> <Gold.PLP.Chemscore.Internal.Correction>
0.0352

> <Gold.Rescore>
     Score         DG    S(hbond)    S(metal)    S(lipo)     H(rot)  DE(clash)    DE(int)     intcor
     13.68     -14.62       0.33        0.00     103.11       1.57       0.06       0.87       ----

> <Gold.Chemscore.Fitness>
13.6832

> <Gold.Chemscore.DG>
-14.6178

> <Gold.Chemscore.ZeroCoef>
-5.4800

> <Gold.Chemscore.Hbond>
0.3296

> <Gold.Chemscore.Metal>
0.0000

> <Gold.Chemscore.Lipo>
103.1140

> <Gold.Chemscore.Internal_Hbond>
0.0000

> <Gold.Chemscore.DEClash>
0.0624

> <Gold.Chemscore.DEInternal>
0.8723

> <Gold.Chemscore.Rot>
1.5731

> <Gold.Chemscore.Internal.Correction>
   9.000000E+99

> <Gold.Chemscore.Hbonds>
donor molecule, donor type, donor heavy atom, donor atom, acceptor molecule, acceptor atom, score
      P1  H  6933  6945       L1    16  0.06

> <Gold.Chemscore.Hbond.Weighted>
-1.1007

> <Gold.Chemscore.Metal.Weighted>
-0.0000

> <Gold.Chemscore.Lipo.Weighted>
-12.0643

> <Gold.Chemscore.Internal_Hbond.Weighted>
0.0000

> <Gold.Chemscore.DEClash.Weighted>
0.0624

> <Gold.Chemscore.DEInternal.Weighted>
0.8723

> <Gold.Chemscore.Rot.Weighted>
4.0273

> <Gold.Chemscore.Internal.Correction.Weighted>
   9.000000E+99

> <Gold.Protein.RotatedTorsions>
[ 6907 6896 6895 6894 ] final   79.90 input  -60.11 | X-H torsion
[ 7974 7965 7964 7962 ] final  129.80 input  175.53 | X-H torsion
[ 8008 7997 7996 7995 ] final  -68.29 input   59.86 | X-H torsion
[ 10167 10162 10161 10158 ] final  121.32 input  -65.29 | X-H torsion
[ 10718 10713 10712 10709 ] final  122.68 input   66.30 | X-H torsion
[ 10763 10752 10751 10750 ] final  155.33 input  -60.55 | X-H torsion
[ 11005 11000 10999 10996 ] final -137.81 input  -57.11 | X-H torsion

> <Gold.Protein.ActiveResidues>
 VAL166  LYS551  ARG553  GLY616  TRP617  ASP618  TYR619  PRO620  LYS621  CYS622 
 ASP623  PHE694  ASN695  SER759  ASP760  ASP761  ALA762  ILE779  LEU786  VAL792 
 PHE793  MET794  SER795  GLU796  ALA797  LYS798  CYS799  TRP800  GLU811  SER814 

> <Gold.Protein.RotatedAtoms>
  152.5215  134.3440  159.9227 H   0  0  0  0  0  0  0  0  0  0  0  0  # atno 6907 bound_to 6896
  151.3390  133.3963  159.2677 H   0  0  0  0  0  0  0  0  0  0  0  0  # atno 6908 bound_to 6896
  150.9819  134.9190  159.7907 H   0  0  0  0  0  0  0  0  0  0  0  0  # atno 6909 bound_to 6896
  145.0247  139.4099  143.5179 H   0  0  0  0  0  0  0  0  0  0  0  0  # atno 7974 bound_to 7965
  154.4858  140.0876  156.7482 H   0  0  0  0  0  0  0  0  0  0  0  0  # atno 8008 bound_to 7997
  155.4355  140.3451  155.4266 H   0  0  0  0  0  0  0  0  0  0  0  0  # atno 8009 bound_to 7997
  156.1259  140.1487  156.9126 H   0  0  0  0  0  0  0  0  0  0  0  0  # atno 8010 bound_to 7997
  139.5927  144.7031  151.3252 H   0  0  0  0  0  0  0  0  0  0  0  0  # atno 10167 bound_to 10162
  157.5724  131.1082  150.8343 H   0  0  0  0  0  0  0  0  0  0  0  0  # atno 10718 bound_to 10713
  154.1667  135.2806  155.3093 H   0  0  0  0  0  0  0  0  0  0  0  0  # atno 10763 bound_to 10752
  154.6106  135.5500  153.7472 H   0  0  0  0  0  0  0  0  0  0  0  0  # atno 10764 bound_to 10752
  153.0176  135.6414  154.1808 H   0  0  0  0  0  0  0  0  0  0  0  0  # atno 10765 bound_to 10752
  140.8676  134.2091  157.4670 H   0  0  0  0  0  0  0  0  0  0  0  0  # atno 11005 bound_to 11000
  146.3490  139.9765  142.8700 LP  0  0  0  0  0  0  0  0  0  0  0  0  # atno 17320 bound_to 7965
  145.1848  140.9784  143.4245 LP  0  0  0  0  0  0  0  0  0  0  0  0  # atno 17321 bound_to 7965
  140.7186  143.7198  150.7705 LP  0  0  0  0  0  0  0  0  0  0  0  0  # atno 17342 bound_to 10162
  140.0757  143.5017  152.2556 LP  0  0  0  0  0  0  0  0  0  0  0  0  # atno 17343 bound_to 10162
  156.8811  130.5179  149.5291 LP  0  0  0  0  0  0  0  0  0  0  0  0  # atno 17370 bound_to 10713
  156.0769  130.5789  150.9490 LP  0  0  0  0  0  0  0  0  0  0  0  0  # atno 17371 bound_to 10713
  139.8710  134.9759  156.4900 LP  0  0  0  0  0  0  0  0  0  0  0  0  # atno 17394 bound_to 11000
  140.8611  133.8059  155.9266 LP  0  0  0  0  0  0  0  0  0  0  0  0  # atno 17395 bound_to 11000

$$$$
