AV-unprocessed.smi:2763|AV-procd|sdf|10638|dock1
  -GOLD-   2272015 83D 1   1.00000     0.00000
 Structure written by MMmdl.
 37 38  0  0  0  0  0  0  0  0  1 V2000
  154.8522  139.7104  159.0961 O   0  0  0  0  0  0  0  0  0  0  0  0
  154.7228  139.4590  160.2947 C   0  0  0  0  0  0  0  0  0  0  0  0
  155.2159  138.3559  160.8761 N   0  0  0  0  0  0  0  0  0  0  0  0
  155.9673  137.3116  160.1902 C   0  0  0  0  0  0  0  0  0  0  0  0
  155.5308  135.9092  160.6469 C   0  0  0  0  0  0  0  0  0  0  0  0
  155.6144  135.7272  162.1707 C   0  0  2  0  0  0  0  0  0  0  0  0
  155.3342  134.2721  162.5944 C   0  0  0  0  0  0  0  0  0  0  0  0
  155.3512  134.1428  164.1219 C   0  0  0  0  0  0  0  0  0  0  0  0
  154.3969  135.1711  164.7381 C   0  0  0  0  0  0  0  0  0  0  0  0
  154.7144  136.5780  164.2070 C   0  0  0  0  0  0  0  0  0  0  0  0
  154.6521  136.5838  162.7841 O   0  0  0  0  0  0  0  0  0  0  0  0
  154.0782  140.2311  161.1872 N   0  0  0  0  0  0  0  0  0  0  0  0
  153.4469  141.4849  160.9715 C   0  0  0  0  0  0  0  0  0  0  0  0
  153.0868  141.7493  159.6304 C   0  0  0  0  0  0  0  0  0  0  0  0
  152.4516  142.9647  159.3098 C   0  0  0  0  0  0  0  0  0  0  0  0
  152.1925  143.8842  160.3416 C   0  0  0  0  0  0  0  0  0  0  0  0
  151.5834  145.0654  160.0819 F   0  0  0  0  0  0  0  0  0  0  0  0
  152.5823  143.5448  161.6503 C   0  0  0  0  0  0  0  0  0  0  0  0
  153.1915  142.3801  161.9587 N   0  0  0  0  0  0  0  0  0  0  0  0
  155.0618  138.2284  161.8655 H   0  0  0  0  0  0  0  0  0  0  0  0
  155.8561  137.4149  159.1095 H   0  0  0  0  0  0  0  0  0  0  0  0
  157.0247  137.4638  160.4079 H   0  0  0  0  0  0  0  0  0  0  0  0
  154.5127  135.7104  160.3095 H   0  0  0  0  0  0  0  0  0  0  0  0
  156.1645  135.1630  160.1656 H   0  0  0  0  0  0  0  0  0  0  0  0
  156.6139  136.0138  162.5033 H   0  0  0  0  0  0  0  0  0  0  0  0
  154.3620  133.9573  162.2126 H   0  0  0  0  0  0  0  0  0  0  0  0
  156.0740  133.6009  162.1571 H   0  0  0  0  0  0  0  0  0  0  0  0
  155.0708  133.1329  164.4223 H   0  0  0  0  0  0  0  0  0  0  0  0
  156.3629  134.3115  164.4930 H   0  0  0  0  0  0  0  0  0  0  0  0
  153.3673  134.9120  164.4881 H   0  0  0  0  0  0  0  0  0  0  0  0
  154.4702  135.1518  165.8257 H   0  0  0  0  0  0  0  0  0  0  0  0
  153.9922  137.2970  164.5941 H   0  0  0  0  0  0  0  0  0  0  0  0
  155.7000  136.9075  164.5396 H   0  0  0  0  0  0  0  0  0  0  0  0
  154.0424  139.8853  162.1347 H   0  0  0  0  0  0  0  0  0  0  0  0
  153.2935  141.0302  158.8509 H   0  0  0  0  0  0  0  0  0  0  0  0
  152.1686  143.1860  158.2912 H   0  0  0  0  0  0  0  0  0  0  0  0
  152.4011  144.2235  162.4707 H   0  0  0  0  0  0  0  0  0  0  0  0
  1  2  2  0  0  0  0
  2  3  1  0  0  0  0
  2 12  1  0  0  0  0
  3  4  1  0  0  0  0
  3 20  1  0  0  0  0
  4  5  1  0  0  0  0
  4 21  1  0  0  0  0
  4 22  1  0  0  0  0
  5  6  1  0  0  0  0
  5 23  1  0  0  0  0
  5 24  1  0  0  0  0
  6 11  1  0  0  0  0
  6  7  1  0  0  0  0
  6 25  1  0  0  0  0
  7  8  1  0  0  0  0
  7 26  1  0  0  0  0
  7 27  1  0  0  0  0
  8  9  1  0  0  0  0
  8 28  1  0  0  0  0
  8 29  1  0  0  0  0
  9 10  1  0  0  0  0
  9 30  1  0  0  0  0
  9 31  1  0  0  0  0
 10 11  1  0  0  0  0
 10 32  1  0  0  0  0
 10 33  1  0  0  0  0
 12 13  1  0  0  0  0
 12 34  1  0  0  0  0
 13 19  1  0  0  0  0
 13 14  2  0  0  0  0
 14 15  1  0  0  0  0
 14 35  1  0  0  0  0
 15 16  2  0  0  0  0
 15 36  1  0  0  0  0
 16 17  1  0  0  0  0
 16 18  1  0  0  0  0
 18 19  2  0  0  0  0
 18 37  1  0  0  0  0
M  END
> <s_m_source_file>
AV-unprocessed.smi

> <i_m_source_file_index>
2763

> <i_lp_mmshare_version>
43012

> <i_f3d_flags>
0

> <s_epik_input>
bjFbY0hdYyhGKVtjSF1bY0hdYzFbTkhdQyg9TylbTkhdW0NIMl1bQ0gyXVtDQEBIXTJbQ0gyXVtDSDJdW0NIMl1bQ0gyXU8y

> <s_epik_cmdline>
J2VwaWtfcHl0aG9uJywgJy1waCcsICc3LjAnLCAnLXRuJywgJzgnLCAnLW1hJywgJzIwMCcsICctbWV0YWxfYmluZGluZycsICctaW1hZScsICc8aW5maWxlLm1hZT4nLCAnLW9tYWUnLCAnPG91dGZpbGUubWFlPic=

> <r_lp_tautomer_probability>
1

> <r_epik_Ionization_Penalty>
3.67849e-05

> <r_epik_Ionization_Penalty_Charging>
0

> <r_epik_Ionization_Penalty_Neutral>
3.67849e-05

> <r_epik_State_Penalty>
-0

> <r_epik_Charging_Adjusted_Penalty>
0

> <i_epik_Tot_Q>
0

> <i_epik_Tot_abs_Q>
0

> <r_epik_Metal_State_Penalty>
-0

> <b_epik_Metal_Only>
0

> <s_lp_Force_Field>
OPLS_2005

> <r_lp_Energy>
12.1233

> <b_lp_Chiralities_Consistent>
1

> <s_lp_Variant>
AV-unprocessed.smi:2763-1

> <Gold.Version>
5.8.1

> <Gold.Id.Protein>
6NUR|6NUR_protein|mol2

> <Gold.PLP.Fitness>
41.3798

> <Gold.PLP.PLP>
-38.8923

> <Gold.PLP.part.hbond>
-1.0000

> <Gold.PLP.part.metal>
0.0000

> <Gold.PLP.part.buried>
-5.2487

> <Gold.PLP.part.nonpolar>
-32.6085

> <Gold.PLP.part.repulsive>
0.0699

> <Gold.PLP.ligand.clash>
0.0222

> <Gold.PLP.ligand.torsion>
0.2481

> <Gold.PLP.Chemscore.Hbond>
1.0000

> <Gold.PLP.Chemscore.CHOScore>
0.0000

> <Gold.PLP.Chemscore.Metal>
0.0000

> <Gold.Chemscore.Hbonds>
donor molecule, donor type, donor heavy atom, donor atom, acceptor molecule, acceptor atom, score
      P1  H  7997  8010       L1     1  1.00

> <Gold.PLP.Chemscore.Internal.Correction>
0.0059

> <Gold.Rescore>
     Score         DG    S(hbond)    S(metal)    S(lipo)     H(rot)  DE(clash)    DE(int)     intcor
     11.84     -15.13       1.00        0.00      87.62       1.54       0.00       3.29       ----

> <Gold.Chemscore.Fitness>
11.8382

> <Gold.Chemscore.DG>
-15.1303

> <Gold.Chemscore.ZeroCoef>
-5.4800

> <Gold.Chemscore.Hbond>
0.9992

> <Gold.Chemscore.Metal>
0.0000

> <Gold.Chemscore.Lipo>
87.6183

> <Gold.Chemscore.Internal_Hbond>
0.0000

> <Gold.Chemscore.DEClash>
0.0000

> <Gold.Chemscore.DEInternal>
3.2921

> <Gold.Chemscore.Rot>
1.5384

> <Gold.Chemscore.Internal.Correction>
   9.000000E+99

> <Gold.Chemscore.Hbonds>
donor molecule, donor type, donor heavy atom, donor atom, acceptor molecule, acceptor atom, score
      P1  H  7997  8010       L1     1  1.00

> <Gold.Chemscore.Hbond.Weighted>
-3.3372

> <Gold.Chemscore.Metal.Weighted>
-0.0000

> <Gold.Chemscore.Lipo.Weighted>
-10.2513

> <Gold.Chemscore.Internal_Hbond.Weighted>
0.0000

> <Gold.Chemscore.DEClash.Weighted>
0.0000

> <Gold.Chemscore.DEInternal.Weighted>
3.2921

> <Gold.Chemscore.Rot.Weighted>
3.9382

> <Gold.Chemscore.Internal.Correction.Weighted>
   9.000000E+99

> <Gold.Protein.RotatedTorsions>
[ 6907 6896 6895 6894 ] final   25.07 input  -60.11 | X-H torsion
[ 7974 7965 7964 7962 ] final -128.64 input  175.53 | X-H torsion
[ 8008 7997 7996 7995 ] final   -5.94 input   59.86 | X-H torsion
[ 10167 10162 10161 10158 ] final -168.48 input  -65.29 | X-H torsion
[ 10718 10713 10712 10709 ] final -145.60 input   66.30 | X-H torsion
[ 10763 10752 10751 10750 ] final  -37.29 input  -60.55 | X-H torsion
[ 11005 11000 10999 10996 ] final  179.99 input  -57.11 | X-H torsion

> <Gold.Protein.ActiveResidues>
 VAL166  LYS551  ARG553  GLY616  TRP617  ASP618  TYR619  PRO620  LYS621  CYS622 
 ASP623  PHE694  ASN695  SER759  ASP760  ASP761  ALA762  ILE779  LEU786  VAL792 
 PHE793  MET794  SER795  GLU796  ALA797  LYS798  CYS799  TRP800  GLU811  SER814 

> <Gold.Protein.RotatedAtoms>
  151.9670  135.0096  160.0550 H   0  0  0  0  0  0  0  0  0  0  0  0  # atno 6907 bound_to 6896
  152.1818  133.4707  159.4970 H   0  0  0  0  0  0  0  0  0  0  0  0  # atno 6908 bound_to 6896
  150.6919  134.1741  159.4266 H   0  0  0  0  0  0  0  0  0  0  0  0  # atno 6909 bound_to 6896
  144.9651  140.7487  143.4705 H   0  0  0  0  0  0  0  0  0  0  0  0  # atno 7974 bound_to 7965
  154.5988  140.2445  155.7821 H   0  0  0  0  0  0  0  0  0  0  0  0  # atno 8008 bound_to 7997
  156.2297  140.2971  156.0109 H   0  0  0  0  0  0  0  0  0  0  0  0  # atno 8009 bound_to 7997
  155.2247  140.0401  157.2944 H   0  0  0  0  0  0  0  0  0  0  0  0  # atno 8010 bound_to 7997
  139.5983  144.1066  152.1714 H   0  0  0  0  0  0  0  0  0  0  0  0  # atno 10167 bound_to 10162
  156.3844  130.7854  151.2049 H   0  0  0  0  0  0  0  0  0  0  0  0  # atno 10718 bound_to 10713
  153.8938  135.6809  153.4759 H   0  0  0  0  0  0  0  0  0  0  0  0  # atno 10763 bound_to 10752
  153.1166  135.4758  154.9124 H   0  0  0  0  0  0  0  0  0  0  0  0  # atno 10764 bound_to 10752
  154.7609  135.3210  154.8333 H   0  0  0  0  0  0  0  0  0  0  0  0  # atno 10765 bound_to 10752
  140.4123  134.6681  157.4620 H   0  0  0  0  0  0  0  0  0  0  0  0  # atno 11005 bound_to 11000
  145.2642  139.1980  143.4876 LP  0  0  0  0  0  0  0  0  0  0  0  0  # atno 17320 bound_to 7965
  146.3365  140.2578  142.8601 LP  0  0  0  0  0  0  0  0  0  0  0  0  # atno 17321 bound_to 7965
  140.0656  144.5821  150.7230 LP  0  0  0  0  0  0  0  0  0  0  0  0  # atno 17342 bound_to 10162
  140.7229  143.2607  151.4218 LP  0  0  0  0  0  0  0  0  0  0  0  0  # atno 17343 bound_to 10162
  157.7495  131.0334  150.4271 LP  0  0  0  0  0  0  0  0  0  0  0  0  # atno 17370 bound_to 10713
  156.4521  130.4014  149.6629 LP  0  0  0  0  0  0  0  0  0  0  0  0  # atno 17371 bound_to 10713
  140.0259  134.6478  155.9174 LP  0  0  0  0  0  0  0  0  0  0  0  0  # atno 17394 bound_to 11000
  141.1816  133.6547  156.5045 LP  0  0  0  0  0  0  0  0  0  0  0  0  # atno 17395 bound_to 11000

$$$$
