AV-unprocessed.smi:1723|AV-procd|sdf|6947|dock7
  -GOLD-   22720 8153D 1   1.00000     0.00000
 Structure written by MMmdl.
 37 37  0  0  0  0  0  0  0  0  2 V2000
  148.9221  132.8876  153.9784 C   0  0  0  0  0  0  0  0  0  0  0  0
  149.3816  133.7162  155.1831 C   0  0  0  0  0  0  0  0  0  0  0  0
  150.4179  134.7850  154.8029 C   0  0  0  0  0  0  0  0  0  0  0  0
  150.8418  135.6544  155.9930 C   0  0  0  0  0  0  0  0  0  0  0  0
  151.6975  136.6931  155.5293 O   0  0  0  0  0  0  0  0  0  0  0  0
  151.1074  137.9888  155.4674 C   0  0  2  0  0  0  0  0  0  0  0  0
  150.9959  138.3754  153.9854 C   0  0  0  0  0  0  0  0  0  0  0  0
  151.9646  139.0012  156.2445 C   0  0  0  0  0  0  0  0  0  0  0  0
  153.1402  139.1682  155.9210 O   0  0  0  0  0  0  0  0  0  0  0  0
  151.3401  139.6177  157.2674 N   0  0  0  0  0  0  0  0  0  0  0  0
  151.8208  140.5818  158.1705 C   0  0  0  0  0  0  0  0  0  0  0  0
  151.5156  141.9092  158.1358 C   0  0  0  0  0  0  0  0  0  0  0  0
  152.0438  142.8575  159.1083 C   0  0  0  0  0  0  0  0  0  0  0  0
  151.6632  144.3273  159.1420 C   0  0  0  0  0  0  0  0  0  0  0  0
  152.0843  144.9084  160.2658 F   0  0  0  0  0  0  0  0  0  0  0  0
  152.2193  144.9629  158.1117 F   0  0  0  0  0  0  0  0  0  0  0  0
  150.3414  144.4799  159.0595 F   0  0  0  0  0  0  0  0  0  0  0  0
  152.8422  142.2468  160.0558 C   0  0  0  0  0  0  0  0  0  0  0  0
  153.2000  140.9481  160.1570 N   0  5  0  0  0  0  0  0  0  0  0  0
  152.7074  140.0716  159.2370 C   0  0  0  0  0  0  0  0  0  0  0  0
  152.9854  138.8724  159.2774 O   0  0  0  0  0  0  0  0  0  0  0  0
  148.1893  132.1387  154.2789 H   0  0  0  0  0  0  0  0  0  0  0  0
  149.7605  132.3659  153.5165 H   0  0  0  0  0  0  0  0  0  0  0  0
  148.4599  133.5187  153.2190 H   0  0  0  0  0  0  0  0  0  0  0  0
  148.5151  134.1934  155.6422 H   0  0  0  0  0  0  0  0  0  0  0  0
  149.8007  133.0491  155.9374 H   0  0  0  0  0  0  0  0  0  0  0  0
  151.2979  134.3116  154.3659 H   0  0  0  0  0  0  0  0  0  0  0  0
  149.9988  135.4282  154.0284 H   0  0  0  0  0  0  0  0  0  0  0  0
  149.9585  136.0929  156.4592 H   0  0  0  0  0  0  0  0  0  0  0  0
  151.3311  135.0341  156.7448 H   0  0  0  0  0  0  0  0  0  0  0  0
  150.1006  137.9494  155.8879 H   0  0  0  0  0  0  0  0  0  0  0  0
  150.5684  139.3718  153.8670 H   0  0  0  0  0  0  0  0  0  0  0  0
  150.3525  137.6757  153.4515 H   0  0  0  0  0  0  0  0  0  0  0  0
  151.9694  138.3667  153.4935 H   0  0  0  0  0  0  0  0  0  0  0  0
  150.3874  139.3311  157.4417 H   0  0  0  0  0  0  0  0  0  0  0  0
  150.8560  142.3097  157.3848 H   0  0  0  0  0  0  0  0  0  0  0  0
  153.2530  142.8993  160.8556 H   0  0  0  0  0  0  0  0  0  0  0  0
  1  2  1  0  0  0  0
  1 22  1  0  0  0  0
  1 23  1  0  0  0  0
  1 24  1  0  0  0  0
  2  3  1  0  0  0  0
  2 25  1  0  0  0  0
  2 26  1  0  0  0  0
  3  4  1  0  0  0  0
  3 27  1  0  0  0  0
  3 28  1  0  0  0  0
  4  5  1  0  0  0  0
  4 29  1  0  0  0  0
  4 30  1  0  0  0  0
  5  6  1  0  0  0  0
  6  7  1  0  0  0  0
  6  8  1  0  0  0  0
  6 31  1  0  0  0  0
  7 32  1  0  0  0  0
  7 33  1  0  0  0  0
  7 34  1  0  0  0  0
  8  9  2  0  0  0  0
  8 10  1  0  0  0  0
 10 11  1  0  0  0  0
 10 35  1  0  0  0  0
 11 20  1  0  0  0  0
 11 12  2  0  0  0  0
 12 13  1  0  0  0  0
 12 36  1  0  0  0  0
 13 14  1  0  0  0  0
 13 18  2  0  0  0  0
 14 15  1  0  0  0  0
 14 16  1  0  0  0  0
 14 17  1  0  0  0  0
 18 19  1  0  0  0  0
 18 37  1  0  0  0  0
 19 20  1  0  0  0  0
 20 21  2  0  0  0  0
M  CHG  1  19  -1
M  END
> <s_m_source_file>
AV-unprocessed.smi

> <i_m_source_file_index>
1723

> <i_lp_mmshare_version>
43012

> <i_f3d_flags>
0

> <s_epik_input>
W0NIM11bQ0gyXVtDSDJdW0NIMl1PW0NASF0oW0NIM10pQyg9TylbTkhdYzFbY0hdYyhDKEYpKEYpRilbY0hdW25IXWMxPU8=

> <s_epik_cmdline>
J2VwaWtfcHl0aG9uJywgJy1waCcsICc3LjAnLCAnLXRuJywgJzgnLCAnLW1hJywgJzIwMCcsICctbWV0YWxfYmluZGluZycsICctaW1hZScsICc8aW5maWxlLm1hZT4nLCAnLW9tYWUnLCAnPG91dGZpbGUubWFlPic=

> <r_lp_tautomer_probability>
0.999

> <r_epik_Ionization_Penalty>
2.64397

> <r_epik_Ionization_Penalty_Charging>
0.0618254

> <r_epik_Ionization_Penalty_Neutral>
2.58215

> <r_epik_State_Penalty>
2.58023

> <r_epik_Charging_Adjusted_Penalty>
2.64205

> <i_epik_Tot_Q>
-1

> <i_epik_Tot_abs_Q>
1

> <r_epik_Metal_State_Penalty>
0.429101

> <b_epik_Metal_Only>
1

> <s_lp_Force_Field>
OPLS_2005

> <r_lp_Energy>
21.4098

> <b_lp_Chiralities_Consistent>
1

> <s_lp_Variant>
AV-unprocessed.smi:1723-3

> <Gold.Version>
5.8.1

> <Gold.Id.Protein>
6NUR|6NUR_protein|mol2

> <Gold.PLP.Fitness>
47.3715

> <Gold.PLP.PLP>
-45.2318

> <Gold.PLP.part.hbond>
-1.9880

> <Gold.PLP.part.metal>
0.0000

> <Gold.PLP.part.buried>
-8.1581

> <Gold.PLP.part.nonpolar>
-35.2574

> <Gold.PLP.part.repulsive>
0.1162

> <Gold.PLP.ligand.clash>
0.0000

> <Gold.PLP.ligand.torsion>
2.0267

> <Gold.PLP.Chemscore.Hbond>
2.0000

> <Gold.PLP.Chemscore.CHOScore>
0.0000

> <Gold.PLP.Chemscore.Metal>
0.0000

> <Gold.Chemscore.Hbonds>
donor molecule, donor type, donor heavy atom, donor atom, acceptor molecule, acceptor atom, score
      P1  H  7997  8010       L1     9  1.00
      P1  H 10752 10763       L1     5  0.90

> <Gold.PLP.Chemscore.Internal.Correction>
0.1931

> <Gold.Rescore>
     Score         DG    S(hbond)    S(metal)    S(lipo)     H(rot)  DE(clash)    DE(int)     intcor
     14.01     -16.24       1.87        0.00      81.34       1.95       0.41       1.82       ----

> <Gold.Chemscore.Fitness>
14.0146

> <Gold.Chemscore.DG>
-16.2441

> <Gold.Chemscore.ZeroCoef>
-5.4800

> <Gold.Chemscore.Hbond>
1.8687

> <Gold.Chemscore.Metal>
0.0000

> <Gold.Chemscore.Lipo>
81.3388

> <Gold.Chemscore.Internal_Hbond>
0.0000

> <Gold.Chemscore.DEClash>
0.4068

> <Gold.Chemscore.DEInternal>
1.8228

> <Gold.Chemscore.Rot>
1.9507

> <Gold.Chemscore.Internal.Correction>
   9.000000E+99

> <Gold.Chemscore.Hbonds>
donor molecule, donor type, donor heavy atom, donor atom, acceptor molecule, acceptor atom, score
      P1  H  7997  8010       L1     9  0.97
      P1  H 10752 10763       L1     5  0.17

> <Gold.Chemscore.Hbond.Weighted>
-6.2414

> <Gold.Chemscore.Metal.Weighted>
-0.0000

> <Gold.Chemscore.Lipo.Weighted>
-9.5166

> <Gold.Chemscore.Internal_Hbond.Weighted>
0.0000

> <Gold.Chemscore.DEClash.Weighted>
0.4068

> <Gold.Chemscore.DEInternal.Weighted>
1.8228

> <Gold.Chemscore.Rot.Weighted>
4.9939

> <Gold.Chemscore.Internal.Correction.Weighted>
   9.000000E+99

> <Gold.Protein.RotatedTorsions>
[ 6907 6896 6895 6894 ] final  -38.83 input  -60.11 | X-H torsion
[ 7974 7965 7964 7962 ] final  -51.08 input  175.53 | X-H torsion
[ 8008 7997 7996 7995 ] final   78.91 input   59.86 | X-H torsion
[ 10167 10162 10161 10158 ] final -113.54 input  -65.29 | X-H torsion
[ 10718 10713 10712 10709 ] final -139.90 input   66.30 | X-H torsion
[ 10763 10752 10751 10750 ] final   56.14 input  -60.55 | X-H torsion
[ 11005 11000 10999 10996 ] final  -42.42 input  -57.11 | X-H torsion

> <Gold.Protein.ActiveResidues>
 VAL166  LYS551  ARG553  GLY616  TRP617  ASP618  TYR619  PRO620  LYS621  CYS622 
 ASP623  PHE694  ASN695  SER759  ASP760  ASP761  ALA762  ILE779  LEU786  VAL792 
 PHE793  MET794  SER795  GLU796  ALA797  LYS798  CYS799  TRP800  GLU811  SER814 

> <Gold.Protein.RotatedAtoms>
  150.9977  134.9297  159.7935 H   0  0  0  0  0  0  0  0  0  0  0  0  # atno 6907 bound_to 6896
  152.5269  134.3196  159.9153 H   0  0  0  0  0  0  0  0  0  0  0  0  # atno 6908 bound_to 6896
  151.3202  133.4002  159.2688 H   0  0  0  0  0  0  0  0  0  0  0  0  # atno 6909 bound_to 6896
  145.9229  140.7818  142.9638 H   0  0  0  0  0  0  0  0  0  0  0  0  # atno 7974 bound_to 7965
  155.8623  140.3453  155.5764 H   0  0  0  0  0  0  0  0  0  0  0  0  # atno 8008 bound_to 7997
  155.7920  140.0873  157.2023 H   0  0  0  0  0  0  0  0  0  0  0  0  # atno 8009 bound_to 7997
  154.4012  140.1481  156.3161 H   0  0  0  0  0  0  0  0  0  0  0  0  # atno 8010 bound_to 7997
  140.1108  143.4529  152.1754 H   0  0  0  0  0  0  0  0  0  0  0  0  # atno 10167 bound_to 10162
  156.3161  130.7508  151.1595 H   0  0  0  0  0  0  0  0  0  0  0  0  # atno 10718 bound_to 10713
  152.9827  135.5686  154.5180 H   0  0  0  0  0  0  0  0  0  0  0  0  # atno 10763 bound_to 10752
  154.4673  135.2783  155.1671 H   0  0  0  0  0  0  0  0  0  0  0  0  # atno 10764 bound_to 10752
  154.3234  135.6264  153.5571 H   0  0  0  0  0  0  0  0  0  0  0  0  # atno 10765 bound_to 10752
  141.0314  133.6818  156.2593 H   0  0  0  0  0  0  0  0  0  0  0  0  # atno 11005 bound_to 11000
  144.6755  140.2004  143.7387 LP  0  0  0  0  0  0  0  0  0  0  0  0  # atno 17320 bound_to 7965
  145.8527  139.2183  143.1763 LP  0  0  0  0  0  0  0  0  0  0  0  0  # atno 17321 bound_to 7965
  139.5620  144.7412  151.4127 LP  0  0  0  0  0  0  0  0  0  0  0  0  # atno 17342 bound_to 10162
  140.6927  143.7824  150.7279 LP  0  0  0  0  0  0  0  0  0  0  0  0  # atno 17343 bound_to 10162
  157.7402  131.0520  150.5184 LP  0  0  0  0  0  0  0  0  0  0  0  0  # atno 17370 bound_to 10713
  156.5330  130.4189  149.6192 LP  0  0  0  0  0  0  0  0  0  0  0  0  # atno 17371 bound_to 10713
  140.6399  134.5177  157.5568 LP  0  0  0  0  0  0  0  0  0  0  0  0  # atno 17394 bound_to 11000
  139.9211  134.8148  156.1210 LP  0  0  0  0  0  0  0  0  0  0  0  0  # atno 17395 bound_to 11000

$$$$
