AV-unprocessed.smi:3345|AV-procd|sdf|12904|dock6
  -GOLD-   2272019313D 1   1.00000     0.00000
 Structure written by MMmdl.
 41 42  0  0  0  0  0  0  0  0  2 V2000
  149.4296  140.2358  157.3573 C   0  0  0  0  0  0  0  0  0  0  0  0
  149.1368  141.6481  156.8333 C   0  0  1  0  0  0  0  0  0  0  0  0
  150.4433  142.4420  156.6005 C   0  0  0  0  0  0  0  0  0  0  0  0
  150.8637  143.2320  157.7854 N   0  3  0  0  0  0  0  0  0  0  0  0
  151.6223  142.4420  158.7853 C   0  0  0  0  0  0  0  0  0  0  0  0
  151.9439  143.3104  160.0125 C   0  0  0  0  0  0  0  0  0  0  0  0
  152.6766  144.4588  159.6023 O   0  0  0  0  0  0  0  0  0  0  0  0
  151.9357  145.2699  158.6988 C   0  0  0  0  0  0  0  0  0  0  0  0
  151.6046  144.4647  157.4303 C   0  0  0  0  0  0  0  0  0  0  0  0
  148.3479  141.5436  155.6053 N   0  0  0  0  0  0  0  0  0  0  0  0
  148.7197  140.9177  154.4762 C   0  0  0  0  0  0  0  0  0  0  0  0
  149.7829  140.3066  154.3645 O   0  0  0  0  0  0  0  0  0  0  0  0
  147.7344  140.9924  153.3005 C   0  0  2  0  0  0  0  0  0  0  0  0
  146.7990  142.2148  153.3958 C   0  0  0  0  0  0  0  0  0  0  0  0
  146.9998  139.7389  153.1842 N   0  0  0  0  0  0  0  0  0  0  0  0
  147.0311  138.8132  152.2228 C   0  0  0  0  0  0  0  0  0  0  0  0
  146.2642  137.7593  152.4639 N   0  0  0  0  0  0  0  0  0  0  0  0
  145.7598  138.1179  153.6816 C   0  0  0  0  0  0  0  0  0  0  0  0
  146.1773  139.2880  154.1642 N   0  0  0  0  0  0  0  0  0  0  0  0
  149.9853  140.2732  158.2947 H   0  0  0  0  0  0  0  0  0  0  0  0
  150.0201  139.6595  156.6440 H   0  0  0  0  0  0  0  0  0  0  0  0
  148.5059  139.6871  157.5456 H   0  0  0  0  0  0  0  0  0  0  0  0
  148.5422  142.1495  157.5983 H   0  0  0  0  0  0  0  0  0  0  0  0
  151.2533  141.7750  156.3012 H   0  0  0  0  0  0  0  0  0  0  0  0
  150.2821  143.1174  155.7588 H   0  0  0  0  0  0  0  0  0  0  0  0
  151.0471  141.5714  159.0990 H   0  0  0  0  0  0  0  0  0  0  0  0
  152.5458  142.0708  158.3384 H   0  0  0  0  0  0  0  0  0  0  0  0
  151.0297  143.6097  160.5280 H   0  0  0  0  0  0  0  0  0  0  0  0
  152.5427  142.7456  160.7271 H   0  0  0  0  0  0  0  0  0  0  0  0
  151.0249  145.6307  159.1794 H   0  0  0  0  0  0  0  0  0  0  0  0
  152.5298  146.1472  158.4423 H   0  0  0  0  0  0  0  0  0  0  0  0
  152.5218  144.2026  156.9003 H   0  0  0  0  0  0  0  0  0  0  0  0
  151.0056  145.0771  156.7555 H   0  0  0  0  0  0  0  0  0  0  0  0
  147.4561  142.0176  155.6038 H   0  0  0  0  0  0  0  0  0  0  0  0
  148.3181  141.1056  152.3852 H   0  0  0  0  0  0  0  0  0  0  0  0
  147.3695  143.1435  153.4314 H   0  0  0  0  0  0  0  0  0  0  0  0
  146.1671  142.1825  154.2842 H   0  0  0  0  0  0  0  0  0  0  0  0
  146.1422  142.2687  152.5270 H   0  0  0  0  0  0  0  0  0  0  0  0
  147.6308  138.9097  151.3296 H   0  0  0  0  0  0  0  0  0  0  0  0
  145.0706  137.4947  154.2322 H   0  0  0  0  0  0  0  0  0  0  0  0
  150.0132  143.5360  158.2382 H   0  0  0  0  0  0  0  0  0  0  0  0
  1  2  1  0  0  0  0
  1 20  1  0  0  0  0
  1 21  1  0  0  0  0
  1 22  1  0  0  0  0
  2  3  1  0  0  0  0
  2 10  1  0  0  0  0
  2 23  1  0  0  0  0
  3  4  1  0  0  0  0
  3 24  1  0  0  0  0
  3 25  1  0  0  0  0
  4  9  1  0  0  0  0
  4  5  1  0  0  0  0
  4 41  1  0  0  0  0
  5  6  1  0  0  0  0
  5 26  1  0  0  0  0
  5 27  1  0  0  0  0
  6  7  1  0  0  0  0
  6 28  1  0  0  0  0
  6 29  1  0  0  0  0
  7  8  1  0  0  0  0
  8  9  1  0  0  0  0
  8 30  1  0  0  0  0
  8 31  1  0  0  0  0
  9 32  1  0  0  0  0
  9 33  1  0  0  0  0
 10 11  1  0  0  0  0
 10 34  1  0  0  0  0
 11 12  2  0  0  0  0
 11 13  1  0  0  0  0
 13 14  1  0  0  0  0
 13 15  1  0  0  0  0
 13 35  1  0  0  0  0
 14 36  1  0  0  0  0
 14 37  1  0  0  0  0
 14 38  1  0  0  0  0
 15 19  1  0  0  0  0
 15 16  1  0  0  0  0
 16 17  2  0  0  0  0
 16 39  1  0  0  0  0
 17 18  1  0  0  0  0
 18 19  2  0  0  0  0
 18 40  1  0  0  0  0
M  CHG  1   4   1
M  END
> <s_m_source_file>
AV-unprocessed.smi

> <i_m_source_file_index>
3345

> <i_lp_mmshare_version>
43012

> <i_f3d_flags>
0

> <s_epik_input>
W0NIMl0xW0NIMl1PW0NIMl1bQ0gyXU4xW0NIMl1bQ0BASF0oW0NIM10pW05IXUMoPU8pW0NASF0oW0NIM10pbjJbY0hdbltjSF1uMg==

> <s_epik_cmdline>
J2VwaWtfcHl0aG9uJywgJy1waCcsICc3LjAnLCAnLXRuJywgJzgnLCAnLW1hJywgJzIwMCcsICctbWV0YWxfYmluZGluZycsICctaW1hZScsICc8aW5maWxlLm1hZT4nLCAnLW9tYWUnLCAnPG91dGZpbGUubWFlPic=

> <r_lp_tautomer_probability>
1

> <r_epik_Ionization_Penalty>
0.71326

> <r_epik_Ionization_Penalty_Charging>
0.713252

> <r_epik_Ionization_Penalty_Neutral>
8.27671e-06

> <r_epik_State_Penalty>
0.737017

> <r_epik_Charging_Adjusted_Penalty>
1.45027

> <i_epik_Tot_Q>
1

> <i_epik_Tot_abs_Q>
1

> <r_epik_Metal_State_Penalty>
0.73702

> <b_epik_Metal_Only>
0

> <s_lp_Force_Field>
OPLS_2005

> <r_lp_Energy>
28.084

> <b_lp_Chiralities_Consistent>
1

> <s_lp_Variant>
AV-unprocessed.smi:3345-6

> <Gold.Version>
5.8.1

> <Gold.Id.Protein>
6NUR|6NUR_protein|mol2

> <Gold.PLP.Fitness>
39.5050

> <Gold.PLP.PLP>
-36.8446

> <Gold.PLP.part.hbond>
-1.0000

> <Gold.PLP.part.metal>
0.0000

> <Gold.PLP.part.buried>
-4.0838

> <Gold.PLP.part.nonpolar>
-32.8513

> <Gold.PLP.part.repulsive>
0.7988

> <Gold.PLP.ligand.clash>
0.0000

> <Gold.PLP.ligand.torsion>
1.3453

> <Gold.PLP.Chemscore.Hbond>
0.8320

> <Gold.PLP.Chemscore.CHOScore>
0.8979

> <Gold.PLP.Chemscore.Metal>
0.0000

> <Gold.Chemscore.Hbonds>
donor molecule, donor type, donor heavy atom, donor atom, acceptor molecule, acceptor atom, score
      P1  H  7989  7998       L1    12  0.70
      L1  C    16    39       P1  7957  0.95

> <Gold.PLP.Chemscore.Internal.Correction>
0.1615

> <Gold.Rescore>
     Score         DG    S(hbond)    S(metal)    S(lipo)     H(rot)  DE(clash)    DE(int)     intcor
      6.99     -10.60       0.85        0.00      76.80       2.61       1.42       2.20       ----

> <Gold.Chemscore.Fitness>
6.9853

> <Gold.Chemscore.DG>
-10.5993

> <Gold.Chemscore.ZeroCoef>
-5.4800

> <Gold.Chemscore.Hbond>
0.8457

> <Gold.Chemscore.Metal>
0.0000

> <Gold.Chemscore.Lipo>
76.8032

> <Gold.Chemscore.Internal_Hbond>
0.0000

> <Gold.Chemscore.DEClash>
1.4189

> <Gold.Chemscore.DEInternal>
2.1951

> <Gold.Chemscore.Rot>
2.6138

> <Gold.Chemscore.Internal.Correction>
   9.000000E+99

> <Gold.Chemscore.Hbonds>
donor molecule, donor type, donor heavy atom, donor atom, acceptor molecule, acceptor atom, score
      P1  H  7989  7998       L1    12  0.68

> <Gold.Chemscore.Hbond.Weighted>
-2.8246

> <Gold.Chemscore.Metal.Weighted>
-0.0000

> <Gold.Chemscore.Lipo.Weighted>
-8.9860

> <Gold.Chemscore.Internal_Hbond.Weighted>
0.0000

> <Gold.Chemscore.DEClash.Weighted>
1.4189

> <Gold.Chemscore.DEInternal.Weighted>
2.1951

> <Gold.Chemscore.Rot.Weighted>
6.6912

> <Gold.Chemscore.Internal.Correction.Weighted>
   9.000000E+99

> <Gold.Protein.RotatedTorsions>
[ 6907 6896 6895 6894 ] final  -23.15 input  -60.11 | X-H torsion
[ 7974 7965 7964 7962 ] final -129.47 input  175.53 | X-H torsion
[ 8008 7997 7996 7995 ] final  177.37 input   59.86 | X-H torsion
[ 10167 10162 10161 10158 ] final  125.89 input  -65.29 | X-H torsion
[ 10718 10713 10712 10709 ] final  103.70 input   66.30 | X-H torsion
[ 10763 10752 10751 10750 ] final  136.54 input  -60.55 | X-H torsion
[ 11005 11000 10999 10996 ] final  102.31 input  -57.11 | X-H torsion

> <Gold.Protein.ActiveResidues>
 VAL166  LYS551  ARG553  GLY616  TRP617  ASP618  TYR619  PRO620  LYS621  CYS622 
 ASP623  PHE694  ASN695  SER759  ASP760  ASP761  ALA762  ILE779  LEU786  VAL792 
 PHE793  MET794  SER795  GLU796  ALA797  LYS798  CYS799  TRP800  GLU811  SER814 

> <Gold.Protein.RotatedAtoms>
  151.2081  135.0470  159.8899 H   0  0  0  0  0  0  0  0  0  0  0  0  # atno 6907 bound_to 6896
  152.5427  134.0775  159.8231 H   0  0  0  0  0  0  0  0  0  0  0  0  # atno 6908 bound_to 6896
  151.0925  133.5257  159.2646 H   0  0  0  0  0  0  0  0  0  0  0  0  # atno 6909 bound_to 6896
  144.9568  140.7404  143.4753 H   0  0  0  0  0  0  0  0  0  0  0  0  # atno 7974 bound_to 7965
  156.0663  140.1360  156.9881 H   0  0  0  0  0  0  0  0  0  0  0  0  # atno 8008 bound_to 7997
  154.4508  140.0981  156.6664 H   0  0  0  0  0  0  0  0  0  0  0  0  # atno 8009 bound_to 7997
  155.5298  140.3458  155.4426 H   0  0  0  0  0  0  0  0  0  0  0  0  # atno 8010 bound_to 7997
  139.5660  144.6912  151.3908 H   0  0  0  0  0  0  0  0  0  0  0  0  # atno 10167 bound_to 10162
  157.6764  131.0785  150.5594 H   0  0  0  0  0  0  0  0  0  0  0  0  # atno 10718 bound_to 10713
  153.8582  135.3070  155.3436 H   0  0  0  0  0  0  0  0  0  0  0  0  # atno 10763 bound_to 10752
  154.7861  135.4809  153.9951 H   0  0  0  0  0  0  0  0  0  0  0  0  # atno 10764 bound_to 10752
  153.1477  135.6837  153.9023 H   0  0  0  0  0  0  0  0  0  0  0  0  # atno 10765 bound_to 10752
  139.8777  134.9219  156.5038 H   0  0  0  0  0  0  0  0  0  0  0  0  # atno 11005 bound_to 11000
  145.2760  139.1936  143.4816 LP  0  0  0  0  0  0  0  0  0  0  0  0  # atno 17320 bound_to 7965
  146.3340  140.2714  142.8606 LP  0  0  0  0  0  0  0  0  0  0  0  0  # atno 17321 bound_to 7965
  140.6944  143.7785  150.7304 LP  0  0  0  0  0  0  0  0  0  0  0  0  # atno 17342 bound_to 10162
  140.1277  143.4554  152.2274 LP  0  0  0  0  0  0  0  0  0  0  0  0  # atno 17343 bound_to 10162
  156.5898  130.4326  149.5941 LP  0  0  0  0  0  0  0  0  0  0  0  0  # atno 17370 bound_to 10713
  156.2593  130.6953  151.1716 LP  0  0  0  0  0  0  0  0  0  0  0  0  # atno 17371 bound_to 10713
  140.8570  133.8089  155.9226 LP  0  0  0  0  0  0  0  0  0  0  0  0  # atno 17394 bound_to 11000
  140.9088  134.2287  157.4998 LP  0  0  0  0  0  0  0  0  0  0  0  0  # atno 17395 bound_to 11000

$$$$
