AV-unprocessed.smi:2668|AV-procd|sdf|10340|dock6
  -GOLD-   2272014363D 1   1.00000     0.00000
 Structure written by MMmdl.
 53 54  0  0  0  0  0  0  0  0  2 V2000
  146.2420  135.8246  150.4006 C   0  0  0  0  0  0  0  0  0  0  0  0
  145.4521  136.5118  151.4523 N   0  3  0  0  0  0  0  0  0  0  0  0
  144.6489  135.5266  152.2181 C   0  0  0  0  0  0  0  0  0  0  0  0
  146.2666  137.4233  152.3169 C   0  0  0  0  0  0  0  0  0  0  0  0
  145.5242  137.8214  153.6099 C   0  0  0  0  0  0  0  0  0  0  0  0
  146.3217  138.8347  154.4482 C   0  0  0  0  0  0  0  0  0  0  0  0
  146.5802  140.0625  153.6812 N   0  0  0  0  0  0  0  0  0  0  0  0
  147.1067  141.1999  154.4846 C   0  0  0  0  0  0  0  0  0  0  0  0
  146.9074  142.5243  153.7038 C   0  0  0  0  0  0  0  0  0  0  0  0
  146.3938  141.3150  155.8528 C   0  0  0  0  0  0  0  0  0  0  0  0
  148.6342  141.0348  154.7322 C   0  0  0  0  0  0  0  0  0  0  0  0
  149.1478  141.9927  155.7079 N   0  0  0  0  0  0  0  0  0  0  0  0
  150.0206  141.6970  156.6791 C   0  0  0  0  0  0  0  0  0  0  0  0
  150.4781  140.5685  156.8583 O   0  0  0  0  0  0  0  0  0  0  0  0
  150.3343  142.7888  157.3976 N   0  0  0  0  0  0  0  0  0  0  0  0
  151.2221  142.8973  158.5022 C   0  0  0  0  0  0  0  0  0  0  0  0
  151.3927  144.0700  159.2774 C   0  0  0  0  0  0  0  0  0  0  0  0
  152.3182  144.0540  160.3387 C   0  0  0  0  0  0  0  0  0  0  0  0
  153.0433  142.8715  160.5816 C   0  0  0  0  0  0  0  0  0  0  0  0
  152.9012  141.7513  159.8428 N   0  0  0  0  0  0  0  0  0  0  0  0
  152.0130  141.7744  158.8263 C   0  0  0  0  0  0  0  0  0  0  0  0
  147.4038  139.7030  152.5169 C   0  0  0  0  0  0  0  0  0  0  0  0
  146.6516  138.7308  151.5935 C   0  0  0  0  0  0  0  0  0  0  0  0
  147.0787  135.2760  150.8348 H   0  0  0  0  0  0  0  0  0  0  0  0
  146.6294  136.5278  149.6645 H   0  0  0  0  0  0  0  0  0  0  0  0
  145.6252  135.1150  149.8478 H   0  0  0  0  0  0  0  0  0  0  0  0
  145.2829  134.9303  152.8755 H   0  0  0  0  0  0  0  0  0  0  0  0
  144.1242  134.8454  151.5473 H   0  0  0  0  0  0  0  0  0  0  0  0
  143.8807  136.0110  152.8196 H   0  0  0  0  0  0  0  0  0  0  0  0
  147.1835  136.8990  152.5920 H   0  0  0  0  0  0  0  0  0  0  0  0
  144.5460  138.2396  153.3670 H   0  0  0  0  0  0  0  0  0  0  0  0
  145.3439  136.9494  154.2375 H   0  0  0  0  0  0  0  0  0  0  0  0
  145.7361  139.0393  155.3415 H   0  0  0  0  0  0  0  0  0  0  0  0
  147.2591  138.3860  154.7789 H   0  0  0  0  0  0  0  0  0  0  0  0
  147.4687  143.3390  154.1632 H   0  0  0  0  0  0  0  0  0  0  0  0
  145.8683  142.8521  153.6907 H   0  0  0  0  0  0  0  0  0  0  0  0
  147.2460  142.4419  152.6703 H   0  0  0  0  0  0  0  0  0  0  0  0
  146.7915  142.1552  156.4230 H   0  0  0  0  0  0  0  0  0  0  0  0
  146.5323  140.4260  156.4676 H   0  0  0  0  0  0  0  0  0  0  0  0
  145.3225  141.4870  155.7496 H   0  0  0  0  0  0  0  0  0  0  0  0
  148.8421  140.0322  155.1089 H   0  0  0  0  0  0  0  0  0  0  0  0
  149.1971  141.1022  153.8006 H   0  0  0  0  0  0  0  0  0  0  0  0
  148.8250  142.9454  155.6232 H   0  0  0  0  0  0  0  0  0  0  0  0
  149.9341  143.6590  157.0790 H   0  0  0  0  0  0  0  0  0  0  0  0
  150.8479  144.9787  159.0742 H   0  0  0  0  0  0  0  0  0  0  0  0
  152.4717  144.9310  160.9502 H   0  0  0  0  0  0  0  0  0  0  0  0
  153.7608  142.8264  161.3876 H   0  0  0  0  0  0  0  0  0  0  0  0
  151.9270  140.8610  158.2559 H   0  0  0  0  0  0  0  0  0  0  0  0
  147.6524  140.5763  151.9188 H   0  0  0  0  0  0  0  0  0  0  0  0
  148.3466  139.2584  152.8372 H   0  0  0  0  0  0  0  0  0  0  0  0
  147.2977  138.5267  150.7405 H   0  0  0  0  0  0  0  0  0  0  0  0
  145.7590  139.2203  151.2003 H   0  0  0  0  0  0  0  0  0  0  0  0
  144.7876  137.0959  150.9645 H   0  0  0  0  0  0  0  0  0  0  0  0
  1  2  1  0  0  0  0
  1 24  1  0  0  0  0
  1 25  1  0  0  0  0
  1 26  1  0  0  0  0
  2  3  1  0  0  0  0
  2  4  1  0  0  0  0
  2 53  1  0  0  0  0
  3 27  1  0  0  0  0
  3 28  1  0  0  0  0
  3 29  1  0  0  0  0
  4 23  1  0  0  0  0
  4  5  1  0  0  0  0
  4 30  1  0  0  0  0
  5  6  1  0  0  0  0
  5 31  1  0  0  0  0
  5 32  1  0  0  0  0
  6  7  1  0  0  0  0
  6 33  1  0  0  0  0
  6 34  1  0  0  0  0
  7  8  1  0  0  0  0
  7 22  1  0  0  0  0
  8  9  1  0  0  0  0
  8 10  1  0  0  0  0
  8 11  1  0  0  0  0
  9 35  1  0  0  0  0
  9 36  1  0  0  0  0
  9 37  1  0  0  0  0
 10 38  1  0  0  0  0
 10 39  1  0  0  0  0
 10 40  1  0  0  0  0
 11 12  1  0  0  0  0
 11 41  1  0  0  0  0
 11 42  1  0  0  0  0
 12 13  1  0  0  0  0
 12 43  1  0  0  0  0
 13 14  2  0  0  0  0
 13 15  1  0  0  0  0
 15 16  1  0  0  0  0
 15 44  1  0  0  0  0
 16 21  1  0  0  0  0
 16 17  2  0  0  0  0
 17 18  1  0  0  0  0
 17 45  1  0  0  0  0
 18 19  2  0  0  0  0
 18 46  1  0  0  0  0
 19 20  1  0  0  0  0
 19 47  1  0  0  0  0
 20 21  2  0  0  0  0
 21 48  1  0  0  0  0
 22 23  1  0  0  0  0
 22 49  1  0  0  0  0
 22 50  1  0  0  0  0
 23 51  1  0  0  0  0
 23 52  1  0  0  0  0
M  CHG  1   2   1
M  END
> <s_m_source_file>
AV-unprocessed.smi

> <i_m_source_file_index>
2668

> <i_lp_mmshare_version>
43012

> <i_f3d_flags>
0

> <s_epik_input>
W0NIM11OKFtDSDNdKVtDSF0xW0NIMl1bQ0gyXU4oW0NIMl1bQ0gyXTEpQyhbQ0gzXSkoW0NIM10pW0NIMl1bTkhdQyg9TylbTkhdYzJbY0hdW2NIXVtjSF1uW2NIXTI=

> <s_epik_cmdline>
J2VwaWtfcHl0aG9uJywgJy1waCcsICc3LjAnLCAnLXRuJywgJzgnLCAnLW1hJywgJzIwMCcsICctbWV0YWxfYmluZGluZycsICctaW1hZScsICc8aW5maWxlLm1hZT4nLCAnLW9tYWUnLCAnPG91dGZpbGUubWFlPic=

> <r_epik_Ionization_Penalty>
0.934314

> <r_epik_Ionization_Penalty_Charging>
0.000670549

> <r_epik_Ionization_Penalty_Neutral>
0.933644

> <r_epik_State_Penalty>
1.01912

> <r_epik_Charging_Adjusted_Penalty>
1.01979

> <i_epik_Tot_Q>
1

> <i_epik_Tot_abs_Q>
1

> <r_epik_Metal_State_Penalty>
1.01854

> <b_epik_Metal_Only>
0

> <s_lp_Force_Field>
OPLS_2005

> <r_lp_Energy>
39.6452

> <b_lp_Chiralities_Consistent>
1

> <s_lp_Variant>
AV-unprocessed.smi:2668-3

> <Gold.Version>
5.8.1

> <Gold.Id.Protein>
6NUR|6NUR_protein|mol2

> <Gold.PLP.Fitness>
46.9810

> <Gold.PLP.PLP>
-39.8269

> <Gold.PLP.part.hbond>
-3.0000

> <Gold.PLP.part.metal>
0.0000

> <Gold.PLP.part.buried>
-3.4799

> <Gold.PLP.part.nonpolar>
-33.8481

> <Gold.PLP.part.repulsive>
0.6337

> <Gold.PLP.ligand.clash>
0.0000

> <Gold.PLP.ligand.torsion>
0.9549

> <Gold.PLP.Chemscore.Hbond>
2.9913

> <Gold.PLP.Chemscore.CHOScore>
0.0000

> <Gold.PLP.Chemscore.Metal>
0.0000

> <Gold.Chemscore.Hbonds>
donor molecule, donor type, donor heavy atom, donor atom, acceptor molecule, acceptor atom, score
      L1  H     2    53       P1 10171  0.84
      L1  H    12    43       P1  8028  1.00
      L1  H    15    44       P1  8028  0.96

> <Gold.PLP.Chemscore.Internal.Correction>
0.0903

> <Gold.Rescore>
     Score         DG    S(hbond)    S(metal)    S(lipo)     H(rot)  DE(clash)    DE(int)     intcor
     20.31     -25.15       2.87        0.00     122.19       1.65       2.80       2.04       ----

> <Gold.Chemscore.Fitness>
20.3085

> <Gold.Chemscore.DG>
-25.1453

> <Gold.Chemscore.ZeroCoef>
-5.4800

> <Gold.Chemscore.Hbond>
2.8714

> <Gold.Chemscore.Metal>
0.0000

> <Gold.Chemscore.Lipo>
122.1949

> <Gold.Chemscore.Internal_Hbond>
0.0000

> <Gold.Chemscore.DEClash>
2.7977

> <Gold.Chemscore.DEInternal>
2.0391

> <Gold.Chemscore.Rot>
1.6492

> <Gold.Chemscore.Internal.Correction>
   9.000000E+99

> <Gold.Chemscore.Hbonds>
donor molecule, donor type, donor heavy atom, donor atom, acceptor molecule, acceptor atom, score
      L1  H     2    53       P1 10171  0.82
      L1  H    12    43       P1  8028  0.99
      L1  H    15    44       P1  8028  0.84

> <Gold.Chemscore.Hbond.Weighted>
-9.5906

> <Gold.Chemscore.Metal.Weighted>
-0.0000

> <Gold.Chemscore.Lipo.Weighted>
-14.2968

> <Gold.Chemscore.Internal_Hbond.Weighted>
0.0000

> <Gold.Chemscore.DEClash.Weighted>
2.7977

> <Gold.Chemscore.DEInternal.Weighted>
2.0391

> <Gold.Chemscore.Rot.Weighted>
4.2220

> <Gold.Chemscore.Internal.Correction.Weighted>
   9.000000E+99

> <Gold.Protein.RotatedTorsions>
[ 6907 6896 6895 6894 ] final  162.94 input  -60.11 | X-H torsion
[ 7974 7965 7964 7962 ] final  -86.24 input  175.53 | X-H torsion
[ 8008 7997 7996 7995 ] final -147.32 input   59.86 | X-H torsion
[ 10167 10162 10161 10158 ] final  -83.14 input  -65.29 | X-H torsion
[ 10718 10713 10712 10709 ] final  142.77 input   66.30 | X-H torsion
[ 10763 10752 10751 10750 ] final  -81.83 input  -60.55 | X-H torsion
[ 11005 11000 10999 10996 ] final -109.85 input  -57.11 | X-H torsion

> <Gold.Protein.ActiveResidues>
 VAL166  LYS551  ARG553  GLY616  TRP617  ASP618  TYR619  PRO620  LYS621  CYS622 
 ASP623  PHE694  ASN695  SER759  ASP760  ASP761  ALA762  ILE779  LEU786  VAL792 
 PHE793  MET794  SER795  GLU796  ALA797  LYS798  CYS799  TRP800  GLU811  SER814 

> <Gold.Protein.RotatedAtoms>
  151.9328  133.3616  159.3936 H   0  0  0  0  0  0  0  0  0  0  0  0  # atno 6907 bound_to 6896
  150.7013  134.4520  159.5350 H   0  0  0  0  0  0  0  0  0  0  0  0  # atno 6908 bound_to 6896
  152.2163  134.8455  160.0542 H   0  0  0  0  0  0  0  0  0  0  0  0  # atno 6909 bound_to 6896
  145.4826  140.9556  143.1856 H   0  0  0  0  0  0  0  0  0  0  0  0  # atno 7974 bound_to 7965
  155.5736  140.0636  157.2800 H   0  0  0  0  0  0  0  0  0  0  0  0  # atno 8008 bound_to 7997
  154.4353  140.1864  156.0950 H   0  0  0  0  0  0  0  0  0  0  0  0  # atno 8009 bound_to 7997
  156.0358  140.3301  155.7193 H   0  0  0  0  0  0  0  0  0  0  0  0  # atno 8010 bound_to 7997
  140.4255  143.2568  151.8832 H   0  0  0  0  0  0  0  0  0  0  0  0  # atno 10167 bound_to 10162
  157.3767  131.0986  151.0777 H   0  0  0  0  0  0  0  0  0  0  0  0  # atno 10718 bound_to 10713
  154.5684  135.5612  153.7072 H   0  0  0  0  0  0  0  0  0  0  0  0  # atno 10763 bound_to 10752
  153.0040  135.6291  154.2148 H   0  0  0  0  0  0  0  0  0  0  0  0  # atno 10764 bound_to 10752
  154.2087  135.2874  155.2945 H   0  0  0  0  0  0  0  0  0  0  0  0  # atno 10765 bound_to 10752
  141.0824  133.9196  157.2259 H   0  0  0  0  0  0  0  0  0  0  0  0  # atno 11005 bound_to 11000
  144.7880  139.6387  143.7125 LP  0  0  0  0  0  0  0  0  0  0  0  0  # atno 17320 bound_to 7965
  146.2332  139.5854  142.9541 LP  0  0  0  0  0  0  0  0  0  0  0  0  # atno 17321 bound_to 7965
  139.4783  144.5392  151.8553 LP  0  0  0  0  0  0  0  0  0  0  0  0  # atno 17342 bound_to 10162
  140.4486  144.1886  150.5896 LP  0  0  0  0  0  0  0  0  0  0  0  0  # atno 17343 bound_to 10162
  157.1861  130.6331  149.5688 LP  0  0  0  0  0  0  0  0  0  0  0  0  # atno 17370 bound_to 10713
  155.9767  130.4737  150.6544 LP  0  0  0  0  0  0  0  0  0  0  0  0  # atno 17371 bound_to 10713
  139.9639  135.0147  156.9335 LP  0  0  0  0  0  0  0  0  0  0  0  0  # atno 17394 bound_to 11000
  140.5438  134.0694  155.7349 LP  0  0  0  0  0  0  0  0  0  0  0  0  # atno 17395 bound_to 11000

$$$$
