AV-unprocessed.smi:1557|AV-procd|sdf|6270|dock1
  -GOLD-   22720 6463D 1   1.00000     0.00000
 Structure written by MMmdl.
 41 42  0  0  0  0  0  0  0  0  1 V2000
  152.0504  138.0502  154.4853 C   0  0  0  0  0  0  0  0  0  0  0  0
  150.9974  139.1364  154.7169 C   0  0  0  0  0  0  0  0  0  0  0  0
  149.7596  138.6945  154.1688 O   0  0  0  0  0  0  0  0  0  0  0  0
  148.6800  139.5571  154.1831 C   0  0  0  0  0  0  0  0  0  0  0  0
  148.8511  140.7996  154.7006 N   0  0  0  0  0  0  0  0  0  0  0  0
  147.7954  141.6392  154.7174 C   0  0  0  0  0  0  0  0  0  0  0  0
  146.5228  141.2873  154.2313 C   0  0  0  0  0  0  0  0  0  0  0  0
  146.3431  139.9993  153.6937 C   0  0  0  0  0  0  0  0  0  0  0  0
  147.4461  139.1126  153.6546 C   0  0  0  0  0  0  0  0  0  0  0  0
  147.3696  137.7856  153.1505 N   0  0  0  0  0  0  0  0  0  0  0  0
  146.2842  137.0057  153.0180 C   0  0  0  0  0  0  0  0  0  0  0  0
  145.1389  137.3161  153.3459 O   0  0  0  0  0  0  0  0  0  0  0  0
  146.6006  135.8317  152.4516 N   0  0  0  0  0  0  0  0  0  0  0  0
  145.6491  134.7803  152.0886 C   0  0  2  0  0  0  0  0  0  0  0  0
  146.4539  133.5675  151.5571 C   0  0  0  0  0  0  0  0  0  0  0  0
  145.6582  132.5136  150.7548 C   0  0  0  0  0  0  0  0  0  0  0  0
  144.2920  132.1256  151.3568 C   0  0  0  0  0  0  0  0  0  0  0  0
  143.2423  133.2595  151.4909 C   0  0  0  0  0  0  0  0  0  0  0  0
  143.5736  134.4939  150.7787 N   0  0  0  0  0  0  0  0  0  0  0  0
  144.6535  135.2600  151.0084 C   0  0  0  0  0  0  0  0  0  0  0  0
  144.8589  136.2883  150.3643 O   0  0  0  0  0  0  0  0  0  0  0  0
  153.0160  138.3506  154.8928 H   0  0  0  0  0  0  0  0  0  0  0  0
  152.1830  137.8541  153.4211 H   0  0  0  0  0  0  0  0  0  0  0  0
  151.7606  137.1153  154.9655 H   0  0  0  0  0  0  0  0  0  0  0  0
  150.8954  139.3241  155.7870 H   0  0  0  0  0  0  0  0  0  0  0  0
  151.3168  140.0635  154.2384 H   0  0  0  0  0  0  0  0  0  0  0  0
  147.9688  142.6189  155.1374 H   0  0  0  0  0  0  0  0  0  0  0  0
  145.7017  141.9873  154.2738 H   0  0  0  0  0  0  0  0  0  0  0  0
  145.3656  139.7126  153.3376 H   0  0  0  0  0  0  0  0  0  0  0  0
  148.2259  137.4252  152.7554 H   0  0  0  0  0  0  0  0  0  0  0  0
  147.5668  135.6681  152.2102 H   0  0  0  0  0  0  0  0  0  0  0  0
  145.1002  134.4866  152.9846 H   0  0  0  0  0  0  0  0  0  0  0  0
  147.2765  133.9131  150.9287 H   0  0  0  0  0  0  0  0  0  0  0  0
  146.9244  133.0748  152.4091 H   0  0  0  0  0  0  0  0  0  0  0  0
  145.5123  132.8655  149.7326 H   0  0  0  0  0  0  0  0  0  0  0  0
  146.2705  131.6165  150.6579 H   0  0  0  0  0  0  0  0  0  0  0  0
  143.8658  131.3413  150.7302 H   0  0  0  0  0  0  0  0  0  0  0  0
  144.4440  131.6634  152.3331 H   0  0  0  0  0  0  0  0  0  0  0  0
  142.2782  132.9065  151.1242 H   0  0  0  0  0  0  0  0  0  0  0  0
  143.0815  133.4957  152.5437 H   0  0  0  0  0  0  0  0  0  0  0  0
  142.9280  134.7949  150.0630 H   0  0  0  0  0  0  0  0  0  0  0  0
  1  2  1  0  0  0  0
  1 22  1  0  0  0  0
  1 23  1  0  0  0  0
  1 24  1  0  0  0  0
  2  3  1  0  0  0  0
  2 25  1  0  0  0  0
  2 26  1  0  0  0  0
  3  4  1  0  0  0  0
  4  9  1  0  0  0  0
  4  5  2  0  0  0  0
  5  6  1  0  0  0  0
  6  7  2  0  0  0  0
  6 27  1  0  0  0  0
  7  8  1  0  0  0  0
  7 28  1  0  0  0  0
  8  9  2  0  0  0  0
  8 29  1  0  0  0  0
  9 10  1  0  0  0  0
 10 11  1  0  0  0  0
 10 30  1  0  0  0  0
 11 12  2  0  0  0  0
 11 13  1  0  0  0  0
 13 14  1  0  0  0  0
 13 31  1  0  0  0  0
 14 20  1  0  0  0  0
 14 15  1  0  0  0  0
 14 32  1  0  0  0  0
 15 16  1  0  0  0  0
 15 33  1  0  0  0  0
 15 34  1  0  0  0  0
 16 17  1  0  0  0  0
 16 35  1  0  0  0  0
 16 36  1  0  0  0  0
 17 18  1  0  0  0  0
 17 37  1  0  0  0  0
 17 38  1  0  0  0  0
 18 19  1  0  0  0  0
 18 39  1  0  0  0  0
 18 40  1  0  0  0  0
 19 20  1  0  0  0  0
 19 41  1  0  0  0  0
 20 21  2  0  0  0  0
M  END
> <s_m_source_file>
AV-unprocessed.smi

> <i_m_source_file_index>
1557

> <i_lp_mmshare_version>
43012

> <i_f3d_flags>
0

> <s_epik_input>
W0NIM11bQ0gyXU9jMW5bY0hdW2NIXVtjSF1jMVtOSF1DKD1PKVtOSF1bQ0BASF0yW0NIMl1bQ0gyXVtDSDJdW0NIMl1bTkhdQzI9Tw==

> <s_epik_cmdline>
J2VwaWtfcHl0aG9uJywgJy1waCcsICc3LjAnLCAnLXRuJywgJzgnLCAnLW1hJywgJzIwMCcsICctbWV0YWxfYmluZGluZycsICctaW1hZScsICc8aW5maWxlLm1hZT4nLCAnLW9tYWUnLCAnPG91dGZpbGUubWFlPic=

> <r_lp_tautomer_probability>
1

> <r_epik_Ionization_Penalty>
0.000101084

> <r_epik_Ionization_Penalty_Charging>
0

> <r_epik_Ionization_Penalty_Neutral>
0.000101084

> <r_epik_State_Penalty>
-0

> <r_epik_Charging_Adjusted_Penalty>
0

> <i_epik_Tot_Q>
0

> <i_epik_Tot_abs_Q>
0

> <r_epik_Metal_State_Penalty>
-0

> <b_epik_Metal_Only>
0

> <s_lp_Force_Field>
OPLS_2005

> <r_lp_Energy>
17.7694

> <b_lp_Chiralities_Consistent>
1

> <s_lp_Variant>
AV-unprocessed.smi:1557-1

> <Gold.Version>
5.8.1

> <Gold.Id.Protein>
6NUR|6NUR_protein|mol2

> <Gold.PLP.Fitness>
40.2019

> <Gold.PLP.PLP>
-29.3257

> <Gold.PLP.part.hbond>
-2.6956

> <Gold.PLP.part.metal>
0.0000

> <Gold.PLP.part.buried>
-2.5026

> <Gold.PLP.part.nonpolar>
-29.4565

> <Gold.PLP.part.repulsive>
4.0846

> <Gold.PLP.ligand.clash>
0.0000

> <Gold.PLP.ligand.torsion>
0.1328

> <Gold.PLP.Chemscore.Hbond>
2.7112

> <Gold.PLP.Chemscore.CHOScore>
1.0000

> <Gold.PLP.Chemscore.Metal>
0.0000

> <Gold.Chemscore.Hbonds>
donor molecule, donor type, donor heavy atom, donor atom, acceptor molecule, acceptor atom, score
      L1  H    10    30       P1  7948  0.96
      L1  H    13    31       P1  7948  0.96
      L1  H    19    41       P1 10186  0.75
      L1  C     6    27       P1  8028  1.00

> <Gold.PLP.Chemscore.Internal.Correction>
0.0082

> <Gold.Rescore>
     Score         DG    S(hbond)    S(metal)    S(lipo)     H(rot)  DE(clash)    DE(int)     intcor
     14.48     -18.17       2.40        0.00      72.76       1.49       2.42       1.28       ----

> <Gold.Chemscore.Fitness>
14.4753

> <Gold.Chemscore.DG>
-18.1742

> <Gold.Chemscore.ZeroCoef>
-5.4800

> <Gold.Chemscore.Hbond>
2.3975

> <Gold.Chemscore.Metal>
0.0000

> <Gold.Chemscore.Lipo>
72.7632

> <Gold.Chemscore.Internal_Hbond>
0.0000

> <Gold.Chemscore.DEClash>
2.4195

> <Gold.Chemscore.DEInternal>
1.2795

> <Gold.Chemscore.Rot>
1.4948

> <Gold.Chemscore.Internal.Correction>
   9.000000E+99

> <Gold.Chemscore.Hbonds>
donor molecule, donor type, donor heavy atom, donor atom, acceptor molecule, acceptor atom, score
      L1  H    10    30       P1  7948  0.92
      L1  H    13    31       P1  7948  0.86
      L1  H    19    41       P1 10186  0.40

> <Gold.Chemscore.Hbond.Weighted>
-8.0077

> <Gold.Chemscore.Metal.Weighted>
-0.0000

> <Gold.Chemscore.Lipo.Weighted>
-8.5133

> <Gold.Chemscore.Internal_Hbond.Weighted>
0.0000

> <Gold.Chemscore.DEClash.Weighted>
2.4195

> <Gold.Chemscore.DEInternal.Weighted>
1.2795

> <Gold.Chemscore.Rot.Weighted>
3.8268

> <Gold.Chemscore.Internal.Correction.Weighted>
   9.000000E+99

> <Gold.Protein.RotatedTorsions>
[ 6907 6896 6895 6894 ] final   72.30 input  -60.11 | X-H torsion
[ 7974 7965 7964 7962 ] final  -33.54 input  175.53 | X-H torsion
[ 8008 7997 7996 7995 ] final  108.65 input   59.86 | X-H torsion
[ 10167 10162 10161 10158 ] final    8.57 input  -65.29 | X-H torsion
[ 10718 10713 10712 10709 ] final  134.86 input   66.30 | X-H torsion
[ 10763 10752 10751 10750 ] final  -82.12 input  -60.55 | X-H torsion
[ 11005 11000 10999 10996 ] final  104.84 input  -57.11 | X-H torsion

> <Gold.Protein.ActiveResidues>
 VAL166  LYS551  ARG553  GLY616  TRP617  ASP618  TYR619  PRO620  LYS621  CYS622 
 ASP623  PHE694  ASN695  SER759  ASP760  ASP761  ALA762  ILE779  LEU786  VAL792 
 PHE793  MET794  SER795  GLU796  ALA797  LYS798  CYS799  TRP800  GLU811  SER814 

> <Gold.Protein.RotatedAtoms>
  152.4860  134.4592  159.9599 H   0  0  0  0  0  0  0  0  0  0  0  0  # atno 6907 bound_to 6896
  151.4589  133.3592  159.2814 H   0  0  0  0  0  0  0  0  0  0  0  0  # atno 6908 bound_to 6896
  150.8970  134.8404  159.7394 H   0  0  0  0  0  0  0  0  0  0  0  0  # atno 6909 bound_to 6896
  146.0902  140.5929  142.8868 H   0  0  0  0  0  0  0  0  0  0  0  0  # atno 7974 bound_to 7965
  156.1920  140.3072  155.9350 H   0  0  0  0  0  0  0  0  0  0  0  0  # atno 8008 bound_to 7997
  155.3153  140.0453  157.3054 H   0  0  0  0  0  0  0  0  0  0  0  0  # atno 8009 bound_to 7997
  154.5463  140.2277  155.8567 H   0  0  0  0  0  0  0  0  0  0  0  0  # atno 8010 bound_to 7997
  140.6306  143.8001  150.7291 H   0  0  0  0  0  0  0  0  0  0  0  0  # atno 10167 bound_to 10162
  157.4630  131.1075  150.9897 H   0  0  0  0  0  0  0  0  0  0  0  0  # atno 10718 bound_to 10713
  154.5718  135.5602  153.7102 H   0  0  0  0  0  0  0  0  0  0  0  0  # atno 10763 bound_to 10752
  153.0051  135.6299  154.2103 H   0  0  0  0  0  0  0  0  0  0  0  0  # atno 10764 bound_to 10752
  154.2043  135.2876  155.2960 H   0  0  0  0  0  0  0  0  0  0  0  0  # atno 10765 bound_to 10752
  139.8796  134.9315  156.5423 H   0  0  0  0  0  0  0  0  0  0  0  0  # atno 11005 bound_to 11000
  144.7354  140.4795  143.6907 LP  0  0  0  0  0  0  0  0  0  0  0  0  # atno 17320 bound_to 7965
  145.6053  139.1508  143.3106 LP  0  0  0  0  0  0  0  0  0  0  0  0  # atno 17321 bound_to 7965
  140.1612  143.4274  152.2066 LP  0  0  0  0  0  0  0  0  0  0  0  0  # atno 17342 bound_to 10162
  139.5521  144.7345  151.4404 LP  0  0  0  0  0  0  0  0  0  0  0  0  # atno 17343 bound_to 10162
  157.0688  130.5855  149.5399 LP  0  0  0  0  0  0  0  0  0  0  0  0  # atno 17370 bound_to 10713
  156.0037  130.5120  150.7755 LP  0  0  0  0  0  0  0  0  0  0  0  0  # atno 17371 bound_to 10713
  140.8301  133.8285  155.8976 LP  0  0  0  0  0  0  0  0  0  0  0  0  # atno 17394 bound_to 11000
  140.9337  134.1990  157.4846 LP  0  0  0  0  0  0  0  0  0  0  0  0  # atno 17395 bound_to 11000

$$$$
