AV-unprocessed.smi:1170|AV-procd|sdf|4941|dock3
  -GOLD-   22720 3523D 1   1.00000     0.00000
 Structure written by MMmdl.
 34 35  0  0  0  0  0  0  0  0  1 V2000
  151.9054  138.3972  156.0465 C   0  0  0  0  0  0  0  0  0  0  0  0
  151.7342  137.9728  154.5861 C   0  0  0  0  0  0  0  0  0  0  0  0
  150.3434  137.9373  154.2808 O   0  0  0  0  0  0  0  0  0  0  0  0
  149.6252  139.1177  154.3137 C   0  0  0  0  0  0  0  0  0  0  0  0
  150.2091  140.2135  154.8605 N   0  0  0  0  0  0  0  0  0  0  0  0
  149.5073  141.3646  154.8981 C   0  0  0  0  0  0  0  0  0  0  0  0
  148.1954  141.4829  154.4043 C   0  0  0  0  0  0  0  0  0  0  0  0
  147.5875  140.3479  153.8365 C   0  0  0  0  0  0  0  0  0  0  0  0
  148.3171  139.1355  153.7755 C   0  0  0  0  0  0  0  0  0  0  0  0
  147.7986  137.9248  153.2370 N   0  0  0  0  0  0  0  0  0  0  0  0
  146.5249  137.4983  153.1952 C   0  0  0  0  0  0  0  0  0  0  0  0
  145.5536  138.1051  153.6459 O   0  0  0  0  0  0  0  0  0  0  0  0
  146.4333  136.3134  152.5756 N   0  0  0  0  0  0  0  0  0  0  0  0
  145.1921  135.5850  152.3463 C   0  0  0  0  0  0  0  0  0  0  0  0
  145.1445  134.7885  151.0560 C   0  0  0  0  0  0  0  0  0  0  0  0
  144.2301  133.5940  150.9068 C   0  0  0  0  0  0  0  0  0  0  0  0
  145.7226  133.3935  151.0002 C   0  0  0  0  0  0  0  0  0  0  0  0
  152.9596  138.4302  156.3216 H   0  0  0  0  0  0  0  0  0  0  0  0
  151.4064  137.6981  156.7180 H   0  0  0  0  0  0  0  0  0  0  0  0
  151.4832  139.3874  156.2184 H   0  0  0  0  0  0  0  0  0  0  0  0
  152.2503  138.6815  153.9365 H   0  0  0  0  0  0  0  0  0  0  0  0
  152.1815  136.9888  154.4368 H   0  0  0  0  0  0  0  0  0  0  0  0
  150.0040  142.2151  155.3411 H   0  0  0  0  0  0  0  0  0  0  0  0
  147.6649  142.4217  154.4639 H   0  0  0  0  0  0  0  0  0  0  0  0
  146.5748  140.4288  153.4743 H   0  0  0  0  0  0  0  0  0  0  0  0
  148.4741  137.3454  152.7604 H   0  0  0  0  0  0  0  0  0  0  0  0
  147.2819  135.8872  152.2329 H   0  0  0  0  0  0  0  0  0  0  0  0
  145.0621  134.8908  153.1766 H   0  0  0  0  0  0  0  0  0  0  0  0
  144.3447  136.2715  152.3876 H   0  0  0  0  0  0  0  0  0  0  0  0
  145.2998  135.3913  150.1630 H   0  0  0  0  0  0  0  0  0  0  0  0
  143.6299  133.3033  151.7668 H   0  0  0  0  0  0  0  0  0  0  0  0
  143.7590  133.4429  149.9379 H   0  0  0  0  0  0  0  0  0  0  0  0
  146.2480  133.1024  150.0931 H   0  0  0  0  0  0  0  0  0  0  0  0
  146.1149  132.9700  151.9229 H   0  0  0  0  0  0  0  0  0  0  0  0
  1  2  1  0  0  0  0
  1 18  1  0  0  0  0
  1 19  1  0  0  0  0
  1 20  1  0  0  0  0
  2  3  1  0  0  0  0
  2 21  1  0  0  0  0
  2 22  1  0  0  0  0
  3  4  1  0  0  0  0
  4  9  1  0  0  0  0
  4  5  2  0  0  0  0
  5  6  1  0  0  0  0
  6  7  2  0  0  0  0
  6 23  1  0  0  0  0
  7  8  1  0  0  0  0
  7 24  1  0  0  0  0
  8  9  2  0  0  0  0
  8 25  1  0  0  0  0
  9 10  1  0  0  0  0
 10 11  1  0  0  0  0
 10 26  1  0  0  0  0
 11 12  2  0  0  0  0
 11 13  1  0  0  0  0
 13 14  1  0  0  0  0
 13 27  1  0  0  0  0
 14 15  1  0  0  0  0
 14 28  1  0  0  0  0
 14 29  1  0  0  0  0
 15 17  1  0  0  0  0
 15 16  1  0  0  0  0
 15 30  1  0  0  0  0
 16 17  1  0  0  0  0
 16 31  1  0  0  0  0
 16 32  1  0  0  0  0
 17 33  1  0  0  0  0
 17 34  1  0  0  0  0
M  END
> <s_m_source_file>
AV-unprocessed.smi

> <i_m_source_file_index>
1170

> <i_lp_mmshare_version>
43012

> <i_f3d_flags>
0

> <s_epik_input>
W0NIM11bQ0gyXU9jMW5bY0hdW2NIXVtjSF1jMVtOSF1DKD1PKVtOSF1bQ0gyXVtDSF0yW0NIMl1bQ0gyXTI=

> <s_epik_cmdline>
J2VwaWtfcHl0aG9uJywgJy1waCcsICc3LjAnLCAnLXRuJywgJzgnLCAnLW1hJywgJzIwMCcsICctbWV0YWxfYmluZGluZycsICctaW1hZScsICc8aW5maWxlLm1hZT4nLCAnLW9tYWUnLCAnPG91dGZpbGUubWFlPic=

> <r_lp_tautomer_probability>
1

> <r_epik_Ionization_Penalty>
0.00011974

> <r_epik_Ionization_Penalty_Charging>
0

> <r_epik_Ionization_Penalty_Neutral>
0.00011974

> <r_epik_State_Penalty>
-0

> <r_epik_Charging_Adjusted_Penalty>
0

> <i_epik_Tot_Q>
0

> <i_epik_Tot_abs_Q>
0

> <r_epik_Metal_State_Penalty>
-0

> <b_epik_Metal_Only>
0

> <s_lp_Force_Field>
OPLS_2005

> <r_lp_Energy>
14.6744

> <b_lp_Chiralities_Consistent>
1

> <s_lp_Variant>
AV-unprocessed.smi:1170-1

> <Gold.Version>
5.8.1

> <Gold.Id.Protein>
6NUR|6NUR_protein|mol2

> <Gold.PLP.Fitness>
40.4834

> <Gold.PLP.PLP>
-29.6953

> <Gold.PLP.part.hbond>
-3.2508

> <Gold.PLP.part.metal>
0.0000

> <Gold.PLP.part.buried>
-0.9442

> <Gold.PLP.part.nonpolar>
-26.7018

> <Gold.PLP.part.repulsive>
1.1793

> <Gold.PLP.ligand.clash>
0.0000

> <Gold.PLP.ligand.torsion>
0.7649

> <Gold.PLP.Chemscore.Hbond>
2.9120

> <Gold.PLP.Chemscore.CHOScore>
0.9998

> <Gold.PLP.Chemscore.Metal>
0.0000

> <Gold.Chemscore.Hbonds>
donor molecule, donor type, donor heavy atom, donor atom, acceptor molecule, acceptor atom, score
      L1  H    10    26       P1  7948  0.91
      L1  H    13    27       P1  7948  0.88
      P1  H  7989  7998       L1     5  0.72
      L1  C     6    23       P1  8028  0.39

> <Gold.PLP.Chemscore.Internal.Correction>
0.5825

> <Gold.Rescore>
     Score         DG    S(hbond)    S(metal)    S(lipo)     H(rot)  DE(clash)    DE(int)     intcor
     12.40     -15.96       2.06        0.00      64.91       1.56       1.75       1.81       ----

> <Gold.Chemscore.Fitness>
12.3959

> <Gold.Chemscore.DG>
-15.9552

> <Gold.Chemscore.ZeroCoef>
-5.4800

> <Gold.Chemscore.Hbond>
2.0612

> <Gold.Chemscore.Metal>
0.0000

> <Gold.Chemscore.Lipo>
64.9080

> <Gold.Chemscore.Internal_Hbond>
0.0000

> <Gold.Chemscore.DEClash>
1.7492

> <Gold.Chemscore.DEInternal>
1.8101

> <Gold.Chemscore.Rot>
1.5638

> <Gold.Chemscore.Internal.Correction>
   9.000000E+99

> <Gold.Chemscore.Hbonds>
donor molecule, donor type, donor heavy atom, donor atom, acceptor molecule, acceptor atom, score
      L1  H    10    26       P1  7948  0.88
      L1  H    13    27       P1  7948  0.87
      P1  H  7989  7998       L1     5  0.06

> <Gold.Chemscore.Hbond.Weighted>
-6.8843

> <Gold.Chemscore.Metal.Weighted>
-0.0000

> <Gold.Chemscore.Lipo.Weighted>
-7.5942

> <Gold.Chemscore.Internal_Hbond.Weighted>
0.0000

> <Gold.Chemscore.DEClash.Weighted>
1.7492

> <Gold.Chemscore.DEInternal.Weighted>
1.8101

> <Gold.Chemscore.Rot.Weighted>
4.0033

> <Gold.Chemscore.Internal.Correction.Weighted>
   9.000000E+99

> <Gold.Protein.RotatedTorsions>
[ 6907 6896 6895 6894 ] final    2.35 input  -60.11 | X-H torsion
[ 7974 7965 7964 7962 ] final   33.84 input  175.53 | X-H torsion
[ 8008 7997 7996 7995 ] final -133.39 input   59.86 | X-H torsion
[ 10167 10162 10161 10158 ] final -157.97 input  -65.29 | X-H torsion
[ 10718 10713 10712 10709 ] final  103.32 input   66.30 | X-H torsion
[ 10763 10752 10751 10750 ] final  172.54 input  -60.55 | X-H torsion
[ 11005 11000 10999 10996 ] final -121.97 input  -57.11 | X-H torsion

> <Gold.Protein.ActiveResidues>
 VAL166  LYS551  ARG553  GLY616  TRP617  ASP618  TYR619  PRO620  LYS621  CYS622 
 ASP623  PHE694  ASN695  SER759  ASP760  ASP761  ALA762  ILE779  LEU786  VAL792 
 PHE793  MET794  SER795  GLU796  ALA797  LYS798  CYS799  TRP800  GLU811  SER814 

> <Gold.Protein.RotatedAtoms>
  151.6075  135.1043  160.0073 H   0  0  0  0  0  0  0  0  0  0  0  0  # atno 6907 bound_to 6896
  152.4226  133.7137  159.6504 H   0  0  0  0  0  0  0  0  0  0  0  0  # atno 6908 bound_to 6896
  150.8114  133.8343  159.3203 H   0  0  0  0  0  0  0  0  0  0  0  0  # atno 6909 bound_to 6896
  146.1394  139.6346  142.9173 H   0  0  0  0  0  0  0  0  0  0  0  0  # atno 7974 bound_to 7965
  155.3447  140.0474  157.3045 H   0  0  0  0  0  0  0  0  0  0  0  0  # atno 8008 bound_to 7997
  154.5259  140.2240  155.8856 H   0  0  0  0  0  0  0  0  0  0  0  0  # atno 8009 bound_to 7997
  156.1738  140.3089  155.9028 H   0  0  0  0  0  0  0  0  0  0  0  0  # atno 8010 bound_to 7997
  139.6729  143.9714  152.2294 H   0  0  0  0  0  0  0  0  0  0  0  0  # atno 10167 bound_to 10162
  157.6776  131.0776  150.5537 H   0  0  0  0  0  0  0  0  0  0  0  0  # atno 10718 bound_to 10713
  154.4275  135.2759  155.1934 H   0  0  0  0  0  0  0  0  0  0  0  0  # atno 10763 bound_to 10752
  154.3854  135.6078  153.5817 H   0  0  0  0  0  0  0  0  0  0  0  0  # atno 10764 bound_to 10752
  152.9835  135.5890  154.4581 H   0  0  0  0  0  0  0  0  0  0  0  0  # atno 10765 bound_to 10752
  141.0030  134.0375  157.3513 H   0  0  0  0  0  0  0  0  0  0  0  0  # atno 11005 bound_to 11000
  145.5082  141.0436  143.2502 LP  0  0  0  0  0  0  0  0  0  0  0  0  # atno 17320 bound_to 7965
  144.7775  139.6598  143.7168 LP  0  0  0  0  0  0  0  0  0  0  0  0  # atno 17321 bound_to 7965
  139.9483  144.6637  150.8197 LP  0  0  0  0  0  0  0  0  0  0  0  0  # atno 17342 bound_to 10162
  140.7625  143.3199  151.2646 LP  0  0  0  0  0  0  0  0  0  0  0  0  # atno 17343 bound_to 10162
  156.5841  130.4312  149.5964 LP  0  0  0  0  0  0  0  0  0  0  0  0  # atno 17370 bound_to 10713
  156.2637  130.6977  151.1753 LP  0  0  0  0  0  0  0  0  0  0  0  0  # atno 17371 bound_to 10713
  139.9049  135.0176  156.7438 LP  0  0  0  0  0  0  0  0  0  0  0  0  # atno 17394 bound_to 11000
  140.6858  133.9434  155.7937 LP  0  0  0  0  0  0  0  0  0  0  0  0  # atno 17395 bound_to 11000

$$$$
