AV-unprocessed.smi:1999|AV-procd|sdf|8095|dock7
  -GOLD-   2272010313D 1   1.00000     0.00000
 Structure written by MMmdl.
 39 40  0  0  0  0  0  0  0  0  2 V2000
  152.0834  139.8750  158.3143 C   0  0  0  0  0  0  0  0  0  0  0  0
  151.5966  139.7615  156.9100 C   0  0  0  0  0  0  0  0  0  0  0  0
  152.3975  139.9432  155.8530 N   0  0  0  0  0  0  0  0  0  0  0  0
  151.7234  139.7894  154.6497 N   0  0  0  0  0  0  0  0  0  0  0  0
  150.4298  139.4934  154.8360 C   0  0  0  0  0  0  0  0  0  0  0  0
  149.5067  139.2916  153.7759 N   0  0  0  0  0  0  0  0  0  0  0  0
  148.2110  138.9428  153.8576 C   0  0  0  0  0  0  0  0  0  0  0  0
  147.5826  138.7786  154.9033 O   0  0  0  0  0  0  0  0  0  0  0  0
  147.6723  138.7810  152.6394 N   0  0  0  0  0  0  0  0  0  0  0  0
  146.2804  138.4296  152.3531 C   0  0  1  0  0  0  0  0  0  0  0  0
  146.1206  138.2262  150.8404 C   0  0  0  0  0  0  0  0  0  0  0  0
  145.8386  137.1699  153.1350 C   0  0  0  0  0  0  0  0  0  0  0  0
  146.3764  135.9084  152.5651 N   0  3  0  0  0  0  0  0  0  0  0  0
  146.6689  134.8736  153.5866 C   0  0  0  0  0  0  0  0  0  0  0  0
  147.2995  133.6383  152.9230 C   0  0  0  0  0  0  0  0  0  0  0  0
  146.4208  133.1376  151.9226 O   0  0  0  0  0  0  0  0  0  0  0  0
  146.1857  134.0908  150.8932 C   0  0  0  0  0  0  0  0  0  0  0  0
  145.5270  135.3470  151.4892 C   0  0  0  0  0  0  0  0  0  0  0  0
  149.9239  139.3847  156.5132 S   0  0  0  0  0  0  0  0  0  0  0  0
  152.9801  139.2702  158.4516 H   0  0  0  0  0  0  0  0  0  0  0  0
  151.3197  139.5278  159.0106 H   0  0  0  0  0  0  0  0  0  0  0  0
  152.3207  140.9138  158.5441 H   0  0  0  0  0  0  0  0  0  0  0  0
  149.8823  139.4168  152.8473 H   0  0  0  0  0  0  0  0  0  0  0  0
  148.2676  138.9387  151.8393 H   0  0  0  0  0  0  0  0  0  0  0  0
  145.6389  139.2684  152.6267 H   0  0  0  0  0  0  0  0  0  0  0  0
  145.0858  137.9997  150.5822 H   0  0  0  0  0  0  0  0  0  0  0  0
  146.7401  137.4039  150.4802 H   0  0  0  0  0  0  0  0  0  0  0  0
  146.4057  139.1239  150.2906 H   0  0  0  0  0  0  0  0  0  0  0  0
  146.1267  137.2456  154.1848 H   0  0  0  0  0  0  0  0  0  0  0  0
  144.7482  137.1303  153.1239 H   0  0  0  0  0  0  0  0  0  0  0  0
  147.3487  135.2646  154.3429 H   0  0  0  0  0  0  0  0  0  0  0  0
  145.7483  134.5919  154.1000 H   0  0  0  0  0  0  0  0  0  0  0  0
  148.2696  133.8821  152.4862 H   0  0  0  0  0  0  0  0  0  0  0  0
  147.4713  132.8592  153.6659 H   0  0  0  0  0  0  0  0  0  0  0  0
  147.1230  134.3428  150.3940 H   0  0  0  0  0  0  0  0  0  0  0  0
  145.5343  133.6452  150.1411 H   0  0  0  0  0  0  0  0  0  0  0  0
  144.5415  135.1026  151.8891 H   0  0  0  0  0  0  0  0  0  0  0  0
  145.3818  136.0900  150.7042 H   0  0  0  0  0  0  0  0  0  0  0  0
  147.2578  136.1464  152.1317 H   0  0  0  0  0  0  0  0  0  0  0  0
  1  2  1  0  0  0  0
  1 20  1  0  0  0  0
  1 21  1  0  0  0  0
  1 22  1  0  0  0  0
  2 19  1  0  0  0  0
  2  3  2  0  0  0  0
  3  4  1  0  0  0  0
  4  5  2  0  0  0  0
  5  6  1  0  0  0  0
  5 19  1  0  0  0  0
  6  7  1  0  0  0  0
  6 23  1  0  0  0  0
  7  8  2  0  0  0  0
  7  9  1  0  0  0  0
  9 10  1  0  0  0  0
  9 24  1  0  0  0  0
 10 11  1  0  0  0  0
 10 12  1  0  0  0  0
 10 25  1  0  0  0  0
 11 26  1  0  0  0  0
 11 27  1  0  0  0  0
 11 28  1  0  0  0  0
 12 13  1  0  0  0  0
 12 29  1  0  0  0  0
 12 30  1  0  0  0  0
 13 18  1  0  0  0  0
 13 14  1  0  0  0  0
 13 39  1  0  0  0  0
 14 15  1  0  0  0  0
 14 31  1  0  0  0  0
 14 32  1  0  0  0  0
 15 16  1  0  0  0  0
 15 33  1  0  0  0  0
 15 34  1  0  0  0  0
 16 17  1  0  0  0  0
 17 18  1  0  0  0  0
 17 35  1  0  0  0  0
 17 36  1  0  0  0  0
 18 37  1  0  0  0  0
 18 38  1  0  0  0  0
M  CHG  1  13   1
M  END
> <s_m_source_file>
AV-unprocessed.smi

> <i_m_source_file_index>
1999

> <i_lp_mmshare_version>
43012

> <i_f3d_flags>
0

> <s_epik_input>
W0NIM11jMW5uYyhzMSlbTkhdQyg9TylbTkhdW0NASF0oW0NIM10pW0NIMl1OMltDSDJdW0NIMl1PW0NIMl1bQ0gyXTI=

> <s_epik_cmdline>
J2VwaWtfcHl0aG9uJywgJy1waCcsICc3LjAnLCAnLXRuJywgJzgnLCAnLW1hJywgJzIwMCcsICctbWV0YWxfYmluZGluZycsICctaW1hZScsICc8aW5maWxlLm1hZT4nLCAnLW9tYWUnLCAnPG91dGZpbGUubWFlPic=

> <r_lp_tautomer_probability>
1

> <r_epik_Ionization_Penalty>
0.701298

> <r_epik_Ionization_Penalty_Charging>
0.695697

> <r_epik_Ionization_Penalty_Neutral>
0.00560124

> <r_epik_State_Penalty>
0.717972

> <r_epik_Charging_Adjusted_Penalty>
1.41367

> <i_epik_Tot_Q>
1

> <i_epik_Tot_abs_Q>
1

> <r_epik_Metal_State_Penalty>
1.07748

> <b_epik_Metal_Only>
0

> <s_lp_Force_Field>
OPLS_2005

> <r_lp_Energy>
20.3005

> <b_lp_Chiralities_Consistent>
1

> <s_lp_Variant>
AV-unprocessed.smi:1999-4

> <Gold.Version>
5.8.1

> <Gold.Id.Protein>
6NUR|6NUR_protein|mol2

> <Gold.PLP.Fitness>
43.6299

> <Gold.PLP.PLP>
-27.2225

> <Gold.PLP.part.hbond>
-6.0000

> <Gold.PLP.part.metal>
0.0000

> <Gold.PLP.part.buried>
1.0826

> <Gold.PLP.part.nonpolar>
-22.3803

> <Gold.PLP.part.repulsive>
0.4478

> <Gold.PLP.ligand.clash>
0.0000

> <Gold.PLP.ligand.torsion>
0.5327

> <Gold.PLP.Chemscore.Hbond>
5.8080

> <Gold.PLP.Chemscore.CHOScore>
0.0000

> <Gold.PLP.Chemscore.Metal>
0.0000

> <Gold.Chemscore.Hbonds>
donor molecule, donor type, donor heavy atom, donor atom, acceptor molecule, acceptor atom, score
      L1  H     6    23       P1  7957  0.96
      L1  H     9    24       P1  7957  0.91
      L1  H    13    39       P1  7948  2.00
      P1  H  7989  7998       L1     4  1.00
      P1  H  7997  8008       L1     3  1.00

> <Gold.PLP.Chemscore.Internal.Correction>
0.0489

> <Gold.Rescore>
     Score         DG    S(hbond)    S(metal)    S(lipo)     H(rot)  DE(clash)    DE(int)     intcor
     17.56     -22.37       4.45        0.00      53.06       1.63       1.81       3.00       ----

> <Gold.Chemscore.Fitness>
17.5621

> <Gold.Chemscore.DG>
-22.3748

> <Gold.Chemscore.ZeroCoef>
-5.4800

> <Gold.Chemscore.Hbond>
4.4505

> <Gold.Chemscore.Metal>
0.0000

> <Gold.Chemscore.Lipo>
53.0561

> <Gold.Chemscore.Internal_Hbond>
0.0000

> <Gold.Chemscore.DEClash>
1.8097

> <Gold.Chemscore.DEInternal>
3.0031

> <Gold.Chemscore.Rot>
1.6317

> <Gold.Chemscore.Internal.Correction>
   9.000000E+99

> <Gold.Chemscore.Hbonds>
donor molecule, donor type, donor heavy atom, donor atom, acceptor molecule, acceptor atom, score
      L1  H     6    23       P1  7957  0.91
      L1  H     9    24       P1  7957  0.82
      L1  H    13    39       P1  7948  1.00
      P1  H  7989  7998       L1     4  0.37
      P1  H  7997  8008       L1     3  0.94

> <Gold.Chemscore.Hbond.Weighted>
-14.8645

> <Gold.Chemscore.Metal.Weighted>
-0.0000

> <Gold.Chemscore.Lipo.Weighted>
-6.2076

> <Gold.Chemscore.Internal_Hbond.Weighted>
0.0000

> <Gold.Chemscore.DEClash.Weighted>
1.8097

> <Gold.Chemscore.DEInternal.Weighted>
3.0031

> <Gold.Chemscore.Rot.Weighted>
4.1773

> <Gold.Chemscore.Internal.Correction.Weighted>
   9.000000E+99

> <Gold.Protein.RotatedTorsions>
[ 6907 6896 6895 6894 ] final -101.68 input  -60.11 | X-H torsion
[ 7974 7965 7964 7962 ] final  107.23 input  175.53 | X-H torsion
[ 8008 7997 7996 7995 ] final  -31.95 input   59.86 | X-H torsion
[ 10167 10162 10161 10158 ] final  -42.18 input  -65.29 | X-H torsion
[ 10718 10713 10712 10709 ] final   38.12 input   66.30 | X-H torsion
[ 10763 10752 10751 10750 ] final  150.57 input  -60.55 | X-H torsion
[ 11005 11000 10999 10996 ] final   87.32 input  -57.11 | X-H torsion

> <Gold.Protein.ActiveResidues>
 VAL166  LYS551  ARG553  GLY616  TRP617  ASP618  TYR619  PRO620  LYS621  CYS622 
 ASP623  PHE694  ASN695  SER759  ASP760  ASP761  ALA762  ILE779  LEU786  VAL792 
 PHE793  MET794  SER795  GLU796  ALA797  LYS798  CYS799  TRP800  GLU811  SER814 

> <Gold.Protein.RotatedAtoms>
  150.7164  134.0697  159.3859 H   0  0  0  0  0  0  0  0  0  0  0  0  # atno 6907 bound_to 6896
  151.8679  135.0498  160.0485 H   0  0  0  0  0  0  0  0  0  0  0  0  # atno 6908 bound_to 6896
  152.2666  133.5309  159.5450 H   0  0  0  0  0  0  0  0  0  0  0  0  # atno 6909 bound_to 6896
  145.2964  139.2583  143.3837 H   0  0  0  0  0  0  0  0  0  0  0  0  # atno 7974 bound_to 7965
  154.4196  140.1750  156.1648 H   0  0  0  0  0  0  0  0  0  0  0  0  # atno 8008 bound_to 7997
  155.9808  140.3377  155.6637 H   0  0  0  0  0  0  0  0  0  0  0  0  # atno 8009 bound_to 7997
  155.6502  140.0689  157.2580 H   0  0  0  0  0  0  0  0  0  0  0  0  # atno 8010 bound_to 7997
  140.6978  143.3052  151.3173 H   0  0  0  0  0  0  0  0  0  0  0  0  # atno 10167 bound_to 10162
  157.3550  130.7619  149.7006 H   0  0  0  0  0  0  0  0  0  0  0  0  # atno 10718 bound_to 10713
  154.0897  135.2853  155.3274 H   0  0  0  0  0  0  0  0  0  0  0  0  # atno 10763 bound_to 10752
  154.6628  135.5328  153.8043 H   0  0  0  0  0  0  0  0  0  0  0  0  # atno 10764 bound_to 10752
  153.0418  135.6538  154.1067 H   0  0  0  0  0  0  0  0  0  0  0  0  # atno 10765 bound_to 10752
  139.8922  134.8414  156.2843 H   0  0  0  0  0  0  0  0  0  0  0  0  # atno 11005 bound_to 11000
  146.3167  140.3467  142.8652 LP  0  0  0  0  0  0  0  0  0  0  0  0  # atno 17320 bound_to 7965
  144.9130  140.7779  143.5796 LP  0  0  0  0  0  0  0  0  0  0  0  0  # atno 17321 bound_to 7965
  139.6455  144.0459  152.2587 LP  0  0  0  0  0  0  0  0  0  0  0  0  # atno 17342 bound_to 10162
  139.9978  144.6315  150.7756 LP  0  0  0  0  0  0  0  0  0  0  0  0  # atno 17343 bound_to 10162
  155.9727  130.4130  150.4059 LP  0  0  0  0  0  0  0  0  0  0  0  0  # atno 17370 bound_to 10713
  157.2128  131.0464  151.2590 LP  0  0  0  0  0  0  0  0  0  0  0  0  # atno 17371 bound_to 10713
  141.0018  133.7147  156.0972 LP  0  0  0  0  0  0  0  0  0  0  0  0  # atno 17394 bound_to 11000
  140.7487  134.4069  157.5544 LP  0  0  0  0  0  0  0  0  0  0  0  0  # atno 17395 bound_to 11000

$$$$
