AV-unprocessed.smi:993|AV-procd|sdf|4338|dock4
  -GOLD-   22720 2233D 1   1.00000     0.00000
 Structure written by MMmdl.
 30 31  0  0  0  0  0  0  0  0  3 V2000
  150.2214  141.1088  155.3345 C   0  0  0  0  0  0  0  0  0  0  0  0
  150.9893  140.9101  156.6296 C   0  0  0  0  0  0  0  0  0  0  0  0
  151.0952  142.0374  157.4579 N   0  0  0  0  0  0  0  0  0  0  0  0
  151.7444  141.9628  158.5797 C   0  0  0  0  0  0  0  0  0  0  0  0
  151.8672  143.0675  159.4234 N   0  0  0  0  0  0  0  0  0  0  0  0
  151.4009  144.4096  159.0967 C   0  0  0  0  0  0  0  0  0  0  0  0
  151.9915  145.3402  160.1558 C   0  0  0  0  0  0  0  0  0  0  0  0
  152.1253  144.4344  161.3725 C   0  0  0  0  0  0  0  0  0  0  0  0
  152.4591  143.0743  160.7582 C   0  0  0  0  0  0  0  0  0  0  0  0
  152.3553  140.7963  159.0122 N   0  5  0  0  0  0  0  0  0  0  0  0
  152.2813  139.6582  158.2642 C   0  0  0  0  0  0  0  0  0  0  0  0
  152.8003  138.6051  158.6330 O   0  0  0  0  0  0  0  0  0  0  0  0
  151.5550  139.7212  156.9829 C   0  0  0  0  0  0  0  0  0  0  0  0
  151.4827  138.4678  156.1052 C   0  0  0  0  0  0  0  0  0  0  0  0
  152.4147  138.4663  154.8867 C   0  0  0  0  0  0  0  0  0  0  0  0
  153.1481  139.4699  154.7493 O   0  0  0  0  0  0  0  0  0  0  0  0
  152.3888  137.4844  154.1117 O   0  5  0  0  0  0  0  0  0  0  0  0
  150.8827  140.9866  154.4767 H   0  0  0  0  0  0  0  0  0  0  0  0
  149.7852  142.1070  155.2830 H   0  0  0  0  0  0  0  0  0  0  0  0
  149.4096  140.3858  155.2546 H   0  0  0  0  0  0  0  0  0  0  0  0
  151.7028  144.7094  158.0923 H   0  0  0  0  0  0  0  0  0  0  0  0
  150.3112  144.4208  159.1407 H   0  0  0  0  0  0  0  0  0  0  0  0
  152.9793  145.6786  159.8397 H   0  0  0  0  0  0  0  0  0  0  0  0
  151.3745  146.2198  160.3409 H   0  0  0  0  0  0  0  0  0  0  0  0
  152.8795  144.7765  162.0815 H   0  0  0  0  0  0  0  0  0  0  0  0
  151.1693  144.3781  161.8945 H   0  0  0  0  0  0  0  0  0  0  0  0
  152.0780  142.2591  161.3743 H   0  0  0  0  0  0  0  0  0  0  0  0
  153.5386  142.9508  160.6629 H   0  0  0  0  0  0  0  0  0  0  0  0
  151.7285  137.5984  156.7149 H   0  0  0  0  0  0  0  0  0  0  0  0
  150.4625  138.2909  155.7638 H   0  0  0  0  0  0  0  0  0  0  0  0
  1  2  1  0  0  0  0
  1 18  1  0  0  0  0
  1 19  1  0  0  0  0
  1 20  1  0  0  0  0
  2 13  2  0  0  0  0
  2  3  1  0  0  0  0
  3  4  2  0  0  0  0
  4  5  1  0  0  0  0
  4 10  1  0  0  0  0
  5  9  1  0  0  0  0
  5  6  1  0  0  0  0
  6  7  1  0  0  0  0
  6 21  1  0  0  0  0
  6 22  1  0  0  0  0
  7  8  1  0  0  0  0
  7 23  1  0  0  0  0
  7 24  1  0  0  0  0
  8  9  1  0  0  0  0
  8 25  1  0  0  0  0
  8 26  1  0  0  0  0
  9 27  1  0  0  0  0
  9 28  1  0  0  0  0
 10 11  1  0  0  0  0
 11 12  2  0  0  0  0
 11 13  1  0  0  0  0
 13 14  1  0  0  0  0
 14 15  1  0  0  0  0
 14 29  1  0  0  0  0
 14 30  1  0  0  0  0
 15 16  2  0  0  0  0
 15 17  1  0  0  0  0
M  CHG  1  10  -1
M  CHG  1  17  -1
M  END
> <s_m_source_file>
AV-unprocessed.smi

> <i_m_source_file_index>
993

> <i_lp_mmshare_version>
43012

> <i_f3d_flags>
0

> <s_epik_input>
W0NIMl0xW0NIMl1bQ0gyXVtDSDJdTjFjKG5jMltDSDNdKVtuSF1jKD1PKWMyW0NIMl1DKD1PKVtPSF0=

> <s_epik_cmdline>
J2VwaWtfcHl0aG9uJywgJy1waCcsICc3LjAnLCAnLXRuJywgJzgnLCAnLW1hJywgJzIwMCcsICctbWV0YWxfYmluZGluZycsICctaW1hZScsICc8aW5maWxlLm1hZT4nLCAnLW9tYWUnLCAnPG91dGZpbGUubWFlPic=

> <r_lp_tautomer_probability>
0.878553

> <r_epik_Ionization_Penalty>
9.99622

> <r_epik_Ionization_Penalty_Charging>
0.001774

> <r_epik_Ionization_Penalty_Neutral>
9.99445

> <r_epik_State_Penalty>
6.17728

> <r_epik_Charging_Adjusted_Penalty>
6.17906

> <i_epik_Tot_Q>
-2

> <i_epik_Tot_abs_Q>
2

> <r_epik_Metal_State_Penalty>
2.31379

> <b_epik_Metal_Only>
1

> <s_lp_Force_Field>
OPLS_2005

> <r_lp_Energy>
32.9743

> <b_lp_Chiralities_Consistent>
1

> <s_lp_Variant>
AV-unprocessed.smi:993-4

> <Gold.Version>
5.8.1

> <Gold.Id.Protein>
6NUR|6NUR_protein|mol2

> <Gold.PLP.Fitness>
47.6526

> <Gold.PLP.PLP>
-36.9351

> <Gold.PLP.part.hbond>
-3.0000

> <Gold.PLP.part.metal>
0.0000

> <Gold.PLP.part.buried>
-5.3620

> <Gold.PLP.part.nonpolar>
-29.1079

> <Gold.PLP.part.repulsive>
0.2314

> <Gold.PLP.ligand.clash>
0.0000

> <Gold.PLP.ligand.torsion>
0.2275

> <Gold.PLP.Chemscore.Hbond>
3.7240

> <Gold.PLP.Chemscore.CHOScore>
0.0000

> <Gold.PLP.Chemscore.Metal>
0.0000

> <Gold.Chemscore.Hbonds>
donor molecule, donor type, donor heavy atom, donor atom, acceptor molecule, acceptor atom, score
      P1  H  7989  7998       L1    16  0.05
      P1  H  7997  8010       L1    16  2.00
      P1  H 10752 10765       L1    17  1.50

> <Gold.PLP.Chemscore.Internal.Correction>
0.0005

> <Gold.Rescore>
     Score         DG    S(hbond)    S(metal)    S(lipo)     H(rot)  DE(clash)    DE(int)     intcor
     16.02     -16.21       1.86        0.00      71.31       1.49       0.05       0.14       ----

> <Gold.Chemscore.Fitness>
16.0229

> <Gold.Chemscore.DG>
-16.2093

> <Gold.Chemscore.ZeroCoef>
-5.4800

> <Gold.Chemscore.Hbond>
1.8589

> <Gold.Chemscore.Metal>
0.0000

> <Gold.Chemscore.Lipo>
71.3065

> <Gold.Chemscore.Internal_Hbond>
0.0000

> <Gold.Chemscore.DEClash>
0.0472

> <Gold.Chemscore.DEInternal>
0.1391

> <Gold.Chemscore.Rot>
1.4931

> <Gold.Chemscore.Internal.Correction>
   9.000000E+99

> <Gold.Chemscore.Hbonds>
donor molecule, donor type, donor heavy atom, donor atom, acceptor molecule, acceptor atom, score
      P1  H  7989  7998       L1    16  0.02
      P1  H  7997  8010       L1    16  1.00
      P1  H 10752 10765       L1    17  0.76

> <Gold.Chemscore.Hbond.Weighted>
-6.2086

> <Gold.Chemscore.Metal.Weighted>
-0.0000

> <Gold.Chemscore.Lipo.Weighted>
-8.3429

> <Gold.Chemscore.Internal_Hbond.Weighted>
0.0000

> <Gold.Chemscore.DEClash.Weighted>
0.0472

> <Gold.Chemscore.DEInternal.Weighted>
0.1391

> <Gold.Chemscore.Rot.Weighted>
3.8222

> <Gold.Chemscore.Internal.Correction.Weighted>
   9.000000E+99

> <Gold.Protein.RotatedTorsions>
[ 6907 6896 6895 6894 ] final  101.98 input  -60.11 | X-H torsion
[ 7974 7965 7964 7962 ] final  104.89 input  175.53 | X-H torsion
[ 8008 7997 7996 7995 ] final  105.85 input   59.86 | X-H torsion
[ 10167 10162 10161 10158 ] final    2.65 input  -65.29 | X-H torsion
[ 10718 10713 10712 10709 ] final  -92.40 input   66.30 | X-H torsion
[ 10763 10752 10751 10750 ] final  146.89 input  -60.55 | X-H torsion
[ 11005 11000 10999 10996 ] final  176.59 input  -57.11 | X-H torsion

> <Gold.Protein.ActiveResidues>
 VAL166  LYS551  ARG553  GLY616  TRP617  ASP618  TYR619  PRO620  LYS621  CYS622 
 ASP623  PHE694  ASN695  SER759  ASP760  ASP761  ALA762  ILE779  LEU786  VAL792 
 PHE793  MET794  SER795  GLU796  ALA797  LYS798  CYS799  TRP800  GLU811  SER814 

> <Gold.Protein.RotatedAtoms>
  152.5335  134.0044  159.7909 H   0  0  0  0  0  0  0  0  0  0  0  0  # atno 6907 bound_to 6896
  151.0257  133.5828  159.2673 H   0  0  0  0  0  0  0  0  0  0  0  0  # atno 6908 bound_to 6896
  151.2851  135.0732  159.9237 H   0  0  0  0  0  0  0  0  0  0  0  0  # atno 6909 bound_to 6896
  145.3269  139.2497  143.3682 H   0  0  0  0  0  0  0  0  0  0  0  0  # atno 7974 bound_to 7965
  156.1694  140.3123  155.8947 H   0  0  0  0  0  0  0  0  0  0  0  0  # atno 8008 bound_to 7997
  155.3618  140.0477  157.3063 H   0  0  0  0  0  0  0  0  0  0  0  0  # atno 8009 bound_to 7997
  154.5226  140.2203  155.8959 H   0  0  0  0  0  0  0  0  0  0  0  0  # atno 8010 bound_to 7997
  140.6624  143.7268  150.7764 H   0  0  0  0  0  0  0  0  0  0  0  0  # atno 10167 bound_to 10162
  156.0002  130.4985  150.5620 H   0  0  0  0  0  0  0  0  0  0  0  0  # atno 10718 bound_to 10713
  154.0294  135.2899  155.3370 H   0  0  0  0  0  0  0  0  0  0  0  0  # atno 10763 bound_to 10752
  154.6997  135.5193  153.8513 H   0  0  0  0  0  0  0  0  0  0  0  0  # atno 10764 bound_to 10752
  153.0647  135.6626  154.0508 H   0  0  0  0  0  0  0  0  0  0  0  0  # atno 10765 bound_to 10752
  140.3748  134.6998  157.4415 H   0  0  0  0  0  0  0  0  0  0  0  0  # atno 11005 bound_to 11000
  146.3061  140.3838  142.8687 LP  0  0  0  0  0  0  0  0  0  0  0  0  # atno 17320 bound_to 7965
  144.8895  140.7505  143.5936 LP  0  0  0  0  0  0  0  0  0  0  0  0  # atno 17321 bound_to 7965
  140.0939  143.4852  152.2463 LP  0  0  0  0  0  0  0  0  0  0  0  0  # atno 17342 bound_to 10162
  139.5862  144.7532  151.3513 LP  0  0  0  0  0  0  0  0  0  0  0  0  # atno 17343 bound_to 10162
  157.3528  131.0736  151.1700 LP  0  0  0  0  0  0  0  0  0  0  0  0  # atno 17370 bound_to 10713
  157.2511  130.6614  149.5931 LP  0  0  0  0  0  0  0  0  0  0  0  0  # atno 17371 bound_to 10713
  140.0524  134.6112  155.8846 LP  0  0  0  0  0  0  0  0  0  0  0  0  # atno 17394 bound_to 11000
  141.1943  133.6582  156.5587 LP  0  0  0  0  0  0  0  0  0  0  0  0  # atno 17395 bound_to 11000

$$$$
