AV-unprocessed.smi:484|AV-procd|sdf|2688|dock3
  -GOLD-   2262023113D 1   1.00000     0.00000
 Structure written by MMmdl.
 46 48  0  0  0  0  0  0  0  0  1 V2000
  143.9377  132.2650  148.7948 C   0  0  0  0  0  0  0  0  0  0  0  0
  143.5715  132.2057  150.2818 C   0  0  0  0  0  0  0  0  0  0  0  0
  143.9787  133.4649  151.0230 C   0  0  0  0  0  0  0  0  0  0  0  0
  143.4960  133.7114  152.3237 C   0  0  0  0  0  0  0  0  0  0  0  0
  143.8831  134.8772  153.0117 C   0  0  0  0  0  0  0  0  0  0  0  0
  144.7553  135.8120  152.4172 C   0  0  0  0  0  0  0  0  0  0  0  0
  145.0848  136.9226  153.1644 O   0  0  0  0  0  0  0  0  0  0  0  0
  145.9183  137.9084  152.5699 C   0  0  0  0  0  0  0  0  0  0  0  0
  146.9070  138.4291  153.6292 C   0  0  1  0  0  0  0  0  0  0  0  0
  147.7036  137.3458  154.0617 O   0  0  0  0  0  0  0  0  0  0  0  0
  147.8700  139.5161  153.1072 C   0  0  0  0  0  0  0  0  0  0  0  0
  148.7821  140.0158  154.1285 N   0  0  0  0  0  0  0  0  0  0  0  0
  148.6185  141.0856  154.9479 C   0  0  0  0  0  0  0  0  0  0  0  0
  147.3857  141.9428  154.8898 C   0  0  0  0  0  0  0  0  0  0  0  0
  147.4808  143.0143  153.9735 O   0  0  0  0  0  0  0  0  0  0  0  0
  149.6271  141.3269  155.7890 N   0  0  0  0  0  0  0  0  0  0  0  0
  150.5206  140.3159  155.4957 C   0  0  0  0  0  0  0  0  0  0  0  0
  151.7888  140.0227  156.0461 C   0  0  0  0  0  0  0  0  0  0  0  0
  152.5344  138.9224  155.5747 C   0  0  0  0  0  0  0  0  0  0  0  0
  152.0237  138.1012  154.5486 C   0  0  0  0  0  0  0  0  0  0  0  0
  150.7614  138.3748  153.9879 C   0  0  0  0  0  0  0  0  0  0  0  0
  150.0210  139.4748  154.4620 C   0  0  0  0  0  0  0  0  0  0  0  0
  145.2359  135.5593  151.1073 C   0  0  0  0  0  0  0  0  0  0  0  0
  144.8487  134.3937  150.4179 C   0  0  0  0  0  0  0  0  0  0  0  0
  143.6357  131.3508  148.2835 H   0  0  0  0  0  0  0  0  0  0  0  0
  145.0132  132.3827  148.6591 H   0  0  0  0  0  0  0  0  0  0  0  0
  143.4438  133.1021  148.3006 H   0  0  0  0  0  0  0  0  0  0  0  0
  142.4970  132.0566  150.3933 H   0  0  0  0  0  0  0  0  0  0  0  0
  144.0508  131.3429  150.7459 H   0  0  0  0  0  0  0  0  0  0  0  0
  142.8302  133.0060  152.7993 H   0  0  0  0  0  0  0  0  0  0  0  0
  143.5083  135.0546  154.0089 H   0  0  0  0  0  0  0  0  0  0  0  0
  146.4533  137.5164  151.7030 H   0  0  0  0  0  0  0  0  0  0  0  0
  145.2753  138.7188  152.2273 H   0  0  0  0  0  0  0  0  0  0  0  0
  146.3549  138.8169  154.4850 H   0  0  0  0  0  0  0  0  0  0  0  0
  148.3339  137.1498  153.3852 H   0  0  0  0  0  0  0  0  0  0  0  0
  148.4551  139.1366  152.2695 H   0  0  0  0  0  0  0  0  0  0  0  0
  147.3015  140.3586  152.7115 H   0  0  0  0  0  0  0  0  0  0  0  0
  146.5328  141.3234  154.6135 H   0  0  0  0  0  0  0  0  0  0  0  0
  147.1838  142.3634  155.8746 H   0  0  0  0  0  0  0  0  0  0  0  0
  148.1501  143.6078  154.2790 H   0  0  0  0  0  0  0  0  0  0  0  0
  152.1897  140.6465  156.8313 H   0  0  0  0  0  0  0  0  0  0  0  0
  153.5031  138.7084  156.0019 H   0  0  0  0  0  0  0  0  0  0  0  0
  152.6018  137.2616  154.1910 H   0  0  0  0  0  0  0  0  0  0  0  0
  150.3705  137.7493  153.1993 H   0  0  0  0  0  0  0  0  0  0  0  0
  145.9043  136.2435  150.6073 H   0  0  0  0  0  0  0  0  0  0  0  0
  145.2254  134.2134  149.4217 H   0  0  0  0  0  0  0  0  0  0  0  0
  1  2  1  0  0  0  0
  1 25  1  0  0  0  0
  1 26  1  0  0  0  0
  1 27  1  0  0  0  0
  2  3  1  0  0  0  0
  2 28  1  0  0  0  0
  2 29  1  0  0  0  0
  3 24  1  0  0  0  0
  3  4  2  0  0  0  0
  4  5  1  0  0  0  0
  4 30  1  0  0  0  0
  5  6  2  0  0  0  0
  5 31  1  0  0  0  0
  6  7  1  0  0  0  0
  6 23  1  0  0  0  0
  7  8  1  0  0  0  0
  8  9  1  0  0  0  0
  8 32  1  0  0  0  0
  8 33  1  0  0  0  0
  9 10  1  0  0  0  0
  9 11  1  0  0  0  0
  9 34  1  0  0  0  0
 10 35  1  0  0  0  0
 11 12  1  0  0  0  0
 11 36  1  0  0  0  0
 11 37  1  0  0  0  0
 12 22  1  0  0  0  0
 12 13  1  0  0  0  0
 13 14  1  0  0  0  0
 13 16  2  0  0  0  0
 14 15  1  0  0  0  0
 14 38  1  0  0  0  0
 14 39  1  0  0  0  0
 15 40  1  0  0  0  0
 16 17  1  0  0  0  0
 17 22  2  0  0  0  0
 17 18  1  0  0  0  0
 18 19  2  0  0  0  0
 18 41  1  0  0  0  0
 19 20  1  0  0  0  0
 19 42  1  0  0  0  0
 20 21  2  0  0  0  0
 20 43  1  0  0  0  0
 21 22  1  0  0  0  0
 21 44  1  0  0  0  0
 23 24  2  0  0  0  0
 23 45  1  0  0  0  0
 24 46  1  0  0  0  0
M  END
> <s_m_source_file>
AV-unprocessed.smi

> <i_m_source_file_index>
484

> <i_lp_mmshare_version>
43012

> <i_f3d_flags>
0

> <s_epik_input>
W0NIM11bQ0gyXWMxW2NIXVtjSF1jKFtjSF1bY0hdMSlPW0NIMl1bQ0BIXShbT0hdKVtDSDJdbihjKG4yKVtDSDJdW09IXSljKGMyMylbY0hdW2NIXVtjSF1bY0hdMw==

> <s_epik_cmdline>
J2VwaWtfcHl0aG9uJywgJy1waCcsICc3LjAnLCAnLXRuJywgJzgnLCAnLW1hJywgJzIwMCcsICctbWV0YWxfYmluZGluZycsICctaW1hZScsICc8aW5maWxlLm1hZT4nLCAnLW9tYWUnLCAnPG91dGZpbGUubWFlPic=

> <r_lp_tautomer_probability>
1

> <r_epik_Ionization_Penalty>
0.0555463

> <r_epik_Ionization_Penalty_Charging>
0

> <r_epik_Ionization_Penalty_Neutral>
0.0555463

> <r_epik_State_Penalty>
0.0477854

> <r_epik_Charging_Adjusted_Penalty>
0.0477854

> <i_epik_Tot_Q>
0

> <i_epik_Tot_abs_Q>
0

> <r_epik_Metal_State_Penalty>
4.97632e-05

> <b_epik_Metal_Only>
0

> <s_lp_Force_Field>
OPLS_2005

> <r_lp_Energy>
17.3214

> <b_lp_Chiralities_Consistent>
1

> <s_lp_Variant>
AV-unprocessed.smi:484-2

> <Gold.Version>
5.8.1

> <Gold.Id.Protein>
6NUR|6NUR_protein|mol2

> <Gold.PLP.Fitness>
51.0240

> <Gold.PLP.PLP>
-47.2143

> <Gold.PLP.part.hbond>
-3.2501

> <Gold.PLP.part.metal>
0.0000

> <Gold.PLP.part.buried>
3.5388

> <Gold.PLP.part.nonpolar>
-48.5024

> <Gold.PLP.part.repulsive>
0.2589

> <Gold.PLP.ligand.clash>
0.0000

> <Gold.PLP.ligand.torsion>
1.1702

> <Gold.PLP.Chemscore.Hbond>
2.0000

> <Gold.PLP.Chemscore.CHOScore>
0.0000

> <Gold.PLP.Chemscore.Metal>
0.0000

> <Gold.Chemscore.Hbonds>
donor molecule, donor type, donor heavy atom, donor atom, acceptor molecule, acceptor atom, score
      L1  H    10    35       P1  7948  1.00
      L1  H    15    40       P1  8028  1.00

> <Gold.PLP.Chemscore.Internal.Correction>
0.1500

> <Gold.Rescore>
     Score         DG    S(hbond)    S(metal)    S(lipo)     H(rot)  DE(clash)    DE(int)     intcor
     15.29     -17.81       1.81        0.00     121.04       3.08       1.45       1.07       ----

> <Gold.Chemscore.Fitness>
15.2948

> <Gold.Chemscore.DG>
-17.8099

> <Gold.Chemscore.ZeroCoef>
-5.4800

> <Gold.Chemscore.Hbond>
1.8111

> <Gold.Chemscore.Metal>
0.0000

> <Gold.Chemscore.Lipo>
121.0360

> <Gold.Chemscore.Internal_Hbond>
0.0000

> <Gold.Chemscore.DEClash>
1.4495

> <Gold.Chemscore.DEInternal>
1.0655

> <Gold.Chemscore.Rot>
3.0783

> <Gold.Chemscore.Internal.Correction>
   9.000000E+99

> <Gold.Chemscore.Hbonds>
donor molecule, donor type, donor heavy atom, donor atom, acceptor molecule, acceptor atom, score
      L1  H    10    35       P1  7948  0.98
      L1  H    15    40       P1  8028  0.83

> <Gold.Chemscore.Hbond.Weighted>
-6.0492

> <Gold.Chemscore.Metal.Weighted>
-0.0000

> <Gold.Chemscore.Lipo.Weighted>
-14.1612

> <Gold.Chemscore.Internal_Hbond.Weighted>
0.0000

> <Gold.Chemscore.DEClash.Weighted>
1.4495

> <Gold.Chemscore.DEInternal.Weighted>
1.0655

> <Gold.Chemscore.Rot.Weighted>
7.8805

> <Gold.Chemscore.Internal.Correction.Weighted>
   9.000000E+99

> <Gold.Protein.RotatedTorsions>
[ 6907 6896 6895 6894 ] final  143.43 input  -60.11 | X-H torsion
[ 7974 7965 7964 7962 ] final  113.68 input  175.53 | X-H torsion
[ 8008 7997 7996 7995 ] final -176.18 input   59.86 | X-H torsion
[ 10167 10162 10161 10158 ] final   -6.48 input  -65.29 | X-H torsion
[ 10718 10713 10712 10709 ] final   61.11 input   66.30 | X-H torsion
[ 10763 10752 10751 10750 ] final   17.59 input  -60.55 | X-H torsion
[ 11005 11000 10999 10996 ] final  -65.56 input  -57.11 | X-H torsion

> <Gold.Protein.ActiveResidues>
 VAL166  LYS551  ARG553  GLY616  TRP617  ASP618  TYR619  PRO620  LYS621  CYS622 
 ASP623  PHE694  ASN695  SER759  ASP760  ASP761  ALA762  ILE779  LEU786  VAL792 
 PHE793  MET794  SER795  GLU796  ALA797  LYS798  CYS799  TRP800  GLU811  SER814 

> <Gold.Protein.RotatedAtoms>
  152.2063  133.4878  159.5085 H   0  0  0  0  0  0  0  0  0  0  0  0  # atno 6907 bound_to 6896
  150.6980  134.1525  159.4154 H   0  0  0  0  0  0  0  0  0  0  0  0  # atno 6908 bound_to 6896
  151.9443  135.0198  160.0588 H   0  0  0  0  0  0  0  0  0  0  0  0  # atno 6909 bound_to 6896
  145.2139  139.2893  143.4254 H   0  0  0  0  0  0  0  0  0  0  0  0  # atno 7974 bound_to 7965
  155.9917  140.1202  157.0632 H   0  0  0  0  0  0  0  0  0  0  0  0  # atno 8008 bound_to 7997
  154.4213  140.1124  156.5643 H   0  0  0  0  0  0  0  0  0  0  0  0  # atno 8009 bound_to 7997
  155.6334  140.3473  155.4692 H   0  0  0  0  0  0  0  0  0  0  0  0  # atno 8010 bound_to 7997
  140.6998  143.6189  150.8631 H   0  0  0  0  0  0  0  0  0  0  0  0  # atno 10167 bound_to 10162
  157.5803  130.8976  149.9419 H   0  0  0  0  0  0  0  0  0  0  0  0  # atno 10718 bound_to 10713
  153.1325  135.6743  153.9155 H   0  0  0  0  0  0  0  0  0  0  0  0  # atno 10763 bound_to 10752
  153.8636  135.3078  155.3440 H   0  0  0  0  0  0  0  0  0  0  0  0  # atno 10764 bound_to 10752
  154.7720  135.4934  153.9749 H   0  0  0  0  0  0  0  0  0  0  0  0  # atno 10765 bound_to 10752
  141.1458  133.6684  156.6005 H   0  0  0  0  0  0  0  0  0  0  0  0  # atno 11005 bound_to 11000
  146.3391  140.2423  142.8596 LP  0  0  0  0  0  0  0  0  0  0  0  0  # atno 17320 bound_to 7965
  144.9830  140.8476  143.5386 LP  0  0  0  0  0  0  0  0  0  0  0  0  # atno 17321 bound_to 7965
  139.9910  143.5847  152.2910 LP  0  0  0  0  0  0  0  0  0  0  0  0  # atno 17342 bound_to 10162
  139.6502  144.7660  151.2163 LP  0  0  0  0  0  0  0  0  0  0  0  0  # atno 17343 bound_to 10162
  156.0849  130.3669  150.0507 LP  0  0  0  0  0  0  0  0  0  0  0  0  # atno 17370 bound_to 10713
  156.8648  130.9504  151.3615 LP  0  0  0  0  0  0  0  0  0  0  0  0  # atno 17371 bound_to 10713
  140.3692  134.7620  157.4587 LP  0  0  0  0  0  0  0  0  0  0  0  0  # atno 17394 bound_to 11000
  140.0724  134.5844  155.8628 LP  0  0  0  0  0  0  0  0  0  0  0  0  # atno 17395 bound_to 11000

$$$$
