#       Name:                AV-unprocessed.smi:1483
#       Creating user name   scv26
#       Creation time:       Fri Mar 27 06:08:37 2020


#       File generated by GOLD software.
#

@<TRIPOS>MOLECULE
AV-unprocessed.smi:1483
    52    53     1
SMALL
NO_CHARGES


@<TRIPOS>ATOM
      1 ****        -5.5996   1.1301   4.9136 C.3            1 S1                 0.0000
      2 ****        -5.0905   1.1180   3.4878 C.ar           1 S1                 0.0000
      3 ****        -4.7228  -0.0748   2.8290 C.ar           1 S1                 0.0000
      4 ****        -4.2584  -0.0121   1.4990 C.ar           1 S1                 0.0000
      5 ****        -4.1687   1.2412   0.8537 C.ar           1 S1                 0.0000
      6 ****        -3.6700   1.3413  -0.5769 C.3            1 S1                 0.0000
      7 ****        -2.1720   1.6463  -0.5967 C.2            1 S1                 0.0000
      8 ****        -1.7839   2.8135  -0.6287 O.2            1 S1                 0.0000
      9 ****        -1.3435   0.5902  -0.5714 N.am           1 S1                 0.0000
     10 ****         0.1145   0.6645  -0.5720 C.3            1 S1                 0.0000
     11 ****         0.6560   0.7562  -2.0093 C.3            1 S1                 0.0000
     12 ****         2.1935   0.7289  -2.0275 C.3            1 S1                 0.0000
     13 ****         2.7208  -0.4829  -1.3477 N.4            1 S1                 1.0000
     14 ****         4.1973  -0.5972  -1.4711 C.3            1 S1                 0.0000
     15 ****         4.7098  -2.0463  -1.3204 C.3            1 S1                 0.0000
     16 ****         6.2452  -2.0756  -1.3029 C.3            1 S1                 0.0000
     17 ****         4.1679  -2.9646  -2.4288 C.3            1 S1                 0.0000
     18 ****         2.2387  -0.5714   0.0569 C.3            1 S1                 0.0000
     19 ****         0.7020  -0.5760   0.1185 C.3            1 S1                 0.0000
     20 ****        -4.5527   2.4007   1.5625 C.ar           1 S1                 0.0000
     21 ****        -4.9928   2.2984   2.8359 N.pl3          1 S1                 1.0000
     22 ****        -5.5210   0.1413   5.3666 H              1 S1                 0.0000
     23 ****        -6.6461   1.4346   4.9395 H              1 S1                 0.0000
     24 ****        -5.0217   1.8279   5.5201 H              1 S1                 0.0000
     25 ****        -4.7951  -1.0271   3.3339 H              1 S1                 0.0000
     26 ****        -3.9730  -0.9173   0.9830 H              1 S1                 0.0000
     27 ****        -3.8721   0.4125  -1.1124 H              1 S1                 0.0000
     28 ****        -4.2117   2.1299  -1.1012 H              1 S1                 0.0000
     29 ****        -1.7531  -0.3325  -0.5490 H              1 S1                 0.0000
     30 ****         0.4322   1.5477  -0.0138 H              1 S1                 0.0000
     31 ****         0.2730  -0.0742  -2.6048 H              1 S1                 0.0000
     32 ****         0.3007   1.6694  -2.4885 H              1 S1                 0.0000
     33 ****         2.5362   0.7496  -3.0627 H              1 S1                 0.0000
     34 ****         2.5921   1.6219  -1.5429 H              1 S1                 0.0000
     35 ****         4.5111  -0.2275  -2.4485 H              1 S1                 0.0000
     36 ****         4.6689   0.0574  -0.7364 H              1 S1                 0.0000
     37 ****         4.3807  -2.4476  -0.3626 H              1 S1                 0.0000
     38 ****         6.6613  -1.6961  -2.2368 H              1 S1                 0.0000
     39 ****         6.6181  -3.0906  -1.1614 H              1 S1                 0.0000
     40 ****         6.6414  -1.4660  -0.4901 H              1 S1                 0.0000
     41 ****         4.4662  -2.6132  -3.4172 H              1 S1                 0.0000
     42 ****         3.0793  -3.0176  -2.4081 H              1 S1                 0.0000
     43 ****         4.5431  -3.9818  -2.3126 H              1 S1                 0.0000
     44 ****         2.6093  -1.4788   0.5315 H              1 S1                 0.0000
     45 ****         2.6338   0.2672   0.6325 H              1 S1                 0.0000
     46 ****         0.3763  -0.6143   1.1589 H              1 S1                 0.0000
     47 ****         0.3244  -1.4824  -0.3576 H              1 S1                 0.0000
     48 ****        -4.5182   3.4005   1.1541 H              1 S1                 0.0000
     49 ****         2.3341  -1.2728  -1.8444 H              1 S1                 0.0000
     50 ****        -5.2630   3.1506   3.3276 H              1 S1                 0.0000
     51 ****        -2.4479   3.5611  -0.6417 LP             1 S1                 0.0000
     52 ****        -0.8044   3.0146  -0.6417 LP             1 S1                 0.0000
@<TRIPOS>BOND
    1    1    2 1     
    2    1   22 1     
    3    1   23 1     
    4    1   24 1     
    5    2   21 ar    
    6    2    3 ar    
    7    3    4 ar    
    8    3   25 1     
    9    4    5 ar    
   10    4   26 1     
   11    5    6 1     
   12    5   20 ar    
   13    6    7 1     
   14    6   27 1     
   15    6   28 1     
   16    7    8 2     
   17    7    9 am    
   18    9   10 1     
   19    9   29 1     
   20   10   19 1     
   21   10   11 1     
   22   10   30 1     
   23   11   12 1     
   24   11   31 1     
   25   11   32 1     
   26   12   13 1     
   27   12   33 1     
   28   12   34 1     
   29   13   14 1     
   30   13   18 1     
   31   13   49 1     
   32   14   15 1     
   33   14   35 1     
   34   14   36 1     
   35   15   16 1     
   36   15   17 1     
   37   15   37 1     
   38   16   38 1     
   39   16   39 1     
   40   16   40 1     
   41   17   41 1     
   42   17   42 1     
   43   17   43 1     
   44   18   19 1     
   45   18   44 1     
   46   18   45 1     
   47   19   46 1     
   48   19   47 1     
   49   20   21 ar    
   50   20   48 1     
   51   21   50 1     
   52    8   51 1     
   53    8   52 1     
@<TRIPOS>SUBSTRUCTURE
      1 S1             1
@<TRIPOS>SET
LONE_PAIRS      STATIC     ATOMS    <user>   **** ""
2 51 52
DONOR_HYDROGENS      STATIC     ATOMS    <user>   **** ""
3 29 49 50
ATOM$BLUE        STATIC     ATOMS    COLORGROUP SYSTEM
2 51 52
ATOM$RED        STATIC     ATOMS    COLORGROUP SYSTEM
3 29 49 50
