#       Name:                AV-unprocessed.smi:3222
#       Creating user name   scv26
#       Creation time:       Fri Mar 27 18:14:46 2020


#       File generated by GOLD software.
#

@<TRIPOS>MOLECULE
AV-unprocessed.smi:3222
    44    45     1
SMALL
NO_CHARGES


@<TRIPOS>ATOM
      1 ****        -1.7056  -1.5159   0.8528 C.3            1 S1                 0.0000
      2 ****        -1.2245  -0.7297  -0.3858 C.3            1 S1                 0.0000
      3 ****         0.2555  -0.6632  -0.4129 N.4            1 S1                 1.0000
      4 ****         0.8689   0.2790   0.5459 C.3            1 S1                 0.0000
      5 ****         2.3872   0.3692   0.3276 C.3            1 S1                 0.0000
      6 ****         3.0110   1.2930   1.2710 N.am           1 S1                 0.0000
      7 ****         3.4824   2.5970   0.8357 C.3            1 S1                 0.0000
      8 ****         3.9069   3.3197   2.1228 C.3            1 S1                 0.0000
      9 ****         3.9406   2.2461   3.2165 C.3            1 S1                 0.0000
     10 ****         3.2578   1.0560   2.5647 C.2            1 S1                 0.0000
     11 ****         2.9831   0.0246   3.1762 O.2            1 S1                 0.0000
     12 ****        -1.7446  -1.3315  -1.7198 C.3            1 S1                 0.0000
     13 ****        -1.3847  -0.4629  -2.9410 C.3            1 S1                 0.0000
     14 ****        -3.1811  -1.5798  -1.6943 N.pl3          1 S1                 0.0000
     15 ****        -3.8441  -2.7792  -1.8565 C.2            1 S1                 0.0000
     16 ****        -5.1818  -2.5230  -1.7606 C.2            1 S1                 0.0000
     17 ****        -5.2426  -1.1189  -1.5411 C.2            1 S1                 0.0000
     18 ****        -4.0454  -0.5567  -1.5049 N.2            1 S1                 0.0000
     19 ****        -2.7929  -1.5278   0.9280 H              1 S1                 0.0000
     20 ****        -1.3408  -1.0764   1.7805 H              1 S1                 0.0000
     21 ****        -1.3658  -2.5515   0.8196 H              1 S1                 0.0000
     22 ****        -1.6055   0.2901  -0.3095 H              1 S1                 0.0000
     23 ****         0.6301  -1.5884  -0.2592 H              1 S1                 0.0000
     24 ****         0.4212   1.2658   0.4212 H              1 S1                 0.0000
     25 ****         0.6570  -0.0455   1.5643 H              1 S1                 0.0000
     26 ****         2.8439  -0.6160   0.4362 H              1 S1                 0.0000
     27 ****         2.5993   0.6959  -0.6915 H              1 S1                 0.0000
     28 ****         4.3298   2.4696   0.1607 H              1 S1                 0.0000
     29 ****         2.7009   3.1430   0.3056 H              1 S1                 0.0000
     30 ****         4.8736   3.8111   2.0073 H              1 S1                 0.0000
     31 ****         3.1779   4.0894   2.3797 H              1 S1                 0.0000
     32 ****         4.9639   1.9791   3.4824 H              1 S1                 0.0000
     33 ****         3.4143   2.5611   4.1183 H              1 S1                 0.0000
     34 ****        -1.2658  -2.3027  -1.8563 H              1 S1                 0.0000
     35 ****        -0.3060  -0.3623  -3.0600 H              1 S1                 0.0000
     36 ****        -1.8032   0.5405  -2.8561 H              1 S1                 0.0000
     37 ****        -1.7700  -0.9047  -3.8606 H              1 S1                 0.0000
     38 ****        -3.3158  -3.7063  -2.0238 H              1 S1                 0.0000
     39 ****        -5.9938  -3.2308  -1.8374 H              1 S1                 0.0000
     40 ****        -6.1150  -0.4959  -1.4090 H              1 S1                 0.0000
     41 ****         0.5244  -0.3599  -1.3381 H              1 S1                 0.0000
     42 ****         2.5334  -0.7328   2.7027 LP             1 S1                 0.0000
     43 ****         3.2094  -0.0566   4.1469 LP             1 S1                 0.0000
     44 ****        -3.8279   0.4097  -1.3679 LP             1 S1                 0.0000
@<TRIPOS>BOND
    1    1    2 1     
    2    1   19 1     
    3    1   20 1     
    4    1   21 1     
    5    2    3 1     
    6    2   12 1     
    7    2   22 1     
    8    3    4 1     
    9    3   23 1     
   10    3   41 1     
   11    4    5 1     
   12    4   24 1     
   13    4   25 1     
   14    5    6 1     
   15    5   26 1     
   16    5   27 1     
   17    6   10 am    
   18    6    7 1     
   19    7    8 1     
   20    7   28 1     
   21    7   29 1     
   22    8    9 1     
   23    8   30 1     
   24    8   31 1     
   25    9   10 1     
   26    9   32 1     
   27    9   33 1     
   28   10   11 2     
   29   12   13 1     
   30   12   14 1     
   31   12   34 1     
   32   13   35 1     
   33   13   36 1     
   34   13   37 1     
   35   14   18 1     
   36   14   15 1     
   37   15   16 2     
   38   15   38 1     
   39   16   17 1     
   40   16   39 1     
   41   17   18 2     
   42   17   40 1     
   43   11   42 1     
   44   11   43 1     
   45   18   44 1     
@<TRIPOS>SUBSTRUCTURE
      1 S1             1
@<TRIPOS>SET
LONE_PAIRS      STATIC     ATOMS    <user>   **** ""
3 42 43 44
DONOR_HYDROGENS      STATIC     ATOMS    <user>   **** ""
2 23 41
ATOM$BLUE        STATIC     ATOMS    COLORGROUP SYSTEM
3 42 43 44
ATOM$RED        STATIC     ATOMS    COLORGROUP SYSTEM
2 23 41
