AV-unprocessed.smi:2482|AV-procd|sdf|9775|dock8
  -GOLD-   2272013413D 1   1.00000     0.00000
 Structure written by MMmdl.
 35 36  0  0  0  0  0  0  0  0  2 V2000
  152.1865  144.6824  160.9100 C   0  0  0  0  0  0  0  0  0  0  0  0
  152.5131  143.3344  160.2950 C   0  0  0  0  0  0  0  0  0  0  0  0
  153.3831  142.5696  160.9902 N   0  0  0  0  0  0  0  0  0  0  0  0
  153.7042  141.3589  160.4905 C   0  0  0  0  0  0  0  0  0  0  0  0
  153.1845  140.8566  159.2823 C   0  0  0  0  0  0  0  0  0  0  0  0
  152.2846  141.6615  158.5433 C   0  0  0  0  0  0  0  0  0  0  0  0
  151.6821  141.2478  157.3231 N   0  0  0  0  0  0  0  0  0  0  0  0
  151.9685  140.1809  156.5536 C   0  0  0  0  0  0  0  0  0  0  0  0
  152.8362  139.3479  156.8156 O   0  0  0  0  0  0  0  0  0  0  0  0
  151.1276  140.0350  155.2754 C   0  0  2  0  0  0  0  0  0  0  0  0
  150.0037  141.0932  155.1742 C   0  0  0  0  0  0  0  0  0  0  0  0
  149.1781  140.8640  153.9662 N   0  3  2  0  0  0  0  0  0  0  0  0
  148.1116  141.8750  153.8046 C   0  0  0  0  0  0  0  0  0  0  0  0
  148.6603  139.4780  153.9335 C   0  0  0  0  0  0  0  0  0  0  0  0
  149.8180  138.4756  154.0614 C   0  0  0  0  0  0  0  0  0  0  0  0
  150.5402  138.7343  155.2588 O   0  0  0  0  0  0  0  0  0  0  0  0
  151.9319  142.9255  159.0717 C   0  0  0  0  0  0  0  0  0  0  0  0
  150.8174  143.9546  158.2350 Cl  0  0  0  0  0  0  0  0  0  0  0  0
  152.4628  145.4866  160.2277 H   0  0  0  0  0  0  0  0  0  0  0  0
  152.7236  144.8371  161.8468 H   0  0  0  0  0  0  0  0  0  0  0  0
  151.1187  144.7567  161.1179 H   0  0  0  0  0  0  0  0  0  0  0  0
  154.3926  140.7675  161.0759 H   0  0  0  0  0  0  0  0  0  0  0  0
  153.4743  139.8690  158.9595 H   0  0  0  0  0  0  0  0  0  0  0  0
  151.0012  141.8903  156.9440 H   0  0  0  0  0  0  0  0  0  0  0  0
  151.8059  140.1334  154.4260 H   0  0  0  0  0  0  0  0  0  0  0  0
  149.3669  141.0571  156.0605 H   0  0  0  0  0  0  0  0  0  0  0  0
  150.4316  142.0956  155.1262 H   0  0  0  0  0  0  0  0  0  0  0  0
  147.4036  141.8345  154.6335 H   0  0  0  0  0  0  0  0  0  0  0  0
  147.5631  141.7105  152.8768 H   0  0  0  0  0  0  0  0  0  0  0  0
  148.5367  142.8785  153.7665 H   0  0  0  0  0  0  0  0  0  0  0  0
  147.9477  139.3317  154.7471 H   0  0  0  0  0  0  0  0  0  0  0  0
  148.1229  139.3071  153.0002 H   0  0  0  0  0  0  0  0  0  0  0  0
  149.4317  137.4570  154.0949 H   0  0  0  0  0  0  0  0  0  0  0  0
  150.4846  138.5359  153.1996 H   0  0  0  0  0  0  0  0  0  0  0  0
  149.7931  140.9624  153.1708 H   0  0  0  0  0  0  0  0  0  0  0  0
  1  2  1  0  0  0  0
  1 19  1  0  0  0  0
  1 20  1  0  0  0  0
  1 21  1  0  0  0  0
  2 17  1  0  0  0  0
  2  3  2  0  0  0  0
  3  4  1  0  0  0  0
  4  5  2  0  0  0  0
  4 22  1  0  0  0  0
  5  6  1  0  0  0  0
  5 23  1  0  0  0  0
  6  7  1  0  0  0  0
  6 17  2  0  0  0  0
  7  8  1  0  0  0  0
  7 24  1  0  0  0  0
  8  9  2  0  0  0  0
  8 10  1  0  0  0  0
 10 16  1  0  0  0  0
 10 11  1  0  0  0  0
 10 25  1  0  0  0  0
 11 12  1  0  0  0  0
 11 26  1  0  0  0  0
 11 27  1  0  0  0  0
 12 13  1  0  0  0  0
 12 14  1  0  0  0  0
 12 35  1  0  0  0  0
 13 28  1  0  0  0  0
 13 29  1  0  0  0  0
 13 30  1  0  0  0  0
 14 15  1  0  0  0  0
 14 31  1  0  0  0  0
 14 32  1  0  0  0  0
 15 16  1  0  0  0  0
 15 33  1  0  0  0  0
 15 34  1  0  0  0  0
 17 18  1  0  0  0  0
M  CHG  1  12   1
M  END
> <s_m_source_file>
AV-unprocessed.smi

> <i_m_source_file_index>
2482

> <i_lp_mmshare_version>
43012

> <i_f3d_flags>
0

> <s_epik_input>
W0NIM11jMW5bY0hdW2NIXWMoYzFDbClbTkhdQyg9TylbQ0BASF0yW0NIMl1OKFtDSDNdKVtDSDJdW0NIMl1PMg==

> <s_epik_cmdline>
J2VwaWtfcHl0aG9uJywgJy1waCcsICc3LjAnLCAnLXRuJywgJzgnLCAnLW1hJywgJzIwMCcsICctbWV0YWxfYmluZGluZycsICctaW1hZScsICc8aW5maWxlLm1hZT4nLCAnLW9tYWUnLCAnPG91dGZpbGUubWFlPic=

> <r_epik_Ionization_Penalty>
0.314226

> <r_epik_Ionization_Penalty_Charging>
0.314023

> <r_epik_Ionization_Penalty_Neutral>
0.00020299

> <r_epik_State_Penalty>
0.308208

> <r_epik_Charging_Adjusted_Penalty>
0.62223

> <i_epik_Tot_Q>
1

> <i_epik_Tot_abs_Q>
1

> <r_epik_Metal_State_Penalty>
0.314444

> <b_epik_Metal_Only>
0

> <s_lp_Force_Field>
OPLS_2005

> <r_lp_Energy>
22.3098

> <b_lp_Chiralities_Consistent>
1

> <s_lp_Variant>
AV-unprocessed.smi:2482-1

> <Gold.Version>
5.8.1

> <Gold.Id.Protein>
6NUR|6NUR_protein|mol2

> <Gold.PLP.Fitness>
39.9341

> <Gold.PLP.PLP>
-36.8968

> <Gold.PLP.part.hbond>
-1.8954

> <Gold.PLP.part.metal>
0.0000

> <Gold.PLP.part.buried>
-2.1402

> <Gold.PLP.part.nonpolar>
-32.1153

> <Gold.PLP.part.repulsive>
0.3221

> <Gold.PLP.ligand.clash>
0.6845

> <Gold.PLP.ligand.torsion>
0.0860

> <Gold.PLP.Chemscore.Hbond>
1.2974

> <Gold.PLP.Chemscore.CHOScore>
0.0000

> <Gold.PLP.Chemscore.Metal>
0.0000

> <Gold.Chemscore.Hbonds>
donor molecule, donor type, donor heavy atom, donor atom, acceptor molecule, acceptor atom, score
      L1  H    12    35       P1  7957  0.33
      P1  H  7997  8010       L1     9  1.00

> <Gold.PLP.Chemscore.Internal.Correction>
0.0014

> <Gold.Rescore>
     Score         DG    S(hbond)    S(metal)    S(lipo)     H(rot)  DE(clash)    DE(int)     intcor
     19.01     -21.51       1.77        0.00     108.36       1.00       1.22       1.29       ----

> <Gold.Chemscore.Fitness>
19.0090

> <Gold.Chemscore.DG>
-21.5121

> <Gold.Chemscore.ZeroCoef>
-5.4800

> <Gold.Chemscore.Hbond>
1.7707

> <Gold.Chemscore.Metal>
0.0000

> <Gold.Chemscore.Lipo>
108.3587

> <Gold.Chemscore.Internal_Hbond>
0.0000

> <Gold.Chemscore.DEClash>
1.2153

> <Gold.Chemscore.DEInternal>
1.2878

> <Gold.Chemscore.Rot>
1.0000

> <Gold.Chemscore.Internal.Correction>
   9.000000E+99

> <Gold.Chemscore.Hbonds>
donor molecule, donor type, donor heavy atom, donor atom, acceptor molecule, acceptor atom, score
      L1  H    12    35       P1  7957  0.31
      P1  H  7997  8010       L1     9  0.60

> <Gold.Chemscore.Hbond.Weighted>
-5.9142

> <Gold.Chemscore.Metal.Weighted>
-0.0000

> <Gold.Chemscore.Lipo.Weighted>
-12.6780

> <Gold.Chemscore.Internal_Hbond.Weighted>
0.0000

> <Gold.Chemscore.DEClash.Weighted>
1.2153

> <Gold.Chemscore.DEInternal.Weighted>
1.2878

> <Gold.Chemscore.Rot.Weighted>
2.5600

> <Gold.Chemscore.Internal.Correction.Weighted>
   9.000000E+99

> <Gold.Protein.RotatedTorsions>
[ 6907 6896 6895 6894 ] final   -7.69 input  -60.11 | X-H torsion
[ 7974 7965 7964 7962 ] final   67.79 input  175.53 | X-H torsion
[ 8008 7997 7996 7995 ] final   68.45 input   59.86 | X-H torsion
[ 10167 10162 10161 10158 ] final  -12.16 input  -65.29 | X-H torsion
[ 10718 10713 10712 10709 ] final  -71.50 input   66.30 | X-H torsion
[ 10763 10752 10751 10750 ] final  163.52 input  -60.55 | X-H torsion
[ 11005 11000 10999 10996 ] final -148.67 input  -57.11 | X-H torsion

> <Gold.Protein.ActiveResidues>
 VAL166  LYS551  ARG553  GLY616  TRP617  ASP618  TYR619  PRO620  LYS621  CYS622 
 ASP623  PHE694  ASN695  SER759  ASP760  ASP761  ALA762  ILE779  LEU786  VAL792 
 PHE793  MET794  SER795  GLU796  ALA797  LYS798  CYS799  TRP800  GLU811  SER814 

> <Gold.Protein.RotatedAtoms>
  151.4455  135.1024  159.9682 H   0  0  0  0  0  0  0  0  0  0  0  0  # atno 6907 bound_to 6896
  152.4907  133.8489  159.7201 H   0  0  0  0  0  0  0  0  0  0  0  0  # atno 6908 bound_to 6896
  150.9058  133.7001  159.2894 H   0  0  0  0  0  0  0  0  0  0  0  0  # atno 6909 bound_to 6896
  145.8104  139.3030  143.1102 H   0  0  0  0  0  0  0  0  0  0  0  0  # atno 7974 bound_to 7965
  155.7085  140.3494  155.4963 H   0  0  0  0  0  0  0  0  0  0  0  0  # atno 8008 bound_to 7997
  155.9377  140.1096  157.1103 H   0  0  0  0  0  0  0  0  0  0  0  0  # atno 8009 bound_to 7997
  154.4097  140.1219  156.4873 H   0  0  0  0  0  0  0  0  0  0  0  0  # atno 8010 bound_to 7997
  140.7155  143.5561  150.9246 H   0  0  0  0  0  0  0  0  0  0  0  0  # atno 10167 bound_to 10162
  156.0360  130.4352  150.2453 H   0  0  0  0  0  0  0  0  0  0  0  0  # atno 10718 bound_to 10713
  154.2950  135.2760  155.2637 H   0  0  0  0  0  0  0  0  0  0  0  0  # atno 10763 bound_to 10752
  154.5099  135.5785  153.6600 H   0  0  0  0  0  0  0  0  0  0  0  0  # atno 10764 bound_to 10752
  152.9908  135.6178  154.3117 H   0  0  0  0  0  0  0  0  0  0  0  0  # atno 10765 bound_to 10752
  140.7588  134.3322  157.5107 H   0  0  0  0  0  0  0  0  0  0  0  0  # atno 11005 bound_to 11000
  145.9783  140.8704  143.0127 LP  0  0  0  0  0  0  0  0  0  0  0  0  # atno 17320 bound_to 7965
  144.6758  140.2043  143.7384 LP  0  0  0  0  0  0  0  0  0  0  0  0  # atno 17321 bound_to 7965
  139.9286  143.6520  152.3081 LP  0  0  0  0  0  0  0  0  0  0  0  0  # atno 17342 bound_to 10162
  139.6962  144.7641  151.1351 LP  0  0  0  0  0  0  0  0  0  0  0  0  # atno 17343 bound_to 10162
  157.0552  131.0074  151.3240 LP  0  0  0  0  0  0  0  0  0  0  0  0  # atno 17370 bound_to 10713
  157.5111  130.7939  149.7706 LP  0  0  0  0  0  0  0  0  0  0  0  0  # atno 17371 bound_to 10713
  139.8774  134.9189  156.3214 LP  0  0  0  0  0  0  0  0  0  0  0  0  # atno 17394 bound_to 11000
  140.9682  133.7344  156.0497 LP  0  0  0  0  0  0  0  0  0  0  0  0  # atno 17395 bound_to 11000

$$$$
