AV-unprocessed.smi:3169|AV-procd|sdf|12103|dock9
  -GOLD-   2272017543D 1   1.00000     0.00000
 Structure written by MMmdl.
 36 37  0  0  0  0  0  0  0  0  2 V2000
  147.8750  133.5639  155.2605 O   0  0  0  0  0  0  0  0  0  0  0  0
  148.1799  134.3113  154.3307 C   0  0  0  0  0  0  0  0  0  0  0  0
  147.5093  134.3750  153.1721 N   0  0  0  0  0  0  0  0  0  0  0  0
  146.3360  133.5733  152.8467 C   0  0  0  0  0  0  0  0  0  0  0  0
  146.5417  132.7722  151.5499 C   0  0  0  0  0  0  0  0  0  0  0  0
  145.3218  132.7257  150.7432 N   0  0  0  0  0  0  0  0  0  0  0  0
  145.1369  132.0786  149.5487 C   0  0  0  0  0  0  0  0  0  0  0  0
  143.8406  132.3189  149.1716 C   0  0  0  0  0  0  0  0  0  0  0  0
  143.2905  133.1023  150.1510 N   0  3  0  0  0  0  0  0  0  0  0  0
  144.1932  133.3484  151.1061 C   0  0  0  0  0  0  0  0  0  0  0  0
  149.2244  135.1503  154.3480 N   0  0  0  0  0  0  0  0  0  0  0  0
  150.1633  135.3077  155.4542 C   0  0  0  0  0  0  0  0  0  0  0  0
  150.7474  136.7298  155.5125 C   0  0  2  0  0  0  0  0  0  0  0  0
  149.8131  137.8381  155.0247 C   0  0  0  0  0  0  0  0  0  0  0  0
  150.7990  138.9144  154.6337 C   0  0  0  0  0  0  0  0  0  0  0  0
  151.9301  138.0927  154.0218 C   0  0  0  0  0  0  0  0  0  0  0  0
  151.8947  136.8245  154.6726 O   0  0  0  0  0  0  0  0  0  0  0  0
  147.8335  135.0212  152.4673 H   0  0  0  0  0  0  0  0  0  0  0  0
  146.1017  132.9063  153.6784 H   0  0  0  0  0  0  0  0  0  0  0  0
  145.4845  134.2456  152.7384 H   0  0  0  0  0  0  0  0  0  0  0  0
  147.3306  133.2175  150.9420 H   0  0  0  0  0  0  0  0  0  0  0  0
  146.8422  131.7452  151.7636 H   0  0  0  0  0  0  0  0  0  0  0  0
  145.9206  131.5106  149.0684 H   0  0  0  0  0  0  0  0  0  0  0  0
  143.2833  131.9998  148.3030 H   0  0  0  0  0  0  0  0  0  0  0  0
  144.0413  133.9356  151.9946 H   0  0  0  0  0  0  0  0  0  0  0  0
  149.3887  135.7218  153.5322 H   0  0  0  0  0  0  0  0  0  0  0  0
  149.6199  135.1029  156.3769 H   0  0  0  0  0  0  0  0  0  0  0  0
  150.9620  134.5659  155.4011 H   0  0  0  0  0  0  0  0  0  0  0  0
  151.0721  136.9570  156.5294 H   0  0  0  0  0  0  0  0  0  0  0  0
  149.2526  137.5119  154.1474 H   0  0  0  0  0  0  0  0  0  0  0  0
  149.1026  138.1639  155.7849 H   0  0  0  0  0  0  0  0  0  0  0  0
  150.3838  139.6499  153.9441 H   0  0  0  0  0  0  0  0  0  0  0  0
  151.1521  139.4386  155.5228 H   0  0  0  0  0  0  0  0  0  0  0  0
  151.7555  137.9378  152.9567 H   0  0  0  0  0  0  0  0  0  0  0  0
  152.9014  138.5732  154.1393 H   0  0  0  0  0  0  0  0  0  0  0  0
  142.3384  133.4466  150.1547 H   0  0  0  0  0  0  0  0  0  0  0  0
  1  2  2  0  0  0  0
  2  3  1  0  0  0  0
  2 11  1  0  0  0  0
  3  4  1  0  0  0  0
  3 18  1  0  0  0  0
  4  5  1  0  0  0  0
  4 19  1  0  0  0  0
  4 20  1  0  0  0  0
  5  6  1  0  0  0  0
  5 21  1  0  0  0  0
  5 22  1  0  0  0  0
  6 10  1  0  0  0  0
  6  7  1  0  0  0  0
  7  8  2  0  0  0  0
  7 23  1  0  0  0  0
  8  9  1  0  0  0  0
  8 24  1  0  0  0  0
  9 10  2  0  0  0  0
  9 36  1  0  0  0  0
 10 25  1  0  0  0  0
 11 12  1  0  0  0  0
 11 26  1  0  0  0  0
 12 13  1  0  0  0  0
 12 27  1  0  0  0  0
 12 28  1  0  0  0  0
 13 17  1  0  0  0  0
 13 14  1  0  0  0  0
 13 29  1  0  0  0  0
 14 15  1  0  0  0  0
 14 30  1  0  0  0  0
 14 31  1  0  0  0  0
 15 16  1  0  0  0  0
 15 32  1  0  0  0  0
 15 33  1  0  0  0  0
 16 17  1  0  0  0  0
 16 34  1  0  0  0  0
 16 35  1  0  0  0  0
M  CHG  1   9   1
M  END
> <s_m_source_file>
AV-unprocessed.smi

> <i_m_source_file_index>
3169

> <i_lp_mmshare_version>
43012

> <i_f3d_flags>
0

> <s_epik_input>
TzFbQ0gyXVtDSDJdW0NIMl1bQ0BIXTFbQ0gyXVtOSF1DKD1PKVtOSF1bQ0gyXVtDSDJdbjJbY0hdW2NIXW5bY0hdMg==

> <s_epik_cmdline>
J2VwaWtfcHl0aG9uJywgJy1waCcsICc3LjAnLCAnLXRuJywgJzgnLCAnLW1hJywgJzIwMCcsICctbWV0YWxfYmluZGluZycsICctaW1hZScsICc8aW5maWxlLm1hZT4nLCAnLW9tYWUnLCAnPG91dGZpbGUubWFlPic=

> <r_lp_tautomer_probability>
1

> <r_epik_Ionization_Penalty>
0.256136

> <r_epik_Ionization_Penalty_Charging>
0

> <r_epik_Ionization_Penalty_Neutral>
0.256136

> <r_epik_State_Penalty>
0.247629

> <r_epik_Charging_Adjusted_Penalty>
0.247629

> <i_epik_Tot_Q>
1

> <i_epik_Tot_abs_Q>
1

> <r_epik_Metal_State_Penalty>
0.537113

> <b_epik_Metal_Only>
0

> <s_lp_Force_Field>
OPLS_2005

> <r_lp_Energy>
17.2765

> <b_lp_Chiralities_Consistent>
1

> <s_lp_Variant>
AV-unprocessed.smi:3169-1

> <Gold.Version>
5.8.1

> <Gold.Id.Protein>
6NUR|6NUR_protein|mol2

> <Gold.PLP.Fitness>
45.7828

> <Gold.PLP.PLP>
-32.3492

> <Gold.PLP.part.hbond>
-4.0000

> <Gold.PLP.part.metal>
0.0000

> <Gold.PLP.part.buried>
-6.0800

> <Gold.PLP.part.nonpolar>
-23.1792

> <Gold.PLP.part.repulsive>
0.2195

> <Gold.PLP.ligand.clash>
0.0000

> <Gold.PLP.ligand.torsion>
0.7952

> <Gold.PLP.Chemscore.Hbond>
5.0000

> <Gold.PLP.Chemscore.CHOScore>
0.0000

> <Gold.PLP.Chemscore.Metal>
0.0000

> <Gold.Chemscore.Hbonds>
donor molecule, donor type, donor heavy atom, donor atom, acceptor molecule, acceptor atom, score
      L1  H     3    18       P1  7948  1.00
      L1  H     9    36       P1 10186  2.00
      L1  H    11    26       P1  7948  1.00
      P1  H 10752 10765       L1    17  1.00

> <Gold.PLP.Chemscore.Internal.Correction>
0.0239

> <Gold.Rescore>
     Score         DG    S(hbond)    S(metal)    S(lipo)     H(rot)  DE(clash)    DE(int)     intcor
     18.68     -19.35       3.69        0.00      64.17       2.33       0.04       0.63       ----

> <Gold.Chemscore.Fitness>
18.6789

> <Gold.Chemscore.DG>
-19.3471

> <Gold.Chemscore.ZeroCoef>
-5.4800

> <Gold.Chemscore.Hbond>
3.6890

> <Gold.Chemscore.Metal>
0.0000

> <Gold.Chemscore.Lipo>
64.1669

> <Gold.Chemscore.Internal_Hbond>
0.0000

> <Gold.Chemscore.DEClash>
0.0432

> <Gold.Chemscore.DEInternal>
0.6250

> <Gold.Chemscore.Rot>
2.3288

> <Gold.Chemscore.Internal.Correction>
   9.000000E+99

> <Gold.Chemscore.Hbonds>
donor molecule, donor type, donor heavy atom, donor atom, acceptor molecule, acceptor atom, score
      L1  H     3    18       P1  7948  0.91
      L1  H     9    36       P1 10186  0.98
      L1  H    11    26       P1  7948  0.38
      P1  H 10752 10765       L1    17  0.94

> <Gold.Chemscore.Hbond.Weighted>
-12.3213

> <Gold.Chemscore.Metal.Weighted>
-0.0000

> <Gold.Chemscore.Lipo.Weighted>
-7.5075

> <Gold.Chemscore.Internal_Hbond.Weighted>
0.0000

> <Gold.Chemscore.DEClash.Weighted>
0.0432

> <Gold.Chemscore.DEInternal.Weighted>
0.6250

> <Gold.Chemscore.Rot.Weighted>
5.9617

> <Gold.Chemscore.Internal.Correction.Weighted>
   9.000000E+99

> <Gold.Protein.RotatedTorsions>
[ 6907 6896 6895 6894 ] final -177.55 input  -60.11 | X-H torsion
[ 7974 7965 7964 7962 ] final  -26.97 input  175.53 | X-H torsion
[ 8008 7997 7996 7995 ] final   18.38 input   59.86 | X-H torsion
[ 10167 10162 10161 10158 ] final  -43.65 input  -65.29 | X-H torsion
[ 10718 10713 10712 10709 ] final   99.39 input   66.30 | X-H torsion
[ 10763 10752 10751 10750 ] final  161.25 input  -60.55 | X-H torsion
[ 11005 11000 10999 10996 ] final -146.00 input  -57.11 | X-H torsion

> <Gold.Protein.ActiveResidues>
 VAL166  LYS551  ARG553  GLY616  TRP617  ASP618  TYR619  PRO620  LYS621  CYS622 
 ASP623  PHE694  ASN695  SER759  ASP760  ASP761  ALA762  ILE779  LEU786  VAL792 
 PHE793  MET794  SER795  GLU796  ALA797  LYS798  CYS799  TRP800  GLU811  SER814 

> <Gold.Protein.RotatedAtoms>
  151.6228  133.3338  159.3091 H   0  0  0  0  0  0  0  0  0  0  0  0  # atno 6907 bound_to 6896
  150.8097  134.7248  159.6688 H   0  0  0  0  0  0  0  0  0  0  0  0  # atno 6908 bound_to 6896
  152.4193  134.5989  160.0046 H   0  0  0  0  0  0  0  0  0  0  0  0  # atno 6909 bound_to 6896
  146.1389  140.5090  142.8660 H   0  0  0  0  0  0  0  0  0  0  0  0  # atno 7974 bound_to 7965
  154.9052  140.3006  155.5296 H   0  0  0  0  0  0  0  0  0  0  0  0  # atno 8008 bound_to 7997
  156.3017  140.2399  156.4019 H   0  0  0  0  0  0  0  0  0  0  0  0  # atno 8009 bound_to 7997
  154.8481  140.0410  157.1575 H   0  0  0  0  0  0  0  0  0  0  0  0  # atno 8010 bound_to 7997
  140.6926  143.2971  151.3383 H   0  0  0  0  0  0  0  0  0  0  0  0  # atno 10167 bound_to 10162
  157.6877  131.0668  150.4941 H   0  0  0  0  0  0  0  0  0  0  0  0  # atno 10718 bound_to 10713
  154.2601  135.2769  155.2781 H   0  0  0  0  0  0  0  0  0  0  0  0  # atno 10763 bound_to 10752
  154.5391  135.5707  153.6827 H   0  0  0  0  0  0  0  0  0  0  0  0  # atno 10764 bound_to 10752
  152.9964  135.6246  154.2751 H   0  0  0  0  0  0  0  0  0  0  0  0  # atno 10765 bound_to 10752
  140.7864  134.3019  157.5028 H   0  0  0  0  0  0  0  0  0  0  0  0  # atno 11005 bound_to 11000
  144.7771  140.5761  143.6631 LP  0  0  0  0  0  0  0  0  0  0  0  0  # atno 17320 bound_to 7965
  145.5092  139.1480  143.3614 LP  0  0  0  0  0  0  0  0  0  0  0  0  # atno 17321 bound_to 7965
  139.6345  144.0657  152.2504 LP  0  0  0  0  0  0  0  0  0  0  0  0  # atno 17342 bound_to 10162
  140.0143  144.6201  150.7621 LP  0  0  0  0  0  0  0  0  0  0  0  0  # atno 17343 bound_to 10162
  156.5266  130.4174  149.6223 LP  0  0  0  0  0  0  0  0  0  0  0  0  # atno 17370 bound_to 10713
  156.3107  130.7227  151.2119 LP  0  0  0  0  0  0  0  0  0  0  0  0  # atno 17371 bound_to 10713
  139.8736  134.9349  156.3619 LP  0  0  0  0  0  0  0  0  0  0  0  0  # atno 17394 bound_to 11000
  140.9432  133.7500  156.0174 LP  0  0  0  0  0  0  0  0  0  0  0  0  # atno 17395 bound_to 11000

$$$$
