AV-unprocessed.smi:3181|AV-procd|sdf|12144|dock1
  -GOLD-   2272017583D 1   1.00000     0.00000
 Structure written by MMmdl.
 42 43  0  0  0  0  0  0  0  0  2 V2000
  147.6271  141.5726  155.5054 C   0  0  0  0  0  0  0  0  0  0  0  0
  149.0106  140.9044  155.5640 C   0  0  1  0  0  0  0  0  0  0  0  0
  149.3458  140.1326  154.2691 C   0  0  0  0  0  0  0  0  0  0  0  0
  150.4691  139.2278  154.4262 N   0  0  0  0  0  0  0  0  0  0  0  0
  150.5371  137.8991  154.3259 C   0  0  0  0  0  0  0  0  0  0  0  0
  151.7519  137.4093  154.5294 N   0  0  0  0  0  0  0  0  0  0  0  0
  152.4325  138.5721  154.7571 C   0  0  0  0  0  0  0  0  0  0  0  0
  151.7101  139.6914  154.7031 N   0  0  0  0  0  0  0  0  0  0  0  0
  150.0444  141.9312  155.8280 N   0  3  0  0  0  0  0  0  0  0  0  0
  150.5725  141.9870  157.2111 C   0  0  2  0  0  0  0  0  0  0  0  0
  151.3060  143.3193  157.4290 C   0  0  0  0  0  0  0  0  0  0  0  0
  151.8734  143.4143  158.8513 C   0  0  0  0  0  0  0  0  0  0  0  0
  152.8255  142.2445  159.1710 C   0  0  1  0  0  0  0  0  0  0  0  0
  153.3797  142.3980  160.5986 C   0  0  0  0  0  0  0  0  0  0  0  0
  152.1135  140.8852  158.9408 C   0  0  2  0  0  0  0  0  0  0  0  0
  153.0346  139.6766  159.1865 C   0  0  0  0  0  0  0  0  0  0  0  0
  151.5193  140.8089  157.5184 C   0  0  0  0  0  0  0  0  0  0  0  0
  146.8307  140.8359  155.3957 H   0  0  0  0  0  0  0  0  0  0  0  0
  147.5558  142.2663  154.6670 H   0  0  0  0  0  0  0  0  0  0  0  0
  147.4236  142.1321  156.4190 H   0  0  0  0  0  0  0  0  0  0  0  0
  148.9906  140.2003  156.3974 H   0  0  0  0  0  0  0  0  0  0  0  0
  148.4815  139.5525  153.9425 H   0  0  0  0  0  0  0  0  0  0  0  0
  149.5809  140.8196  153.4558 H   0  0  0  0  0  0  0  0  0  0  0  0
  149.6821  137.2773  154.1032 H   0  0  0  0  0  0  0  0  0  0  0  0
  153.4918  138.5943  154.9671 H   0  0  0  0  0  0  0  0  0  0  0  0
  150.8103  141.8058  155.1816 H   0  0  0  0  0  0  0  0  0  0  0  0
  149.7244  141.9529  157.8972 H   0  0  0  0  0  0  0  0  0  0  0  0
  152.1178  143.4211  156.7071 H   0  0  0  0  0  0  0  0  0  0  0  0
  150.6271  144.1543  157.2515 H   0  0  0  0  0  0  0  0  0  0  0  0
  152.3977  144.3637  158.9667 H   0  0  0  0  0  0  0  0  0  0  0  0
  151.0522  143.4290  159.5694 H   0  0  0  0  0  0  0  0  0  0  0  0
  153.6704  142.3070  158.4832 H   0  0  0  0  0  0  0  0  0  0  0  0
  152.5958  142.2675  161.3454 H   0  0  0  0  0  0  0  0  0  0  0  0
  153.8140  143.3872  160.7455 H   0  0  0  0  0  0  0  0  0  0  0  0
  154.1668  141.6740  160.8078 H   0  0  0  0  0  0  0  0  0  0  0  0
  151.2857  140.8137  159.6480 H   0  0  0  0  0  0  0  0  0  0  0  0
  153.9249  139.7214  158.5585 H   0  0  0  0  0  0  0  0  0  0  0  0
  152.5202  138.7410  158.9649 H   0  0  0  0  0  0  0  0  0  0  0  0
  153.3589  139.6179  160.2252 H   0  0  0  0  0  0  0  0  0  0  0  0
  150.9828  139.8655  157.4144 H   0  0  0  0  0  0  0  0  0  0  0  0
  152.3274  140.7871  156.7853 H   0  0  0  0  0  0  0  0  0  0  0  0
  149.6202  142.8290  155.6422 H   0  0  0  0  0  0  0  0  0  0  0  0
  1  2  1  0  0  0  0
  1 18  1  0  0  0  0
  1 19  1  0  0  0  0
  1 20  1  0  0  0  0
  2  3  1  0  0  0  0
  2  9  1  0  0  0  0
  2 21  1  0  0  0  0
  3  4  1  0  0  0  0
  3 22  1  0  0  0  0
  3 23  1  0  0  0  0
  4  8  1  0  0  0  0
  4  5  1  0  0  0  0
  5  6  2  0  0  0  0
  5 24  1  0  0  0  0
  6  7  1  0  0  0  0
  7  8  2  0  0  0  0
  7 25  1  0  0  0  0
  9 10  1  0  0  0  0
  9 26  1  0  0  0  0
  9 42  1  0  0  0  0
 10 17  1  0  0  0  0
 10 11  1  0  0  0  0
 10 27  1  0  0  0  0
 11 12  1  0  0  0  0
 11 28  1  0  0  0  0
 11 29  1  0  0  0  0
 12 13  1  0  0  0  0
 12 30  1  0  0  0  0
 12 31  1  0  0  0  0
 13 14  1  0  0  0  0
 13 15  1  0  0  0  0
 13 32  1  0  0  0  0
 14 33  1  0  0  0  0
 14 34  1  0  0  0  0
 14 35  1  0  0  0  0
 15 16  1  0  0  0  0
 15 17  1  0  0  0  0
 15 36  1  0  0  0  0
 16 37  1  0  0  0  0
 16 38  1  0  0  0  0
 16 39  1  0  0  0  0
 17 40  1  0  0  0  0
 17 41  1  0  0  0  0
M  CHG  1   9   1
M  END
> <s_m_source_file>
AV-unprocessed.smi

> <i_m_source_file_index>
3181

> <i_lp_mmshare_version>
43012

> <i_f3d_flags>
0

> <s_epik_input>
bjFbY0hdbltjSF1uMVtDSDJdW0NAQEhdKFtDSDNdKVtOSF1bQ0BASF0yW0NIMl1bQ0gyXVtDQEBIXShbQ0gzXSlbQ0BASF0oW0NIM10pW0NIMl0y

> <s_epik_cmdline>
J2VwaWtfcHl0aG9uJywgJy1waCcsICc3LjAnLCAnLXRuJywgJzgnLCAnLW1hJywgJzIwMCcsICctbWV0YWxfYmluZGluZycsICctaW1hZScsICc8aW5maWxlLm1hZT4nLCAnLW9tYWUnLCAnPG91dGZpbGUubWFlPic=

> <r_lp_tautomer_probability>
1

> <r_epik_Ionization_Penalty>
0.000617007

> <r_epik_Ionization_Penalty_Charging>
0.000616215

> <r_epik_Ionization_Penalty_Neutral>
7.92544e-07

> <r_epik_State_Penalty>
0.000388807

> <r_epik_Charging_Adjusted_Penalty>
0.00100502

> <i_epik_Tot_Q>
1

> <i_epik_Tot_abs_Q>
1

> <r_epik_Metal_State_Penalty>
-0

> <b_epik_Metal_Only>
0

> <s_lp_Force_Field>
OPLS_2005

> <r_lp_Energy>
19.3641

> <b_lp_Chiralities_Consistent>
1

> <s_lp_Variant>
AV-unprocessed.smi:3181-10

> <Gold.Version>
5.8.1

> <Gold.Id.Protein>
6NUR|6NUR_protein|mol2

> <Gold.PLP.Fitness>
50.9800

> <Gold.PLP.PLP>
-39.2795

> <Gold.PLP.part.hbond>
-3.0000

> <Gold.PLP.part.metal>
0.0000

> <Gold.PLP.part.buried>
-4.1112

> <Gold.PLP.part.nonpolar>
-33.4204

> <Gold.PLP.part.repulsive>
0.3430

> <Gold.PLP.ligand.clash>
0.0000

> <Gold.PLP.ligand.torsion>
0.8570

> <Gold.PLP.Chemscore.Hbond>
3.4899

> <Gold.PLP.Chemscore.CHOScore>
0.9536

> <Gold.PLP.Chemscore.Metal>
0.0000

> <Gold.Chemscore.Hbonds>
donor molecule, donor type, donor heavy atom, donor atom, acceptor molecule, acceptor atom, score
      L1  H     9    42       P1  8028  2.00
      P1  H  7989  7998       L1     8  0.70
      P1  H 10752 10765       L1     6  0.78
      L1  C     5    24       P1  7948  0.92

> <Gold.PLP.Chemscore.Internal.Correction>
0.0841

> <Gold.Rescore>
     Score         DG    S(hbond)    S(metal)    S(lipo)     H(rot)  DE(clash)    DE(int)     intcor
     16.70     -17.66       2.31        0.00      84.24       2.11       0.03       0.94       ----

> <Gold.Chemscore.Fitness>
16.6955

> <Gold.Chemscore.DG>
-17.6618

> <Gold.Chemscore.ZeroCoef>
-5.4800

> <Gold.Chemscore.Hbond>
2.3133

> <Gold.Chemscore.Metal>
0.0000

> <Gold.Chemscore.Lipo>
84.2378

> <Gold.Chemscore.Internal_Hbond>
0.0000

> <Gold.Chemscore.DEClash>
0.0281

> <Gold.Chemscore.DEInternal>
0.9382

> <Gold.Chemscore.Rot>
2.1095

> <Gold.Chemscore.Internal.Correction>
   9.000000E+99

> <Gold.Chemscore.Hbonds>
donor molecule, donor type, donor heavy atom, donor atom, acceptor molecule, acceptor atom, score
      L1  H     9    42       P1  8028  0.93
      P1  H  7989  7998       L1     8  0.07
      P1  H 10752 10765       L1     6  0.67

> <Gold.Chemscore.Hbond.Weighted>
-7.7263

> <Gold.Chemscore.Metal.Weighted>
-0.0000

> <Gold.Chemscore.Lipo.Weighted>
-9.8558

> <Gold.Chemscore.Internal_Hbond.Weighted>
0.0000

> <Gold.Chemscore.DEClash.Weighted>
0.0281

> <Gold.Chemscore.DEInternal.Weighted>
0.9382

> <Gold.Chemscore.Rot.Weighted>
5.4003

> <Gold.Chemscore.Internal.Correction.Weighted>
   9.000000E+99

> <Gold.Protein.RotatedTorsions>
[ 6907 6896 6895 6894 ] final  103.22 input  -60.11 | X-H torsion
[ 7974 7965 7964 7962 ] final -168.39 input  175.53 | X-H torsion
[ 8008 7997 7996 7995 ] final  143.00 input   59.86 | X-H torsion
[ 10167 10162 10161 10158 ] final  150.74 input  -65.29 | X-H torsion
[ 10718 10713 10712 10709 ] final  -32.84 input   66.30 | X-H torsion
[ 10763 10752 10751 10750 ] final  163.60 input  -60.55 | X-H torsion
[ 11005 11000 10999 10996 ] final  166.45 input  -57.11 | X-H torsion

> <Gold.Protein.ActiveResidues>
 VAL166  LYS551  ARG553  GLY616  TRP617  ASP618  TYR619  PRO620  LYS621  CYS622 
 ASP623  PHE694  ASN695  SER759  ASP760  ASP761  ALA762  ILE779  LEU786  VAL792 
 PHE793  MET794  SER795  GLU796  ALA797  LYS798  CYS799  TRP800  GLU811  SER814 

> <Gold.Protein.RotatedAtoms>
  152.5302  133.9859  159.7827 H   0  0  0  0  0  0  0  0  0  0  0  0  # atno 6907 bound_to 6896
  151.0104  133.5963  159.2690 H   0  0  0  0  0  0  0  0  0  0  0  0  # atno 6908 bound_to 6896
  151.3040  135.0783  159.9302 H   0  0  0  0  0  0  0  0  0  0  0  0  # atno 6909 bound_to 6896
  144.7204  140.2377  143.6296 H   0  0  0  0  0  0  0  0  0  0  0  0  # atno 7974 bound_to 7965
  156.2939  140.2274  156.4819 H   0  0  0  0  0  0  0  0  0  0  0  0  # atno 8008 bound_to 7997
  154.7846  140.0458  157.1175 H   0  0  0  0  0  0  0  0  0  0  0  0  # atno 8009 bound_to 7997
  154.9718  140.3067  155.4988 H   0  0  0  0  0  0  0  0  0  0  0  0  # atno 8010 bound_to 7997
  139.4847  144.5497  151.7421 H   0  0  0  0  0  0  0  0  0  0  0  0  # atno 10167 bound_to 10162
  156.3699  130.4338  149.7554 H   0  0  0  0  0  0  0  0  0  0  0  0  # atno 10718 bound_to 10713
  154.2961  135.2760  155.2632 H   0  0  0  0  0  0  0  0  0  0  0  0  # atno 10763 bound_to 10752
  154.5090  135.5787  153.6593 H   0  0  0  0  0  0  0  0  0  0  0  0  # atno 10764 bound_to 10752
  152.9907  135.6176  154.3129 H   0  0  0  0  0  0  0  0  0  0  0  0  # atno 10765 bound_to 10752
  140.2665  134.7860  157.3637 H   0  0  0  0  0  0  0  0  0  0  0  0  # atno 11005 bound_to 11000
  145.8350  139.2103  143.1861 LP  0  0  0  0  0  0  0  0  0  0  0  0  # atno 17320 bound_to 7965
  146.0397  140.8177  142.9835 LP  0  0  0  0  0  0  0  0  0  0  0  0  # atno 17321 bound_to 7965
  140.5050  144.1112  150.5980 LP  0  0  0  0  0  0  0  0  0  0  0  0  # atno 17342 bound_to 10162
  140.4018  143.2700  151.9938 LP  0  0  0  0  0  0  0  0  0  0  0  0  # atno 17343 bound_to 10162
  156.4685  130.7985  151.3004 LP  0  0  0  0  0  0  0  0  0  0  0  0  # atno 17370 bound_to 10713
  157.7483  131.0043  150.3072 LP  0  0  0  0  0  0  0  0  0  0  0  0  # atno 17371 bound_to 10713
  140.1414  134.4967  155.8029 LP  0  0  0  0  0  0  0  0  0  0  0  0  # atno 17394 bound_to 11000
  141.2183  133.6827  156.7216 LP  0  0  0  0  0  0  0  0  0  0  0  0  # atno 17395 bound_to 11000

$$$$
