AV-unprocessed.smi:2212|AV-procd|sdf|8953|dock10
  -GOLD-   2272012173D 1   1.00000     0.00000
 Structure written by MMmdl.
 31 32  0  0  0  0  0  0  0  0  1 V2000
  151.6748  145.6219  159.9518 C   0  0  0  0  0  0  0  0  0  0  0  0
  151.4007  144.8764  158.7727 O   0  0  0  0  0  0  0  0  0  0  0  0
  151.8595  143.5239  158.7661 C   0  0  0  0  0  0  0  0  0  0  0  0
  151.5080  142.8039  157.4565 C   0  0  0  0  0  0  0  0  0  0  0  0
  150.0634  142.7163  157.2867 N   0  0  0  0  0  0  0  0  0  0  0  0
  149.3243  141.6314  157.5548 C   0  0  0  0  0  0  0  0  0  0  0  0
  149.8369  140.5828  157.9591 O   0  0  0  0  0  0  0  0  0  0  0  0
  147.9878  141.8812  157.2851 N   0  0  0  0  0  0  0  0  0  0  0  0
  147.5545  141.7356  156.0715 C   0  0  0  0  0  0  0  0  0  0  0  0
  146.2606  141.9090  155.6072 N   0  0  0  0  0  0  0  0  0  0  0  0
  146.2552  141.6643  154.2617 C   0  0  0  0  0  0  0  0  0  0  0  0
  147.4941  141.3515  153.8928 C   0  0  0  0  0  0  0  0  0  0  0  0
  148.3153  141.3867  154.9790 O   0  0  0  0  0  0  0  0  0  0  0  0
  153.3342  143.5197  159.2110 C   0  0  0  0  0  0  0  0  0  0  0  0
  153.0081  142.3570  160.1504 C   0  0  0  0  0  0  0  0  0  0  0  0
  151.5517  142.8218  160.1037 C   0  0  0  0  0  0  0  0  0  0  0  0
  151.3746  146.6579  159.7968 H   0  0  0  0  0  0  0  0  0  0  0  0
  152.7365  145.6187  160.1987 H   0  0  0  0  0  0  0  0  0  0  0  0
  151.1135  145.2470  160.8074 H   0  0  0  0  0  0  0  0  0  0  0  0
  151.9302  143.3426  156.6068 H   0  0  0  0  0  0  0  0  0  0  0  0
  151.9421  141.8043  157.4245 H   0  0  0  0  0  0  0  0  0  0  0  0
  149.5925  143.5446  156.9519 H   0  0  0  0  0  0  0  0  0  0  0  0
  145.4378  142.1694  156.1317 H   0  0  0  0  0  0  0  0  0  0  0  0
  145.3386  141.7426  153.6957 H   0  0  0  0  0  0  0  0  0  0  0  0
  147.9332  141.0915  152.9409 H   0  0  0  0  0  0  0  0  0  0  0  0
  154.0513  143.2768  158.4262 H   0  0  0  0  0  0  0  0  0  0  0  0
  153.6254  144.4230  159.7505 H   0  0  0  0  0  0  0  0  0  0  0  0
  153.1579  141.3806  159.6865 H   0  0  0  0  0  0  0  0  0  0  0  0
  153.4768  142.4175  161.1329 H   0  0  0  0  0  0  0  0  0  0  0  0
  151.3123  143.5148  160.9122 H   0  0  0  0  0  0  0  0  0  0  0  0
  150.8219  142.0143  160.0393 H   0  0  0  0  0  0  0  0  0  0  0  0
  1  2  1  0  0  0  0
  1 17  1  0  0  0  0
  1 18  1  0  0  0  0
  1 19  1  0  0  0  0
  2  3  1  0  0  0  0
  3 16  1  0  0  0  0
  3  4  1  0  0  0  0
  3 14  1  0  0  0  0
  4  5  1  0  0  0  0
  4 20  1  0  0  0  0
  4 21  1  0  0  0  0
  5 22  1  0  0  0  0
  5  6  1  0  0  0  0
  6  8  1  0  0  0  0
  6  7  2  0  0  0  0
  8  9  2  0  0  0  0
  9 13  1  0  0  0  0
  9 10  1  0  0  0  0
 10 23  1  0  0  0  0
 10 11  1  0  0  0  0
 11 24  1  0  0  0  0
 11 12  2  0  0  0  0
 12 25  1  0  0  0  0
 12 13  1  0  0  0  0
 14 15  1  0  0  0  0
 14 26  1  0  0  0  0
 14 27  1  0  0  0  0
 15 16  1  0  0  0  0
 15 28  1  0  0  0  0
 15 29  1  0  0  0  0
 16 30  1  0  0  0  0
 16 31  1  0  0  0  0
M  END
> <s_m_source_file>
AV-unprocessed.smi

> <i_m_source_file_index>
2212

> <i_lp_mmshare_version>
43012

> <i_f3d_flags>
0

> <s_epik_input>
W0NIMl0xW0NIMl1bQ0gyXUMxKE9bQ0gzXSlbQ0gyXVtOSF1DKD1PKVtOSF1jMm5bY0hdW2NIXW8y

> <s_epik_cmdline>
J2VwaWtfcHl0aG9uJywgJy1waCcsICc3LjAnLCAnLXRuJywgJzgnLCAnLW1hJywgJzIwMCcsICctbWV0YWxfYmluZGluZycsICctaW1hZScsICc8aW5maWxlLm1hZT4nLCAnLW9tYWUnLCAnPG91dGZpbGUubWFlPic=

> <r_lp_tautomer_probability>
0.107061

> <r_epik_Ionization_Penalty>
1.29244

> <r_epik_Ionization_Penalty_Charging>
1.29208

> <r_epik_Ionization_Penalty_Neutral>
0.000357989

> <r_epik_State_Penalty>
2.59896

> <r_epik_Charging_Adjusted_Penalty>
3.89105

> <i_epik_Tot_Q>
0

> <i_epik_Tot_abs_Q>
0

> <r_epik_Metal_State_Penalty>
3.62496

> <b_epik_Metal_Only>
0

> <s_lp_Force_Field>
OPLS_2005

> <r_lp_Energy>
40.2308

> <b_lp_Chiralities_Consistent>
1

> <s_lp_Variant>
AV-unprocessed.smi:2212-3

> <Gold.Version>
5.8.1

> <Gold.Id.Protein>
6NUR|6NUR_protein|mol2

> <Gold.PLP.Fitness>
34.9553

> <Gold.PLP.PLP>
-28.5887

> <Gold.PLP.part.hbond>
-1.0000

> <Gold.PLP.part.metal>
0.0000

> <Gold.PLP.part.buried>
-5.6635

> <Gold.PLP.part.nonpolar>
-22.8809

> <Gold.PLP.part.repulsive>
0.3915

> <Gold.PLP.ligand.clash>
0.0000

> <Gold.PLP.ligand.torsion>
1.0182

> <Gold.PLP.Chemscore.Hbond>
1.0000

> <Gold.PLP.Chemscore.CHOScore>
1.7129

> <Gold.PLP.Chemscore.Metal>
0.0000

> <Gold.Chemscore.Hbonds>
donor molecule, donor type, donor heavy atom, donor atom, acceptor molecule, acceptor atom, score
      L1  H     5    22       P1  8028  1.00
      L1  C    11    24       P1 10175  0.70
      L1  C    12    25       P1  7957  0.71

> <Gold.PLP.Chemscore.Internal.Correction>
0.2642

> <Gold.Rescore>
     Score         DG    S(hbond)    S(metal)    S(lipo)     H(rot)  DE(clash)    DE(int)     intcor
     12.92     -14.08       0.99        0.00      81.13       1.64       0.11       1.05       ----

> <Gold.Chemscore.Fitness>
12.9171

> <Gold.Chemscore.DG>
-14.0813

> <Gold.Chemscore.ZeroCoef>
-5.4800

> <Gold.Chemscore.Hbond>
0.9911

> <Gold.Chemscore.Metal>
0.0000

> <Gold.Chemscore.Lipo>
81.1290

> <Gold.Chemscore.Internal_Hbond>
0.0000

> <Gold.Chemscore.DEClash>
0.1108

> <Gold.Chemscore.DEInternal>
1.0534

> <Gold.Chemscore.Rot>
1.6411

> <Gold.Chemscore.Internal.Correction>
   9.000000E+99

> <Gold.Chemscore.Hbonds>
donor molecule, donor type, donor heavy atom, donor atom, acceptor molecule, acceptor atom, score
      L1  H     5    22       P1  8028  0.96

> <Gold.Chemscore.Hbond.Weighted>
-3.3103

> <Gold.Chemscore.Metal.Weighted>
-0.0000

> <Gold.Chemscore.Lipo.Weighted>
-9.4921

> <Gold.Chemscore.Internal_Hbond.Weighted>
0.0000

> <Gold.Chemscore.DEClash.Weighted>
0.1108

> <Gold.Chemscore.DEInternal.Weighted>
1.0534

> <Gold.Chemscore.Rot.Weighted>
4.2011

> <Gold.Chemscore.Internal.Correction.Weighted>
   9.000000E+99

> <Gold.Protein.RotatedTorsions>
[ 6907 6896 6895 6894 ] final   50.90 input  -60.11 | X-H torsion
[ 7974 7965 7964 7962 ] final -105.52 input  175.53 | X-H torsion
[ 8008 7997 7996 7995 ] final  127.23 input   59.86 | X-H torsion
[ 10167 10162 10161 10158 ] final   20.82 input  -65.29 | X-H torsion
[ 10718 10713 10712 10709 ] final  -33.25 input   66.30 | X-H torsion
[ 10763 10752 10751 10750 ] final   50.39 input  -60.55 | X-H torsion
[ 11005 11000 10999 10996 ] final  -65.27 input  -57.11 | X-H torsion

> <Gold.Protein.ActiveResidues>
 VAL166  LYS551  ARG553  GLY616  TRP617  ASP618  TYR619  PRO620  LYS621  CYS622 
 ASP623  PHE694  ASN695  SER759  ASP760  ASP761  ALA762  ILE779  LEU786  VAL792 
 PHE793  MET794  SER795  GLU796  ALA797  LYS798  CYS799  TRP800  GLU811  SER814 

> <Gold.Protein.RotatedAtoms>
  152.3068  134.7545  160.0345 H   0  0  0  0  0  0  0  0  0  0  0  0  # atno 6907 bound_to 6896
  151.8040  133.3368  159.3543 H   0  0  0  0  0  0  0  0  0  0  0  0  # atno 6908 bound_to 6896
  150.7300  134.5657  159.5909 H   0  0  0  0  0  0  0  0  0  0  0  0  # atno 6909 bound_to 6896
  145.2294  140.9165  143.3213 H   0  0  0  0  0  0  0  0  0  0  0  0  # atno 7974 bound_to 7965
  156.2885  140.2674  156.2239 H   0  0  0  0  0  0  0  0  0  0  0  0  # atno 8008 bound_to 7997
  155.0140  140.0387  157.2429 H   0  0  0  0  0  0  0  0  0  0  0  0  # atno 8009 bound_to 7997
  154.7493  140.2740  155.6311 H   0  0  0  0  0  0  0  0  0  0  0  0  # atno 8010 bound_to 7997
  140.5474  143.9569  150.6556 H   0  0  0  0  0  0  0  0  0  0  0  0  # atno 10167 bound_to 10162
  156.3650  130.4330  149.7592 H   0  0  0  0  0  0  0  0  0  0  0  0  # atno 10718 bound_to 10713
  152.9785  135.5880  154.4245 H   0  0  0  0  0  0  0  0  0  0  0  0  # atno 10763 bound_to 10752
  154.3865  135.2767  155.2182 H   0  0  0  0  0  0  0  0  0  0  0  0  # atno 10764 bound_to 10752
  154.4073  135.6090  153.5986 H   0  0  0  0  0  0  0  0  0  0  0  0  # atno 10765 bound_to 10752
  141.1449  133.6679  156.5960 H   0  0  0  0  0  0  0  0  0  0  0  0  # atno 11005 bound_to 11000
  144.9690  139.3899  143.6318 LP  0  0  0  0  0  0  0  0  0  0  0  0  # atno 17320 bound_to 7965
  146.3356  139.8779  142.8829 LP  0  0  0  0  0  0  0  0  0  0  0  0  # atno 17321 bound_to 7965
  140.2986  143.3276  152.0993 LP  0  0  0  0  0  0  0  0  0  0  0  0  # atno 17342 bound_to 10162
  139.5013  144.6711  151.6241 LP  0  0  0  0  0  0  0  0  0  0  0  0  # atno 17343 bound_to 10162
  156.4741  130.8010  151.3027 LP  0  0  0  0  0  0  0  0  0  0  0  0  # atno 17370 bound_to 10713
  157.7478  131.0026  150.3008 LP  0  0  0  0  0  0  0  0  0  0  0  0  # atno 17371 bound_to 10713
  140.3726  134.7593  157.4608 LP  0  0  0  0  0  0  0  0  0  0  0  0  # atno 17394 bound_to 11000
  140.0699  134.5877  155.8653 LP  0  0  0  0  0  0  0  0  0  0  0  0  # atno 17395 bound_to 11000

$$$$
