AV-unprocessed.smi:47|AV-procd|sdf|432|dock5
  -GOLD-   2262016303D 1   1.00000     0.00000
 Structure written by MMmdl.
 32 34  0  0  0  0  0  0  0  0  2 V2000
  145.5572  140.9513  154.3574 O   0  0  0  0  0  0  0  0  0  0  0  0
  146.8673  141.2338  153.9138 C   0  0  2  0  0  0  0  0  0  0  0  0
  147.6001  139.9754  153.4347 C   0  0  0  0  0  0  0  0  0  0  0  0
  149.0339  140.2095  153.7000 N   0  3  0  0  0  0  0  0  0  0  0  0
  149.1600  141.4380  154.5127 C   0  0  2  0  0  0  0  0  0  0  0  0
  150.1761  141.1163  155.5677 C   0  0  0  0  0  0  0  0  0  0  0  0
  150.9496  140.0286  155.4894 N   0  0  0  0  0  0  0  0  0  0  0  0
  151.7788  139.9866  156.5543 N   0  0  0  0  0  0  0  0  0  0  0  0
  151.4315  141.0933  157.2090 C   0  0  0  0  0  0  0  0  0  0  0  0
  152.0880  141.4891  158.4769 C   0  0  0  0  0  0  0  0  0  0  0  0
  151.8605  142.7646  159.0494 C   0  0  0  0  0  0  0  0  0  0  0  0
  152.4825  143.1450  160.2544 C   0  0  0  0  0  0  0  0  0  0  0  0
  153.3477  142.2533  160.9125 C   0  0  0  0  0  0  0  0  0  0  0  0
  153.5879  140.9825  160.3609 C   0  0  0  0  0  0  0  0  0  0  0  0
  152.9638  140.6068  159.1557 C   0  0  0  0  0  0  0  0  0  0  0  0
  150.4369  141.8474  156.6502 N   0  0  0  0  0  0  0  0  0  0  0  0
  147.7574  141.7478  155.0411 C   0  0  0  0  0  0  0  0  0  0  0  0
  146.8298  141.9699  153.1092 H   0  0  0  0  0  0  0  0  0  0  0  0
  149.5163  142.2459  153.8715 H   0  0  0  0  0  0  0  0  0  0  0  0
  144.9608  141.0521  153.6306 H   0  0  0  0  0  0  0  0  0  0  0  0
  147.2935  139.1050  154.0166 H   0  0  0  0  0  0  0  0  0  0  0  0
  147.4142  139.7587  152.3823 H   0  0  0  0  0  0  0  0  0  0  0  0
  149.4026  139.4259  154.2210 H   0  0  0  0  0  0  0  0  0  0  0  0
  151.2023  143.4717  158.5665 H   0  0  0  0  0  0  0  0  0  0  0  0
  152.2951  144.1230  160.6730 H   0  0  0  0  0  0  0  0  0  0  0  0
  153.8258  142.5430  161.8368 H   0  0  0  0  0  0  0  0  0  0  0  0
  154.2519  140.2938  160.8624 H   0  0  0  0  0  0  0  0  0  0  0  0
  153.1677  139.6241  158.7566 H   0  0  0  0  0  0  0  0  0  0  0  0
  147.6089  142.8027  155.2737 H   0  0  0  0  0  0  0  0  0  0  0  0
  147.5632  141.1722  155.9483 H   0  0  0  0  0  0  0  0  0  0  0  0
  149.5453  140.3162  152.8360 H   0  0  0  0  0  0  0  0  0  0  0  0
  150.9499  139.3240  154.7654 H   0  0  0  0  0  0  0  0  0  0  0  0
  1  2  1  0  0  0  0
  1 20  1  0  0  0  0
  2 18  1  0  0  0  0
  2 17  1  0  0  0  0
  2  3  1  0  0  0  0
  3  4  1  0  0  0  0
  3 21  1  0  0  0  0
  3 22  1  0  0  0  0
  4  5  1  0  0  0  0
  4 23  1  0  0  0  0
  4 31  1  0  0  0  0
  5 19  1  0  0  0  0
  5  6  1  0  0  0  0
  5 17  1  0  0  0  0
  6 16  2  0  0  0  0
  6  7  1  0  0  0  0
  7  8  1  0  0  0  0
  7 32  1  0  0  0  0
  8  9  2  0  0  0  0
  9 10  1  0  0  0  0
  9 16  1  0  0  0  0
 10 15  1  0  0  0  0
 10 11  2  0  0  0  0
 11 12  1  0  0  0  0
 11 24  1  0  0  0  0
 12 13  2  0  0  0  0
 12 25  1  0  0  0  0
 13 14  1  0  0  0  0
 13 26  1  0  0  0  0
 14 15  2  0  0  0  0
 14 27  1  0  0  0  0
 15 28  1  0  0  0  0
 17 29  1  0  0  0  0
 17 30  1  0  0  0  0
M  CHG  1   4   1
M  END
> <s_m_source_file>
AV-unprocessed.smi

> <i_m_source_file_index>
47

> <i_lp_mmshare_version>
43012

> <i_f3d_flags>
0

> <s_epik_input>
W09IXVtDQEhdMVtDSDJdW05IXVtDQEBIXShbQ0gyXTEpYzJuW25IXWMobjIpLWMzW2NIXVtjSF1bY0hdW2NIXVtjSF0z

> <s_epik_cmdline>
J2VwaWtfcHl0aG9uJywgJy1waCcsICc3LjAnLCAnLXRuJywgJzgnLCAnLW1hJywgJzIwMCcsICctbWV0YWxfYmluZGluZycsICctaW1hZScsICc8aW5maWxlLm1hZT4nLCAnLW9tYWUnLCAnPG91dGZpbGUubWFlPic=

> <r_epik_Ionization_Penalty>
1.14296

> <r_epik_Ionization_Penalty_Charging>
0.0688988

> <r_epik_Ionization_Penalty_Neutral>
1.07406

> <r_epik_State_Penalty>
1.72347

> <r_epik_Charging_Adjusted_Penalty>
1.79237

> <i_epik_Tot_Q>
1

> <i_epik_Tot_abs_Q>
1

> <r_epik_Metal_State_Penalty>
2.22085

> <b_epik_Metal_Only>
0

> <s_lp_Force_Field>
OPLS_2005

> <r_lp_Energy>
30.6831

> <b_lp_Chiralities_Consistent>
1

> <s_lp_Variant>
AV-unprocessed.smi:47-10

> <Gold.Version>
5.8.1

> <Gold.Id.Protein>
6NUR|6NUR_protein|mol2

> <Gold.PLP.Fitness>
41.4573

> <Gold.PLP.PLP>
-35.9821

> <Gold.PLP.part.hbond>
-2.0000

> <Gold.PLP.part.metal>
0.0000

> <Gold.PLP.part.buried>
-3.7833

> <Gold.PLP.part.nonpolar>
-30.4162

> <Gold.PLP.part.repulsive>
0.3371

> <Gold.PLP.ligand.clash>
0.0000

> <Gold.PLP.ligand.torsion>
0.2689

> <Gold.PLP.Chemscore.Hbond>
2.0000

> <Gold.PLP.Chemscore.CHOScore>
0.0000

> <Gold.PLP.Chemscore.Metal>
0.0000

> <Gold.Chemscore.Hbonds>
donor molecule, donor type, donor heavy atom, donor atom, acceptor molecule, acceptor atom, score
      L1  H     1    20       P1 10175  1.00
      L1  H     4    31       P1  7957  0.96

> <Gold.PLP.Chemscore.Internal.Correction>
0.0131

> <Gold.Rescore>
     Score         DG    S(hbond)    S(metal)    S(lipo)     H(rot)  DE(clash)    DE(int)     intcor
     18.43     -18.54       1.98        0.00      87.99       1.50       0.04       0.07       ----

> <Gold.Chemscore.Fitness>
18.4264

> <Gold.Chemscore.DG>
-18.5422

> <Gold.Chemscore.ZeroCoef>
-5.4800

> <Gold.Chemscore.Hbond>
1.9755

> <Gold.Chemscore.Metal>
0.0000

> <Gold.Chemscore.Lipo>
87.9943

> <Gold.Chemscore.Internal_Hbond>
0.0000

> <Gold.Chemscore.DEClash>
0.0424

> <Gold.Chemscore.DEInternal>
0.0735

> <Gold.Chemscore.Rot>
1.4966

> <Gold.Chemscore.Internal.Correction>
   9.000000E+99

> <Gold.Chemscore.Hbonds>
donor molecule, donor type, donor heavy atom, donor atom, acceptor molecule, acceptor atom, score
      L1  H     1    20       P1 10175  0.64
      L1  H     4    31       P1  7957  0.92

> <Gold.Chemscore.Hbond.Weighted>
-6.5981

> <Gold.Chemscore.Metal.Weighted>
-0.0000

> <Gold.Chemscore.Lipo.Weighted>
-10.2953

> <Gold.Chemscore.Internal_Hbond.Weighted>
0.0000

> <Gold.Chemscore.DEClash.Weighted>
0.0424

> <Gold.Chemscore.DEInternal.Weighted>
0.0735

> <Gold.Chemscore.Rot.Weighted>
3.8312

> <Gold.Chemscore.Internal.Correction.Weighted>
   9.000000E+99

> <Gold.Protein.RotatedTorsions>
[ 6907 6896 6895 6894 ] final -122.61 input  -60.11 | X-H torsion
[ 7974 7965 7964 7962 ] final  133.02 input  175.53 | X-H torsion
[ 8008 7997 7996 7995 ] final  168.55 input   59.86 | X-H torsion
[ 10167 10162 10161 10158 ] final  -17.03 input  -65.29 | X-H torsion
[ 10718 10713 10712 10709 ] final -164.17 input   66.30 | X-H torsion
[ 10763 10752 10751 10750 ] final  -69.66 input  -60.55 | X-H torsion
[ 11005 11000 10999 10996 ] final  -51.94 input  -57.11 | X-H torsion

> <Gold.Protein.ActiveResidues>
 VAL166  LYS551  ARG553  GLY616  TRP617  ASP618  TYR619  PRO620  LYS621  CYS622 
 ASP623  PHE694  ASN695  SER759  ASP760  ASP761  ALA762  ILE779  LEU786  VAL792 
 PHE793  MET794  SER795  GLU796  ALA797  LYS798  CYS799  TRP800  GLU811  SER814 

> <Gold.Protein.RotatedAtoms>
  150.8592  133.7669  159.2997 H   0  0  0  0  0  0  0  0  0  0  0  0  # atno 6907 bound_to 6896
  151.5317  135.1067  159.9914 H   0  0  0  0  0  0  0  0  0  0  0  0  # atno 6908 bound_to 6896
  152.4613  133.7785  159.6893 H   0  0  0  0  0  0  0  0  0  0  0  0  # atno 6909 bound_to 6896
  144.9908  139.4408  143.5340 H   0  0  0  0  0  0  0  0  0  0  0  0  # atno 7974 bound_to 7965
  156.1536  140.1587  156.8729 H   0  0  0  0  0  0  0  0  0  0  0  0  # atno 8008 bound_to 7997
  154.5094  140.0805  156.7996 H   0  0  0  0  0  0  0  0  0  0  0  0  # atno 8009 bound_to 7997
  155.3847  140.3407  155.4250 H   0  0  0  0  0  0  0  0  0  0  0  0  # atno 8010 bound_to 7997
  140.7242  143.5056  150.9814 H   0  0  0  0  0  0  0  0  0  0  0  0  # atno 10167 bound_to 10162
  156.6352  130.8946  151.2985 H   0  0  0  0  0  0  0  0  0  0  0  0  # atno 10718 bound_to 10713
  154.4066  135.6019  153.5928 H   0  0  0  0  0  0  0  0  0  0  0  0  # atno 10763 bound_to 10752
  152.9789  135.5919  154.4121 H   0  0  0  0  0  0  0  0  0  0  0  0  # atno 10764 bound_to 10752
  154.3927  135.2842  155.2123 H   0  0  0  0  0  0  0  0  0  0  0  0  # atno 10765 bound_to 10752
  141.0898  133.6635  156.3951 H   0  0  0  0  0  0  0  0  0  0  0  0  # atno 11005 bound_to 11000
  146.3431  139.9239  142.8763 LP  0  0  0  0  0  0  0  0  0  0  0  0  # atno 17320 bound_to 7965
  145.2288  140.9965  143.4003 LP  0  0  0  0  0  0  0  0  0  0  0  0  # atno 17321 bound_to 7965
  139.8767  143.7123  152.3161 LP  0  0  0  0  0  0  0  0  0  0  0  0  # atno 17342 bound_to 10162
  139.7391  144.7564  151.0681 LP  0  0  0  0  0  0  0  0  0  0  0  0  # atno 17343 bound_to 10162
  157.7188  130.9531  150.1356 LP  0  0  0  0  0  0  0  0  0  0  0  0  # atno 17370 bound_to 10713
  156.2203  130.3673  149.8564 LP  0  0  0  0  0  0  0  0  0  0  0  0  # atno 17371 bound_to 10713
  140.5279  134.6241  157.5340 LP  0  0  0  0  0  0  0  0  0  0  0  0  # atno 17394 bound_to 11000
  139.9722  134.7274  156.0020 LP  0  0  0  0  0  0  0  0  0  0  0  0  # atno 17395 bound_to 11000

$$$$
