AV-unprocessed.smi:993|AV-procd|sdf|4338|dock5
  -GOLD-   22720 2233D 1   1.00000     0.00000
 Structure written by MMmdl.
 30 31  0  0  0  0  0  0  0  0  3 V2000
  152.5006  138.4527  157.7409 C   0  0  0  0  0  0  0  0  0  0  0  0
  151.9315  139.8193  157.4020 C   0  0  0  0  0  0  0  0  0  0  0  0
  152.1019  140.8128  158.3778 N   0  0  0  0  0  0  0  0  0  0  0  0
  151.6367  142.0083  158.1784 C   0  0  0  0  0  0  0  0  0  0  0  0
  151.7904  143.0164  159.1310 N   0  0  0  0  0  0  0  0  0  0  0  0
  151.3318  144.3895  158.9587 C   0  0  0  0  0  0  0  0  0  0  0  0
  151.9559  145.1977  160.0963 C   0  0  0  0  0  0  0  0  0  0  0  0
  152.1067  144.1671  161.2070 C   0  0  0  0  0  0  0  0  0  0  0  0
  152.4117  142.8768  160.4450 C   0  0  0  0  0  0  0  0  0  0  0  0
  150.9617  142.3630  157.0210 N   0  5  0  0  0  0  0  0  0  0  0  0
  150.7714  141.4516  156.0243 C   0  0  0  0  0  0  0  0  0  0  0  0
  150.1902  141.7449  154.9799 O   0  0  0  0  0  0  0  0  0  0  0  0
  151.2850  140.0855  156.2317 C   0  0  0  0  0  0  0  0  0  0  0  0
  151.0579  139.0311  155.1440 C   0  0  0  0  0  0  0  0  0  0  0  0
  152.3157  138.2837  154.6829 C   0  0  0  0  0  0  0  0  0  0  0  0
  152.1340  137.1578  154.1697 O   0  0  0  0  0  0  0  0  0  0  0  0
  153.4309  138.8276  154.8447 O   0  5  0  0  0  0  0  0  0  0  0  0
  151.7004  137.7182  157.8309 H   0  0  0  0  0  0  0  0  0  0  0  0
  153.0447  138.4746  158.6857 H   0  0  0  0  0  0  0  0  0  0  0  0
  153.1919  138.1217  156.9658 H   0  0  0  0  0  0  0  0  0  0  0  0
  151.6147  144.7913  157.9850 H   0  0  0  0  0  0  0  0  0  0  0  0
  150.2435  144.4054  159.0290 H   0  0  0  0  0  0  0  0  0  0  0  0
  152.9401  145.5591  159.7949 H   0  0  0  0  0  0  0  0  0  0  0  0
  151.3530  146.0581  160.3875 H   0  0  0  0  0  0  0  0  0  0  0  0
  152.8801  144.4256  161.9305 H   0  0  0  0  0  0  0  0  0  0  0  0
  151.1619  144.0641  161.7423 H   0  0  0  0  0  0  0  0  0  0  0  0
  152.0353  142.0043  160.9802 H   0  0  0  0  0  0  0  0  0  0  0  0
  153.4874  142.7548  160.3121 H   0  0  0  0  0  0  0  0  0  0  0  0
  150.3474  138.2924  155.5149 H   0  0  0  0  0  0  0  0  0  0  0  0
  150.5744  139.4710  154.2714 H   0  0  0  0  0  0  0  0  0  0  0  0
  1  2  1  0  0  0  0
  1 18  1  0  0  0  0
  1 19  1  0  0  0  0
  1 20  1  0  0  0  0
  2 13  2  0  0  0  0
  2  3  1  0  0  0  0
  3  4  2  0  0  0  0
  4  5  1  0  0  0  0
  4 10  1  0  0  0  0
  5  9  1  0  0  0  0
  5  6  1  0  0  0  0
  6  7  1  0  0  0  0
  6 21  1  0  0  0  0
  6 22  1  0  0  0  0
  7  8  1  0  0  0  0
  7 23  1  0  0  0  0
  7 24  1  0  0  0  0
  8  9  1  0  0  0  0
  8 25  1  0  0  0  0
  8 26  1  0  0  0  0
  9 27  1  0  0  0  0
  9 28  1  0  0  0  0
 10 11  1  0  0  0  0
 11 12  2  0  0  0  0
 11 13  1  0  0  0  0
 13 14  1  0  0  0  0
 14 15  1  0  0  0  0
 14 29  1  0  0  0  0
 14 30  1  0  0  0  0
 15 16  2  0  0  0  0
 15 17  1  0  0  0  0
M  CHG  1  10  -1
M  CHG  1  17  -1
M  END
> <s_m_source_file>
AV-unprocessed.smi

> <i_m_source_file_index>
993

> <i_lp_mmshare_version>
43012

> <i_f3d_flags>
0

> <s_epik_input>
W0NIMl0xW0NIMl1bQ0gyXVtDSDJdTjFjKG5jMltDSDNdKVtuSF1jKD1PKWMyW0NIMl1DKD1PKVtPSF0=

> <s_epik_cmdline>
J2VwaWtfcHl0aG9uJywgJy1waCcsICc3LjAnLCAnLXRuJywgJzgnLCAnLW1hJywgJzIwMCcsICctbWV0YWxfYmluZGluZycsICctaW1hZScsICc8aW5maWxlLm1hZT4nLCAnLW9tYWUnLCAnPG91dGZpbGUubWFlPic=

> <r_lp_tautomer_probability>
0.878553

> <r_epik_Ionization_Penalty>
9.99622

> <r_epik_Ionization_Penalty_Charging>
0.001774

> <r_epik_Ionization_Penalty_Neutral>
9.99445

> <r_epik_State_Penalty>
6.17728

> <r_epik_Charging_Adjusted_Penalty>
6.17906

> <i_epik_Tot_Q>
-2

> <i_epik_Tot_abs_Q>
2

> <r_epik_Metal_State_Penalty>
2.31379

> <b_epik_Metal_Only>
1

> <s_lp_Force_Field>
OPLS_2005

> <r_lp_Energy>
32.9743

> <b_lp_Chiralities_Consistent>
1

> <s_lp_Variant>
AV-unprocessed.smi:993-4

> <Gold.Version>
5.8.1

> <Gold.Id.Protein>
6NUR|6NUR_protein|mol2

> <Gold.PLP.Fitness>
49.0639

> <Gold.PLP.PLP>
-38.1197

> <Gold.PLP.part.hbond>
-3.0000

> <Gold.PLP.part.metal>
0.0000

> <Gold.PLP.part.buried>
-6.1388

> <Gold.PLP.part.nonpolar>
-30.9006

> <Gold.PLP.part.repulsive>
0.9344

> <Gold.PLP.ligand.clash>
0.0000

> <Gold.PLP.ligand.torsion>
0.3917

> <Gold.PLP.Chemscore.Hbond>
3.9090

> <Gold.PLP.Chemscore.CHOScore>
0.0000

> <Gold.PLP.Chemscore.Metal>
0.0000

> <Gold.Chemscore.Hbonds>
donor molecule, donor type, donor heavy atom, donor atom, acceptor molecule, acceptor atom, score
      P1  H  7989  7998       L1    12  0.18
      P1  H  7997  8009       L1    17  2.00
      P1  H 10752 10763       L1    16  1.89

> <Gold.PLP.Chemscore.Internal.Correction>
0.0005

> <Gold.Rescore>
     Score         DG    S(hbond)    S(metal)    S(lipo)     H(rot)  DE(clash)    DE(int)     intcor
     15.74     -16.22       1.87        0.00      70.93       1.49       0.17       0.30       ----

> <Gold.Chemscore.Fitness>
15.7425

> <Gold.Chemscore.DG>
-16.2161

> <Gold.Chemscore.ZeroCoef>
-5.4800

> <Gold.Chemscore.Hbond>
1.8740

> <Gold.Chemscore.Metal>
0.0000

> <Gold.Chemscore.Lipo>
70.9334

> <Gold.Chemscore.Internal_Hbond>
0.0000

> <Gold.Chemscore.DEClash>
0.1720

> <Gold.Chemscore.DEInternal>
0.3016

> <Gold.Chemscore.Rot>
1.4931

> <Gold.Chemscore.Internal.Correction>
   9.000000E+99

> <Gold.Chemscore.Hbonds>
donor molecule, donor type, donor heavy atom, donor atom, acceptor molecule, acceptor atom, score
      P1  H  7989  7998       L1    12  0.04
      P1  H  7997  8009       L1    17  0.92
      P1  H 10752 10763       L1    16  0.91

> <Gold.Chemscore.Hbond.Weighted>
-6.2591

> <Gold.Chemscore.Metal.Weighted>
-0.0000

> <Gold.Chemscore.Lipo.Weighted>
-8.2992

> <Gold.Chemscore.Internal_Hbond.Weighted>
0.0000

> <Gold.Chemscore.DEClash.Weighted>
0.1720

> <Gold.Chemscore.DEInternal.Weighted>
0.3016

> <Gold.Chemscore.Rot.Weighted>
3.8222

> <Gold.Chemscore.Internal.Correction.Weighted>
   9.000000E+99

> <Gold.Protein.RotatedTorsions>
[ 6907 6896 6895 6894 ] final  -51.26 input  -60.11 | X-H torsion
[ 7974 7965 7964 7962 ] final -146.24 input  175.53 | X-H torsion
[ 8008 7997 7996 7995 ] final -121.25 input   59.86 | X-H torsion
[ 10167 10162 10161 10158 ] final  -20.59 input  -65.29 | X-H torsion
[ 10718 10713 10712 10709 ] final -117.40 input   66.30 | X-H torsion
[ 10763 10752 10751 10750 ] final   32.17 input  -60.55 | X-H torsion
[ 11005 11000 10999 10996 ] final   58.69 input  -57.11 | X-H torsion

> <Gold.Protein.ActiveResidues>
 VAL166  LYS551  ARG553  GLY616  TRP617  ASP618  TYR619  PRO620  LYS621  CYS622 
 ASP623  PHE694  ASN695  SER759  ASP760  ASP761  ALA762  ILE779  LEU786  VAL792 
 PHE793  MET794  SER795  GLU796  ALA797  LYS798  CYS799  TRP800  GLU811  SER814 

> <Gold.Protein.RotatedAtoms>
  150.8628  134.7984  159.7095 H   0  0  0  0  0  0  0  0  0  0  0  0  # atno 6907 bound_to 6896
  152.4659  134.5072  159.9752 H   0  0  0  0  0  0  0  0  0  0  0  0  # atno 6908 bound_to 6896
  151.5173  133.3435  159.2931 H   0  0  0  0  0  0  0  0  0  0  0  0  # atno 6909 bound_to 6896
  144.8173  140.5481  143.5602 H   0  0  0  0  0  0  0  0  0  0  0  0  # atno 7974 bound_to 7965
  155.1450  140.0402  157.2807 H   0  0  0  0  0  0  0  0  0  0  0  0  # atno 8008 bound_to 7997
  154.6445  140.2555  155.7257 H   0  0  0  0  0  0  0  0  0  0  0  0  # atno 8009 bound_to 7997
  156.2548  140.2849  156.0853 H   0  0  0  0  0  0  0  0  0  0  0  0  # atno 8010 bound_to 7997
  140.7277  143.4708  151.0250 H   0  0  0  0  0  0  0  0  0  0  0  0  # atno 10167 bound_to 10162
  156.1031  130.6188  150.9159 H   0  0  0  0  0  0  0  0  0  0  0  0  # atno 10718 bound_to 10713
  153.0276  135.6420  154.1313 H   0  0  0  0  0  0  0  0  0  0  0  0  # atno 10763 bound_to 10752
  154.1040  135.2857  155.3247 H   0  0  0  0  0  0  0  0  0  0  0  0  # atno 10764 bound_to 10752
  154.6379  135.5470  153.7818 H   0  0  0  0  0  0  0  0  0  0  0  0  # atno 10765 bound_to 10752
  140.0358  134.5945  155.9446 H   0  0  0  0  0  0  0  0  0  0  0  0  # atno 11005 bound_to 11000
  145.5186  139.1477  143.3565 LP  0  0  0  0  0  0  0  0  0  0  0  0  # atno 17320 bound_to 7965
  146.2476  140.5327  142.8907 LP  0  0  0  0  0  0  0  0  0  0  0  0  # atno 17321 bound_to 7965
  139.8400  143.7577  152.3180 LP  0  0  0  0  0  0  0  0  0  0  0  0  # atno 17342 bound_to 10162
  139.7722  144.7473  151.0208 LP  0  0  0  0  0  0  0  0  0  0  0  0  # atno 17343 bound_to 10162
  157.6204  131.0930  150.8633 LP  0  0  0  0  0  0  0  0  0  0  0  0  # atno 17370 bound_to 10713
  156.8757  130.5161  149.5294 LP  0  0  0  0  0  0  0  0  0  0  0  0  # atno 17371 bound_to 10713
  141.1857  133.6555  156.5207 LP  0  0  0  0  0  0  0  0  0  0  0  0  # atno 17394 bound_to 11000
  140.4149  134.7239  157.4857 LP  0  0  0  0  0  0  0  0  0  0  0  0  # atno 17395 bound_to 11000

$$$$
