#       Name:                AV-unprocessed.smi:1033
#       Creating user name   scv26
#       Creation time:       Fri Mar 27 02:51:52 2020


#       File generated by GOLD software.
#

@<TRIPOS>MOLECULE
AV-unprocessed.smi:1033
    62    64     1
SMALL
NO_CHARGES


@<TRIPOS>ATOM
      1 ****         0.8364   5.9129   1.5471 C.3            1 S1                 0.0000
      2 ****        -0.0669   4.9051   0.8578 C.ar           1 S1                 0.0000
      3 ****        -1.2208   4.4439   1.5305 C.ar           1 S1                 0.0000
      4 ****        -2.0872   3.5083   0.9245 C.ar           1 S1                 0.0000
      5 ****        -3.2518   2.9256   1.3940 N.2            1 S1                 0.0000
      6 ****        -3.5907   2.1424   0.3747 C.2            1 S1                 0.0000
      7 ****        -2.7758   2.1395  -0.6977 N.pl3          1 S1                 0.0000
      8 ****        -2.9346   1.3573  -1.9098 C.3            1 S1                 0.0000
      9 ****        -2.4120  -0.0844  -1.7534 C.3            1 S1                 0.0000
     10 ****        -2.6290  -0.7572  -2.9770 O.3            1 S1                 0.0000
     11 ****        -0.9094  -0.1629  -1.4013 C.3            1 S1                 0.0000
     12 ****        -0.4376  -1.5583  -1.2077 N.4            1 S1                 1.0000
     13 ****        -0.8431  -2.1465   0.0958 C.3            1 S1                 0.0000
     14 ****        -0.3786  -3.6125   0.2219 C.3            1 S1                 0.0000
     15 ****         1.0796  -3.7670  -0.0247 N.4            1 S1                 1.0000
     16 ****         1.9513  -3.3518   1.1079 C.3            1 S1                 0.0000
     17 ****         1.9945  -4.4055   2.2317 C.3            1 S1                 0.0000
     18 ****         2.8015  -3.9243   3.4444 C.3            1 S1                 0.0000
     19 ****         2.5991  -5.5832   1.7376 O.3            1 S1                 0.0000
     20 ****         1.4669  -3.1643  -1.3245 C.3            1 S1                 0.0000
     21 ****         1.0240  -1.6927  -1.4268 C.3            1 S1                 0.0000
     22 ****        -1.7638   3.0409  -0.3830 C.ar           1 S1                 0.0000
     23 ****        -0.6187   3.4926  -1.0631 C.ar           1 S1                 0.0000
     24 ****         0.2352   4.4290  -0.4435 C.ar           1 S1                 0.0000
     25 ****         1.4669   4.9147  -1.1871 C.3            1 S1                 0.0000
     26 ****         0.4531   6.1835   2.5315 H              1 S1                 0.0000
     27 ****         0.9129   6.8256   0.9558 H              1 S1                 0.0000
     28 ****         1.8371   5.5011   1.6800 H              1 S1                 0.0000
     29 ****        -1.4513   4.8071   2.5216 H              1 S1                 0.0000
     30 ****        -4.4790   1.5285   0.4118 H              1 S1                 0.0000
     31 ****        -3.9936   1.3498  -2.1728 H              1 S1                 0.0000
     32 ****        -2.4169   1.8675  -2.7232 H              1 S1                 0.0000
     33 ****        -3.0069  -0.5820  -0.9881 H              1 S1                 0.0000
     34 ****        -2.2346  -0.2550  -3.6745 H              1 S1                 0.0000
     35 ****        -0.3441   0.3098  -2.2061 H              1 S1                 0.0000
     36 ****        -0.6852   0.4071  -0.4992 H              1 S1                 0.0000
     37 ****        -0.4360  -1.5459   0.9102 H              1 S1                 0.0000
     38 ****        -1.9265  -2.1140   0.2032 H              1 S1                 0.0000
     39 ****        -0.6559  -4.0148   1.1955 H              1 S1                 0.0000
     40 ****        -0.9094  -4.2187  -0.5136 H              1 S1                 0.0000
     41 ****         2.9695  -3.1916   0.7493 H              1 S1                 0.0000
     42 ****         1.6197  -2.3910   1.5017 H              1 S1                 0.0000
     43 ****         0.9878  -4.6538   2.5662 H              1 S1                 0.0000
     44 ****         2.3590  -3.0266   3.8773 H              1 S1                 0.0000
     45 ****         3.8309  -3.6886   3.1720 H              1 S1                 0.0000
     46 ****         2.8297  -4.6848   4.2256 H              1 S1                 0.0000
     47 ****         3.5125  -5.4090   1.5666 H              1 S1                 0.0000
     48 ****         2.5420  -3.2559  -1.4832 H              1 S1                 0.0000
     49 ****         0.9951  -3.7397  -2.1222 H              1 S1                 0.0000
     50 ****         1.2829  -1.3108  -2.4151 H              1 S1                 0.0000
     51 ****         1.5617  -1.0801  -0.7013 H              1 S1                 0.0000
     52 ****        -0.3993   3.1238  -2.0540 H              1 S1                 0.0000
     53 ****         1.5646   4.4273  -2.1576 H              1 S1                 0.0000
     54 ****         2.3696   4.7024  -0.6140 H              1 S1                 0.0000
     55 ****         1.4093   5.9900  -1.3574 H              1 S1                 0.0000
     56 ****         1.2501  -4.7588  -0.1234 H              1 S1                 0.0000
     57 ****        -0.8829  -2.1057  -1.9313 H              1 S1                 0.0000
     58 ****        -3.7161   3.0588   2.2696 LP             1 S1                 0.0000
     59 ****        -3.6113  -0.8474  -3.1415 LP             1 S1                 0.0000
     60 ****        -2.2125  -1.6655  -2.9397 LP             1 S1                 0.0000
     61 ****         2.1464  -5.8635   0.8911 LP             1 S1                 0.0000
     62 ****         2.5177  -6.3128   2.4165 LP             1 S1                 0.0000
@<TRIPOS>BOND
    1    1    2 1     
    2    1   26 1     
    3    1   27 1     
    4    1   28 1     
    5    2   24 ar    
    6    2    3 ar    
    7    3    4 ar    
    8    3   29 1     
    9    4   22 ar    
   10    4    5 1     
   11    5    6 2     
   12    6    7 1     
   13    6   30 1     
   14    7    8 1     
   15    7   22 1     
   16    8    9 1     
   17    8   31 1     
   18    8   32 1     
   19    9   10 1     
   20    9   11 1     
   21    9   33 1     
   22   10   34 1     
   23   11   12 1     
   24   11   35 1     
   25   11   36 1     
   26   12   21 1     
   27   12   13 1     
   28   12   57 1     
   29   13   14 1     
   30   13   37 1     
   31   13   38 1     
   32   14   15 1     
   33   14   39 1     
   34   14   40 1     
   35   15   16 1     
   36   15   20 1     
   37   15   56 1     
   38   16   17 1     
   39   16   41 1     
   40   16   42 1     
   41   17   18 1     
   42   17   19 1     
   43   17   43 1     
   44   18   44 1     
   45   18   45 1     
   46   18   46 1     
   47   19   47 1     
   48   20   21 1     
   49   20   48 1     
   50   20   49 1     
   51   21   50 1     
   52   21   51 1     
   53   22   23 ar    
   54   23   24 ar    
   55   23   52 1     
   56   24   25 1     
   57   25   53 1     
   58   25   54 1     
   59   25   55 1     
   60    5   58 1     
   61   10   59 1     
   62   10   60 1     
   63   19   61 1     
   64   19   62 1     
@<TRIPOS>SUBSTRUCTURE
      1 S1             1
@<TRIPOS>SET
LONE_PAIRS      STATIC     ATOMS    <user>   **** ""
5 58 59 60 61 62
DONOR_HYDROGENS      STATIC     ATOMS    <user>   **** ""
4 34 57 56 47
ATOM$BLUE        STATIC     ATOMS    COLORGROUP SYSTEM
5 58 59 60 61 62
ATOM$RED        STATIC     ATOMS    COLORGROUP SYSTEM
4 34 57 56 47
