#       Name:                AV-unprocessed.smi:1701
#       Creating user name   scv26
#       Creation time:       Fri Mar 27 08:00:23 2020


#       File generated by GOLD software.
#

@<TRIPOS>MOLECULE
AV-unprocessed.smi:1701
    57    59     1
SMALL
NO_CHARGES


@<TRIPOS>ATOM
      1 ****        -5.9957   0.3358   2.0064 C.3            1 S1                 0.0000
      2 ****        -5.7654  -0.6056   0.8153 C.3            1 S1                 0.0000
      3 ****        -5.1351   0.0544  -0.3279 N.pl3          1 S1                 0.0000
      4 ****        -5.9720   0.7519  -1.3070 C.3            1 S1                 0.0000
      5 ****        -6.0773   2.2626  -1.0460 C.3            1 S1                 0.0000
      6 ****        -3.7262   0.1836  -0.3878 C.ar           1 S1                 0.0000
      7 ****        -2.8549  -0.2337   0.6497 C.ar           1 S1                 0.0000
      8 ****        -1.4621  -0.0670   0.5100 C.ar           1 S1                 0.0000
      9 ****        -0.9366   0.5059  -0.6663 C.ar           1 S1                 0.0000
     10 ****         0.4727   0.6669  -0.7511 N.am           1 S1                 0.0000
     11 ****         1.2336   0.8851  -1.8421 C.2            1 S1                 0.0000
     12 ****         0.8052   0.9605  -2.9909 O.2            1 S1                 0.0000
     13 ****         2.5502   0.9851  -1.5842 N.am           1 S1                 0.0000
     14 ****         3.6434   1.2183  -2.5315 C.3            1 S1                 0.0000
     15 ****         5.0153   0.9102  -1.9448 C.3            1 S1                 0.0000
     16 ****         5.9694   1.6521  -2.8857 C.3            1 S1                 0.0000
     17 ****         5.2109   2.7949  -3.4505 N.4            1 S1                 1.0000
     18 ****         5.8466   4.1182  -3.2127 C.3            1 S1                 0.0000
     19 ****         4.8528   5.2596  -3.4755 C.3            1 S1                 0.0000
     20 ****         3.6428   5.1856  -2.5250 C.3            1 S1                 0.0000
     21 ****         3.4110   3.7656  -1.9742 C.3            1 S1                 0.0000
     22 ****         3.7914   2.6778  -3.0083 C.3            1 S1                 0.0000
     23 ****        -1.8440   0.9146  -1.6717 C.ar           1 S1                 0.0000
     24 ****        -3.1707   0.7370  -1.4944 N.pl3          1 S1                 1.0000
     25 ****        -6.4130  -0.2128   2.8509 H              1 S1                 0.0000
     26 ****        -6.6986   1.1302   1.7587 H              1 S1                 0.0000
     27 ****        -5.0671   0.7992   2.3400 H              1 S1                 0.0000
     28 ****        -5.1789  -1.4718   1.1210 H              1 S1                 0.0000
     29 ****        -6.7255  -1.0130   0.4972 H              1 S1                 0.0000
     30 ****        -5.5973   0.5695  -2.3147 H              1 S1                 0.0000
     31 ****        -6.9726   0.3194  -1.2877 H              1 S1                 0.0000
     32 ****        -6.7018   2.7381  -1.8026 H              1 S1                 0.0000
     33 ****        -5.1007   2.7459  -1.0773 H              1 S1                 0.0000
     34 ****        -6.5232   2.4758  -0.0755 H              1 S1                 0.0000
     35 ****        -3.2277  -0.6728   1.5623 H              1 S1                 0.0000
     36 ****        -0.8034  -0.3819   1.3064 H              1 S1                 0.0000
     37 ****         0.9723   0.5593   0.1189 H              1 S1                 0.0000
     38 ****         2.8263   0.8552  -0.6211 H              1 S1                 0.0000
     39 ****         3.5098   0.5714  -3.4012 H              1 S1                 0.0000
     40 ****         5.0981   1.3211  -0.9373 H              1 S1                 0.0000
     41 ****         5.2248  -0.1586  -1.8897 H              1 S1                 0.0000
     42 ****         6.8859   1.9522  -2.3758 H              1 S1                 0.0000
     43 ****         6.2571   1.0022  -3.7127 H              1 S1                 0.0000
     44 ****         6.2054   4.1845  -2.1840 H              1 S1                 0.0000
     45 ****         6.7203   4.2139  -3.8581 H              1 S1                 0.0000
     46 ****         5.3465   6.2269  -3.3759 H              1 S1                 0.0000
     47 ****         4.5092   5.1988  -4.5091 H              1 S1                 0.0000
     48 ****         3.7813   5.8706  -1.6878 H              1 S1                 0.0000
     49 ****         2.7540   5.5316  -3.0540 H              1 S1                 0.0000
     50 ****         4.0061   3.6274  -1.0703 H              1 S1                 0.0000
     51 ****         2.3692   3.6720  -1.6670 H              1 S1                 0.0000
     52 ****         3.1585   2.8266  -3.8844 H              1 S1                 0.0000
     53 ****        -1.5733   1.3871  -2.6039 H              1 S1                 0.0000
     54 ****         5.2006   2.6582  -4.4515 H              1 S1                 0.0000
     55 ****        -3.7949   1.0438  -2.2408 H              1 S1                 0.0000
     56 ****        -0.1737   0.8574  -3.1673 LP             1 S1                 0.0000
     57 ****         1.4354   1.1249  -3.7498 LP             1 S1                 0.0000
@<TRIPOS>BOND
    1    1    2 1     
    2    1   25 1     
    3    1   26 1     
    4    1   27 1     
    5    2    3 1     
    6    2   28 1     
    7    2   29 1     
    8    3    4 1     
    9    3    6 1     
   10    4    5 1     
   11    4   30 1     
   12    4   31 1     
   13    5   32 1     
   14    5   33 1     
   15    5   34 1     
   16    6   24 ar    
   17    6    7 ar    
   18    7    8 ar    
   19    7   35 1     
   20    8    9 ar    
   21    8   36 1     
   22    9   10 1     
   23    9   23 ar    
   24   10   11 am    
   25   10   37 1     
   26   11   12 2     
   27   11   13 am    
   28   13   14 1     
   29   13   38 1     
   30   14   22 1     
   31   14   15 1     
   32   14   39 1     
   33   15   16 1     
   34   15   40 1     
   35   15   41 1     
   36   16   17 1     
   37   16   42 1     
   38   16   43 1     
   39   17   22 1     
   40   17   18 1     
   41   17   54 1     
   42   18   19 1     
   43   18   44 1     
   44   18   45 1     
   45   19   20 1     
   46   19   46 1     
   47   19   47 1     
   48   20   21 1     
   49   20   48 1     
   50   20   49 1     
   51   21   22 1     
   52   21   50 1     
   53   21   51 1     
   54   22   52 1     
   55   23   24 ar    
   56   23   53 1     
   57   24   55 1     
   58   12   56 1     
   59   12   57 1     
@<TRIPOS>SUBSTRUCTURE
      1 S1             1
@<TRIPOS>SET
LONE_PAIRS      STATIC     ATOMS    <user>   **** ""
2 56 57
DONOR_HYDROGENS      STATIC     ATOMS    <user>   **** ""
4 37 38 54 55
ATOM$BLUE        STATIC     ATOMS    COLORGROUP SYSTEM
2 56 57
ATOM$RED        STATIC     ATOMS    COLORGROUP SYSTEM
4 37 38 54 55
