AV-unprocessed.smi:160|AV-procd|sdf|1372|dock7
  -GOLD-   2262019 93D 1   1.00000     0.00000
 Structure written by MMmdl.
 28 29  0  0  0  0  0  0  0  0  2 V2000
  153.4448  136.2485  159.3725 N   0  5  0  0  0  0  0  0  0  0  0  0
  153.2800  136.6726  158.1004 C   0  0  0  0  0  0  0  0  0  0  0  0
  153.4936  136.0167  157.0813 O   0  0  0  0  0  0  0  0  0  0  0  0
  152.7846  138.0941  157.9737 C   0  0  0  0  0  0  0  0  0  0  0  0
  152.6740  138.8953  159.0768 N   0  0  0  0  0  0  0  0  0  0  0  0
  152.2162  139.9961  158.4954 C   0  0  0  0  0  0  0  0  0  0  0  0
  152.0714  139.8953  157.1694 N   0  0  0  0  0  0  0  0  0  0  0  0
  151.5647  140.8679  156.1508 C   0  0  1  0  0  0  0  0  0  0  0  0
  151.0124  140.1404  155.0947 O   0  0  0  0  0  0  0  0  0  0  0  0
  149.6113  139.9989  155.3012 C   0  0  2  0  0  0  0  0  0  0  0  0
  148.8942  139.5721  154.0076 C   0  0  0  0  0  0  0  0  0  0  0  0
  149.6103  138.5331  153.3743 O   0  0  0  0  0  0  0  0  0  0  0  0
  149.2377  141.3847  155.8426 C   0  0  2  0  0  0  0  0  0  0  0  0
  149.0856  142.3104  154.7781 O   0  0  0  0  0  0  0  0  0  0  0  0
  150.4249  141.7172  156.7482 C   0  0  2  0  0  0  0  0  0  0  0  0
  150.7179  143.1017  156.7859 O   0  0  0  0  0  0  0  0  0  0  0  0
  152.4281  138.6397  156.8064 N   0  0  0  0  0  0  0  0  0  0  0  0
  152.4462  141.4287  155.8371 H   0  0  0  0  0  0  0  0  0  0  0  0
  149.4344  139.2625  156.0879 H   0  0  0  0  0  0  0  0  0  0  0  0
  148.3029  141.3594  156.4037 H   0  0  0  0  0  0  0  0  0  0  0  0
  150.2067  141.3781  157.7623 H   0  0  0  0  0  0  0  0  0  0  0  0
  153.4869  136.9515  160.1198 H   0  0  0  0  0  0  0  0  0  0  0  0
  151.9820  140.8930  159.0499 H   0  0  0  0  0  0  0  0  0  0  0  0
  147.8998  139.1886  154.2387 H   0  0  0  0  0  0  0  0  0  0  0  0
  148.7692  140.4133  153.3250 H   0  0  0  0  0  0  0  0  0  0  0  0
  149.7232  138.7587  152.4634 H   0  0  0  0  0  0  0  0  0  0  0  0
  149.1883  143.1824  155.1281 H   0  0  0  0  0  0  0  0  0  0  0  0
  150.0540  143.5590  156.2917 H   0  0  0  0  0  0  0  0  0  0  0  0
  1  2  1  0  0  0  0
  1 22  1  0  0  0  0
  2  3  2  0  0  0  0
  2  4  1  0  0  0  0
  4 17  2  0  0  0  0
  4  5  1  0  0  0  0
  5  6  2  0  0  0  0
  6  7  1  0  0  0  0
  6 23  1  0  0  0  0
  7  8  1  0  0  0  0
  7 17  1  0  0  0  0
  8 18  1  0  0  0  0
  8 15  1  0  0  0  0
  8  9  1  0  0  0  0
  9 10  1  0  0  0  0
 10 19  1  0  0  0  0
 10 11  1  0  0  0  0
 10 13  1  0  0  0  0
 11 12  1  0  0  0  0
 11 24  1  0  0  0  0
 11 25  1  0  0  0  0
 12 26  1  0  0  0  0
 13 20  1  0  0  0  0
 13 14  1  0  0  0  0
 13 15  1  0  0  0  0
 14 27  1  0  0  0  0
 15 21  1  0  0  0  0
 15 16  1  0  0  0  0
 16 28  1  0  0  0  0
M  CHG  1   1  -1
M  END
> <s_m_source_file>
AV-unprocessed.smi

> <i_m_source_file_index>
160

> <i_lp_mmshare_version>
43012

> <i_f3d_flags>
0

> <s_epik_input>
W05IMl1DKD1PKWMxbltjSF1uKG4xKVtDQEBIXTJPW0NASF0oW0NIMl1bT0hdKVtDQEBIXShbT0hdKVtDQEhdMltPSF0=

> <s_epik_cmdline>
J2VwaWtfcHl0aG9uJywgJy1waCcsICc3LjAnLCAnLXRuJywgJzgnLCAnLW1hJywgJzIwMCcsICctbWV0YWxfYmluZGluZycsICctaW1hZScsICc8aW5maWxlLm1hZT4nLCAnLW9tYWUnLCAnPG91dGZpbGUubWFlPic=

> <r_lp_tautomer_probability>
1

> <r_epik_Ionization_Penalty>
6.6993

> <r_epik_Ionization_Penalty_Charging>
6.6993

> <r_epik_Ionization_Penalty_Neutral>
6.01698e-06

> <r_epik_State_Penalty>
6.69929

> <r_epik_Charging_Adjusted_Penalty>
13.3986

> <i_epik_Tot_Q>
-1

> <i_epik_Tot_abs_Q>
1

> <r_epik_Metal_State_Penalty>
2.62798

> <b_epik_Metal_Only>
1

> <s_epik_Chemistry_Notes>
This compound contains an acetal/aminal-like group ( X-CH(R)-Y where X, Y are N, S, or O) that may be acid/base labile, releasing an aldehyde.

> <s_lp_Force_Field>
OPLS_2005

> <r_lp_Energy>
45.7221

> <b_lp_Chiralities_Consistent>
1

> <s_lp_Variant>
AV-unprocessed.smi:160-30

> <Gold.Version>
5.8.1

> <Gold.Id.Protein>
6NUR|6NUR_protein|mol2

> <Gold.PLP.Fitness>
43.8270

> <Gold.PLP.PLP>
-24.5389

> <Gold.PLP.part.hbond>
-7.9480

> <Gold.PLP.part.metal>
0.0000

> <Gold.PLP.part.buried>
-4.1113

> <Gold.PLP.part.nonpolar>
-12.6689

> <Gold.PLP.part.repulsive>
0.0401

> <Gold.PLP.ligand.clash>
0.0000

> <Gold.PLP.ligand.torsion>
0.8593

> <Gold.PLP.Chemscore.Hbond>
6.9920

> <Gold.PLP.Chemscore.CHOScore>
0.0000

> <Gold.PLP.Chemscore.Metal>
0.0000

> <Gold.Chemscore.Hbonds>
donor molecule, donor type, donor heavy atom, donor atom, acceptor molecule, acceptor atom, score
      L1  H    12    26       P1  7957  0.99
      L1  H    14    27       P1  8028  1.00
      L1  H    16    28       P1  8028  1.00
      P1  H  6896  6908       L1     1  1.95
      P1  H  7989  7998       L1     9  1.00
      P1  H 10752 10764       L1     3  1.00

> <Gold.PLP.Chemscore.Internal.Correction>
0.0307

> <Gold.Rescore>
     Score         DG    S(hbond)    S(metal)    S(lipo)     H(rot)  DE(clash)    DE(int)     intcor
     14.83     -15.78       5.41        0.00      21.85       4.04       0.03       0.92       ----

> <Gold.Chemscore.Fitness>
14.8260

> <Gold.Chemscore.DG>
-15.7770

> <Gold.Chemscore.ZeroCoef>
-5.4800

> <Gold.Chemscore.Hbond>
5.4144

> <Gold.Chemscore.Metal>
0.0000

> <Gold.Chemscore.Lipo>
21.8458

> <Gold.Chemscore.Internal_Hbond>
0.0000

> <Gold.Chemscore.DEClash>
0.0323

> <Gold.Chemscore.DEInternal>
0.9188

> <Gold.Chemscore.Rot>
4.0403

> <Gold.Chemscore.Internal.Correction>
   9.000000E+99

> <Gold.Chemscore.Hbonds>
donor molecule, donor type, donor heavy atom, donor atom, acceptor molecule, acceptor atom, score
      L1  H    12    26       P1  7957  0.52
      L1  H    14    27       P1  8028  0.99
      L1  H    16    28       P1  8028  1.00
      P1  H  6896  6908       L1     1  0.66
      P1  H  7989  7998       L1     9  0.64
      P1  H 10752 10764       L1     3  0.95

> <Gold.Chemscore.Hbond.Weighted>
-18.0841

> <Gold.Chemscore.Metal.Weighted>
-0.0000

> <Gold.Chemscore.Lipo.Weighted>
-2.5560

> <Gold.Chemscore.Internal_Hbond.Weighted>
0.0000

> <Gold.Chemscore.DEClash.Weighted>
0.0323

> <Gold.Chemscore.DEInternal.Weighted>
0.9188

> <Gold.Chemscore.Rot.Weighted>
10.3431

> <Gold.Chemscore.Internal.Correction.Weighted>
   9.000000E+99

> <Gold.Protein.RotatedTorsions>
[ 6907 6896 6895 6894 ] final  -60.82 input  -60.11 | X-H torsion
[ 7974 7965 7964 7962 ] final  151.26 input  175.53 | X-H torsion
[ 8008 7997 7996 7995 ] final -167.74 input   59.86 | X-H torsion
[ 10167 10162 10161 10158 ] final  -16.29 input  -65.29 | X-H torsion
[ 10718 10713 10712 10709 ] final  -49.79 input   66.30 | X-H torsion
[ 10763 10752 10751 10750 ] final   28.35 input  -60.55 | X-H torsion
[ 11005 11000 10999 10996 ] final -155.47 input  -57.11 | X-H torsion

> <Gold.Protein.ActiveResidues>
 VAL166  LYS551  ARG553  GLY616  TRP617  ASP618  TYR619  PRO620  LYS621  CYS622 
 ASP623  PHE694  ASN695  SER759  ASP760  ASP761  ALA762  ILE779  LEU786  VAL792 
 PHE793  MET794  SER795  GLU796  ALA797  LYS798  CYS799  TRP800  GLU811  SER814 

> <Gold.Protein.RotatedAtoms>
  150.7828  134.6786  159.6431 H   0  0  0  0  0  0  0  0  0  0  0  0  # atno 6907 bound_to 6896
  152.3917  134.6427  160.0114 H   0  0  0  0  0  0  0  0  0  0  0  0  # atno 6908 bound_to 6896
  151.6725  133.3277  159.3236 H   0  0  0  0  0  0  0  0  0  0  0  0  # atno 6909 bound_to 6896
  144.8305  139.6514  143.6061 H   0  0  0  0  0  0  0  0  0  0  0  0  # atno 7974 bound_to 7965
  155.8818  140.1010  157.1480 H   0  0  0  0  0  0  0  0  0  0  0  0  # atno 8008 bound_to 7997
  154.4006  140.1327  156.4269 H   0  0  0  0  0  0  0  0  0  0  0  0  # atno 8009 bound_to 7997
  155.7634  140.3462  155.5212 H   0  0  0  0  0  0  0  0  0  0  0  0  # atno 8010 bound_to 7997
  140.7231  143.5131  150.9725 H   0  0  0  0  0  0  0  0  0  0  0  0  # atno 10167 bound_to 10162
  156.1861  130.4151  149.9438 H   0  0  0  0  0  0  0  0  0  0  0  0  # atno 10718 bound_to 10713
  153.0497  135.6515  154.0724 H   0  0  0  0  0  0  0  0  0  0  0  0  # atno 10763 bound_to 10752
  154.0415  135.2903  155.3356 H   0  0  0  0  0  0  0  0  0  0  0  0  # atno 10764 bound_to 10752
  154.6778  135.5331  153.8289 H   0  0  0  0  0  0  0  0  0  0  0  0  # atno 10765 bound_to 10752
  140.6861  134.4092  157.5223 H   0  0  0  0  0  0  0  0  0  0  0  0  # atno 11005 bound_to 11000
  146.2608  139.6406  142.9363 LP  0  0  0  0  0  0  0  0  0  0  0  0  # atno 17320 bound_to 7965
  145.4906  141.0438  143.2595 LP  0  0  0  0  0  0  0  0  0  0  0  0  # atno 17321 bound_to 7965
  139.8845  143.7030  152.3153 LP  0  0  0  0  0  0  0  0  0  0  0  0  # atno 17342 bound_to 10162
  139.7324  144.7579  151.0781 LP  0  0  0  0  0  0  0  0  0  0  0  0  # atno 17343 bound_to 10162
  156.7193  130.9000  151.3616 LP  0  0  0  0  0  0  0  0  0  0  0  0  # atno 17370 bound_to 10713
  157.6899  130.9223  150.0487 LP  0  0  0  0  0  0  0  0  0  0  0  0  # atno 17371 bound_to 10713
  139.8937  134.8724  156.2210 LP  0  0  0  0  0  0  0  0  0  0  0  0  # atno 17394 bound_to 11000
  141.0279  133.7005  156.1379 LP  0  0  0  0  0  0  0  0  0  0  0  0  # atno 17395 bound_to 11000

$$$$
