AV-unprocessed.smi:34|AV-procd|sdf|215|dock5
  -GOLD-   2262015523D 1   1.00000     0.00000
 Structure written by MMmdl.
 55 59  0  0  0  0  0  0  0  0  1 V2000
  150.3531  142.2418  156.1084 O   0  0  0  0  0  0  0  0  0  0  0  0
  151.0470  141.7773  157.0134 C   0  0  0  0  0  0  0  0  0  0  0  0
  151.3746  140.3646  157.0892 N   0  0  0  0  0  0  0  0  0  0  0  0
  151.0321  139.3785  156.2277 C   0  0  0  0  0  0  0  0  0  0  0  0
  150.9438  139.5783  154.8866 N   0  0  0  0  0  0  0  0  0  0  0  0
  150.5837  138.5760  154.0805 C   0  0  0  0  0  0  0  0  0  0  0  0
  150.2704  137.3196  154.4026 N   0  0  0  0  0  0  0  0  0  0  0  0
  150.3639  137.1062  155.7466 C   0  0  0  0  0  0  0  0  0  0  0  0
  150.7403  138.0784  156.7155 C   0  0  0  0  0  0  0  0  0  0  0  0
  150.7316  137.5099  157.9819 N   0  0  0  0  0  0  0  0  0  0  0  0
  150.3646  136.2752  157.7696 C   0  0  0  0  0  0  0  0  0  0  0  0
  150.1110  135.9479  156.4557 N   0  0  0  0  0  0  0  0  0  0  0  0
  149.6610  134.6205  155.9314 C   0  0  2  0  0  0  0  0  0  0  0  0
  150.5568  133.6379  156.3699 O   0  0  0  0  0  0  0  0  0  0  0  0
  151.1825  133.0121  155.2505 C   0  0  1  0  0  0  0  0  0  0  0  0
  151.5540  131.5578  155.5671 C   0  0  0  0  0  0  0  0  0  0  0  0
  151.2518  130.7465  154.4434 O   0  0  0  0  0  0  0  0  0  0  0  0
  151.6073  129.4477  154.4309 C   0  0  0  0  0  0  0  0  0  0  0  0
  152.5642  128.9962  155.0633 O   0  0  0  0  0  0  0  0  0  0  0  0
  150.7177  128.6117  153.5735 C   0  0  0  0  0  0  0  0  0  0  0  0
  149.6207  129.2160  152.9159 C   0  0  0  0  0  0  0  0  0  0  0  0
  148.7645  128.4526  152.0985 C   0  0  0  0  0  0  0  0  0  0  0  0
  148.9947  127.0750  151.9286 C   0  0  0  0  0  0  0  0  0  0  0  0
  150.0828  126.4618  152.5766 C   0  0  0  0  0  0  0  0  0  0  0  0
  150.9404  127.2237  153.3942 C   0  0  0  0  0  0  0  0  0  0  0  0
  150.1661  133.1912  154.1236 C   0  0  1  0  0  0  0  0  0  0  0  0
  149.1805  132.3013  154.2785 F   0  0  0  0  0  0  0  0  0  0  0  0
  149.6673  134.5995  154.3963 C   0  0  1  0  0  0  0  0  0  0  0  0
  148.3925  134.7946  153.8179 O   0  0  0  0  0  0  0  0  0  0  0  0
  151.5349  142.6278  158.1501 C   0  0  0  0  0  0  0  0  0  0  0  0
  151.3359  144.0266  158.1215 C   0  0  0  0  0  0  0  0  0  0  0  0
  151.7971  144.8348  159.1789 C   0  0  0  0  0  0  0  0  0  0  0  0
  152.4686  144.2522  160.2702 C   0  0  0  0  0  0  0  0  0  0  0  0
  152.6825  142.8612  160.3012 C   0  0  0  0  0  0  0  0  0  0  0  0
  152.2215  142.0518  159.2444 C   0  0  0  0  0  0  0  0  0  0  0  0
  151.9193  140.0805  157.8903 H   0  0  0  0  0  0  0  0  0  0  0  0
  150.5375  138.8162  153.0285 H   0  0  0  0  0  0  0  0  0  0  0  0
  150.2576  135.5648  158.5765 H   0  0  0  0  0  0  0  0  0  0  0  0
  148.6787  134.4485  156.3735 H   0  0  0  0  0  0  0  0  0  0  0  0
  152.0894  133.5634  155.0046 H   0  0  0  0  0  0  0  0  0  0  0  0
  152.6191  131.4843  155.7903 H   0  0  0  0  0  0  0  0  0  0  0  0
  151.0114  131.2076  156.4464 H   0  0  0  0  0  0  0  0  0  0  0  0
  149.4241  130.2725  153.0307 H   0  0  0  0  0  0  0  0  0  0  0  0
  147.9307  128.9253  151.6010 H   0  0  0  0  0  0  0  0  0  0  0  0
  148.3377  126.4898  151.3019 H   0  0  0  0  0  0  0  0  0  0  0  0
  150.2616  125.4046  152.4463 H   0  0  0  0  0  0  0  0  0  0  0  0
  151.7664  126.7214  153.8760 H   0  0  0  0  0  0  0  0  0  0  0  0
  150.5897  133.0604  153.1273 H   0  0  0  0  0  0  0  0  0  0  0  0
  150.3773  135.3314  154.0091 H   0  0  0  0  0  0  0  0  0  0  0  0
  148.5074  134.9830  152.8989 H   0  0  0  0  0  0  0  0  0  0  0  0
  150.8213  144.4891  157.2911 H   0  0  0  0  0  0  0  0  0  0  0  0
  151.6348  145.9024  159.1525 H   0  0  0  0  0  0  0  0  0  0  0  0
  152.8216  144.8717  161.0813 H   0  0  0  0  0  0  0  0  0  0  0  0
  153.2018  142.4146  161.1363 H   0  0  0  0  0  0  0  0  0  0  0  0
  152.4025  140.9875  159.2853 H   0  0  0  0  0  0  0  0  0  0  0  0
  1  2  2  0  0  0  0
  2  3  1  0  0  0  0
  2 30  1  0  0  0  0
  3  4  1  0  0  0  0
  3 36  1  0  0  0  0
  4  9  1  0  0  0  0
  4  5  2  0  0  0  0
  5  6  1  0  0  0  0
  6  7  2  0  0  0  0
  6 37  1  0  0  0  0
  7  8  1  0  0  0  0
  8 12  1  0  0  0  0
  8  9  2  0  0  0  0
  9 10  1  0  0  0  0
 10 11  2  0  0  0  0
 11 12  1  0  0  0  0
 11 38  1  0  0  0  0
 12 13  1  0  0  0  0
 13 28  1  0  0  0  0
 13 14  1  0  0  0  0
 13 39  1  0  0  0  0
 14 15  1  0  0  0  0
 15 16  1  0  0  0  0
 15 26  1  0  0  0  0
 15 40  1  0  0  0  0
 16 17  1  0  0  0  0
 16 41  1  0  0  0  0
 16 42  1  0  0  0  0
 17 18  1  0  0  0  0
 18 19  2  0  0  0  0
 18 20  1  0  0  0  0
 20 25  1  0  0  0  0
 20 21  2  0  0  0  0
 21 22  1  0  0  0  0
 21 43  1  0  0  0  0
 22 23  2  0  0  0  0
 22 44  1  0  0  0  0
 23 24  1  0  0  0  0
 23 45  1  0  0  0  0
 24 25  2  0  0  0  0
 24 46  1  0  0  0  0
 25 47  1  0  0  0  0
 26 27  1  0  0  0  0
 26 28  1  0  0  0  0
 26 48  1  0  0  0  0
 28 29  1  0  0  0  0
 28 49  1  0  0  0  0
 29 50  1  0  0  0  0
 30 35  1  0  0  0  0
 30 31  2  0  0  0  0
 31 32  1  0  0  0  0
 31 51  1  0  0  0  0
 32 33  2  0  0  0  0
 32 52  1  0  0  0  0
 33 34  1  0  0  0  0
 33 53  1  0  0  0  0
 34 35  2  0  0  0  0
 34 54  1  0  0  0  0
 35 55  1  0  0  0  0
M  END
> <s_m_source_file>
AV-unprocessed.smi

> <i_m_source_file_index>
34

> <i_lp_mmshare_version>
43012

> <i_f3d_flags>
0

> <s_epik_input>
W2NIXTFbY0hdW2NIXVtjSF1bY0hdYzFDKD1PKVtOSF1jKG5bY0hdbjIpYyhjMjMpbltjSF1uM1tDQEBIXTRPW0NASF0oW0NAQEhdKEYpW0NASF00W09IXSlbQ0gyXU9DKD1PKWM1W2NIXVtjSF1bY0hdW2NIXVtjSF01

> <s_epik_cmdline>
J2VwaWtfcHl0aG9uJywgJy1waCcsICc3LjAnLCAnLXRuJywgJzgnLCAnLW1hJywgJzIwMCcsICctbWV0YWxfYmluZGluZycsICctaW1hZScsICc8aW5maWxlLm1hZT4nLCAnLW9tYWUnLCAnPG91dGZpbGUubWFlPic=

> <r_lp_tautomer_probability>
1

> <r_epik_Ionization_Penalty>
0.00257489

> <r_epik_Ionization_Penalty_Charging>
0

> <r_epik_Ionization_Penalty_Neutral>
0.00257489

> <r_epik_State_Penalty>
0.00519398

> <r_epik_Charging_Adjusted_Penalty>
0.00519398

> <i_epik_Tot_Q>
0

> <i_epik_Tot_abs_Q>
0

> <r_epik_Metal_State_Penalty>
0.335891

> <b_epik_Metal_Only>
0

> <s_epik_Chemistry_Notes>
This compound has an ester and may undergo hydrolysis at high or low pH. This compound contains an acetal/aminal-like group ( X-CH(R)-Y where X, Y are N, S, or O) that may be acid/base labile, releasing an aldehyde.

> <s_lp_Force_Field>
OPLS_2005

> <r_lp_Energy>
46.7099

> <b_lp_Chiralities_Consistent>
1

> <s_lp_Variant>
AV-unprocessed.smi:34-1

> <Gold.Version>
5.8.1

> <Gold.Id.Protein>
6NUR|6NUR_protein|mol2

> <Gold.PLP.Fitness>
59.0121

> <Gold.PLP.PLP>
-52.7585

> <Gold.PLP.part.hbond>
-1.6153

> <Gold.PLP.part.metal>
0.0000

> <Gold.PLP.part.buried>
-5.3430

> <Gold.PLP.part.nonpolar>
-47.1007

> <Gold.PLP.part.repulsive>
2.3606

> <Gold.PLP.ligand.clash>
0.0000

> <Gold.PLP.ligand.torsion>
1.2991

> <Gold.PLP.Chemscore.Hbond>
1.8393

> <Gold.PLP.Chemscore.CHOScore>
1.0000

> <Gold.PLP.Chemscore.Metal>
0.0000

> <Gold.Chemscore.Hbonds>
donor molecule, donor type, donor heavy atom, donor atom, acceptor molecule, acceptor atom, score
      L1  H    29    50       P1  7948  0.85
      P1  H  7989  7998       L1     5  0.95
      L1  C     6    37       P1  7957  1.00

> <Gold.PLP.Chemscore.Internal.Correction>
0.3340

> <Gold.Rescore>
     Score         DG    S(hbond)    S(metal)    S(lipo)     H(rot)  DE(clash)    DE(int)     intcor
     11.07     -16.46       0.94        0.00     126.49       2.72       0.24       5.15       ----

> <Gold.Chemscore.Fitness>
11.0725

> <Gold.Chemscore.DG>
-16.4614

> <Gold.Chemscore.ZeroCoef>
-5.4800

> <Gold.Chemscore.Hbond>
0.9430

> <Gold.Chemscore.Metal>
0.0000

> <Gold.Chemscore.Lipo>
126.4864

> <Gold.Chemscore.Internal_Hbond>
0.0000

> <Gold.Chemscore.DEClash>
0.2355

> <Gold.Chemscore.DEInternal>
5.1534

> <Gold.Chemscore.Rot>
2.7215

> <Gold.Chemscore.Internal.Correction>
   9.000000E+99

> <Gold.Chemscore.Hbonds>
donor molecule, donor type, donor heavy atom, donor atom, acceptor molecule, acceptor atom, score
      L1  H    29    50       P1  7948  0.51
      P1  H  7989  7998       L1     5  0.20

> <Gold.Chemscore.Hbond.Weighted>
-3.1496

> <Gold.Chemscore.Metal.Weighted>
-0.0000

> <Gold.Chemscore.Lipo.Weighted>
-14.7989

> <Gold.Chemscore.Internal_Hbond.Weighted>
0.0000

> <Gold.Chemscore.DEClash.Weighted>
0.2355

> <Gold.Chemscore.DEInternal.Weighted>
5.1534

> <Gold.Chemscore.Rot.Weighted>
6.9670

> <Gold.Chemscore.Internal.Correction.Weighted>
   9.000000E+99

> <Gold.Protein.RotatedTorsions>
[ 6907 6896 6895 6894 ] final  -45.68 input  -60.11 | X-H torsion
[ 7974 7965 7964 7962 ] final -135.86 input  175.53 | X-H torsion
[ 8008 7997 7996 7995 ] final  -69.36 input   59.86 | X-H torsion
[ 10167 10162 10161 10158 ] final  166.52 input  -65.29 | X-H torsion
[ 10718 10713 10712 10709 ] final   65.95 input   66.30 | X-H torsion
[ 10763 10752 10751 10750 ] final -167.59 input  -60.55 | X-H torsion
[ 11005 11000 10999 10996 ] final   -8.76 input  -57.11 | X-H torsion

> <Gold.Protein.ActiveResidues>
 VAL166  LYS551  ARG553  GLY616  TRP617  ASP618  TYR619  PRO620  LYS621  CYS622 
 ASP623  PHE694  ASN695  SER759  ASP760  ASP761  ALA762  ILE779  LEU786  VAL792 
 PHE793  MET794  SER795  GLU796  ALA797  LYS798  CYS799  TRP800  GLU811  SER814 

> <Gold.Protein.RotatedAtoms>
  150.9193  134.8610  159.7477 H   0  0  0  0  0  0  0  0  0  0  0  0  # atno 6907 bound_to 6896
  152.4984  134.4242  159.9500 H   0  0  0  0  0  0  0  0  0  0  0  0  # atno 6908 bound_to 6896
  151.4278  133.3639  159.2799 H   0  0  0  0  0  0  0  0  0  0  0  0  # atno 6909 bound_to 6896
  144.8977  140.6729  143.5104 H   0  0  0  0  0  0  0  0  0  0  0  0  # atno 7974 bound_to 7965
  154.4933  140.0855  156.7642 H   0  0  0  0  0  0  0  0  0  0  0  0  # atno 8008 bound_to 7997
  155.4177  140.3444  155.4250 H   0  0  0  0  0  0  0  0  0  0  0  0  # atno 8009 bound_to 7997
  156.1360  140.1515  156.8981 H   0  0  0  0  0  0  0  0  0  0  0  0  # atno 8010 bound_to 7997
  139.4926  144.4018  151.9400 H   0  0  0  0  0  0  0  0  0  0  0  0  # atno 10167 bound_to 10162
  157.6138  130.9241  150.0044 H   0  0  0  0  0  0  0  0  0  0  0  0  # atno 10718 bound_to 10713
  154.6716  135.2940  154.9734 H   0  0  0  0  0  0  0  0  0  0  0  0  # atno 10763 bound_to 10752
  154.0759  135.6611  153.4835 H   0  0  0  0  0  0  0  0  0  0  0  0  # atno 10764 bound_to 10752
  153.0490  135.5186  154.7715 H   0  0  0  0  0  0  0  0  0  0  0  0  # atno 10765 bound_to 10752
  140.7269  133.8781  155.8863 H   0  0  0  0  0  0  0  0  0  0  0  0  # atno 11005 bound_to 11000
  145.3670  139.1667  143.4352 LP  0  0  0  0  0  0  0  0  0  0  0  0  # atno 17320 bound_to 7965
  146.3091  140.3738  142.8677 LP  0  0  0  0  0  0  0  0  0  0  0  0  # atno 17321 bound_to 7965
  140.3458  144.3149  150.5958 LP  0  0  0  0  0  0  0  0  0  0  0  0  # atno 17342 bound_to 10162
  140.5527  143.2204  151.7899 LP  0  0  0  0  0  0  0  0  0  0  0  0  # atno 17343 bound_to 10162
  156.1252  130.3644  149.9822 LP  0  0  0  0  0  0  0  0  0  0  0  0  # atno 17370 bound_to 10713
  156.7894  130.9250  151.3646 LP  0  0  0  0  0  0  0  0  0  0  0  0  # atno 17371 bound_to 10713
  140.9955  134.1221  157.4368 LP  0  0  0  0  0  0  0  0  0  0  0  0  # atno 17394 bound_to 11000
  139.8835  135.0053  156.6305 LP  0  0  0  0  0  0  0  0  0  0  0  0  # atno 17395 bound_to 11000

$$$$
