#       Name:                AV-unprocessed.smi:234
#       Creating user name   scv26
#       Creation time:       Thu Mar 26 20:33:49 2020


#       File generated by GOLD software.
#

@<TRIPOS>MOLECULE
AV-unprocessed.smi:234
    68    71     1
SMALL
NO_CHARGES


@<TRIPOS>ATOM
      1 ****        -4.5524  -6.0114   1.3482 C.3            1 S1                 0.0000
      2 ****        -3.1405  -5.4781   1.5997 C.3            1 S1                 0.0000
      3 ****        -2.8805  -4.4209   0.6913 O.3            1 S1                 0.0000
      4 ****        -1.5810  -3.8695   0.8416 C.3            1 S1                 0.0000
      5 ****        -1.4226  -2.9364   2.0496 C.3            1 S1                 0.0000
      6 ****        -0.6487  -1.9835   1.1286 C.3            1 S1                 0.0000
      7 ****         0.8210  -2.0846   1.2380 N.pl3          1 S1                 0.0000
      8 ****         1.5401  -3.3424   1.4658 C.3            1 S1                 0.0000
      9 ****         1.5199  -1.0980   0.6157 C.ar           1 S1                 0.0000
     10 ****         2.4869  -1.4336  -0.2808 N.ar           1 S1                 0.0000
     11 ****         3.1734  -0.4864  -0.9255 C.ar           1 S1                 0.0000
     12 ****         3.0603   0.8385  -0.8264 N.ar           1 S1                 0.0000
     13 ****         2.1029   1.1858   0.0802 C.ar           1 S1                 0.0000
     14 ****         1.2978   0.2918   0.8429 C.ar           1 S1                 0.0000
     15 ****         0.4573   1.0182   1.6794 N.2            1 S1                 0.0000
     16 ****         0.7336   2.2645   1.4118 C.2            1 S1                 0.0000
     17 ****         1.7023   2.4570   0.4538 N.pl3          1 S1                 0.0000
     18 ****         2.1961   3.7321  -0.0436 C.3            1 S1                 0.0000
     19 ****         1.3786   4.2809  -1.2429 C.3            1 S1                 0.0000
     20 ****         1.4642   3.3413  -2.3012 O.3            1 S1                 0.0000
     21 ****        -0.1005   4.4896  -0.9248 C.3            1 S1                 0.0000
     22 ****        -0.4928   5.6396  -1.8390 C.3            1 S1                 0.0000
     23 ****         0.6465   6.4781  -1.7729 O.3            1 S1                 0.0000
     24 ****         1.8157   5.6641  -1.8034 C.3            1 S1                 0.0000
     25 ****         2.9261   6.4038  -1.0413 C.3            1 S1                 0.0000
     26 ****        -1.3141  -2.6699  -0.1004 C.3            1 S1                 0.0000
     27 ****        -0.4718  -2.9438  -1.3524 C.3            1 S1                 0.0000
     28 ****        -2.5643  -1.9299  -0.5973 C.3            1 S1                 0.0000
     29 ****        -4.7878  -6.8278   2.0312 H              1 S1                 0.0000
     30 ****        -4.6525  -6.3877   0.3298 H              1 S1                 0.0000
     31 ****        -5.2978  -5.2290   1.4916 H              1 S1                 0.0000
     32 ****        -3.0560  -5.1250   2.6284 H              1 S1                 0.0000
     33 ****        -2.4112  -6.2780   1.4640 H              1 S1                 0.0000
     34 ****        -0.7952  -4.6241   0.7794 H              1 S1                 0.0000
     35 ****        -2.3728  -2.5112   2.3762 H              1 S1                 0.0000
     36 ****        -0.8770  -3.3499   2.8966 H              1 S1                 0.0000
     37 ****        -1.0201  -0.9687   1.2578 H              1 S1                 0.0000
     38 ****         2.5439  -3.1384   1.8407 H              1 S1                 0.0000
     39 ****         1.6405  -3.9251   0.5520 H              1 S1                 0.0000
     40 ****         1.0528  -3.9676   2.2110 H              1 S1                 0.0000
     41 ****         3.9182  -0.8409  -1.6226 H              1 S1                 0.0000
     42 ****         0.2303   3.0826   1.9061 H              1 S1                 0.0000
     43 ****         2.1768   4.4380   0.7873 H              1 S1                 0.0000
     44 ****         3.2440   3.6079  -0.3198 H              1 S1                 0.0000
     45 ****         0.9673   3.6700  -3.0346 H              1 S1                 0.0000
     46 ****        -0.7141   3.5986  -1.0662 H              1 S1                 0.0000
     47 ****        -0.2195   4.8132   0.1100 H              1 S1                 0.0000
     48 ****        -0.6441   5.2971  -2.8638 H              1 S1                 0.0000
     49 ****        -1.3940   6.1555  -1.5073 H              1 S1                 0.0000
     50 ****         2.1205   5.5711  -2.8477 H              1 S1                 0.0000
     51 ****         3.8559   5.8350  -1.0405 H              1 S1                 0.0000
     52 ****         2.6421   6.5985  -0.0070 H              1 S1                 0.0000
     53 ****         3.1344   7.3666  -1.5082 H              1 S1                 0.0000
     54 ****        -0.0755  -2.0207  -1.7763 H              1 S1                 0.0000
     55 ****        -1.0588  -3.4334  -2.1300 H              1 S1                 0.0000
     56 ****         0.3725  -3.5988  -1.1513 H              1 S1                 0.0000
     57 ****        -2.3022  -0.9967  -1.0971 H              1 S1                 0.0000
     58 ****        -3.2385  -1.6746   0.2208 H              1 S1                 0.0000
     59 ****        -3.1353  -2.5326  -1.3046 H              1 S1                 0.0000
     60 ****        -3.5536  -3.6971   0.8431 LP             1 S1                 0.0000
     61 ****        -2.9724  -4.7714  -0.2408 LP             1 S1                 0.0000
     62 ****         2.6853  -2.3975  -0.4585 LP             1 S1                 0.0000
     63 ****         3.6068   1.4927  -1.3493 LP             1 S1                 0.0000
     64 ****        -0.2081   0.6651   2.3370 LP             1 S1                 0.0000
     65 ****         1.0874   2.4638  -2.0046 LP             1 S1                 0.0000
     66 ****         2.4202   3.2203  -2.5685 LP             1 S1                 0.0000
     67 ****         0.6265   7.0065  -0.9242 LP             1 S1                 0.0000
     68 ****         0.6506   7.1023  -2.5542 LP             1 S1                 0.0000
@<TRIPOS>BOND
    1    1    2 1     
    2    1   29 1     
    3    1   30 1     
    4    1   31 1     
    5    2    3 1     
    6    2   32 1     
    7    2   33 1     
    8    3    4 1     
    9    4   26 1     
   10    4    5 1     
   11    4   34 1     
   12    5    6 1     
   13    5   35 1     
   14    5   36 1     
   15    6    7 1     
   16    6   26 1     
   17    6   37 1     
   18    7    8 1     
   19    7    9 1     
   20    8   38 1     
   21    8   39 1     
   22    8   40 1     
   23    9   14 ar    
   24    9   10 ar    
   25   10   11 ar    
   26   11   12 ar    
   27   11   41 1     
   28   12   13 ar    
   29   13   17 1     
   30   13   14 ar    
   31   14   15 1     
   32   15   16 2     
   33   16   17 1     
   34   16   42 1     
   35   17   18 1     
   36   18   19 1     
   37   18   43 1     
   38   18   44 1     
   39   19   24 1     
   40   19   20 1     
   41   19   21 1     
   42   20   45 1     
   43   21   22 1     
   44   21   46 1     
   45   21   47 1     
   46   22   23 1     
   47   22   48 1     
   48   22   49 1     
   49   23   24 1     
   50   24   25 1     
   51   24   50 1     
   52   25   51 1     
   53   25   52 1     
   54   25   53 1     
   55   26   27 1     
   56   26   28 1     
   57   27   54 1     
   58   27   55 1     
   59   27   56 1     
   60   28   57 1     
   61   28   58 1     
   62   28   59 1     
   63    3   60 1     
   64    3   61 1     
   65   10   62 1     
   66   12   63 1     
   67   15   64 1     
   68   20   65 1     
   69   20   66 1     
   70   23   67 1     
   71   23   68 1     
@<TRIPOS>SUBSTRUCTURE
      1 S1             1
@<TRIPOS>SET
LONE_PAIRS      STATIC     ATOMS    <user>   **** ""
9 60 61 62 63 64 65 66 67 68
DONOR_HYDROGENS      STATIC     ATOMS    <user>   **** ""
1 45
ATOM$BLUE        STATIC     ATOMS    COLORGROUP SYSTEM
9 60 61 62 63 64 65 66 67 68
ATOM$RED        STATIC     ATOMS    COLORGROUP SYSTEM
1 45
