AV-unprocessed.smi:3002|AV-procd|sdf|11436|dock9
  -GOLD-   2272016363D 1   1.00000     0.00000
 Structure written by MMmdl.
 34 35  0  0  0  0  0  0  0  0  1 V2000
  151.9121  137.9453  154.3154 C   0  0  0  0  0  0  0  0  0  0  0  0
  150.9507  138.5015  155.3855 C   0  0  1  0  0  0  0  0  0  0  0  0
  151.2507  139.9654  155.7412 C   0  0  0  0  0  0  0  0  0  0  0  0
  152.2854  140.5078  155.3515 O   0  0  0  0  0  0  0  0  0  0  0  0
  150.3322  140.5949  156.4907 N   0  0  0  0  0  0  0  0  0  0  0  0
  150.4307  141.9747  156.9542 C   0  0  0  0  0  0  0  0  0  0  0  0
  151.6633  142.1985  157.8525 C   0  0  1  0  0  0  0  0  0  0  0  0
  151.8292  143.6723  158.2698 C   0  0  0  0  0  0  0  0  0  0  0  0
  152.9027  143.7522  159.3598 C   0  0  0  0  0  0  0  0  0  0  0  0
  152.7305  142.2113  160.3346 S   0  0  0  0  0  0  0  0  0  0  0  0
  154.0357  141.5365  160.3998 O   0  0  0  0  0  0  0  0  0  0  0  0
  151.9572  142.4856  161.5552 O   0  0  0  0  0  0  0  0  0  0  0  0
  151.6520  141.3448  159.1325 C   0  0  0  0  0  0  0  0  0  0  0  0
  149.5513  138.3530  155.0062 N   0  0  0  0  0  0  0  0  0  0  0  0
  148.8742  138.9038  153.9960 C   0  0  0  0  0  0  0  0  0  0  0  0
  147.6111  138.5098  153.9149 N   0  0  0  0  0  0  0  0  0  0  0  0
  147.5744  137.6446  154.9714 C   0  0  0  0  0  0  0  0  0  0  0  0
  148.7121  137.5044  155.6512 N   0  0  0  0  0  0  0  0  0  0  0  0
  152.9496  138.0229  154.6425 H   0  0  0  0  0  0  0  0  0  0  0  0
  151.8252  138.4771  153.3672 H   0  0  0  0  0  0  0  0  0  0  0  0
  151.7095  136.8915  154.1220 H   0  0  0  0  0  0  0  0  0  0  0  0
  151.1003  137.9073  156.2887 H   0  0  0  0  0  0  0  0  0  0  0  0
  149.5107  140.0781  156.7689 H   0  0  0  0  0  0  0  0  0  0  0  0
  150.4562  142.6514  156.0984 H   0  0  0  0  0  0  0  0  0  0  0  0
  149.5189  142.2095  157.5042 H   0  0  0  0  0  0  0  0  0  0  0  0
  152.5581  141.9281  157.2900 H   0  0  0  0  0  0  0  0  0  0  0  0
  152.0783  144.3076  157.4194 H   0  0  0  0  0  0  0  0  0  0  0  0
  150.8860  144.0396  158.6766 H   0  0  0  0  0  0  0  0  0  0  0  0
  153.9002  143.7631  158.9197 H   0  0  0  0  0  0  0  0  0  0  0  0
  152.7953  144.6239  160.0057 H   0  0  0  0  0  0  0  0  0  0  0  0
  150.6513  141.2917  159.5620 H   0  0  0  0  0  0  0  0  0  0  0  0
  152.0143  140.3296  158.9691 H   0  0  0  0  0  0  0  0  0  0  0  0
  149.3156  139.6053  153.3033 H   0  0  0  0  0  0  0  0  0  0  0  0
  146.6844  137.0965  155.2437 H   0  0  0  0  0  0  0  0  0  0  0  0
  1  2  1  0  0  0  0
  1 19  1  0  0  0  0
  1 20  1  0  0  0  0
  1 21  1  0  0  0  0
  2  3  1  0  0  0  0
  2 14  1  0  0  0  0
  2 22  1  0  0  0  0
  3  4  2  0  0  0  0
  3  5  1  0  0  0  0
  5  6  1  0  0  0  0
  5 23  1  0  0  0  0
  6  7  1  0  0  0  0
  6 24  1  0  0  0  0
  6 25  1  0  0  0  0
  7 13  1  0  0  0  0
  7  8  1  0  0  0  0
  7 26  1  0  0  0  0
  8  9  1  0  0  0  0
  8 27  1  0  0  0  0
  8 28  1  0  0  0  0
  9 10  1  0  0  0  0
  9 29  1  0  0  0  0
  9 30  1  0  0  0  0
 10 11  2  0  0  0  0
 10 12  2  0  0  0  0
 10 13  1  0  0  0  0
 13 31  1  0  0  0  0
 13 32  1  0  0  0  0
 14 18  1  0  0  0  0
 14 15  1  0  0  0  0
 15 16  2  0  0  0  0
 15 33  1  0  0  0  0
 16 17  1  0  0  0  0
 17 18  2  0  0  0  0
 17 34  1  0  0  0  0
M  END
> <s_m_source_file>
AV-unprocessed.smi

> <i_m_source_file_index>
3002

> <i_lp_mmshare_version>
43012

> <i_f3d_flags>
0

> <s_epik_input>
bjFbY0hdbltjSF1uMVtDQEhdKFtDSDNdKUMoPU8pW05IXVtDSDJdW0NAQEhdKFtDSDJdMilbQ0gyXVtDSDJdUzIoPU8pPU8=

> <s_epik_cmdline>
J2VwaWtfcHl0aG9uJywgJy1waCcsICc3LjAnLCAnLXRuJywgJzgnLCAnLW1hJywgJzIwMCcsICctbWV0YWxfYmluZGluZycsICctaW1hZScsICc8aW5maWxlLm1hZT4nLCAnLW9tYWUnLCAnPG91dGZpbGUubWFlPic=

> <r_lp_tautomer_probability>
1

> <r_epik_Ionization_Penalty>
1.1748e-05

> <r_epik_Ionization_Penalty_Charging>
0

> <r_epik_Ionization_Penalty_Neutral>
1.1748e-05

> <r_epik_State_Penalty>
-0

> <r_epik_Charging_Adjusted_Penalty>
0

> <i_epik_Tot_Q>
0

> <i_epik_Tot_abs_Q>
0

> <r_epik_Metal_State_Penalty>
-0

> <b_epik_Metal_Only>
0

> <s_lp_Force_Field>
OPLS_2005

> <r_lp_Energy>
7.1985

> <b_lp_Chiralities_Consistent>
1

> <s_lp_Variant>
AV-unprocessed.smi:3002-4

> <Gold.Version>
5.8.1

> <Gold.Id.Protein>
6NUR|6NUR_protein|mol2

> <Gold.PLP.Fitness>
36.2096

> <Gold.PLP.PLP>
-29.6941

> <Gold.PLP.part.hbond>
-2.4799

> <Gold.PLP.part.metal>
0.0000

> <Gold.PLP.part.buried>
-3.3366

> <Gold.PLP.part.nonpolar>
-25.4611

> <Gold.PLP.part.repulsive>
0.3579

> <Gold.PLP.ligand.clash>
0.0000

> <Gold.PLP.ligand.torsion>
0.3915

> <Gold.PLP.Chemscore.Hbond>
1.3984

> <Gold.PLP.Chemscore.CHOScore>
1.0000

> <Gold.PLP.Chemscore.Metal>
0.0000

> <Gold.Chemscore.Hbonds>
donor molecule, donor type, donor heavy atom, donor atom, acceptor molecule, acceptor atom, score
      P1  H  6933  6945       L1    12  0.48
      P1  H  7989  7998       L1     4  0.45
      P1  H  7997  8010       L1     4  0.40
      L1  C    15    33       P1  7957  1.00

> <Gold.PLP.Chemscore.Internal.Correction>
0.1033

> <Gold.Rescore>
     Score         DG    S(hbond)    S(metal)    S(lipo)     H(rot)  DE(clash)    DE(int)     intcor
     11.13     -11.62       1.61        0.00      58.80       2.39       0.20       0.28       ----

> <Gold.Chemscore.Fitness>
11.1345

> <Gold.Chemscore.DG>
-11.6175

> <Gold.Chemscore.ZeroCoef>
-5.4800

> <Gold.Chemscore.Hbond>
1.6132

> <Gold.Chemscore.Metal>
0.0000

> <Gold.Chemscore.Lipo>
58.7987

> <Gold.Chemscore.Internal_Hbond>
0.0000

> <Gold.Chemscore.DEClash>
0.2047

> <Gold.Chemscore.DEInternal>
0.2783

> <Gold.Chemscore.Rot>
2.3946

> <Gold.Chemscore.Internal.Correction>
   9.000000E+99

> <Gold.Chemscore.Hbonds>
donor molecule, donor type, donor heavy atom, donor atom, acceptor molecule, acceptor atom, score
      P1  H  6933  6945       L1    12  0.47
      P1  H  7989  7998       L1     4  0.07
      P1  H  7997  8010       L1     4  0.38

> <Gold.Chemscore.Hbond.Weighted>
-5.3881

> <Gold.Chemscore.Metal.Weighted>
-0.0000

> <Gold.Chemscore.Lipo.Weighted>
-6.8794

> <Gold.Chemscore.Internal_Hbond.Weighted>
0.0000

> <Gold.Chemscore.DEClash.Weighted>
0.2047

> <Gold.Chemscore.DEInternal.Weighted>
0.2783

> <Gold.Chemscore.Rot.Weighted>
6.1301

> <Gold.Chemscore.Internal.Correction.Weighted>
   9.000000E+99

> <Gold.Protein.RotatedTorsions>
[ 6907 6896 6895 6894 ] final   86.78 input  -60.11 | X-H torsion
[ 7974 7965 7964 7962 ] final  145.69 input  175.53 | X-H torsion
[ 8008 7997 7996 7995 ] final   82.79 input   59.86 | X-H torsion
[ 10167 10162 10161 10158 ] final -132.96 input  -65.29 | X-H torsion
[ 10718 10713 10712 10709 ] final  109.15 input   66.30 | X-H torsion
[ 10763 10752 10751 10750 ] final  -31.98 input  -60.55 | X-H torsion
[ 11005 11000 10999 10996 ] final  -15.33 input  -57.11 | X-H torsion

> <Gold.Protein.ActiveResidues>
 VAL166  LYS551  ARG553  GLY616  TRP617  ASP618  TYR619  PRO620  LYS621  CYS622 
 ASP623  PHE694  ASN695  SER759  ASP760  ASP761  ALA762  ILE779  LEU786  VAL792 
 PHE793  MET794  SER795  GLU796  ALA797  LYS798  CYS799  TRP800  GLU811  SER814 

> <Gold.Protein.RotatedAtoms>
  152.5400  134.2378  159.8849 H   0  0  0  0  0  0  0  0  0  0  0  0  # atno 6907 bound_to 6896
  151.2346  133.4425  159.2612 H   0  0  0  0  0  0  0  0  0  0  0  0  # atno 6908 bound_to 6896
  151.0683  134.9795  159.8351 H   0  0  0  0  0  0  0  0  0  0  0  0  # atno 6909 bound_to 6896
  144.8731  139.5814  143.5877 H   0  0  0  0  0  0  0  0  0  0  0  0  # atno 7974 bound_to 7965
  155.9154  140.3425  155.6131 H   0  0  0  0  0  0  0  0  0  0  0  0  # atno 8008 bound_to 7997
  155.7338  140.0799  157.2296 H   0  0  0  0  0  0  0  0  0  0  0  0  # atno 8009 bound_to 7997
  154.4061  140.1583  156.2526 H   0  0  0  0  0  0  0  0  0  0  0  0  # atno 8010 bound_to 7997
  139.9032  143.6583  152.2591 H   0  0  0  0  0  0  0  0  0  0  0  0  # atno 10167 bound_to 10162
  157.6554  131.0908  150.6411 H   0  0  0  0  0  0  0  0  0  0  0  0  # atno 10718 bound_to 10713
  153.8062  135.6886  153.4848 H   0  0  0  0  0  0  0  0  0  0  0  0  # atno 10763 bound_to 10752
  153.1657  135.4562  154.9832 H   0  0  0  0  0  0  0  0  0  0  0  0  # atno 10764 bound_to 10752
  154.7986  135.3329  154.7546 H   0  0  0  0  0  0  0  0  0  0  0  0  # atno 10765 bound_to 10752
  140.7955  133.8254  155.9420 H   0  0  0  0  0  0  0  0  0  0  0  0  # atno 11005 bound_to 11000
  146.2944  139.7234  142.9137 LP  0  0  0  0  0  0  0  0  0  0  0  0  # atno 17320 bound_to 7965
  145.4092  141.0394  143.3026 LP  0  0  0  0  0  0  0  0  0  0  0  0  # atno 17321 bound_to 7965
  139.7007  144.7635  151.1278 LP  0  0  0  0  0  0  0  0  0  0  0  0  # atno 17342 bound_to 10162
  140.7702  143.5462  150.9256 LP  0  0  0  0  0  0  0  0  0  0  0  0  # atno 17343 bound_to 10162
  156.6718  130.4541  149.5655 LP  0  0  0  0  0  0  0  0  0  0  0  0  # atno 17370 bound_to 10713
  156.1992  130.6609  151.1148 LP  0  0  0  0  0  0  0  0  0  0  0  0  # atno 17371 bound_to 10713
  140.9347  134.1977  157.4840 LP  0  0  0  0  0  0  0  0  0  0  0  0  # atno 17394 bound_to 11000
  139.8726  134.9847  156.5251 LP  0  0  0  0  0  0  0  0  0  0  0  0  # atno 17395 bound_to 11000

$$$$
