#       Name:                AV-unprocessed.smi:1827
#       Creating user name   scv26
#       Creation time:       Fri Mar 27 09:10:19 2020


#       File generated by GOLD software.
#

@<TRIPOS>MOLECULE
AV-unprocessed.smi:1827
    49    50     1
SMALL
NO_CHARGES


@<TRIPOS>ATOM
      1 ****        -3.8524  -2.2841  -0.3346 C.3            1 S1                 0.0000
      2 ****        -4.3974  -0.9005  -0.1100 C.2            1 S1                 0.0000
      3 ****        -5.6989  -0.7554   0.1023 N.2            1 S1                 0.0000
      4 ****        -5.8646   0.5655   0.3287 N.pl3          1 S1                 0.0000
      5 ****        -4.6924   1.2848   0.2682 C.2            1 S1                 0.0000
      6 ****        -4.6428   2.7576   0.5024 C.3            1 S1                 0.0000
      7 ****        -3.7338   0.3644  -0.0423 C.2            1 S1                 0.0000
      8 ****        -2.3544   0.6604  -0.1781 N.am           1 S1                 0.0000
      9 ****        -1.4965   0.1100  -1.0503 C.2            1 S1                 0.0000
     10 ****        -1.7974  -0.7229  -1.9045 O.2            1 S1                 0.0000
     11 ****        -0.2573   0.5972  -0.8931 N.am           1 S1                 0.0000
     12 ****         0.9056   0.2189  -1.6960 C.3            1 S1                 0.0000
     13 ****         1.4631  -1.1602  -1.2892 C.3            1 S1                 0.0000
     14 ****         2.1452  -1.1222   0.0891 C.3            1 S1                 0.0000
     15 ****         3.2181  -0.0926   0.1260 N.4            1 S1                 1.0000
     16 ****         4.0013  -0.1118   1.3885 C.3            1 S1                 0.0000
     17 ****         5.0226  -1.2527   1.4428 C.2            1 S1                 0.0000
     18 ****         5.4754  -1.5991   2.6499 N.am           1 S1                 0.0000
     19 ****         5.4111  -1.8035   0.4142 O.2            1 S1                 0.0000
     20 ****         2.6897   1.2582  -0.1929 C.3            1 S1                 0.0000
     21 ****         2.0121   1.2810  -1.5755 C.3            1 S1                 0.0000
     22 ****        -6.7744   0.9560   0.5292 H              1 S1                 0.0000
     23 ****        -2.8462  -2.3839   0.0720 H              1 S1                 0.0000
     24 ****        -3.8114  -2.5201  -1.3979 H              1 S1                 0.0000
     25 ****        -4.4726  -3.0407   0.1471 H              1 S1                 0.0000
     26 ****        -3.6144   3.1165   0.5425 H              1 S1                 0.0000
     27 ****        -5.1251   3.0167   1.4451 H              1 S1                 0.0000
     28 ****        -5.1541   3.2928  -0.2980 H              1 S1                 0.0000
     29 ****        -2.0095   1.4261   0.3817 H              1 S1                 0.0000
     30 ****        -0.1109   1.2902  -0.1738 H              1 S1                 0.0000
     31 ****         0.5903   0.1764  -2.7402 H              1 S1                 0.0000
     32 ****         0.6748  -1.9138  -1.2959 H              1 S1                 0.0000
     33 ****         2.1906  -1.4837  -2.0349 H              1 S1                 0.0000
     34 ****         1.4107  -0.9151   0.8689 H              1 S1                 0.0000
     35 ****         2.5616  -2.1064   0.3060 H              1 S1                 0.0000
     36 ****         4.5677   0.8157   1.4829 H              1 S1                 0.0000
     37 ****         3.3285  -0.1568   2.2466 H              1 S1                 0.0000
     38 ****         6.1460  -2.3478   2.7469 H              1 S1                 0.0000
     39 ****         5.1400  -1.1117   3.4689 H              1 S1                 0.0000
     40 ****         1.9868   1.5677   0.5819 H              1 S1                 0.0000
     41 ****         3.5050   1.9827  -0.1867 H              1 S1                 0.0000
     42 ****         2.7664   1.0984  -2.3423 H              1 S1                 0.0000
     43 ****         1.6084   2.2735  -1.7799 H              1 S1                 0.0000
     44 ****         3.8715  -0.3228  -0.6097 H              1 S1                 0.0000
     45 ****        -6.4017  -1.4668   0.0960 LP             1 S1                 0.0000
     46 ****        -2.7432  -1.0375  -1.9848 LP             1 S1                 0.0000
     47 ****        -1.0961  -1.0853  -2.5184 LP             1 S1                 0.0000
     48 ****         5.0600  -1.5082  -0.4743 LP             1 S1                 0.0000
     49 ****         6.0781  -2.5468   0.4663 LP             1 S1                 0.0000
@<TRIPOS>BOND
    1    1    2 1     
    2    1   23 1     
    3    1   24 1     
    4    1   25 1     
    5    2    7 1     
    6    2    3 2     
    7    3    4 1     
    8    4   22 1     
    9    4    5 1     
   10    5    6 1     
   11    5    7 2     
   12    6   26 1     
   13    6   27 1     
   14    6   28 1     
   15    7    8 1     
   16    8    9 am    
   17    8   29 1     
   18    9   10 2     
   19    9   11 am    
   20   11   12 1     
   21   11   30 1     
   22   12   21 1     
   23   12   13 1     
   24   12   31 1     
   25   13   14 1     
   26   13   32 1     
   27   13   33 1     
   28   14   15 1     
   29   14   34 1     
   30   14   35 1     
   31   15   16 1     
   32   15   20 1     
   33   15   44 1     
   34   16   17 1     
   35   16   36 1     
   36   16   37 1     
   37   17   18 am    
   38   17   19 2     
   39   18   38 1     
   40   18   39 1     
   41   20   21 1     
   42   20   40 1     
   43   20   41 1     
   44   21   42 1     
   45   21   43 1     
   46    3   45 1     
   47   10   46 1     
   48   10   47 1     
   49   19   48 1     
   50   19   49 1     
@<TRIPOS>SUBSTRUCTURE
      1 S1             1
@<TRIPOS>SET
LONE_PAIRS      STATIC     ATOMS    <user>   **** ""
5 45 46 47 48 49
DONOR_HYDROGENS      STATIC     ATOMS    <user>   **** ""
6 22 29 30 44 38 39
ATOM$BLUE        STATIC     ATOMS    COLORGROUP SYSTEM
5 45 46 47 48 49
ATOM$RED        STATIC     ATOMS    COLORGROUP SYSTEM
6 22 29 30 44 38 39
