#       Name:                AV-unprocessed.smi:418
#       Creating user name   scv26
#       Creation time:       Thu Mar 26 22:48:30 2020


#       File generated by GOLD software.
#

@<TRIPOS>MOLECULE
AV-unprocessed.smi:418
    46    48     1
SMALL
NO_CHARGES


@<TRIPOS>ATOM
      1 ****        -2.1544   3.9055   1.8176 C.3            1 S1                 0.0000
      2 ****        -1.7233   3.0082   0.7524 N.am           1 S1                 0.0000
      3 ****        -1.2327   1.7542   0.8901 C.2            1 S1                 0.0000
      4 ****        -1.0636   1.1540   1.9513 O.2            1 S1                 0.0000
      5 ****        -0.9532   1.2756  -0.3458 N.am           1 S1                 0.0000
      6 ****        -0.4031  -0.0405  -0.6641 C.3            1 S1                 0.0000
      7 ****         1.1288  -0.0762  -0.4895 C.3            1 S1                 0.0000
      8 ****         1.7283   0.4700  -1.6470 O.3            1 S1                 0.0000
      9 ****         1.6596  -1.5093  -0.3337 C.3            1 S1                 0.0000
     10 ****         1.2354  -2.0190   0.9237 O.3            1 S1                 0.0000
     11 ****         1.5467  -3.3237   1.2415 C.ar           1 S1                 0.0000
     12 ****         2.3181  -4.1810   0.4159 C.ar           1 S1                 0.0000
     13 ****         2.5856  -5.5051   0.8153 C.ar           1 S1                 0.0000
     14 ****         2.0897  -5.9879   2.0402 C.ar           1 S1                 0.0000
     15 ****         1.3264  -5.1438   2.8673 C.ar           1 S1                 0.0000
     16 ****         1.0581  -3.8197   2.4692 C.ar           1 S1                 0.0000
     17 ****         0.3211  -3.0177   3.2747 F              1 S1                 0.0000
     18 ****        -1.2672   2.2544  -1.2996 C.ar           1 S1                 0.0000
     19 ****        -1.1521   2.2553  -2.7009 C.ar           1 S1                 0.0000
     20 ****        -1.5616   3.4255  -3.3822 C.ar           1 S1                 0.0000
     21 ****        -2.0657   4.5440  -2.6687 C.ar           1 S1                 0.0000
     22 ****        -2.1689   4.5173  -1.2580 C.ar           1 S1                 0.0000
     23 ****        -1.7535   3.3433  -0.6071 C.ar           1 S1                 0.0000
     24 ****        -2.0286   3.4608   2.8056 H              1 S1                 0.0000
     25 ****        -3.2076   4.1580   1.6930 H              1 S1                 0.0000
     26 ****        -1.5757   4.8290   1.7891 H              1 S1                 0.0000
     27 ****        -0.8673  -0.7610   0.0113 H              1 S1                 0.0000
     28 ****        -0.6941  -0.3567  -1.6666 H              1 S1                 0.0000
     29 ****         1.4385   0.5123   0.3753 H              1 S1                 0.0000
     30 ****         1.4424   1.3662  -1.7373 H              1 S1                 0.0000
     31 ****         1.2940  -2.1335  -1.1511 H              1 S1                 0.0000
     32 ****         2.7506  -1.5060  -0.3699 H              1 S1                 0.0000
     33 ****         2.7173  -3.8468  -0.5294 H              1 S1                 0.0000
     34 ****         3.1726  -6.1511   0.1792 H              1 S1                 0.0000
     35 ****         2.2947  -7.0035   2.3451 H              1 S1                 0.0000
     36 ****         0.9445  -5.5119   3.8082 H              1 S1                 0.0000
     37 ****        -0.7665   1.4026  -3.2399 H              1 S1                 0.0000
     38 ****        -1.4895   3.4680  -4.4590 H              1 S1                 0.0000
     39 ****        -2.3735   5.4270  -3.2091 H              1 S1                 0.0000
     40 ****        -2.5499   5.3648  -0.7073 H              1 S1                 0.0000
     41 ****        -1.2966   1.5952   2.8179 LP             1 S1                 0.0000
     42 ****        -0.6932   0.2251   1.9469 LP             1 S1                 0.0000
     43 ****         1.4504  -0.0556  -2.4511 LP             1 S1                 0.0000
     44 ****         2.7238   0.4407  -1.5574 LP             1 S1                 0.0000
     45 ****         0.2393  -1.9368   0.9551 LP             1 S1                 0.0000
     46 ****         1.6402  -1.4382   1.6299 LP             1 S1                 0.0000
@<TRIPOS>BOND
    1    1    2 1     
    2    1   24 1     
    3    1   25 1     
    4    1   26 1     
    5    2   23 1     
    6    2    3 am    
    7    3    4 2     
    8    3    5 am    
    9    5    6 1     
   10    5   18 1     
   11    6    7 1     
   12    6   27 1     
   13    6   28 1     
   14    7    8 1     
   15    7    9 1     
   16    7   29 1     
   17    8   30 1     
   18    9   10 1     
   19    9   31 1     
   20    9   32 1     
   21   10   11 1     
   22   11   16 ar    
   23   11   12 ar    
   24   12   13 ar    
   25   12   33 1     
   26   13   14 ar    
   27   13   34 1     
   28   14   15 ar    
   29   14   35 1     
   30   15   16 ar    
   31   15   36 1     
   32   16   17 1     
   33   18   23 ar    
   34   18   19 ar    
   35   19   20 ar    
   36   19   37 1     
   37   20   21 ar    
   38   20   38 1     
   39   21   22 ar    
   40   21   39 1     
   41   22   23 ar    
   42   22   40 1     
   43    4   41 1     
   44    4   42 1     
   45    8   43 1     
   46    8   44 1     
   47   10   45 1     
   48   10   46 1     
@<TRIPOS>SUBSTRUCTURE
      1 S1             1
@<TRIPOS>SET
LONE_PAIRS      STATIC     ATOMS    <user>   **** ""
6 41 42 43 44 45 46
DONOR_HYDROGENS      STATIC     ATOMS    <user>   **** ""
1 30
ATOM$BLUE        STATIC     ATOMS    COLORGROUP SYSTEM
6 41 42 43 44 45 46
ATOM$RED        STATIC     ATOMS    COLORGROUP SYSTEM
1 30
