AV-unprocessed.smi:16|AV-procd|sdf|92|dock2
  -GOLD-   2262015233D 1   1.00000     0.00000
 Structure written by MMmdl.
 60 64  0  0  0  0  0  0  0  0  2 V2000
  144.9816  133.6237  150.5576 C   0  0  0  0  0  0  0  0  0  0  0  0
  144.8377  132.9534  151.9320 C   0  0  0  0  0  0  0  0  0  0  0  0
  143.7438  133.5443  152.7443 N   0  3  2  0  0  0  0  0  0  0  0  0
  142.4415  133.5202  152.0276 C   0  0  0  0  0  0  0  0  0  0  0  0
  141.2990  134.0300  152.9214 C   0  0  0  0  0  0  0  0  0  0  0  0
  141.6137  135.4366  153.4416 C   0  0  1  0  0  0  0  0  0  0  0  0
  140.5756  135.8728  154.3109 O   0  0  0  0  0  0  0  0  0  0  0  0
  140.7939  137.2067  154.7589 C   0  0  0  0  0  0  0  0  0  0  0  0
  142.1153  137.2772  155.5418 C   0  0  0  0  0  0  0  0  0  0  0  0
  143.2192  136.7575  154.7401 N   0  0  0  0  0  0  0  0  0  0  0  0
  144.3975  136.9306  155.3814 C   0  0  0  0  0  0  0  0  0  0  0  0
  144.5472  136.5099  156.6656 N   0  0  0  0  0  0  0  0  0  0  0  0
  145.7146  136.6864  157.2926 C   0  0  0  0  0  0  0  0  0  0  0  0
  146.8339  137.2485  156.8303 N   0  0  0  0  0  0  0  0  0  0  0  0
  146.6801  137.6780  155.5447 C   0  0  0  0  0  0  0  0  0  0  0  0
  145.5046  137.5571  154.7534 C   0  0  0  0  0  0  0  0  0  0  0  0
  145.7207  138.0884  153.4891 N   0  0  0  0  0  0  0  0  0  0  0  0
  146.9601  138.4968  153.5281 C   0  0  0  0  0  0  0  0  0  0  0  0
  147.6029  138.3127  154.7326 N   0  0  0  0  0  0  0  0  0  0  0  0
  148.9667  138.6281  155.0397 C   0  0  0  0  0  0  0  0  0  0  0  0
  149.3417  139.2914  156.3664 C   0  0  0  0  0  0  0  0  0  0  0  0
  150.5039  140.0270  155.6609 C   0  0  0  0  0  0  0  0  0  0  0  0
  150.6994  141.4982  156.0620 C   0  0  0  0  0  0  0  0  0  0  0  0
  149.4584  142.1356  156.2865 O   0  0  0  0  0  0  0  0  0  0  0  0
  151.8647  139.3031  155.7080 C   0  0  0  0  0  0  0  0  0  0  0  0
  152.7887  139.8790  154.8068 O   0  0  0  0  0  0  0  0  0  0  0  0
  149.6844  139.8029  154.3709 C   0  0  0  0  0  0  0  0  0  0  0  0
  142.9529  135.4184  154.2062 C   0  0  2  0  0  0  0  0  0  0  0  0
  144.0657  134.9022  153.2621 C   0  0  0  0  0  0  0  0  0  0  0  0
  141.6761  136.1188  152.5910 H   0  0  0  0  0  0  0  0  0  0  0  0
  142.8600  134.7292  155.0475 H   0  0  0  0  0  0  0  0  0  0  0  0
  145.8536  133.2335  150.0321 H   0  0  0  0  0  0  0  0  0  0  0  0
  145.1125  134.7016  150.6567 H   0  0  0  0  0  0  0  0  0  0  0  0
  144.1167  133.4462  149.9193 H   0  0  0  0  0  0  0  0  0  0  0  0
  144.6867  131.8785  151.8235 H   0  0  0  0  0  0  0  0  0  0  0  0
  145.7838  133.0795  152.4599 H   0  0  0  0  0  0  0  0  0  0  0  0
  142.5125  134.1291  151.1248 H   0  0  0  0  0  0  0  0  0  0  0  0
  142.2154  132.5024  151.7070 H   0  0  0  0  0  0  0  0  0  0  0  0
  140.3637  134.0401  152.3608 H   0  0  0  0  0  0  0  0  0  0  0  0
  141.1524  133.3477  153.7599 H   0  0  0  0  0  0  0  0  0  0  0  0
  140.8077  137.8919  153.9097 H   0  0  0  0  0  0  0  0  0  0  0  0
  139.9629  137.5076  155.3970 H   0  0  0  0  0  0  0  0  0  0  0  0
  142.3165  138.3098  155.8313 H   0  0  0  0  0  0  0  0  0  0  0  0
  142.0291  136.6972  156.4621 H   0  0  0  0  0  0  0  0  0  0  0  0
  145.7586  136.3272  158.3103 H   0  0  0  0  0  0  0  0  0  0  0  0
  147.4400  138.9503  152.6727 H   0  0  0  0  0  0  0  0  0  0  0  0
  149.5277  137.7026  154.8997 H   0  0  0  0  0  0  0  0  0  0  0  0
  148.5636  139.9667  156.7271 H   0  0  0  0  0  0  0  0  0  0  0  0
  149.6412  138.5924  157.1480 H   0  0  0  0  0  0  0  0  0  0  0  0
  151.2825  141.5746  156.9801 H   0  0  0  0  0  0  0  0  0  0  0  0
  151.2521  142.0528  155.3033 H   0  0  0  0  0  0  0  0  0  0  0  0
  149.4553  142.9590  155.8229 H   0  0  0  0  0  0  0  0  0  0  0  0
  152.3014  139.3494  156.7058 H   0  0  0  0  0  0  0  0  0  0  0  0
  151.7616  138.2432  155.4743 H   0  0  0  0  0  0  0  0  0  0  0  0
  153.1032  139.2026  154.2265 H   0  0  0  0  0  0  0  0  0  0  0  0
  150.2740  139.5324  153.4945 H   0  0  0  0  0  0  0  0  0  0  0  0
  149.0119  140.6334  154.1482 H   0  0  0  0  0  0  0  0  0  0  0  0
  145.0149  134.8647  153.7938 H   0  0  0  0  0  0  0  0  0  0  0  0
  144.2011  135.5908  152.4264 H   0  0  0  0  0  0  0  0  0  0  0  0
  143.6308  132.9438  153.5488 H   0  0  0  0  0  0  0  0  0  0  0  0
  1  2  1  0  0  0  0
  1 32  1  0  0  0  0
  1 33  1  0  0  0  0
  1 34  1  0  0  0  0
  2  3  1  0  0  0  0
  2 35  1  0  0  0  0
  2 36  1  0  0  0  0
  3 29  1  0  0  0  0
  3  4  1  0  0  0  0
  3 60  1  0  0  0  0
  4  5  1  0  0  0  0
  4 37  1  0  0  0  0
  4 38  1  0  0  0  0
  5  6  1  0  0  0  0
  5 39  1  0  0  0  0
  5 40  1  0  0  0  0
  6 30  1  0  0  0  0
  6 28  1  0  0  0  0
  6  7  1  0  0  0  0
  7  8  1  0  0  0  0
  8  9  1  0  0  0  0
  8 41  1  0  0  0  0
  8 42  1  0  0  0  0
  9 10  1  0  0  0  0
  9 43  1  0  0  0  0
  9 44  1  0  0  0  0
 10 11  1  0  0  0  0
 10 28  1  0  0  0  0
 11 16  1  0  0  0  0
 11 12  2  0  0  0  0
 12 13  1  0  0  0  0
 13 14  2  0  0  0  0
 13 45  1  0  0  0  0
 14 15  1  0  0  0  0
 15 19  1  0  0  0  0
 15 16  2  0  0  0  0
 16 17  1  0  0  0  0
 17 18  2  0  0  0  0
 18 19  1  0  0  0  0
 18 46  1  0  0  0  0
 19 20  1  0  0  0  0
 20 27  1  0  0  0  0
 20 21  1  0  0  0  0
 20 47  1  0  0  0  0
 21 22  1  0  0  0  0
 21 48  1  0  0  0  0
 21 49  1  0  0  0  0
 22 23  1  0  0  0  0
 22 25  1  0  0  0  0
 22 27  1  0  0  0  0
 23 24  1  0  0  0  0
 23 50  1  0  0  0  0
 23 51  1  0  0  0  0
 24 52  1  0  0  0  0
 25 26  1  0  0  0  0
 25 53  1  0  0  0  0
 25 54  1  0  0  0  0
 26 55  1  0  0  0  0
 27 56  1  0  0  0  0
 27 57  1  0  0  0  0
 28 31  1  0  0  0  0
 28 29  1  0  0  0  0
 29 58  1  0  0  0  0
 29 59  1  0  0  0  0
M  CHG  1   3   1
M  END
> <s_m_source_file>
AV-unprocessed.smi

> <i_m_source_file_index>
16

> <i_lp_mmshare_version>
43012

> <i_f3d_flags>
0

> <s_epik_input>
W0NIM11bQ0gyXU4oW0NIMl1bQ0gyXTEpW0NIMl1bQ0BASF0oW0NAQEhdMTIpTihbQ0gyXVtDSDJdTzIpYyhuW2NIXW4zKWMoYzM0KW5bY0hdbjRbQ0hdKFtDSDJdNSlbQ0gyXUM1KFtDSDJdW09IXSlbQ0gyXVtPSF0=

> <s_epik_cmdline>
J2VwaWtfcHl0aG9uJywgJy1waCcsICc3LjAnLCAnLXRuJywgJzgnLCAnLW1hJywgJzIwMCcsICctbWV0YWxfYmluZGluZycsICctaW1hZScsICc8aW5maWxlLm1hZT4nLCAnLW9tYWUnLCAnPG91dGZpbGUubWFlPic=

> <r_lp_tautomer_probability>
1

> <r_epik_Ionization_Penalty>
0.0135603

> <r_epik_Ionization_Penalty_Charging>
0.0131385

> <r_epik_Ionization_Penalty_Neutral>
0.000421734

> <r_epik_State_Penalty>
0.0102091

> <r_epik_Charging_Adjusted_Penalty>
0.0233476

> <i_epik_Tot_Q>
1

> <i_epik_Tot_abs_Q>
1

> <r_epik_Metal_State_Penalty>
0.0103746

> <b_epik_Metal_Only>
0

> <s_lp_Force_Field>
OPLS_2005

> <r_lp_Energy>
53.4104

> <b_lp_Chiralities_Consistent>
1

> <s_lp_Variant>
AV-unprocessed.smi:16-6

> <Gold.Version>
5.8.1

> <Gold.Id.Protein>
6NUR|6NUR_protein|mol2

> <Gold.PLP.Fitness>
48.4577

> <Gold.PLP.PLP>
-33.3379

> <Gold.PLP.part.hbond>
-4.9752

> <Gold.PLP.part.metal>
0.0000

> <Gold.PLP.part.buried>
-0.7358

> <Gold.PLP.part.nonpolar>
-26.8576

> <Gold.PLP.part.repulsive>
0.3106

> <Gold.PLP.ligand.clash>
0.0000

> <Gold.PLP.ligand.torsion>
1.1501

> <Gold.PLP.Chemscore.Hbond>
5.3053

> <Gold.PLP.Chemscore.CHOScore>
0.2938

> <Gold.PLP.Chemscore.Metal>
0.0000

> <Gold.Chemscore.Hbonds>
donor molecule, donor type, donor heavy atom, donor atom, acceptor molecule, acceptor atom, score
      L1  H     3    60       P1 10957  2.00
      L1  H    24    52       P1  8028  1.00
      P1  H  7989  7998       L1    26  0.39
      P1  H  7997  8008       L1    26  0.90
      P1  H 11000 11005       L1     7  0.93
      L1  C    18    46       P1  7957  0.23

> <Gold.PLP.Chemscore.Internal.Correction>
0.6226

> <Gold.Rescore>
     Score         DG    S(hbond)    S(metal)    S(lipo)     H(rot)  DE(clash)    DE(int)     intcor
     15.73     -17.07       3.21        0.00      80.08       3.33       0.27       1.07       ----

> <Gold.Chemscore.Fitness>
15.7266

> <Gold.Chemscore.DG>
-17.0679

> <Gold.Chemscore.ZeroCoef>
-5.4800

> <Gold.Chemscore.Hbond>
3.2127

> <Gold.Chemscore.Metal>
0.0000

> <Gold.Chemscore.Lipo>
80.0834

> <Gold.Chemscore.Internal_Hbond>
0.0000

> <Gold.Chemscore.DEClash>
0.2664

> <Gold.Chemscore.DEInternal>
1.0749

> <Gold.Chemscore.Rot>
3.3251

> <Gold.Chemscore.Internal.Correction>
   9.000000E+99

> <Gold.Chemscore.Hbonds>
donor molecule, donor type, donor heavy atom, donor atom, acceptor molecule, acceptor atom, score
      L1  H     3    60       P1 10957  0.83
      L1  H    24    52       P1  8028  0.95
      P1  H  7989  7998       L1    26  0.04
      P1  H  7997  8008       L1    26  0.11
      P1  H 11000 11005       L1     7  0.65

> <Gold.Chemscore.Hbond.Weighted>
-10.7303

> <Gold.Chemscore.Metal.Weighted>
-0.0000

> <Gold.Chemscore.Lipo.Weighted>
-9.3698

> <Gold.Chemscore.Internal_Hbond.Weighted>
0.0000

> <Gold.Chemscore.DEClash.Weighted>
0.2664

> <Gold.Chemscore.DEInternal.Weighted>
1.0749

> <Gold.Chemscore.Rot.Weighted>
8.5122

> <Gold.Chemscore.Internal.Correction.Weighted>
   9.000000E+99

> <Gold.Protein.RotatedTorsions>
[ 6907 6896 6895 6894 ] final -159.14 input  -60.11 | X-H torsion
[ 7974 7965 7964 7962 ] final -165.95 input  175.53 | X-H torsion
[ 8008 7997 7996 7995 ] final  -10.24 input   59.86 | X-H torsion
[ 10167 10162 10161 10158 ] final  -64.23 input  -65.29 | X-H torsion
[ 10718 10713 10712 10709 ] final   55.09 input   66.30 | X-H torsion
[ 10763 10752 10751 10750 ] final -170.28 input  -60.55 | X-H torsion
[ 11005 11000 10999 10996 ] final   51.60 input  -57.11 | X-H torsion

> <Gold.Protein.ActiveResidues>
 VAL166  LYS551  ARG553  GLY616  TRP617  ASP618  TYR619  PRO620  LYS621  CYS622 
 ASP623  PHE694  ASN695  SER759  ASP760  ASP761  ALA762  ILE779  LEU786  VAL792 
 PHE793  MET794  SER795  GLU796  ALA797  LYS798  CYS799  TRP800  GLU811  SER814 

> <Gold.Protein.RotatedAtoms>
  151.3290  133.4008  159.2660 H   0  0  0  0  0  0  0  0  0  0  0  0  # atno 6907 bound_to 6896
  150.9971  134.9293  159.7943 H   0  0  0  0  0  0  0  0  0  0  0  0  # atno 6908 bound_to 6896
  152.5264  134.3255  159.9216 H   0  0  0  0  0  0  0  0  0  0  0  0  # atno 6909 bound_to 6896
  144.7257  140.2738  143.6246 H   0  0  0  0  0  0  0  0  0  0  0  0  # atno 7974 bound_to 7965
  154.5573  140.2334  155.8390 H   0  0  0  0  0  0  0  0  0  0  0  0  # atno 8008 bound_to 7997
  156.1999  140.3055  155.9464 H   0  0  0  0  0  0  0  0  0  0  0  0  # atno 8009 bound_to 7997
  155.2956  140.0428  157.3016 H   0  0  0  0  0  0  0  0  0  0  0  0  # atno 8010 bound_to 7997
  140.5815  143.2328  151.6332 H   0  0  0  0  0  0  0  0  0  0  0  0  # atno 10167 bound_to 10162
  157.5314  130.8633  149.8693 H   0  0  0  0  0  0  0  0  0  0  0  0  # atno 10718 bound_to 10713
  154.6432  135.2901  155.0078 H   0  0  0  0  0  0  0  0  0  0  0  0  # atno 10763 bound_to 10752
  154.1197  135.6550  153.4904 H   0  0  0  0  0  0  0  0  0  0  0  0  # atno 10764 bound_to 10752
  153.0337  135.5284  154.7308 H   0  0  0  0  0  0  0  0  0  0  0  0  # atno 10765 bound_to 10752
  140.0919  134.5197  155.8844 H   0  0  0  0  0  0  0  0  0  0  0  0  # atno 11005 bound_to 11000
  145.8017  139.1967  143.2044 LP  0  0  0  0  0  0  0  0  0  0  0  0  # atno 17320 bound_to 7965
  146.0671  140.7909  142.9706 LP  0  0  0  0  0  0  0  0  0  0  0  0  # atno 17321 bound_to 7965
  139.5173  144.3321  152.0817 LP  0  0  0  0  0  0  0  0  0  0  0  0  # atno 17342 bound_to 10162
  140.2472  144.4208  150.6236 LP  0  0  0  0  0  0  0  0  0  0  0  0  # atno 17343 bound_to 10162
  156.0425  130.3735  150.1399 LP  0  0  0  0  0  0  0  0  0  0  0  0  # atno 17370 bound_to 10713
  156.9583  130.9797  151.3484 LP  0  0  0  0  0  0  0  0  0  0  0  0  # atno 17371 bound_to 10713
  141.2080  133.6670  156.6345 LP  0  0  0  0  0  0  0  0  0  0  0  0  # atno 17394 bound_to 11000
  140.3340  134.7905  157.4348 LP  0  0  0  0  0  0  0  0  0  0  0  0  # atno 17395 bound_to 11000

$$$$
