AV-unprocessed.smi:3171|AV-procd|sdf|12112|dock3
  -GOLD-   2272017553D 1   1.00000     0.00000
 Structure written by MMmdl.
 33 34  0  0  0  0  0  0  0  0  1 V2000
  152.6289  143.6879  161.7764 C   0  0  0  0  0  0  0  0  0  0  0  0
  151.9827  143.2775  160.4651 C   0  0  0  0  0  0  0  0  0  0  0  0
  150.9415  144.0462  160.0774 N   0  0  0  0  0  0  0  0  0  0  0  0
  150.2954  143.7852  158.9402 N   0  0  0  0  0  0  0  0  0  0  0  0
  150.6629  142.7468  158.1508 C   0  0  0  0  0  0  0  0  0  0  0  0
  149.9333  142.5364  156.9653 N   0  0  0  0  0  0  0  0  0  0  0  0
  149.3496  141.2382  156.6484 C   0  0  0  0  0  0  0  0  0  0  0  0
  148.9240  141.1331  155.1750 C   0  0  1  0  0  0  0  0  0  0  0  0
  148.4360  139.7425  154.7804 C   0  0  0  0  0  0  0  0  0  0  0  0
  147.6087  140.0509  153.5529 C   0  0  0  0  0  0  0  0  0  0  0  0
  146.9690  141.3894  153.9193 C   0  0  0  0  0  0  0  0  0  0  0  0
  147.8041  141.9742  154.9167 O   0  0  0  0  0  0  0  0  0  0  0  0
  151.7488  141.9004  158.4958 C   0  0  0  0  0  0  0  0  0  0  0  0
  152.1449  140.7841  157.6394 C   0  0  0  0  0  0  0  0  0  0  0  0
  152.4585  139.9002  156.9616 N   0  0  0  0  0  0  0  0  0  0  0  0
  152.4381  142.1735  159.7042 C   0  0  0  0  0  0  0  0  0  0  0  0
  153.6180  141.3164  160.1554 C   0  0  0  0  0  0  0  0  0  0  0  0
  153.6838  143.9185  161.6265 H   0  0  0  0  0  0  0  0  0  0  0  0
  152.5464  142.8854  162.5096 H   0  0  0  0  0  0  0  0  0  0  0  0
  152.1515  144.5736  162.1980 H   0  0  0  0  0  0  0  0  0  0  0  0
  150.0430  143.1966  156.2089 H   0  0  0  0  0  0  0  0  0  0  0  0
  150.0580  140.4469  156.8962 H   0  0  0  0  0  0  0  0  0  0  0  0
  148.4852  141.0825  157.2946 H   0  0  0  0  0  0  0  0  0  0  0  0
  149.7374  141.4247  154.5085 H   0  0  0  0  0  0  0  0  0  0  0  0
  149.2510  139.0457  154.5831 H   0  0  0  0  0  0  0  0  0  0  0  0
  147.8031  139.3200  155.5621 H   0  0  0  0  0  0  0  0  0  0  0  0
  148.2612  140.1721  152.6869 H   0  0  0  0  0  0  0  0  0  0  0  0
  146.8767  139.2764  153.3224 H   0  0  0  0  0  0  0  0  0  0  0  0
  146.8722  142.0444  153.0532 H   0  0  0  0  0  0  0  0  0  0  0  0
  145.9756  141.2404  154.3434 H   0  0  0  0  0  0  0  0  0  0  0  0
  153.3293  140.2658  160.2003 H   0  0  0  0  0  0  0  0  0  0  0  0
  153.9963  141.5858  161.1399 H   0  0  0  0  0  0  0  0  0  0  0  0
  154.4427  141.4134  159.4487 H   0  0  0  0  0  0  0  0  0  0  0  0
  1  2  1  0  0  0  0
  1 18  1  0  0  0  0
  1 19  1  0  0  0  0
  1 20  1  0  0  0  0
  2 16  1  0  0  0  0
  2  3  2  0  0  0  0
  3  4  1  0  0  0  0
  4  5  2  0  0  0  0
  5  6  1  0  0  0  0
  5 13  1  0  0  0  0
  6  7  1  0  0  0  0
  6 21  1  0  0  0  0
  7  8  1  0  0  0  0
  7 22  1  0  0  0  0
  7 23  1  0  0  0  0
  8 12  1  0  0  0  0
  8  9  1  0  0  0  0
  8 24  1  0  0  0  0
  9 10  1  0  0  0  0
  9 25  1  0  0  0  0
  9 26  1  0  0  0  0
 10 11  1  0  0  0  0
 10 27  1  0  0  0  0
 10 28  1  0  0  0  0
 11 12  1  0  0  0  0
 11 29  1  0  0  0  0
 11 30  1  0  0  0  0
 13 14  1  0  0  0  0
 13 16  2  0  0  0  0
 14 15  3  0  0  0  0
 16 17  1  0  0  0  0
 17 31  1  0  0  0  0
 17 32  1  0  0  0  0
 17 33  1  0  0  0  0
M  END
> <s_m_source_file>
AV-unprocessed.smi

> <i_m_source_file_index>
3171

> <i_lp_mmshare_version>
43012

> <i_f3d_flags>
0

> <s_epik_input>
W0NIM11jMW5uYyhjKEMjTiljMVtDSDNdKVtOSF1bQ0gyXVtDQEBIXTJbQ0gyXVtDSDJdW0NIMl1PMg==

> <s_epik_cmdline>
J2VwaWtfcHl0aG9uJywgJy1waCcsICc3LjAnLCAnLXRuJywgJzgnLCAnLW1hJywgJzIwMCcsICctbWV0YWxfYmluZGluZycsICctaW1hZScsICc8aW5maWxlLm1hZT4nLCAnLW9tYWUnLCAnPG91dGZpbGUubWFlPic=

> <r_lp_tautomer_probability>
1

> <r_epik_Ionization_Penalty>
0.00108228

> <r_epik_Ionization_Penalty_Charging>
0

> <r_epik_Ionization_Penalty_Neutral>
0.00108228

> <r_epik_State_Penalty>
-0

> <r_epik_Charging_Adjusted_Penalty>
0

> <i_epik_Tot_Q>
0

> <i_epik_Tot_abs_Q>
0

> <r_epik_Metal_State_Penalty>
-0

> <b_epik_Metal_Only>
0

> <s_lp_Force_Field>
OPLS_2005

> <r_lp_Energy>
28.3967

> <b_lp_Chiralities_Consistent>
1

> <s_lp_Variant>
AV-unprocessed.smi:3171-2

> <Gold.Version>
5.8.1

> <Gold.Id.Protein>
6NUR|6NUR_protein|mol2

> <Gold.PLP.Fitness>
35.6517

> <Gold.PLP.PLP>
-31.3921

> <Gold.PLP.part.hbond>
-2.4136

> <Gold.PLP.part.metal>
0.0000

> <Gold.PLP.part.buried>
-4.1789

> <Gold.PLP.part.nonpolar>
-24.8451

> <Gold.PLP.part.repulsive>
1.1125

> <Gold.PLP.ligand.clash>
0.0000

> <Gold.PLP.ligand.torsion>
0.5988

> <Gold.PLP.Chemscore.Hbond>
1.8160

> <Gold.PLP.Chemscore.CHOScore>
0.0000

> <Gold.PLP.Chemscore.Metal>
0.0000

> <Gold.Chemscore.Hbonds>
donor molecule, donor type, donor heavy atom, donor atom, acceptor molecule, acceptor atom, score
      L1  H     6    21       P1  8028  0.61
      P1  H  7997  8010       L1    15  1.00

> <Gold.PLP.Chemscore.Internal.Correction>
0.0092

> <Gold.Rescore>
     Score         DG    S(hbond)    S(metal)    S(lipo)     H(rot)  DE(clash)    DE(int)     intcor
     16.28     -17.07       1.67        0.00      77.86       1.22       0.06       0.73       ----

> <Gold.Chemscore.Fitness>
16.2788

> <Gold.Chemscore.DG>
-17.0653

> <Gold.Chemscore.ZeroCoef>
-5.4800

> <Gold.Chemscore.Hbond>
1.6748

> <Gold.Chemscore.Metal>
0.0000

> <Gold.Chemscore.Lipo>
77.8594

> <Gold.Chemscore.Internal_Hbond>
0.0000

> <Gold.Chemscore.DEClash>
0.0588

> <Gold.Chemscore.DEInternal>
0.7277

> <Gold.Chemscore.Rot>
1.2181

> <Gold.Chemscore.Internal.Correction>
   9.000000E+99

> <Gold.Chemscore.Hbonds>
donor molecule, donor type, donor heavy atom, donor atom, acceptor molecule, acceptor atom, score
      L1  H     6    21       P1  8028  0.58
      P1  H  7997  8010       L1    15  0.54

> <Gold.Chemscore.Hbond.Weighted>
-5.5939

> <Gold.Chemscore.Metal.Weighted>
-0.0000

> <Gold.Chemscore.Lipo.Weighted>
-9.1095

> <Gold.Chemscore.Internal_Hbond.Weighted>
0.0000

> <Gold.Chemscore.DEClash.Weighted>
0.0588

> <Gold.Chemscore.DEInternal.Weighted>
0.7277

> <Gold.Chemscore.Rot.Weighted>
3.1182

> <Gold.Chemscore.Internal.Correction.Weighted>
   9.000000E+99

> <Gold.Protein.RotatedTorsions>
[ 6907 6896 6895 6894 ] final  -32.61 input  -60.11 | X-H torsion
[ 7974 7965 7964 7962 ] final -106.23 input  175.53 | X-H torsion
[ 8008 7997 7996 7995 ] final   54.81 input   59.86 | X-H torsion
[ 10167 10162 10161 10158 ] final  -96.48 input  -65.29 | X-H torsion
[ 10718 10713 10712 10709 ] final  -60.91 input   66.30 | X-H torsion
[ 10763 10752 10751 10750 ] final -112.43 input  -60.55 | X-H torsion
[ 11005 11000 10999 10996 ] final  153.18 input  -57.11 | X-H torsion

> <Gold.Protein.ActiveResidues>
 VAL166  LYS551  ARG553  GLY616  TRP617  ASP618  TYR619  PRO620  LYS621  CYS622 
 ASP623  PHE694  ASN695  SER759  ASP760  ASP761  ALA762  ILE779  LEU786  VAL792 
 PHE793  MET794  SER795  GLU796  ALA797  LYS798  CYS799  TRP800  GLU811  SER814 

> <Gold.Protein.RotatedAtoms>
  151.0765  134.9831  159.8334 H   0  0  0  0  0  0  0  0  0  0  0  0  # atno 6907 bound_to 6896
  152.5414  134.2235  159.8807 H   0  0  0  0  0  0  0  0  0  0  0  0  # atno 6908 bound_to 6896
  151.2262  133.4431  159.2636 H   0  0  0  0  0  0  0  0  0  0  0  0  # atno 6909 bound_to 6896
  145.2205  140.9132  143.3262 H   0  0  0  0  0  0  0  0  0  0  0  0  # atno 7974 bound_to 7965
  155.4908  140.3471  155.4355 H   0  0  0  0  0  0  0  0  0  0  0  0  # atno 8008 bound_to 7997
  156.0978  140.1427  156.9536 H   0  0  0  0  0  0  0  0  0  0  0  0  # atno 8009 bound_to 7997
  154.4674  140.0912  156.7034 H   0  0  0  0  0  0  0  0  0  0  0  0  # atno 8010 bound_to 7997
  140.2934  143.3207  152.0323 H   0  0  0  0  0  0  0  0  0  0  0  0  # atno 10167 bound_to 10162
  156.0957  130.4193  150.0921 H   0  0  0  0  0  0  0  0  0  0  0  0  # atno 10718 bound_to 10713
  154.8349  135.4491  154.1193 H   0  0  0  0  0  0  0  0  0  0  0  0  # atno 10763 bound_to 10752
  153.2434  135.6919  153.7764 H   0  0  0  0  0  0  0  0  0  0  0  0  # atno 10764 bound_to 10752
  153.7104  135.3357  155.3221 H   0  0  0  0  0  0  0  0  0  0  0  0  # atno 10765 bound_to 10752
  140.1375  134.8761  157.2286 H   0  0  0  0  0  0  0  0  0  0  0  0  # atno 11005 bound_to 11000
  144.9770  139.3822  143.6281 LP  0  0  0  0  0  0  0  0  0  0  0  0  # atno 17320 bound_to 7965
  146.3377  139.8893  142.8811 LP  0  0  0  0  0  0  0  0  0  0  0  0  # atno 17321 bound_to 7965
  139.4932  144.6508  151.6679 LP  0  0  0  0  0  0  0  0  0  0  0  0  # atno 17342 bound_to 10162
  140.5713  144.0104  150.6218 LP  0  0  0  0  0  0  0  0  0  0  0  0  # atno 17343 bound_to 10162
  156.8920  130.9592  151.3587 LP  0  0  0  0  0  0  0  0  0  0  0  0  # atno 17370 bound_to 10713
  157.6118  130.8588  149.8963 LP  0  0  0  0  0  0  0  0  0  0  0  0  # atno 17371 bound_to 10713
  140.2764  134.3400  155.7357 LP  0  0  0  0  0  0  0  0  0  0  0  0  # atno 17394 bound_to 11000
  141.2180  133.7453  156.9300 LP  0  0  0  0  0  0  0  0  0  0  0  0  # atno 17395 bound_to 11000

$$$$
