#       Name:                AV-unprocessed.smi:1138
#       Creating user name   scv26
#       Creation time:       Fri Mar 27 03:43:55 2020


#       File generated by GOLD software.
#

@<TRIPOS>MOLECULE
AV-unprocessed.smi:1138
    54    56     1
SMALL
NO_CHARGES


@<TRIPOS>ATOM
      1 ****        -7.6692  -1.2852  -0.5087 C.3            1 S1                 0.0000
      2 ****        -6.9917  -0.5369  -1.5628 N.pl3          1 S1                 0.0000
      3 ****        -7.7741   0.0817  -2.6260 C.3            1 S1                 0.0000
      4 ****        -5.6115  -0.2535  -1.4444 C.ar           1 S1                 0.0000
      5 ****        -4.9272   0.5115  -2.4213 C.ar           1 S1                 0.0000
      6 ****        -3.5541   0.7720  -2.2529 C.ar           1 S1                 0.0000
      7 ****        -2.8913   0.2752  -1.1147 C.ar           1 S1                 0.0000
      8 ****        -1.5031   0.5460  -0.9774 N.am           1 S1                 0.0000
      9 ****        -0.7565   0.5308   0.1402 C.2            1 S1                 0.0000
     10 ****        -1.1707   0.2720   1.2701 O.2            1 S1                 0.0000
     11 ****         0.5168   0.8576  -0.1231 N.am           1 S1                 0.0000
     12 ****         1.5810   0.9632   0.8709 C.3            1 S1                 0.0000
     13 ****         2.6610   1.9482   0.3747 C.3            1 S1                 0.0000
     14 ****         3.8868   1.9523   1.3061 C.3            1 S1                 0.0000
     15 ****         4.4022   0.5816   1.4139 N.am           1 S1                 0.0000
     16 ****         5.5918   0.2043   0.8817 C.2            1 S1                 0.0000
     17 ****         6.3664   1.0126   0.3673 O.2            1 S1                 0.0000
     18 ****         5.9254  -1.2560   0.9206 C.3            1 S1                 0.0000
     19 ****         6.8685  -1.7133   2.0137 C.3            1 S1                 0.0000
     20 ****         7.3434  -1.6825   0.5850 C.3            1 S1                 0.0000
     21 ****         3.4300  -0.3021   2.0729 C.3            1 S1                 0.0000
     22 ****         2.1846  -0.4266   1.1777 C.3            1 S1                 0.0000
     23 ****        -3.6490  -0.4936  -0.2008 C.ar           1 S1                 0.0000
     24 ****        -4.9651  -0.7472  -0.3599 N.ar           1 S1                 0.0000
     25 ****        -7.2085  -2.2644  -0.3751 H              1 S1                 0.0000
     26 ****        -8.7210  -1.4438  -0.7463 H              1 S1                 0.0000
     27 ****        -7.6165  -0.7454   0.4376 H              1 S1                 0.0000
     28 ****        -7.4335  -0.2629  -3.6028 H              1 S1                 0.0000
     29 ****        -7.6849   1.1678  -2.5862 H              1 S1                 0.0000
     30 ****        -8.8315  -0.1680  -2.5367 H              1 S1                 0.0000
     31 ****        -5.4257   0.9031  -3.2949 H              1 S1                 0.0000
     32 ****        -3.0204   1.3538  -2.9903 H              1 S1                 0.0000
     33 ****        -1.0372   0.8535  -1.8185 H              1 S1                 0.0000
     34 ****         0.7680   1.0587  -1.0799 H              1 S1                 0.0000
     35 ****         1.1671   1.3696   1.7959 H              1 S1                 0.0000
     36 ****         2.9803   1.6719  -0.6316 H              1 S1                 0.0000
     37 ****         2.2458   2.9540   0.3020 H              1 S1                 0.0000
     38 ****         4.6295   2.6590   0.9335 H              1 S1                 0.0000
     39 ****         3.6061   2.3140   2.2964 H              1 S1                 0.0000
     40 ****         5.1418  -1.9426   0.6050 H              1 S1                 0.0000
     41 ****         7.2717  -0.9624   2.6915 H              1 S1                 0.0000
     42 ****         6.6659  -2.6814   2.4666 H              1 S1                 0.0000
     43 ****         7.4634  -2.6324   0.0680 H              1 S1                 0.0000
     44 ****         8.0812  -0.9252   0.3264 H              1 S1                 0.0000
     45 ****         3.8221  -1.2890   2.3146 H              1 S1                 0.0000
     46 ****         3.1494   0.1319   3.0337 H              1 S1                 0.0000
     47 ****         1.4422  -1.0611   1.6631 H              1 S1                 0.0000
     48 ****         2.4594  -0.9270   0.2477 H              1 S1                 0.0000
     49 ****        -3.2078  -0.9421   0.6753 H              1 S1                 0.0000
     50 ****        -2.1356   0.0497   1.4102 LP             1 S1                 0.0000
     51 ****        -0.5424   0.2840   2.0480 LP             1 S1                 0.0000
     52 ****         6.1262   1.9827   0.3324 LP             1 S1                 0.0000
     53 ****         7.2353   0.6985  -0.0153 LP             1 S1                 0.0000
     54 ****        -5.4589  -1.2943   0.3161 LP             1 S1                 0.0000
@<TRIPOS>BOND
    1    1    2 1     
    2    1   25 1     
    3    1   26 1     
    4    1   27 1     
    5    2    3 1     
    6    2    4 1     
    7    3   28 1     
    8    3   29 1     
    9    3   30 1     
   10    4   24 ar    
   11    4    5 ar    
   12    5    6 ar    
   13    5   31 1     
   14    6    7 ar    
   15    6   32 1     
   16    7    8 1     
   17    7   23 ar    
   18    8    9 am    
   19    8   33 1     
   20    9   10 2     
   21    9   11 am    
   22   11   12 1     
   23   11   34 1     
   24   12   22 1     
   25   12   13 1     
   26   12   35 1     
   27   13   14 1     
   28   13   36 1     
   29   13   37 1     
   30   14   15 1     
   31   14   38 1     
   32   14   39 1     
   33   15   16 am    
   34   15   21 1     
   35   16   17 2     
   36   16   18 1     
   37   18   20 1     
   38   18   19 1     
   39   18   40 1     
   40   19   20 1     
   41   19   41 1     
   42   19   42 1     
   43   20   43 1     
   44   20   44 1     
   45   21   22 1     
   46   21   45 1     
   47   21   46 1     
   48   22   47 1     
   49   22   48 1     
   50   23   24 ar    
   51   23   49 1     
   52   10   50 1     
   53   10   51 1     
   54   17   52 1     
   55   17   53 1     
   56   24   54 1     
@<TRIPOS>SUBSTRUCTURE
      1 S1             1
@<TRIPOS>SET
LONE_PAIRS      STATIC     ATOMS    <user>   **** ""
5 50 51 52 53 54
DONOR_HYDROGENS      STATIC     ATOMS    <user>   **** ""
2 33 34
ATOM$BLUE        STATIC     ATOMS    COLORGROUP SYSTEM
5 50 51 52 53 54
ATOM$RED        STATIC     ATOMS    COLORGROUP SYSTEM
2 33 34
