#       Name:                AV-unprocessed.smi:3260
#       Creating user name   scv26
#       Creation time:       Fri Mar 27 18:37:42 2020


#       File generated by GOLD software.
#

@<TRIPOS>MOLECULE
AV-unprocessed.smi:3260
    43    44     1
SMALL
NO_CHARGES


@<TRIPOS>ATOM
      1 ****        -2.3443   2.3384  -0.2489 C.3            1 S1                 0.0000
      2 ****        -1.8442   1.5091  -1.3243 N.pl3          1 S1                 0.0000
      3 ****        -1.5943   0.1543  -1.3197 C.2            1 S1                 0.0000
      4 ****        -1.1191  -0.1801  -2.5567 C.2            1 S1                 0.0000
      5 ****        -0.6769  -1.5319  -3.0555 C.3            1 S1                 0.0000
      6 ****         0.8581  -1.6729  -3.1492 C.3            1 S1                 0.0000
      7 ****         1.5623  -1.1581  -1.9774 N.am           1 S1                 0.0000
      8 ****         1.4915  -1.6725  -0.7424 C.2            1 S1                 0.0000
      9 ****         0.8684  -2.6939  -0.4528 O.2            1 S1                 0.0000
     10 ****         2.1417  -0.9107   0.1471 N.am           1 S1                 0.0000
     11 ****         2.1100  -1.1086   1.5915 C.3            1 S1                 0.0000
     12 ****         0.7922  -0.5989   2.2021 C.3            1 S1                 0.0000
     13 ****         0.5079   0.8825   1.9598 C.3            1 S1                 0.0000
     14 ****        -0.4819   1.1788   3.0625 C.3            1 S1                 0.0000
     15 ****         0.0542   0.3285   4.2139 C.3            1 S1                 0.0000
     16 ****         0.8124  -0.7239   3.6195 O.3            1 S1                 0.0000
     17 ****        -1.1252   1.0586  -3.2587 C.2            1 S1                 0.0000
     18 ****        -1.5561   2.0673  -2.5181 N.2            1 S1                 0.0000
     19 ****        -2.6758   1.7137   0.5808 H              1 S1                 0.0000
     20 ****        -3.1859   2.9360  -0.6004 H              1 S1                 0.0000
     21 ****        -1.5532   3.0023   0.1010 H              1 S1                 0.0000
     22 ****        -1.7612  -0.4534  -0.4423 H              1 S1                 0.0000
     23 ****        -1.0623  -2.3148  -2.4014 H              1 S1                 0.0000
     24 ****        -1.1103  -1.7409  -4.0339 H              1 S1                 0.0000
     25 ****         1.1377  -2.7114  -3.3319 H              1 S1                 0.0000
     26 ****         1.2163  -1.1016  -4.0061 H              1 S1                 0.0000
     27 ****         2.0980  -0.3125  -2.1075 H              1 S1                 0.0000
     28 ****         2.6285  -0.0932  -0.1900 H              1 S1                 0.0000
     29 ****         2.2569  -2.1629   1.8310 H              1 S1                 0.0000
     30 ****         2.9534  -0.5717   2.0261 H              1 S1                 0.0000
     31 ****        -0.0477  -1.1895   1.8317 H              1 S1                 0.0000
     32 ****         1.4125   1.4762   2.0981 H              1 S1                 0.0000
     33 ****         0.1136   1.0845   0.9642 H              1 S1                 0.0000
     34 ****        -0.5474   2.2391   3.3077 H              1 S1                 0.0000
     35 ****        -1.4750   0.8334   2.7715 H              1 S1                 0.0000
     36 ****         0.7173   0.9156   4.8503 H              1 S1                 0.0000
     37 ****        -0.7486  -0.0671   4.8364 H              1 S1                 0.0000
     38 ****        -0.8226   1.2541  -4.2769 H              1 S1                 0.0000
     39 ****         0.3726  -3.1952  -1.1620 LP             1 S1                 0.0000
     40 ****         0.8579  -3.0224   0.4916 LP             1 S1                 0.0000
     41 ****         1.7574  -0.6744   3.9427 LP             1 S1                 0.0000
     42 ****         0.4168  -1.6047   3.8798 LP             1 S1                 0.0000
     43 ****        -1.6475   3.0270  -2.7837 LP             1 S1                 0.0000
@<TRIPOS>BOND
    1    1    2 1     
    2    1   19 1     
    3    1   20 1     
    4    1   21 1     
    5    2   18 1     
    6    2    3 1     
    7    3    4 2     
    8    3   22 1     
    9    4    5 1     
   10    4   17 1     
   11    5    6 1     
   12    5   23 1     
   13    5   24 1     
   14    6    7 1     
   15    6   25 1     
   16    6   26 1     
   17    7    8 am    
   18    7   27 1     
   19    8    9 2     
   20    8   10 am    
   21   10   11 1     
   22   10   28 1     
   23   11   12 1     
   24   11   29 1     
   25   11   30 1     
   26   12   16 1     
   27   12   13 1     
   28   12   31 1     
   29   13   14 1     
   30   13   32 1     
   31   13   33 1     
   32   14   15 1     
   33   14   34 1     
   34   14   35 1     
   35   15   16 1     
   36   15   36 1     
   37   15   37 1     
   38   17   18 2     
   39   17   38 1     
   40    9   39 1     
   41    9   40 1     
   42   16   41 1     
   43   16   42 1     
   44   18   43 1     
@<TRIPOS>SUBSTRUCTURE
      1 S1             1
@<TRIPOS>SET
LONE_PAIRS      STATIC     ATOMS    <user>   **** ""
5 39 40 41 42 43
DONOR_HYDROGENS      STATIC     ATOMS    <user>   **** ""
2 27 28
ATOM$BLUE        STATIC     ATOMS    COLORGROUP SYSTEM
5 39 40 41 42 43
ATOM$RED        STATIC     ATOMS    COLORGROUP SYSTEM
2 27 28
