AV-unprocessed.smi:2252|AV-procd|sdf|9114|dock8
  -GOLD-   2272012323D 1   1.00000     0.00000
 Structure written by MMmdl.
 44 46  0  0  0  0  0  0  0  0  1 V2000
  152.8515  143.2255  162.1570 C   0  0  0  0  0  0  0  0  0  0  0  0
  152.5901  143.6284  160.7883 N   0  0  0  0  0  0  0  0  0  0  0  0
  152.0498  144.8415  160.3827 C   0  0  0  0  0  0  0  0  0  0  0  0
  151.9851  144.8048  159.0106 C   0  0  0  0  0  0  0  0  0  0  0  0
  152.4773  143.5854  158.5576 N   0  0  0  0  0  0  0  0  0  0  0  0
  152.8140  142.9249  159.6613 C   0  0  0  0  0  0  0  0  0  0  0  0
  153.4180  141.5557  159.6595 C   0  0  0  0  0  0  0  0  0  0  0  0
  152.4125  140.4724  159.2360 C   0  0  0  0  0  0  0  0  0  0  0  0
  152.0205  140.6270  157.8410 N   0  0  0  0  0  0  0  0  0  0  0  0
  151.2928  139.7391  157.1454 C   0  0  0  0  0  0  0  0  0  0  0  0
  150.8841  138.6808  157.6251 O   0  0  0  0  0  0  0  0  0  0  0  0
  150.9469  140.1181  155.6940 C   0  0  1  0  0  0  0  0  0  0  0  0
  151.4600  139.0265  154.7289 C   0  0  0  0  0  0  0  0  0  0  0  0
  151.5452  137.5791  155.1711 C   0  0  0  0  0  0  0  0  0  0  0  0
  152.8063  138.3679  154.9448 C   0  0  0  0  0  0  0  0  0  0  0  0
  149.4951  140.3555  155.4957 N   0  0  0  0  0  0  0  0  0  0  0  0
  148.8864  141.3195  156.4116 C   0  0  0  0  0  0  0  0  0  0  0  0
  147.5318  141.6302  155.7736 C   0  0  0  0  0  0  0  0  0  0  0  0
  147.7174  141.3162  154.2924 C   0  0  0  0  0  0  0  0  0  0  0  0
  149.1757  140.8755  154.1694 C   0  0  0  0  0  0  0  0  0  0  0  0
  152.6895  144.0647  162.8342 H   0  0  0  0  0  0  0  0  0  0  0  0
  153.8841  142.8896  162.2560 H   0  0  0  0  0  0  0  0  0  0  0  0
  152.1809  142.4122  162.4356 H   0  0  0  0  0  0  0  0  0  0  0  0
  151.7667  145.6121  161.0848 H   0  0  0  0  0  0  0  0  0  0  0  0
  151.6280  145.5556  158.3211 H   0  0  0  0  0  0  0  0  0  0  0  0
  154.2915  141.5475  159.0068 H   0  0  0  0  0  0  0  0  0  0  0  0
  153.7901  141.3412  160.6621 H   0  0  0  0  0  0  0  0  0  0  0  0
  152.8557  139.4839  159.3589 H   0  0  0  0  0  0  0  0  0  0  0  0
  151.5285  140.4977  159.8754 H   0  0  0  0  0  0  0  0  0  0  0  0
  152.3103  141.4744  157.3747 H   0  0  0  0  0  0  0  0  0  0  0  0
  151.4779  141.0467  155.4735 H   0  0  0  0  0  0  0  0  0  0  0  0
  151.1543  139.1735  153.6941 H   0  0  0  0  0  0  0  0  0  0  0  0
  151.2827  137.3425  156.2005 H   0  0  0  0  0  0  0  0  0  0  0  0
  151.2900  136.8165  154.4385 H   0  0  0  0  0  0  0  0  0  0  0  0
  153.3954  138.1340  154.0605 H   0  0  0  0  0  0  0  0  0  0  0  0
  153.3800  138.6621  155.8214 H   0  0  0  0  0  0  0  0  0  0  0  0
  148.7769  140.9280  157.4237 H   0  0  0  0  0  0  0  0  0  0  0  0
  149.4935  142.2257  156.4587 H   0  0  0  0  0  0  0  0  0  0  0  0
  146.7538  140.9931  156.1964 H   0  0  0  0  0  0  0  0  0  0  0  0
  147.2396  142.6671  155.9425 H   0  0  0  0  0  0  0  0  0  0  0  0
  147.0493  140.5067  153.9957 H   0  0  0  0  0  0  0  0  0  0  0  0
  147.5020  142.1754  153.6563 H   0  0  0  0  0  0  0  0  0  0  0  0
  149.8069  141.7354  153.9367 H   0  0  0  0  0  0  0  0  0  0  0  0
  149.3127  140.1294  153.3861 H   0  0  0  0  0  0  0  0  0  0  0  0
  1  2  1  0  0  0  0
  1 21  1  0  0  0  0
  1 22  1  0  0  0  0
  1 23  1  0  0  0  0
  2  6  1  0  0  0  0
  2  3  1  0  0  0  0
  3  4  2  0  0  0  0
  3 24  1  0  0  0  0
  4  5  1  0  0  0  0
  4 25  1  0  0  0  0
  5  6  2  0  0  0  0
  6  7  1  0  0  0  0
  7  8  1  0  0  0  0
  7 26  1  0  0  0  0
  7 27  1  0  0  0  0
  8  9  1  0  0  0  0
  8 28  1  0  0  0  0
  8 29  1  0  0  0  0
  9 10  1  0  0  0  0
  9 30  1  0  0  0  0
 10 11  2  0  0  0  0
 10 12  1  0  0  0  0
 12 13  1  0  0  0  0
 12 16  1  0  0  0  0
 12 31  1  0  0  0  0
 13 15  1  0  0  0  0
 13 14  1  0  0  0  0
 13 32  1  0  0  0  0
 14 15  1  0  0  0  0
 14 33  1  0  0  0  0
 14 34  1  0  0  0  0
 15 35  1  0  0  0  0
 15 36  1  0  0  0  0
 16 20  1  0  0  0  0
 16 17  1  0  0  0  0
 17 18  1  0  0  0  0
 17 37  1  0  0  0  0
 17 38  1  0  0  0  0
 18 19  1  0  0  0  0
 18 39  1  0  0  0  0
 18 40  1  0  0  0  0
 19 20  1  0  0  0  0
 19 41  1  0  0  0  0
 19 42  1  0  0  0  0
 20 43  1  0  0  0  0
 20 44  1  0  0  0  0
M  END
> <s_m_source_file>
AV-unprocessed.smi

> <i_m_source_file_index>
2252

> <i_lp_mmshare_version>
43012

> <i_f3d_flags>
0

> <s_epik_input>
W0NIM11uMVtjSF1bY0hdbmMxW0NIMl1bQ0gyXVtOSF1DKD1PKVtDQEhdKFtDSF0yW0NIMl1bQ0gyXTIpTjNbQ0gyXVtDSDJdW0NIMl1bQ0gyXTM=

> <s_epik_cmdline>
J2VwaWtfcHl0aG9uJywgJy1waCcsICc3LjAnLCAnLXRuJywgJzgnLCAnLW1hJywgJzIwMCcsICctbWV0YWxfYmluZGluZycsICctaW1hZScsICc8aW5maWxlLm1hZT4nLCAnLW9tYWUnLCAnPG91dGZpbGUubWFlPic=

> <r_epik_Ionization_Penalty>
3.7689

> <r_epik_Ionization_Penalty_Charging>
1.29411

> <r_epik_Ionization_Penalty_Neutral>
2.4748

> <r_epik_State_Penalty>
3.85943

> <r_epik_Charging_Adjusted_Penalty>
5.15353

> <i_epik_Tot_Q>
0

> <i_epik_Tot_abs_Q>
0

> <r_epik_Metal_State_Penalty>
2.88358

> <b_epik_Metal_Only>
1

> <s_lp_Force_Field>
OPLS_2005

> <r_lp_Energy>
29.995

> <b_lp_Chiralities_Consistent>
1

> <s_lp_Variant>
AV-unprocessed.smi:2252-12

> <Gold.Version>
5.8.1

> <Gold.Id.Protein>
6NUR|6NUR_protein|mol2

> <Gold.PLP.Fitness>
48.2894

> <Gold.PLP.PLP>
-48.6542

> <Gold.PLP.part.hbond>
0.0000

> <Gold.PLP.part.metal>
0.0000

> <Gold.PLP.part.buried>
-3.9159

> <Gold.PLP.part.nonpolar>
-43.8297

> <Gold.PLP.part.repulsive>
0.1585

> <Gold.PLP.ligand.clash>
0.0000

> <Gold.PLP.ligand.torsion>
0.7736

> <Gold.PLP.Chemscore.Hbond>
0.0000

> <Gold.PLP.Chemscore.CHOScore>
0.0000

> <Gold.PLP.Chemscore.Metal>
0.0000

> <Gold.PLP.Chemscore.Internal.Correction>
1.1824

> <Gold.Rescore>
     Score         DG    S(hbond)    S(metal)    S(lipo)     H(rot)  DE(clash)    DE(int)     intcor
     11.20     -13.43       0.00        0.00     108.69       1.86       0.07       2.16       ----

> <Gold.Chemscore.Fitness>
11.1951

> <Gold.Chemscore.DG>
-13.4299

> <Gold.Chemscore.ZeroCoef>
-5.4800

> <Gold.Chemscore.Hbond>
0.0000

> <Gold.Chemscore.Metal>
0.0000

> <Gold.Chemscore.Lipo>
108.6874

> <Gold.Chemscore.Internal_Hbond>
0.0000

> <Gold.Chemscore.DEClash>
0.0735

> <Gold.Chemscore.DEInternal>
2.1612

> <Gold.Chemscore.Rot>
1.8619

> <Gold.Chemscore.Internal.Correction>
   9.000000E+99

> <Gold.Chemscore.Hbond.Weighted>
-0.0000

> <Gold.Chemscore.Metal.Weighted>
-0.0000

> <Gold.Chemscore.Lipo.Weighted>
-12.7164

> <Gold.Chemscore.Internal_Hbond.Weighted>
0.0000

> <Gold.Chemscore.DEClash.Weighted>
0.0735

> <Gold.Chemscore.DEInternal.Weighted>
2.1612

> <Gold.Chemscore.Rot.Weighted>
4.7665

> <Gold.Chemscore.Internal.Correction.Weighted>
   9.000000E+99

> <Gold.Protein.RotatedTorsions>
[ 6907 6896 6895 6894 ] final -149.85 input  -60.11 | X-H torsion
[ 7974 7965 7964 7962 ] final  -50.53 input  175.53 | X-H torsion
[ 8008 7997 7996 7995 ] final   25.26 input   59.86 | X-H torsion
[ 10167 10162 10161 10158 ] final  -99.60 input  -65.29 | X-H torsion
[ 10718 10713 10712 10709 ] final   33.43 input   66.30 | X-H torsion
[ 10763 10752 10751 10750 ] final -156.28 input  -60.55 | X-H torsion
[ 11005 11000 10999 10996 ] final   67.29 input  -57.11 | X-H torsion

> <Gold.Protein.ActiveResidues>
 VAL166  LYS551  ARG553  GLY616  TRP617  ASP618  TYR619  PRO620  LYS621  CYS622 
 ASP623  PHE694  ASN695  SER759  ASP760  ASP761  ALA762  ILE779  LEU786  VAL792 
 PHE793  MET794  SER795  GLU796  ALA797  LYS798  CYS799  TRP800  GLU811  SER814 

> <Gold.Protein.RotatedAtoms>
  151.1901  133.4672  159.2594 H   0  0  0  0  0  0  0  0  0  0  0  0  # atno 6907 bound_to 6896
  151.1172  135.0059  159.8532 H   0  0  0  0  0  0  0  0  0  0  0  0  # atno 6908 bound_to 6896
  152.5454  134.1815  159.8690 H   0  0  0  0  0  0  0  0  0  0  0  0  # atno 6909 bound_to 6896
  145.9289  140.7767  142.9610 H   0  0  0  0  0  0  0  0  0  0  0  0  # atno 7974 bound_to 7965
  155.0090  140.3134  155.4837 H   0  0  0  0  0  0  0  0  0  0  0  0  # atno 8008 bound_to 7997
  156.2912  140.2218  156.5144 H   0  0  0  0  0  0  0  0  0  0  0  0  # atno 8009 bound_to 7997
  154.7551  140.0463  157.0915 H   0  0  0  0  0  0  0  0  0  0  0  0  # atno 8010 bound_to 7997
  140.2607  143.3409  152.0628 H   0  0  0  0  0  0  0  0  0  0  0  0  # atno 10167 bound_to 10162
  157.2978  130.7335  149.6648 H   0  0  0  0  0  0  0  0  0  0  0  0  # atno 10718 bound_to 10713
  154.7724  135.3149  154.8162 H   0  0  0  0  0  0  0  0  0  0  0  0  # atno 10763 bound_to 10752
  153.8894  135.6827  153.4766 H   0  0  0  0  0  0  0  0  0  0  0  0  # atno 10764 bound_to 10752
  153.1341  135.4767  154.9329 H   0  0  0  0  0  0  0  0  0  0  0  0  # atno 10765 bound_to 10752
  139.9780  134.6790  156.0317 H   0  0  0  0  0  0  0  0  0  0  0  0  # atno 11005 bound_to 11000
  144.6762  140.2095  143.7378 LP  0  0  0  0  0  0  0  0  0  0  0  0  # atno 17320 bound_to 7965
  145.8452  139.2149  143.1804 LP  0  0  0  0  0  0  0  0  0  0  0  0  # atno 17321 bound_to 7965
  139.5017  144.6720  151.6219 LP  0  0  0  0  0  0  0  0  0  0  0  0  # atno 17342 bound_to 10162
  140.5968  143.9682  150.6359 LP  0  0  0  0  0  0  0  0  0  0  0  0  # atno 17343 bound_to 10162
  155.9670  130.4289  150.4810 LP  0  0  0  0  0  0  0  0  0  0  0  0  # atno 17370 bound_to 10713
  157.2784  131.0602  151.2213 LP  0  0  0  0  0  0  0  0  0  0  0  0  # atno 17371 bound_to 10713
  141.1455  133.6557  156.3855 LP  0  0  0  0  0  0  0  0  0  0  0  0  # atno 17394 bound_to 11000
  140.5155  134.6354  157.5299 LP  0  0  0  0  0  0  0  0  0  0  0  0  # atno 17395 bound_to 11000

$$$$
