#       Name:                AV-unprocessed.smi:3148
#       Creating user name   scv26
#       Creation time:       Fri Mar 27 17:40:08 2020


#       File generated by GOLD software.
#

@<TRIPOS>MOLECULE
AV-unprocessed.smi:3148
    40    42     1
SMALL
NO_CHARGES


@<TRIPOS>ATOM
      1 ****        -3.6171  -1.1545  -0.0169 C.3            1 S1                 0.0000
      2 ****        -2.9158  -2.3929  -0.0521 O.3            1 S1                 0.0000
      3 ****        -1.5411  -2.3692   0.0623 C.ar           1 S1                 0.0000
      4 ****        -0.8209  -3.5742   0.0171 C.ar           1 S1                 0.0000
      5 ****         0.5796  -3.4880   0.1368 C.ar           1 S1                 0.0000
      6 ****         1.4677  -4.7131   0.0965 C.3            1 S1                 0.0000
      7 ****         1.1759  -2.2793   0.2895 N.pl3          1 S1                 1.0000
      8 ****         0.4309  -1.1645   0.3235 C.ar           1 S1                 0.0000
      9 ****         1.0903   0.0423   0.4721 N.pl3          1 S1                 0.0000
     10 ****         2.5368   0.1724   0.5931 C.3            1 S1                 0.0000
     11 ****         3.0695  -0.3048   1.9504 C.3            1 S1                 0.0000
     12 ****         3.8087   0.9405   2.4551 C.3            1 S1                 0.0000
     13 ****         5.0772   1.2327   1.6421 C.3            1 S1                 0.0000
     14 ****         4.4938   1.7582   0.3307 C.3            1 S1                 0.0000
     15 ****         2.9849   1.6432   0.5869 C.3            1 S1                 0.0000
     16 ****         2.9460   1.9541   1.9704 O.3            1 S1                 0.0000
     17 ****        -0.9049  -1.1845   0.2150 N.ar           1 S1                 0.0000
     18 ****        -4.6852  -1.3415  -0.1265 H              1 S1                 0.0000
     19 ****        -3.3110  -0.4986  -0.8334 H              1 S1                 0.0000
     20 ****        -3.4677  -0.6376   0.9322 H              1 S1                 0.0000
     21 ****        -1.3239  -4.5224  -0.1062 H              1 S1                 0.0000
     22 ****         0.8755  -5.6285   0.0815 H              1 S1                 0.0000
     23 ****         2.1168  -4.7428   0.9722 H              1 S1                 0.0000
     24 ****         2.0935  -4.6966  -0.7962 H              1 S1                 0.0000
     25 ****         0.5271   0.8613   0.6495 H              1 S1                 0.0000
     26 ****         3.0091  -0.3643  -0.2309 H              1 S1                 0.0000
     27 ****         2.2600  -0.5633   2.6349 H              1 S1                 0.0000
     28 ****         3.7253  -1.1717   1.8627 H              1 S1                 0.0000
     29 ****         3.9599   0.9578   3.5347 H              1 S1                 0.0000
     30 ****         5.6826   2.0001   2.1257 H              1 S1                 0.0000
     31 ****         5.6949   0.3444   1.5063 H              1 S1                 0.0000
     32 ****         4.7809   2.7989   0.1755 H              1 S1                 0.0000
     33 ****         4.8160   1.1830  -0.5379 H              1 S1                 0.0000
     34 ****         2.3849   2.2992  -0.0451 H              1 S1                 0.0000
     35 ****         2.1916  -2.2300   0.3724 H              1 S1                 0.0000
     36 ****        -3.1329  -2.8314  -0.9241 LP             1 S1                 0.0000
     37 ****        -3.2659  -2.9528   0.6989 LP             1 S1                 0.0000
     38 ****         3.3017   2.8696   2.1583 LP             1 S1                 0.0000
     39 ****         2.0232   1.8714   2.3466 LP             1 S1                 0.0000
     40 ****        -1.4266  -0.3319   0.2466 LP             1 S1                 0.0000
@<TRIPOS>BOND
    1    1    2 1     
    2    1   18 1     
    3    1   19 1     
    4    1   20 1     
    5    2    3 1     
    6    3   17 ar    
    7    3    4 ar    
    8    4    5 ar    
    9    4   21 1     
   10    5    6 1     
   11    5    7 ar    
   12    6   22 1     
   13    6   23 1     
   14    6   24 1     
   15    7    8 ar    
   16    7   35 1     
   17    8    9 1     
   18    8   17 ar    
   19    9   10 1     
   20    9   25 1     
   21   10   15 1     
   22   10   11 1     
   23   10   26 1     
   24   11   12 1     
   25   11   27 1     
   26   11   28 1     
   27   12   16 1     
   28   12   13 1     
   29   12   29 1     
   30   13   14 1     
   31   13   30 1     
   32   13   31 1     
   33   14   15 1     
   34   14   32 1     
   35   14   33 1     
   36   15   16 1     
   37   15   34 1     
   38    2   36 1     
   39    2   37 1     
   40   16   38 1     
   41   16   39 1     
   42   17   40 1     
@<TRIPOS>SUBSTRUCTURE
      1 S1             1
@<TRIPOS>SET
LONE_PAIRS      STATIC     ATOMS    <user>   **** ""
5 36 37 38 39 40
DONOR_HYDROGENS      STATIC     ATOMS    <user>   **** ""
2 35 25
ATOM$BLUE        STATIC     ATOMS    COLORGROUP SYSTEM
5 36 37 38 39 40
ATOM$RED        STATIC     ATOMS    COLORGROUP SYSTEM
2 35 25
