AV-unprocessed.smi:1419|AV-procd|sdf|5784|dock2
  -GOLD-   22720 5433D 1   1.00000     0.00000
 Structure written by MMmdl.
 41 42  0  0  0  0  0  0  0  0  1 V2000
  145.5031  133.9704  153.3266 C   0  0  0  0  0  0  0  0  0  0  0  0
  146.6821  133.7041  152.3810 C   0  0  2  0  0  0  0  0  0  0  0  0
  146.5366  132.3376  151.6780 C   0  0  0  0  0  0  0  0  0  0  0  0
  145.6584  132.3865  150.5230 N   0  0  0  0  0  0  0  0  0  0  0  0
  144.3793  132.9244  150.4619 C   0  0  0  0  0  0  0  0  0  0  0  0
  143.9404  132.7495  149.1692 C   0  0  0  0  0  0  0  0  0  0  0  0
  144.9195  132.0943  148.4262 N   0  0  0  0  0  0  0  0  0  0  0  0
  145.9028  131.9060  149.2963 C   0  0  0  0  0  0  0  0  0  0  0  0
  147.9262  133.7675  153.1470 N   0  0  0  0  0  0  0  0  0  0  0  0
  148.3796  132.8331  154.0014 C   0  0  0  0  0  0  0  0  0  0  0  0
  147.7660  131.7879  154.2202 O   0  0  0  0  0  0  0  0  0  0  0  0
  149.5452  133.1498  154.6173 N   0  0  0  0  0  0  0  0  0  0  0  0
  150.0702  134.4959  154.8833 C   0  0  0  0  0  0  0  0  0  0  0  0
  150.0765  134.7429  156.4062 C   0  0  1  0  0  0  0  0  0  0  0  0
  148.6738  134.9154  157.0149 C   0  0  0  0  0  0  0  0  0  0  0  0
  150.8059  133.7001  157.0615 O   0  0  0  0  0  0  0  0  0  0  0  0
  150.3870  132.3653  156.7630 C   0  0  2  0  0  0  0  0  0  0  0  0
  151.3224  131.4005  157.4994 C   0  0  0  0  0  0  0  0  0  0  0  0
  150.4112  132.1455  155.2377 C   0  0  0  0  0  0  0  0  0  0  0  0
  144.5570  133.9610  152.7848 H   0  0  0  0  0  0  0  0  0  0  0  0
  145.5961  134.9448  153.8076 H   0  0  0  0  0  0  0  0  0  0  0  0
  145.4437  133.2152  154.1114 H   0  0  0  0  0  0  0  0  0  0  0  0
  146.6708  134.4917  151.6257 H   0  0  0  0  0  0  0  0  0  0  0  0
  147.5128  131.9633  151.3651 H   0  0  0  0  0  0  0  0  0  0  0  0
  146.1281  131.6016  152.3718 H   0  0  0  0  0  0  0  0  0  0  0  0
  143.9056  133.3847  151.3163 H   0  0  0  0  0  0  0  0  0  0  0  0
  143.0010  133.0387  148.7216 H   0  0  0  0  0  0  0  0  0  0  0  0
  146.8255  131.4106  149.0328 H   0  0  0  0  0  0  0  0  0  0  0  0
  148.4861  134.5992  153.0287 H   0  0  0  0  0  0  0  0  0  0  0  0
  151.0898  134.5531  154.4993 H   0  0  0  0  0  0  0  0  0  0  0  0
  149.5297  135.2951  154.3763 H   0  0  0  0  0  0  0  0  0  0  0  0
  150.6240  135.6669  156.5940 H   0  0  0  0  0  0  0  0  0  0  0  0
  148.1564  135.7622  156.5635 H   0  0  0  0  0  0  0  0  0  0  0  0
  148.7365  135.0999  158.0874 H   0  0  0  0  0  0  0  0  0  0  0  0
  148.0492  134.0361  156.8661 H   0  0  0  0  0  0  0  0  0  0  0  0
  149.3751  132.2081  157.1381 H   0  0  0  0  0  0  0  0  0  0  0  0
  151.0422  130.3634  157.3134 H   0  0  0  0  0  0  0  0  0  0  0  0
  151.2837  131.5668  158.5762 H   0  0  0  0  0  0  0  0  0  0  0  0
  152.3564  131.5309  157.1790 H   0  0  0  0  0  0  0  0  0  0  0  0
  150.1070  131.1241  155.0051 H   0  0  0  0  0  0  0  0  0  0  0  0
  151.4263  132.2517  154.8519 H   0  0  0  0  0  0  0  0  0  0  0  0
  1  2  1  0  0  0  0
  1 20  1  0  0  0  0
  1 21  1  0  0  0  0
  1 22  1  0  0  0  0
  2  3  1  0  0  0  0
  2  9  1  0  0  0  0
  2 23  1  0  0  0  0
  3  4  1  0  0  0  0
  3 24  1  0  0  0  0
  3 25  1  0  0  0  0
  4  8  1  0  0  0  0
  4  5  1  0  0  0  0
  5  6  2  0  0  0  0
  5 26  1  0  0  0  0
  6  7  1  0  0  0  0
  6 27  1  0  0  0  0
  7  8  2  0  0  0  0
  8 28  1  0  0  0  0
  9 10  1  0  0  0  0
  9 29  1  0  0  0  0
 10 11  2  0  0  0  0
 10 12  1  0  0  0  0
 12 19  1  0  0  0  0
 12 13  1  0  0  0  0
 13 14  1  0  0  0  0
 13 30  1  0  0  0  0
 13 31  1  0  0  0  0
 14 15  1  0  0  0  0
 14 16  1  0  0  0  0
 14 32  1  0  0  0  0
 15 33  1  0  0  0  0
 15 34  1  0  0  0  0
 15 35  1  0  0  0  0
 16 17  1  0  0  0  0
 17 18  1  0  0  0  0
 17 19  1  0  0  0  0
 17 36  1  0  0  0  0
 18 37  1  0  0  0  0
 18 38  1  0  0  0  0
 18 39  1  0  0  0  0
 19 40  1  0  0  0  0
 19 41  1  0  0  0  0
M  END
> <s_m_source_file>
AV-unprocessed.smi

> <i_m_source_file_index>
1419

> <i_lp_mmshare_version>
43012

> <i_f3d_flags>
0

> <s_epik_input>
W2NIXTFuW2NIXVtjSF1uMVtDSDJdW0NAQEhdKFtDSDNdKVtOSF1DKD1PKU4yW0NIMl1bQ0BASF0oW0NIM10pT1tDQEBIXShbQ0gzXSlbQ0gyXTI=

> <s_epik_cmdline>
J2VwaWtfcHl0aG9uJywgJy1waCcsICc3LjAnLCAnLXRuJywgJzgnLCAnLW1hJywgJzIwMCcsICctbWV0YWxfYmluZGluZycsICctaW1hZScsICc8aW5maWxlLm1hZT4nLCAnLW9tYWUnLCAnPG91dGZpbGUubWFlPic=

> <r_lp_tautomer_probability>
1

> <r_epik_Ionization_Penalty>
0.625124

> <r_epik_Ionization_Penalty_Charging>
0.625093

> <r_epik_Ionization_Penalty_Neutral>
3.17415e-05

> <r_epik_State_Penalty>
0.641455

> <r_epik_Charging_Adjusted_Penalty>
1.26655

> <i_epik_Tot_Q>
0

> <i_epik_Tot_abs_Q>
0

> <r_epik_Metal_State_Penalty>
0.307717

> <b_epik_Metal_Only>
0

> <s_lp_Force_Field>
OPLS_2005

> <r_lp_Energy>
30.2714

> <b_lp_Chiralities_Consistent>
1

> <s_lp_Variant>
AV-unprocessed.smi:1419-11

> <Gold.Version>
5.8.1

> <Gold.Id.Protein>
6NUR|6NUR_protein|mol2

> <Gold.PLP.Fitness>
44.4735

> <Gold.PLP.PLP>
-35.7253

> <Gold.PLP.part.hbond>
-3.8042

> <Gold.PLP.part.metal>
0.0000

> <Gold.PLP.part.buried>
-5.5635

> <Gold.PLP.part.nonpolar>
-27.7852

> <Gold.PLP.part.repulsive>
0.7063

> <Gold.PLP.ligand.clash>
0.0000

> <Gold.PLP.ligand.torsion>
0.7270

> <Gold.PLP.Chemscore.Hbond>
1.3848

> <Gold.PLP.Chemscore.CHOScore>
1.9981

> <Gold.PLP.Chemscore.Metal>
0.0000

> <Gold.Chemscore.Hbonds>
donor molecule, donor type, donor heavy atom, donor atom, acceptor molecule, acceptor atom, score
      L1  H     9    29       P1  7948  0.94
      P1  H  6896  6907       L1    16  0.49
      L1  C     6    27       P1 10186  0.94
      L1  C     8    28       P1 10747  1.00

> <Gold.PLP.Chemscore.Internal.Correction>
0.0535

> <Gold.Rescore>
     Score         DG    S(hbond)    S(metal)    S(lipo)     H(rot)  DE(clash)    DE(int)     intcor
      9.55     -11.43       0.92        0.00      59.03       1.58       0.03       1.86       ----

> <Gold.Chemscore.Fitness>
9.5483

> <Gold.Chemscore.DG>
-11.4327

> <Gold.Chemscore.ZeroCoef>
-5.4800

> <Gold.Chemscore.Hbond>
0.9231

> <Gold.Chemscore.Metal>
0.0000

> <Gold.Chemscore.Lipo>
59.0308

> <Gold.Chemscore.Internal_Hbond>
0.0000

> <Gold.Chemscore.DEClash>
0.0276

> <Gold.Chemscore.DEInternal>
1.8568

> <Gold.Chemscore.Rot>
1.5769

> <Gold.Chemscore.Internal.Correction>
   9.000000E+99

> <Gold.Chemscore.Hbonds>
donor molecule, donor type, donor heavy atom, donor atom, acceptor molecule, acceptor atom, score
      L1  H     9    29       P1  7948  0.30
      P1  H  6896  6907       L1    16  0.12

> <Gold.Chemscore.Hbond.Weighted>
-3.0830

> <Gold.Chemscore.Metal.Weighted>
-0.0000

> <Gold.Chemscore.Lipo.Weighted>
-6.9066

> <Gold.Chemscore.Internal_Hbond.Weighted>
0.0000

> <Gold.Chemscore.DEClash.Weighted>
0.0276

> <Gold.Chemscore.DEInternal.Weighted>
1.8568

> <Gold.Chemscore.Rot.Weighted>
4.0369

> <Gold.Chemscore.Internal.Correction.Weighted>
   9.000000E+99

> <Gold.Protein.RotatedTorsions>
[ 6907 6896 6895 6894 ] final -141.27 input  -60.11 | X-H torsion
[ 7974 7965 7964 7962 ] final  -67.48 input  175.53 | X-H torsion
[ 8008 7997 7996 7995 ] final   93.89 input   59.86 | X-H torsion
[ 10167 10162 10161 10158 ] final  -48.94 input  -65.29 | X-H torsion
[ 10718 10713 10712 10709 ] final  124.18 input   66.30 | X-H torsion
[ 10763 10752 10751 10750 ] final -163.22 input  -60.55 | X-H torsion
[ 11005 11000 10999 10996 ] final -130.11 input  -57.11 | X-H torsion

> <Gold.Protein.ActiveResidues>
 VAL166  LYS551  ARG553  GLY616  TRP617  ASP618  TYR619  PRO620  LYS621  CYS622 
 ASP623  PHE694  ASN695  SER759  ASP760  ASP761  ALA762  ILE779  LEU786  VAL792 
 PHE793  MET794  SER795  GLU796  ALA797  LYS798  CYS799  TRP800  GLU811  SER814 

> <Gold.Protein.RotatedAtoms>
  151.0716  133.5461  159.2626 H   0  0  0  0  0  0  0  0  0  0  0  0  # atno 6907 bound_to 6896
  151.2398  135.0584  159.9030 H   0  0  0  0  0  0  0  0  0  0  0  0  # atno 6908 bound_to 6896
  152.5412  134.0493  159.8156 H   0  0  0  0  0  0  0  0  0  0  0  0  # atno 6909 bound_to 6896
  145.7286  140.9007  143.0592 H   0  0  0  0  0  0  0  0  0  0  0  0  # atno 7974 bound_to 7965
  156.0519  140.3307  155.7360 H   0  0  0  0  0  0  0  0  0  0  0  0  # atno 8008 bound_to 7997
  155.5589  140.0617  157.2851 H   0  0  0  0  0  0  0  0  0  0  0  0  # atno 8009 bound_to 7997
  154.4439  140.1881  156.0750 H   0  0  0  0  0  0  0  0  0  0  0  0  # atno 8010 bound_to 7997
  140.6708  143.2718  151.4144 H   0  0  0  0  0  0  0  0  0  0  0  0  # atno 10167 bound_to 10162
  157.5606  131.1090  150.8545 H   0  0  0  0  0  0  0  0  0  0  0  0  # atno 10718 bound_to 10713
  154.7143  135.3012  154.9148 H   0  0  0  0  0  0  0  0  0  0  0  0  # atno 10763 bound_to 10752
  154.0040  135.6703  153.4765 H   0  0  0  0  0  0  0  0  0  0  0  0  # atno 10764 bound_to 10752
  153.0780  135.5024  154.8360 H   0  0  0  0  0  0  0  0  0  0  0  0  # atno 10765 bound_to 10752
  140.9374  134.1238  157.4181 H   0  0  0  0  0  0  0  0  0  0  0  0  # atno 11005 bound_to 11000
  144.6898  139.9300  143.7471 LP  0  0  0  0  0  0  0  0  0  0  0  0  # atno 17320 bound_to 7965
  146.0558  139.3555  143.0611 LP  0  0  0  0  0  0  0  0  0  0  0  0  # atno 17321 bound_to 7965
  139.5975  144.1365  152.2161 LP  0  0  0  0  0  0  0  0  0  0  0  0  # atno 17342 bound_to 10162
  140.0739  144.5756  150.7171 LP  0  0  0  0  0  0  0  0  0  0  0  0  # atno 17343 bound_to 10162
  156.9044  130.5258  149.5282 LP  0  0  0  0  0  0  0  0  0  0  0  0  # atno 17370 bound_to 10713
  156.0659  130.5702  150.9287 LP  0  0  0  0  0  0  0  0  0  0  0  0  # atno 17371 bound_to 10713
  139.8811  135.0025  156.6132 LP  0  0  0  0  0  0  0  0  0  0  0  0  # atno 17394 bound_to 11000
  140.7780  133.8683  155.8545 LP  0  0  0  0  0  0  0  0  0  0  0  0  # atno 17395 bound_to 11000

$$$$
