AV-unprocessed.smi:1267|AV-procd|sdf|5322|dock4
  -GOLD-   22720 4443D 1   1.00000     0.00000
 Structure written by MMmdl.
 37 38  0  0  0  0  0  0  0  0  1 V2000
  149.8236  135.3874  155.0119 C   0  0  0  0  0  0  0  0  0  0  0  0
  150.6071  136.8570  155.7933 S   0  0  0  0  0  0  0  0  0  0  0  0
  150.6744  136.6235  157.2439 O   0  0  0  0  0  0  0  0  0  0  0  0
  151.8357  137.1718  155.0481 O   0  0  0  0  0  0  0  0  0  0  0  0
  149.4703  138.1449  155.5135 N   0  0  0  0  0  0  0  0  0  0  0  0
  148.6983  138.7053  156.6407 C   0  0  0  0  0  0  0  0  0  0  0  0
  149.2857  140.0433  157.1233 C   0  0  0  0  0  0  0  0  0  0  0  0
  149.4260  141.0454  155.9683 C   0  0  0  0  0  0  0  0  0  0  0  0
  150.0418  142.2753  156.4563 N   0  0  0  0  0  0  0  0  0  0  0  0
  151.1695  142.3454  157.1806 C   0  0  0  0  0  0  0  0  0  0  0  0
  151.8148  141.3581  157.5325 O   0  0  0  0  0  0  0  0  0  0  0  0
  151.6432  143.7468  157.5666 C   0  0  0  0  0  0  0  0  0  0  0  0
  152.0176  143.8023  158.9679 N   0  0  0  0  0  0  0  0  0  0  0  0
  151.6653  144.7447  159.9114 C   0  0  0  0  0  0  0  0  0  0  0  0
  152.2468  144.3765  161.0906 C   0  0  0  0  0  0  0  0  0  0  0  0
  152.9430  143.1790  160.7646 C   0  0  0  0  0  0  0  0  0  0  0  0
  152.8044  142.8375  159.4937 N   0  0  0  0  0  0  0  0  0  0  0  0
  150.2695  140.4135  154.8477 C   0  0  0  0  0  0  0  0  0  0  0  0
  149.6717  139.0739  154.3836 C   0  0  0  0  0  0  0  0  0  0  0  0
  150.4775  134.5255  155.1419 H   0  0  0  0  0  0  0  0  0  0  0  0
  149.6808  135.5643  153.9475 H   0  0  0  0  0  0  0  0  0  0  0  0
  148.8672  135.1791  155.4880 H   0  0  0  0  0  0  0  0  0  0  0  0
  147.6700  138.8573  156.3110 H   0  0  0  0  0  0  0  0  0  0  0  0
  148.6545  137.9918  157.4630 H   0  0  0  0  0  0  0  0  0  0  0  0
  148.6453  140.4604  157.9014 H   0  0  0  0  0  0  0  0  0  0  0  0
  150.2565  139.8754  157.5884 H   0  0  0  0  0  0  0  0  0  0  0  0
  148.4296  141.2734  155.5846 H   0  0  0  0  0  0  0  0  0  0  0  0
  149.5857  143.1421  156.2102 H   0  0  0  0  0  0  0  0  0  0  0  0
  152.4926  144.0440  156.9493 H   0  0  0  0  0  0  0  0  0  0  0  0
  150.8472  144.4708  157.3867 H   0  0  0  0  0  0  0  0  0  0  0  0
  151.0364  145.5882  159.6670 H   0  0  0  0  0  0  0  0  0  0  0  0
  152.1839  144.8845  162.0412 H   0  0  0  0  0  0  0  0  0  0  0  0
  153.5408  142.5523  161.4099 H   0  0  0  0  0  0  0  0  0  0  0  0
  150.3321  141.0916  153.9960 H   0  0  0  0  0  0  0  0  0  0  0  0
  151.2924  140.2653  155.1922 H   0  0  0  0  0  0  0  0  0  0  0  0
  150.3066  138.6184  153.6242 H   0  0  0  0  0  0  0  0  0  0  0  0
  148.7059  139.2523  153.9093 H   0  0  0  0  0  0  0  0  0  0  0  0
  1  2  1  0  0  0  0
  1 20  1  0  0  0  0
  1 21  1  0  0  0  0
  1 22  1  0  0  0  0
  2  3  2  0  0  0  0
  2  4  2  0  0  0  0
  2  5  1  0  0  0  0
  5 19  1  0  0  0  0
  5  6  1  0  0  0  0
  6  7  1  0  0  0  0
  6 23  1  0  0  0  0
  6 24  1  0  0  0  0
  7  8  1  0  0  0  0
  7 25  1  0  0  0  0
  7 26  1  0  0  0  0
  8  9  1  0  0  0  0
  8 18  1  0  0  0  0
  8 27  1  0  0  0  0
  9 10  1  0  0  0  0
  9 28  1  0  0  0  0
 10 11  2  0  0  0  0
 10 12  1  0  0  0  0
 12 13  1  0  0  0  0
 12 29  1  0  0  0  0
 12 30  1  0  0  0  0
 13 17  1  0  0  0  0
 13 14  1  0  0  0  0
 14 15  2  0  0  0  0
 14 31  1  0  0  0  0
 15 16  1  0  0  0  0
 15 32  1  0  0  0  0
 16 17  2  0  0  0  0
 16 33  1  0  0  0  0
 18 19  1  0  0  0  0
 18 34  1  0  0  0  0
 18 35  1  0  0  0  0
 19 36  1  0  0  0  0
 19 37  1  0  0  0  0
M  END
> <s_m_source_file>
AV-unprocessed.smi

> <i_m_source_file_index>
1267

> <i_lp_mmshare_version>
43012

> <i_f3d_flags>
0

> <s_epik_input>
W0NIM11TKD1PKSg9TylOMVtDSDJdW0NIMl1bQ0hdKFtDSDJdW0NIMl0xKVtOSF1DKD1PKVtDSDJdbjJbY0hdW2NIXVtjSF1uMg==

> <s_epik_cmdline>
J2VwaWtfcHl0aG9uJywgJy1waCcsICc3LjAnLCAnLXRuJywgJzgnLCAnLW1hJywgJzIwMCcsICctbWV0YWxfYmluZGluZycsICctaW1hZScsICc8aW5maWxlLm1hZT4nLCAnLW9tYWUnLCAnPG91dGZpbGUubWFlPic=

> <r_lp_tautomer_probability>
1

> <r_epik_Ionization_Penalty>
1.58465e-05

> <r_epik_Ionization_Penalty_Charging>
0

> <r_epik_Ionization_Penalty_Neutral>
1.58465e-05

> <r_epik_State_Penalty>
-0

> <r_epik_Charging_Adjusted_Penalty>
0

> <i_epik_Tot_Q>
0

> <i_epik_Tot_abs_Q>
0

> <r_epik_Metal_State_Penalty>
-0

> <b_epik_Metal_Only>
0

> <s_lp_Force_Field>
OPLS_2005

> <r_lp_Energy>
-1.31745

> <b_lp_Chiralities_Consistent>
1

> <s_lp_Variant>
AV-unprocessed.smi:1267-1

> <Gold.Version>
5.8.1

> <Gold.Id.Protein>
6NUR|6NUR_protein|mol2

> <Gold.PLP.Fitness>
40.0379

> <Gold.PLP.PLP>
-34.8646

> <Gold.PLP.part.hbond>
-2.0000

> <Gold.PLP.part.metal>
0.0000

> <Gold.PLP.part.buried>
-4.2854

> <Gold.PLP.part.nonpolar>
-28.8120

> <Gold.PLP.part.repulsive>
0.1622

> <Gold.PLP.ligand.clash>
0.0000

> <Gold.PLP.ligand.torsion>
1.4400

> <Gold.PLP.Chemscore.Hbond>
2.0000

> <Gold.PLP.Chemscore.CHOScore>
0.0000

> <Gold.PLP.Chemscore.Metal>
0.0000

> <Gold.Chemscore.Hbonds>
donor molecule, donor type, donor heavy atom, donor atom, acceptor molecule, acceptor atom, score
      L1  H     9    28       P1  8028  1.00
      P1  H 10752 10764       L1     4  0.98

> <Gold.PLP.Chemscore.Internal.Correction>
2.0533

> <Gold.Rescore>
     Score         DG    S(hbond)    S(metal)    S(lipo)     H(rot)  DE(clash)    DE(int)     intcor
     12.81     -16.88       1.98        0.00      74.38       1.53       0.09       3.98       ----

> <Gold.Chemscore.Fitness>
12.8138

> <Gold.Chemscore.DG>
-16.8818

> <Gold.Chemscore.ZeroCoef>
-5.4800

> <Gold.Chemscore.Hbond>
1.9828

> <Gold.Chemscore.Metal>
0.0000

> <Gold.Chemscore.Lipo>
74.3760

> <Gold.Chemscore.Internal_Hbond>
0.0000

> <Gold.Chemscore.DEClash>
0.0901

> <Gold.Chemscore.DEInternal>
3.9779

> <Gold.Chemscore.Rot>
1.5324

> <Gold.Chemscore.Internal.Correction>
   9.000000E+99

> <Gold.Chemscore.Hbonds>
donor molecule, donor type, donor heavy atom, donor atom, acceptor molecule, acceptor atom, score
      L1  H     9    28       P1  8028  1.00
      P1  H 10752 10764       L1     4  0.81

> <Gold.Chemscore.Hbond.Weighted>
-6.6227

> <Gold.Chemscore.Metal.Weighted>
-0.0000

> <Gold.Chemscore.Lipo.Weighted>
-8.7020

> <Gold.Chemscore.Internal_Hbond.Weighted>
0.0000

> <Gold.Chemscore.DEClash.Weighted>
0.0901

> <Gold.Chemscore.DEInternal.Weighted>
3.9779

> <Gold.Chemscore.Rot.Weighted>
3.9229

> <Gold.Chemscore.Internal.Correction.Weighted>
   9.000000E+99

> <Gold.Protein.RotatedTorsions>
[ 6907 6896 6895 6894 ] final   55.26 input  -60.11 | X-H torsion
[ 7974 7965 7964 7962 ] final    5.15 input  175.53 | X-H torsion
[ 8008 7997 7996 7995 ] final  -60.91 input   59.86 | X-H torsion
[ 10167 10162 10161 10158 ] final -123.58 input  -65.29 | X-H torsion
[ 10718 10713 10712 10709 ] final -130.43 input   66.30 | X-H torsion
[ 10763 10752 10751 10750 ] final  -55.17 input  -60.55 | X-H torsion
[ 11005 11000 10999 10996 ] final -135.51 input  -57.11 | X-H torsion

> <Gold.Protein.ActiveResidues>
 VAL166  LYS551  ARG553  GLY616  TRP617  ASP618  TYR619  PRO620  LYS621  CYS622 
 ASP623  PHE694  ASN695  SER759  ASP760  ASP761  ALA762  ILE779  LEU786  VAL792 
 PHE793  MET794  SER795  GLU796  ALA797  LYS798  CYS799  TRP800  GLU811  SER814 

> <Gold.Protein.RotatedAtoms>
  152.3521  134.6991  160.0232 H   0  0  0  0  0  0  0  0  0  0  0  0  # atno 6907 bound_to 6896
  151.7342  133.3313  159.3356 H   0  0  0  0  0  0  0  0  0  0  0  0  # atno 6908 bound_to 6896
  150.7547  134.6270  159.6210 H   0  0  0  0  0  0  0  0  0  0  0  0  # atno 6909 bound_to 6896
  146.2441  140.0428  142.8381 H   0  0  0  0  0  0  0  0  0  0  0  0  # atno 7974 bound_to 7965
  154.4421  140.1029  156.6347 H   0  0  0  0  0  0  0  0  0  0  0  0  # atno 8008 bound_to 7997
  155.5566  140.3486  155.4462 H   0  0  0  0  0  0  0  0  0  0  0  0  # atno 8009 bound_to 7997
  156.0490  140.1299  157.0061 H   0  0  0  0  0  0  0  0  0  0  0  0  # atno 8010 bound_to 7997
  140.0020  143.5531  152.2299 H   0  0  0  0  0  0  0  0  0  0  0  0  # atno 10167 bound_to 10162
  156.2144  130.6939  151.0686 H   0  0  0  0  0  0  0  0  0  0  0  0  # atno 10718 bound_to 10713
  154.1866  135.6434  153.5048 H   0  0  0  0  0  0  0  0  0  0  0  0  # atno 10763 bound_to 10752
  153.0045  135.5418  154.6459 H   0  0  0  0  0  0  0  0  0  0  0  0  # atno 10764 bound_to 10752
  154.5837  135.2927  155.0679 H   0  0  0  0  0  0  0  0  0  0  0  0  # atno 10765 bound_to 10752
  140.8892  134.1834  157.4539 H   0  0  0  0  0  0  0  0  0  0  0  0  # atno 11005 bound_to 11000
  145.1054  140.9372  143.4688 LP  0  0  0  0  0  0  0  0  0  0  0  0  # atno 17320 bound_to 7965
  145.0630  139.3091  143.5871 LP  0  0  0  0  0  0  0  0  0  0  0  0  # atno 17321 bound_to 7965
  139.6265  144.7638  151.2627 LP  0  0  0  0  0  0  0  0  0  0  0  0  # atno 17342 bound_to 10162
  140.7415  143.6555  150.8211 LP  0  0  0  0  0  0  0  0  0  0  0  0  # atno 17343 bound_to 10162
  157.7055  131.0758  150.6680 LP  0  0  0  0  0  0  0  0  0  0  0  0  # atno 17370 bound_to 10713
  156.6741  130.4548  149.5648 LP  0  0  0  0  0  0  0  0  0  0  0  0  # atno 17371 bound_to 10713
  139.8727  134.9851  156.5267 LP  0  0  0  0  0  0  0  0  0  0  0  0  # atno 17394 bound_to 11000
  140.8368  133.8236  155.9036 LP  0  0  0  0  0  0  0  0  0  0  0  0  # atno 17395 bound_to 11000

$$$$
