#       Name:                AV-unprocessed.smi:1509
#       Creating user name   scv26
#       Creation time:       Fri Mar 27 06:21:50 2020


#       File generated by GOLD software.
#

@<TRIPOS>MOLECULE
AV-unprocessed.smi:1509
    47    48     1
SMALL
NO_CHARGES


@<TRIPOS>ATOM
      1 ****        -4.1232  -0.1487  -0.0023 C.3            1 S1                 0.0000
      2 ****        -3.6802   0.9921  -0.9350 C.3            1 S1                 0.0000
      3 ****        -4.2388   2.3622  -0.5089 C.3            1 S1                 0.0000
      4 ****        -3.5112   2.8978   0.7319 C.3            1 S1                 0.0000
      5 ****        -1.9899   2.9131   0.5152 C.3            1 S1                 0.0000
      6 ****        -1.4850   1.5663   0.1425 N.4            1 S1                 1.0000
      7 ****        -0.0023   1.5254   0.0704 C.3            1 S1                 0.0000
      8 ****         0.5600   0.1063   0.2617 C.3            1 S1                 0.0000
      9 ****         2.0978   0.0882   0.2596 C.3            1 S1                 0.0000
     10 ****         2.6249  -1.2584   0.4471 N.am           1 S1                 0.0000
     11 ****         2.7201  -2.1881  -0.5168 C.2            1 S1                 0.0000
     12 ****         2.3369  -2.0060  -1.6722 O.2            1 S1                 0.0000
     13 ****         3.3407  -3.5281  -0.1196 C.3            1 S1                 0.0000
     14 ****         4.7876  -3.4374  -0.0616 N.pl3          1 S1                 0.0000
     15 ****         5.6091  -3.1523   0.9509 C.2            1 S1                 0.0000
     16 ****         6.8773  -3.1648   0.5705 N.2            1 S1                 0.0000
     17 ****         6.7987  -3.4829  -0.7751 N.2            1 S1                 0.0000
     18 ****         5.5614  -3.6458  -1.1558 N.2            1 S1                 0.0000
     19 ****        -2.1463   1.0568  -1.0903 C.3            1 S1                 0.0000
     20 ****        -3.7315  -0.0265   1.0074 H              1 S1                 0.0000
     21 ****        -3.7768  -1.1134  -0.3740 H              1 S1                 0.0000
     22 ****        -5.2103  -0.1972   0.0676 H              1 S1                 0.0000
     23 ****        -4.0979   0.7639  -1.9163 H              1 S1                 0.0000
     24 ****        -4.1128   3.0713  -1.3283 H              1 S1                 0.0000
     25 ****        -5.3115   2.2992  -0.3230 H              1 S1                 0.0000
     26 ****        -3.8629   3.9044   0.9599 H              1 S1                 0.0000
     27 ****        -3.7543   2.2863   1.6014 H              1 S1                 0.0000
     28 ****        -1.7269   3.6298  -0.2645 H              1 S1                 0.0000
     29 ****        -1.5049   3.2497   1.4324 H              1 S1                 0.0000
     30 ****         0.3356   1.9532  -0.8749 H              1 S1                 0.0000
     31 ****         0.4119   2.1563   0.8583 H              1 S1                 0.0000
     32 ****         0.1939  -0.3060   1.2029 H              1 S1                 0.0000
     33 ****         0.1954  -0.5519  -0.5263 H              1 S1                 0.0000
     34 ****         2.4839   0.5121  -0.6691 H              1 S1                 0.0000
     35 ****         2.4790   0.7142   1.0669 H              1 S1                 0.0000
     36 ****         2.9604  -1.4933   1.3703 H              1 S1                 0.0000
     37 ****         2.9654  -3.8422   0.8552 H              1 S1                 0.0000
     38 ****         3.0590  -4.3000  -0.8375 H              1 S1                 0.0000
     39 ****         5.2812  -2.9343   1.9567 H              1 S1                 0.0000
     40 ****        -1.7712   0.0672  -1.3486 H              1 S1                 0.0000
     41 ****        -1.8889   1.7103  -1.9257 H              1 S1                 0.0000
     42 ****        -1.7522   0.9493   0.8963 H              1 S1                 0.0000
     43 ****         1.9304  -1.1300  -1.9320 LP             1 S1                 0.0000
     44 ****         2.4320  -2.7340  -2.3511 LP             1 S1                 0.0000
     45 ****         7.6932  -2.9876   1.1209 LP             1 S1                 0.0000
     46 ****         7.5904  -3.5760  -1.3788 LP             1 S1                 0.0000
     47 ****         5.2451  -3.8789  -2.0754 LP             1 S1                 0.0000
@<TRIPOS>BOND
    1    1    2 1     
    2    1   20 1     
    3    1   21 1     
    4    1   22 1     
    5    2   19 1     
    6    2    3 1     
    7    2   23 1     
    8    3    4 1     
    9    3   24 1     
   10    3   25 1     
   11    4    5 1     
   12    4   26 1     
   13    4   27 1     
   14    5    6 1     
   15    5   28 1     
   16    5   29 1     
   17    6    7 1     
   18    6   19 1     
   19    6   42 1     
   20    7    8 1     
   21    7   30 1     
   22    7   31 1     
   23    8    9 1     
   24    8   32 1     
   25    8   33 1     
   26    9   10 1     
   27    9   34 1     
   28    9   35 1     
   29   10   11 am    
   30   10   36 1     
   31   11   12 2     
   32   11   13 1     
   33   13   14 1     
   34   13   37 1     
   35   13   38 1     
   36   14   18 1     
   37   14   15 1     
   38   15   16 2     
   39   15   39 1     
   40   16   17 1     
   41   17   18 2     
   42   19   40 1     
   43   19   41 1     
   44   12   43 1     
   45   12   44 1     
   46   16   45 1     
   47   17   46 1     
   48   18   47 1     
@<TRIPOS>SUBSTRUCTURE
      1 S1             1
@<TRIPOS>SET
LONE_PAIRS      STATIC     ATOMS    <user>   **** ""
5 43 44 45 46 47
DONOR_HYDROGENS      STATIC     ATOMS    <user>   **** ""
2 42 36
ATOM$BLUE        STATIC     ATOMS    COLORGROUP SYSTEM
5 43 44 45 46 47
ATOM$RED        STATIC     ATOMS    COLORGROUP SYSTEM
2 42 36
