AV-unprocessed.smi:1467|AV-procd|sdf|5956|dock3
  -GOLD-   22720 6 43D 1   1.00000     0.00000
 Structure written by MMmdl.
 41 42  0  0  0  0  0  0  0  0  2 V2000
  150.6888  142.0008  157.0840 C   0  0  0  0  0  0  0  0  0  0  0  0
  150.8845  140.6695  156.3554 C   0  0  0  0  0  0  0  0  0  0  0  0
  151.5396  139.7927  156.9185 O   0  0  0  0  0  0  0  0  0  0  0  0
  150.3375  140.4977  155.1280 N   0  0  0  0  0  0  0  0  0  0  0  0
  149.4743  141.4598  154.4367 C   0  0  0  0  0  0  0  0  0  0  0  0
  148.0539  140.8751  154.3336 C   0  0  0  0  0  0  0  0  0  0  0  0
  148.0559  139.5427  153.6705 N   0  3  0  0  0  0  0  0  0  0  0  0
  146.6883  138.9760  153.5575 C   0  0  0  0  0  0  0  0  0  0  0  0
  146.3086  138.6271  152.1054 C   0  0  0  0  0  0  0  0  0  0  0  0
  146.5854  137.2274  151.8034 N   0  0  0  0  0  0  0  0  0  0  0  0
  145.6494  136.2857  151.6178 C   0  0  0  0  0  0  0  0  0  0  0  0
  144.4410  136.5086  151.6936 O   0  0  0  0  0  0  0  0  0  0  0  0
  146.2009  135.0901  151.3528 N   0  0  0  0  0  0  0  0  0  0  0  0
  145.5259  133.8734  151.0784 C   0  0  0  0  0  0  0  0  0  0  0  0
  146.1427  132.5928  151.0520 C   0  0  0  0  0  0  0  0  0  0  0  0
  145.2677  131.6406  150.7620 N   0  0  0  0  0  0  0  0  0  0  0  0
  144.0989  132.3010  150.6005 N   0  0  0  0  0  0  0  0  0  0  0  0
  144.2083  133.6620  150.7826 C   0  0  0  0  0  0  0  0  0  0  0  0
  149.0409  138.6025  154.2746 C   0  0  0  0  0  0  0  0  0  0  0  0
  150.4381  139.2403  154.3820 C   0  0  0  0  0  0  0  0  0  0  0  0
  143.2446  131.8149  150.3669 H   0  0  0  0  0  0  0  0  0  0  0  0
  149.6308  142.1935  157.2628 H   0  0  0  0  0  0  0  0  0  0  0  0
  151.1081  142.8242  156.5055 H   0  0  0  0  0  0  0  0  0  0  0  0
  151.1918  141.9858  158.0515 H   0  0  0  0  0  0  0  0  0  0  0  0
  149.4331  142.4366  154.9161 H   0  0  0  0  0  0  0  0  0  0  0  0
  149.8749  141.6416  153.4382 H   0  0  0  0  0  0  0  0  0  0  0  0
  147.6197  140.7817  155.3306 H   0  0  0  0  0  0  0  0  0  0  0  0
  147.4184  141.5625  153.7737 H   0  0  0  0  0  0  0  0  0  0  0  0
  146.5966  138.1002  154.2018 H   0  0  0  0  0  0  0  0  0  0  0  0
  145.9748  139.7107  153.9336 H   0  0  0  0  0  0  0  0  0  0  0  0
  145.2560  138.8489  151.9203 H   0  0  0  0  0  0  0  0  0  0  0  0
  146.8819  139.2266  151.3992 H   0  0  0  0  0  0  0  0  0  0  0  0
  147.5554  136.9590  151.7214 H   0  0  0  0  0  0  0  0  0  0  0  0
  147.2093  135.0441  151.3426 H   0  0  0  0  0  0  0  0  0  0  0  0
  147.1745  132.3281  151.2303 H   0  0  0  0  0  0  0  0  0  0  0  0
  143.3638  134.3279  150.6846 H   0  0  0  0  0  0  0  0  0  0  0  0
  148.6961  138.3045  155.2662 H   0  0  0  0  0  0  0  0  0  0  0  0
  149.1135  137.6943  153.6779 H   0  0  0  0  0  0  0  0  0  0  0  0
  150.8342  139.4461  153.3866 H   0  0  0  0  0  0  0  0  0  0  0  0
  151.1325  138.5316  154.8358 H   0  0  0  0  0  0  0  0  0  0  0  0
  148.3701  139.7134  152.7258 H   0  0  0  0  0  0  0  0  0  0  0  0
  1  2  1  0  0  0  0
  1 22  1  0  0  0  0
  1 23  1  0  0  0  0
  1 24  1  0  0  0  0
  2  3  2  0  0  0  0
  2  4  1  0  0  0  0
  4 20  1  0  0  0  0
  4  5  1  0  0  0  0
  5  6  1  0  0  0  0
  5 25  1  0  0  0  0
  5 26  1  0  0  0  0
  6  7  1  0  0  0  0
  6 27  1  0  0  0  0
  6 28  1  0  0  0  0
  7  8  1  0  0  0  0
  7 19  1  0  0  0  0
  7 41  1  0  0  0  0
  8  9  1  0  0  0  0
  8 29  1  0  0  0  0
  8 30  1  0  0  0  0
  9 10  1  0  0  0  0
  9 31  1  0  0  0  0
  9 32  1  0  0  0  0
 10 11  1  0  0  0  0
 10 33  1  0  0  0  0
 11 12  2  0  0  0  0
 11 13  1  0  0  0  0
 13 14  1  0  0  0  0
 13 34  1  0  0  0  0
 14 18  2  0  0  0  0
 14 15  1  0  0  0  0
 15 16  2  0  0  0  0
 15 35  1  0  0  0  0
 16 17  1  0  0  0  0
 17 21  1  0  0  0  0
 17 18  1  0  0  0  0
 18 36  1  0  0  0  0
 19 20  1  0  0  0  0
 19 37  1  0  0  0  0
 19 38  1  0  0  0  0
 20 39  1  0  0  0  0
 20 40  1  0  0  0  0
M  CHG  1   7   1
M  END
> <s_m_source_file>
AV-unprocessed.smi

> <i_m_source_file_index>
1467

> <i_lp_mmshare_version>
43012

> <i_f3d_flags>
0

> <s_epik_input>
W0NIM11DKD1PKU4xW0NIMl1bQ0gyXU4oW0NIMl1bQ0gyXTEpW0NIMl1bQ0gyXVtOSF1DKD1PKVtOSF1jMltjSF1uW25IXVtjSF0y

> <s_epik_cmdline>
J2VwaWtfcHl0aG9uJywgJy1waCcsICc3LjAnLCAnLXRuJywgJzgnLCAnLW1hJywgJzIwMCcsICctbWV0YWxfYmluZGluZycsICctaW1hZScsICc8aW5maWxlLm1hZT4nLCAnLW9tYWUnLCAnPG91dGZpbGUubWFlPic=

> <r_lp_tautomer_probability>
0.5

> <r_epik_Ionization_Penalty>
0.630073

> <r_epik_Ionization_Penalty_Charging>
0.630034

> <r_epik_Ionization_Penalty_Neutral>
3.91951e-05

> <r_epik_State_Penalty>
0.646805

> <r_epik_Charging_Adjusted_Penalty>
1.27684

> <i_epik_Tot_Q>
1

> <i_epik_Tot_abs_Q>
1

> <r_epik_Metal_State_Penalty>
0.646807

> <b_epik_Metal_Only>
0

> <s_lp_Force_Field>
OPLS_2005

> <r_lp_Energy>
42.6294

> <b_lp_Chiralities_Consistent>
1

> <s_lp_Variant>
AV-unprocessed.smi:1467-2

> <Gold.Version>
5.8.1

> <Gold.Id.Protein>
6NUR|6NUR_protein|mol2

> <Gold.PLP.Fitness>
44.2360

> <Gold.PLP.PLP>
-32.6800

> <Gold.PLP.part.hbond>
-3.0000

> <Gold.PLP.part.metal>
0.0000

> <Gold.PLP.part.buried>
-2.7726

> <Gold.PLP.part.nonpolar>
-29.6071

> <Gold.PLP.part.repulsive>
2.4794

> <Gold.PLP.ligand.clash>
0.0000

> <Gold.PLP.ligand.torsion>
1.0298

> <Gold.PLP.Chemscore.Hbond>
2.6614

> <Gold.PLP.Chemscore.CHOScore>
1.8615

> <Gold.PLP.Chemscore.Metal>
0.0000

> <Gold.Chemscore.Hbonds>
donor molecule, donor type, donor heavy atom, donor atom, acceptor molecule, acceptor atom, score
      L1  H     7    41       P1  7957  1.00
      L1  H    10    33       P1  7948  1.00
      L1  H    13    34       P1  7948  0.66
      L1  C    15    35       P1 10747  1.00
      L1  C    18    36       P1 10186  0.80

> <Gold.PLP.Chemscore.Internal.Correction>
0.0469

> <Gold.Rescore>
     Score         DG    S(hbond)    S(metal)    S(lipo)     H(rot)  DE(clash)    DE(int)     intcor
     14.87     -17.70       2.63        0.00      67.70       1.75       0.71       2.11       ----

> <Gold.Chemscore.Fitness>
14.8719

> <Gold.Chemscore.DG>
-17.6978

> <Gold.Chemscore.ZeroCoef>
-5.4800

> <Gold.Chemscore.Hbond>
2.6290

> <Gold.Chemscore.Metal>
0.0000

> <Gold.Chemscore.Lipo>
67.6953

> <Gold.Chemscore.Internal_Hbond>
0.0000

> <Gold.Chemscore.DEClash>
0.7112

> <Gold.Chemscore.DEInternal>
2.1147

> <Gold.Chemscore.Rot>
1.7513

> <Gold.Chemscore.Internal.Correction>
   9.000000E+99

> <Gold.Chemscore.Hbonds>
donor molecule, donor type, donor heavy atom, donor atom, acceptor molecule, acceptor atom, score
      L1  H     7    41       P1  7957  0.94
      L1  H    10    33       P1  7948  0.95
      L1  H    13    34       P1  7948  0.45

> <Gold.Chemscore.Hbond.Weighted>
-8.7807

> <Gold.Chemscore.Metal.Weighted>
-0.0000

> <Gold.Chemscore.Lipo.Weighted>
-7.9203

> <Gold.Chemscore.Internal_Hbond.Weighted>
0.0000

> <Gold.Chemscore.DEClash.Weighted>
0.7112

> <Gold.Chemscore.DEInternal.Weighted>
2.1147

> <Gold.Chemscore.Rot.Weighted>
4.4833

> <Gold.Chemscore.Internal.Correction.Weighted>
   9.000000E+99

> <Gold.Protein.RotatedTorsions>
[ 6907 6896 6895 6894 ] final -159.92 input  -60.11 | X-H torsion
[ 7974 7965 7964 7962 ] final  156.48 input  175.53 | X-H torsion
[ 8008 7997 7996 7995 ] final  153.22 input   59.86 | X-H torsion
[ 10167 10162 10161 10158 ] final  -83.00 input  -65.29 | X-H torsion
[ 10718 10713 10712 10709 ] final -156.22 input   66.30 | X-H torsion
[ 10763 10752 10751 10750 ] final   39.87 input  -60.55 | X-H torsion
[ 11005 11000 10999 10996 ] final  -66.42 input  -57.11 | X-H torsion

> <Gold.Protein.ActiveResidues>
 VAL166  LYS551  ARG553  GLY616  TRP617  ASP618  TYR619  PRO620  LYS621  CYS622 
 ASP623  PHE694  ASN695  SER759  ASP760  ASP761  ALA762  ILE779  LEU786  VAL792 
 PHE793  MET794  SER795  GLU796  ALA797  LYS798  CYS799  TRP800  GLU811  SER814 

> <Gold.Protein.RotatedAtoms>
  151.3410  133.3962  159.2670 H   0  0  0  0  0  0  0  0  0  0  0  0  # atno 6907 bound_to 6896
  150.9878  134.9220  159.7892 H   0  0  0  0  0  0  0  0  0  0  0  0  # atno 6908 bound_to 6896
  152.5237  134.3375  159.9257 H   0  0  0  0  0  0  0  0  0  0  0  0  # atno 6909 bound_to 6896
  144.7960  139.7210  143.6201 H   0  0  0  0  0  0  0  0  0  0  0  0  # atno 7974 bound_to 7965
  156.2592  140.1999  156.6456 H   0  0  0  0  0  0  0  0  0  0  0  0  # atno 8008 bound_to 7997
  154.6575  140.0564  157.0050 H   0  0  0  0  0  0  0  0  0  0  0  0  # atno 8009 bound_to 7997
  155.1325  140.3235  155.4473 H   0  0  0  0  0  0  0  0  0  0  0  0  # atno 8010 bound_to 7997
  140.4267  143.2564  151.8816 H   0  0  0  0  0  0  0  0  0  0  0  0  # atno 10167 bound_to 10162
  156.5235  130.8489  151.2690 H   0  0  0  0  0  0  0  0  0  0  0  0  # atno 10718 bound_to 10713
  152.9953  135.6208  154.2535 H   0  0  0  0  0  0  0  0  0  0  0  0  # atno 10763 bound_to 10752
  154.2273  135.2793  155.2904 H   0  0  0  0  0  0  0  0  0  0  0  0  # atno 10764 bound_to 10752
  154.5478  135.5742  153.6954 H   0  0  0  0  0  0  0  0  0  0  0  0  # atno 10765 bound_to 10752
  141.1481  133.6699  156.6137 H   0  0  0  0  0  0  0  0  0  0  0  0  # atno 11005 bound_to 11000
  146.2229  139.5668  142.9607 LP  0  0  0  0  0  0  0  0  0  0  0  0  # atno 17320 bound_to 7965
  145.5672  141.0398  143.2194 LP  0  0  0  0  0  0  0  0  0  0  0  0  # atno 17321 bound_to 7965
  139.4783  144.5379  151.8572 LP  0  0  0  0  0  0  0  0  0  0  0  0  # atno 17342 bound_to 10162
  140.4473  144.1904  150.5895 LP  0  0  0  0  0  0  0  0  0  0  0  0  # atno 17343 bound_to 10162
  157.7433  130.9909  150.2582 LP  0  0  0  0  0  0  0  0  0  0  0  0  # atno 17370 bound_to 10713
  156.3127  130.3774  149.7647 LP  0  0  0  0  0  0  0  0  0  0  0  0  # atno 17371 bound_to 10713
  140.3594  134.7700  157.4523 LP  0  0  0  0  0  0  0  0  0  0  0  0  # atno 17394 bound_to 11000
  140.0797  134.5749  155.8554 LP  0  0  0  0  0  0  0  0  0  0  0  0  # atno 17395 bound_to 11000

$$$$
