#       Name:                AV-unprocessed.smi:1721
#       Creating user name   scv26
#       Creation time:       Fri Mar 27 08:14:48 2020


#       File generated by GOLD software.
#

@<TRIPOS>MOLECULE
AV-unprocessed.smi:1721
    49    51     1
SMALL
NO_CHARGES


@<TRIPOS>ATOM
      1 ****        -0.9793   5.2184   1.0091 C.3            1 S1                 0.0000
      2 ****        -0.2590   3.9908   1.0300 O.3            1 S1                 0.0000
      3 ****         1.1050   4.0236   0.8110 C.ar           1 S1                 0.0000
      4 ****         1.7001   5.2278   0.6193 N.ar           1 S1                 0.0000
      5 ****         3.0323   5.2605   0.4080 C.ar           1 S1                 0.0000
      6 ****         3.8370   4.1065   0.3810 C.ar           1 S1                 0.0000
      7 ****         3.2219   2.8566   0.5781 C.ar           1 S1                 0.0000
      8 ****         1.8232   2.8057   0.7875 C.ar           1 S1                 0.0000
      9 ****         1.1182   1.5946   1.0211 N.am           1 S1                 0.0000
     10 ****         1.4062   0.3725   0.5445 C.2            1 S1                 0.0000
     11 ****         2.3359   0.1108  -0.2186 O.2            1 S1                 0.0000
     12 ****         0.5239  -0.5396   0.9771 N.am           1 S1                 0.0000
     13 ****         0.5298  -1.9555   0.6128 C.3            1 S1                 0.0000
     14 ****        -0.0128  -2.8700   1.7277 C.3            1 S1                 0.0000
     15 ****        -0.8512  -3.9198   0.9906 C.3            1 S1                 0.0000
     16 ****        -1.4024  -3.1615  -0.1381 N.4            1 S1                 1.0000
     17 ****        -2.0836  -3.8977  -1.2218 C.3            1 S1                 0.0000
     18 ****        -2.7354  -2.8693  -2.1711 C.3            1 S1                 0.0000
     19 ****        -1.7300  -1.8001  -2.6570 C.3            1 S1                 0.0000
     20 ****        -0.9525  -1.1645  -1.4836 C.3            1 S1                 0.0000
     21 ****        -0.3273  -2.2843  -0.6326 C.3            1 S1                 0.0000
     22 ****        -2.0356   5.0202   1.1901 H              1 S1                 0.0000
     23 ****        -0.8974   5.7115   0.0391 H              1 S1                 0.0000
     24 ****        -0.6323   5.8990   1.7880 H              1 S1                 0.0000
     25 ****         3.4713   6.2366   0.2629 H              1 S1                 0.0000
     26 ****         4.9023   4.1794   0.2191 H              1 S1                 0.0000
     27 ****         3.8298   1.9646   0.5820 H              1 S1                 0.0000
     28 ****         0.2584   1.6860   1.5424 H              1 S1                 0.0000
     29 ****        -0.2085  -0.2306   1.5996 H              1 S1                 0.0000
     30 ****         1.5571  -2.2635   0.4070 H              1 S1                 0.0000
     31 ****         0.7801  -3.3169   2.3280 H              1 S1                 0.0000
     32 ****        -0.6575  -2.3041   2.4023 H              1 S1                 0.0000
     33 ****        -0.2181  -4.7274   0.6190 H              1 S1                 0.0000
     34 ****        -1.6339  -4.3502   1.6158 H              1 S1                 0.0000
     35 ****        -1.3700  -4.5262  -1.7568 H              1 S1                 0.0000
     36 ****        -2.8440  -4.5556  -0.7999 H              1 S1                 0.0000
     37 ****        -3.1813  -3.3794  -3.0254 H              1 S1                 0.0000
     38 ****        -3.5554  -2.3734  -1.6498 H              1 S1                 0.0000
     39 ****        -1.0230  -2.2617  -3.3476 H              1 S1                 0.0000
     40 ****        -2.2501  -1.0273  -3.2237 H              1 S1                 0.0000
     41 ****        -0.1798  -0.4998  -1.8710 H              1 S1                 0.0000
     42 ****        -1.6235  -0.5545  -0.8770 H              1 S1                 0.0000
     43 ****         0.3080  -2.8835  -1.2884 H              1 S1                 0.0000
     44 ****        -2.0946  -2.5480   0.2676 H              1 S1                 0.0000
     45 ****        -0.6572   3.4027   0.3260 LP             1 S1                 0.0000
     46 ****        -0.4039   3.5786   1.9296 LP             1 S1                 0.0000
     47 ****         1.1636   6.0716   0.6343 LP             1 S1                 0.0000
     48 ****         2.9467   0.8385  -0.5305 LP             1 S1                 0.0000
     49 ****         2.4803  -0.8296  -0.5266 LP             1 S1                 0.0000
@<TRIPOS>BOND
    1    1    2 1     
    2    1   22 1     
    3    1   23 1     
    4    1   24 1     
    5    2    3 1     
    6    3    8 ar    
    7    3    4 ar    
    8    4    5 ar    
    9    5    6 ar    
   10    5   25 1     
   11    6    7 ar    
   12    6   26 1     
   13    7    8 ar    
   14    7   27 1     
   15    8    9 1     
   16    9   10 am    
   17    9   28 1     
   18   10   11 2     
   19   10   12 am    
   20   12   13 1     
   21   12   29 1     
   22   13   21 1     
   23   13   14 1     
   24   13   30 1     
   25   14   15 1     
   26   14   31 1     
   27   14   32 1     
   28   15   16 1     
   29   15   33 1     
   30   15   34 1     
   31   16   21 1     
   32   16   17 1     
   33   16   44 1     
   34   17   18 1     
   35   17   35 1     
   36   17   36 1     
   37   18   19 1     
   38   18   37 1     
   39   18   38 1     
   40   19   20 1     
   41   19   39 1     
   42   19   40 1     
   43   20   21 1     
   44   20   41 1     
   45   20   42 1     
   46   21   43 1     
   47    2   45 1     
   48    2   46 1     
   49    4   47 1     
   50   11   48 1     
   51   11   49 1     
@<TRIPOS>SUBSTRUCTURE
      1 S1             1
@<TRIPOS>SET
LONE_PAIRS      STATIC     ATOMS    <user>   **** ""
5 45 46 47 48 49
DONOR_HYDROGENS      STATIC     ATOMS    <user>   **** ""
3 28 29 44
ATOM$BLUE        STATIC     ATOMS    COLORGROUP SYSTEM
5 45 46 47 48 49
ATOM$RED        STATIC     ATOMS    COLORGROUP SYSTEM
3 28 29 44
