#       Name:                AV-unprocessed.smi:249
#       Creating user name   scv26
#       Creation time:       Thu Mar 26 21:01:26 2020


#       File generated by GOLD software.
#

@<TRIPOS>MOLECULE
AV-unprocessed.smi:249
    71    74     1
SMALL
NO_CHARGES


@<TRIPOS>ATOM
      1 ****        -5.3362  -2.2924   2.8244 C.3            1 S1                 0.0000
      2 ****        -5.1269  -1.1248   1.8478 C.3            1 S1                 0.0000
      3 ****        -4.1138  -1.4176   0.7912 N.4            1 S1                 1.0000
      4 ****        -2.7355  -1.6380   1.3142 C.3            1 S1                 0.0000
      5 ****        -2.0750  -0.3239   1.7735 C.3            1 S1                 0.0000
      6 ****        -2.0671   0.7124   0.6325 C.3            1 S1                 0.0000
      7 ****        -1.4397   1.9789   1.0270 N.pl3          1 S1                 0.0000
      8 ****        -2.0338   2.7860   2.0926 C.3            1 S1                 0.0000
      9 ****        -0.0854   2.0064   0.9282 C.ar           1 S1                 0.0000
     10 ****         0.6678   2.1978   2.0443 N.ar           1 S1                 0.0000
     11 ****         2.0016   2.2053   1.9651 C.ar           1 S1                 0.0000
     12 ****         2.7740   2.0391   0.8902 N.ar           1 S1                 0.0000
     13 ****         2.0255   1.8507  -0.2337 C.ar           1 S1                 0.0000
     14 ****         0.6040   1.8273  -0.3044 C.ar           1 S1                 0.0000
     15 ****         0.1986   1.6349  -1.6202 N.2            1 S1                 0.0000
     16 ****         1.3161   1.5400  -2.2874 C.2            1 S1                 0.0000
     17 ****         2.4618   1.6309  -1.5291 N.pl3          1 S1                 0.0000
     18 ****         3.8281   1.5604  -2.0165 C.3            1 S1                 0.0000
     19 ****         4.6868   0.4143  -1.4107 C.3            1 S1                 0.0000
     20 ****         6.1489   0.5709  -1.8954 C.3            1 S1                 0.0000
     21 ****         6.7197   1.7780  -1.4333 O.3            1 S1                 0.0000
     22 ****         4.1378  -1.0106  -1.7254 C.3            1 S1                 0.0000
     23 ****         2.8450  -1.4019  -1.0223 C.3            1 S1                 0.0000
     24 ****         2.8448  -2.9240  -1.1148 C.3            1 S1                 0.0000
     25 ****         4.2102  -3.3136  -1.1594 O.3            1 S1                 0.0000
     26 ****         5.0364  -2.1598  -1.2480 C.3            1 S1                 0.0000
     27 ****        -3.4888   0.9024   0.0687 C.3            1 S1                 0.0000
     28 ****        -4.0907  -0.4544  -0.3527 C.3            1 S1                 0.0000
     29 ****        -5.4490  -0.3035  -1.0608 C.3            1 S1                 0.0000
     30 ****        -6.1886  -2.0953   3.4751 H              1 S1                 0.0000
     31 ****        -4.4744  -2.4482   3.4724 H              1 S1                 0.0000
     32 ****        -5.5375  -3.2231   2.2931 H              1 S1                 0.0000
     33 ****        -6.0943  -0.9354   1.3871 H              1 S1                 0.0000
     34 ****        -4.8696  -0.2192   2.3966 H              1 S1                 0.0000
     35 ****        -2.7267  -2.3708   2.1191 H              1 S1                 0.0000
     36 ****        -2.1346  -2.0794   0.5177 H              1 S1                 0.0000
     37 ****        -2.5967   0.0682   2.6465 H              1 S1                 0.0000
     38 ****        -1.0534  -0.5271   2.0971 H              1 S1                 0.0000
     39 ****        -1.4806   0.2740  -0.1743 H              1 S1                 0.0000
     40 ****        -1.5509   3.7622   2.1523 H              1 S1                 0.0000
     41 ****        -1.9303   2.2955   3.0608 H              1 S1                 0.0000
     42 ****        -3.0926   2.9641   1.9113 H              1 S1                 0.0000
     43 ****         2.5251   2.3630   2.8966 H              1 S1                 0.0000
     44 ****         1.3350   1.3852  -3.3564 H              1 S1                 0.0000
     45 ****         3.8039   1.4665  -3.1029 H              1 S1                 0.0000
     46 ****         4.2814   2.5296  -1.8074 H              1 S1                 0.0000
     47 ****         4.7013   0.5264  -0.3261 H              1 S1                 0.0000
     48 ****         6.7841  -0.2300  -1.5203 H              1 S1                 0.0000
     49 ****         6.2021   0.5389  -2.9841 H              1 S1                 0.0000
     50 ****         7.6120   1.8264  -1.7408 H              1 S1                 0.0000
     51 ****         3.9941  -1.1129  -2.8021 H              1 S1                 0.0000
     52 ****         2.8716  -1.0917   0.0234 H              1 S1                 0.0000
     53 ****         1.9500  -0.9853  -1.4797 H              1 S1                 0.0000
     54 ****         2.3251  -3.3888  -0.2766 H              1 S1                 0.0000
     55 ****         2.3620  -3.2506  -2.0366 H              1 S1                 0.0000
     56 ****         5.8761  -2.3448  -1.9182 H              1 S1                 0.0000
     57 ****         5.4356  -1.9493  -0.2546 H              1 S1                 0.0000
     58 ****        -4.1407   1.3802   0.7994 H              1 S1                 0.0000
     59 ****        -3.4495   1.5714  -0.7919 H              1 S1                 0.0000
     60 ****        -3.4206  -0.8901  -1.0959 H              1 S1                 0.0000
     61 ****        -5.3310   0.2324  -2.0031 H              1 S1                 0.0000
     62 ****        -6.1658   0.2618  -0.4652 H              1 S1                 0.0000
     63 ****        -5.8863  -1.2754  -1.2912 H              1 S1                 0.0000
     64 ****        -4.4005  -2.3003   0.3927 H              1 S1                 0.0000
     65 ****         0.2212   2.3336   2.9287 LP             1 S1                 0.0000
     66 ****         3.7738   2.0512   0.9067 LP             1 S1                 0.0000
     67 ****        -0.7351   1.5815  -1.9742 LP             1 S1                 0.0000
     68 ****         6.7064   1.7960  -0.4335 LP             1 S1                 0.0000
     69 ****         6.1986   2.5545  -1.7876 LP             1 S1                 0.0000
     70 ****         4.3640  -3.8945  -1.9587 LP             1 S1                 0.0000
     71 ****         4.4378  -3.8222  -0.3290 LP             1 S1                 0.0000
@<TRIPOS>BOND
    1    1    2 1     
    2    1   30 1     
    3    1   31 1     
    4    1   32 1     
    5    2    3 1     
    6    2   33 1     
    7    2   34 1     
    8    3   28 1     
    9    3    4 1     
   10    3   64 1     
   11    4    5 1     
   12    4   35 1     
   13    4   36 1     
   14    5    6 1     
   15    5   37 1     
   16    5   38 1     
   17    6    7 1     
   18    6   27 1     
   19    6   39 1     
   20    7    8 1     
   21    7    9 1     
   22    8   40 1     
   23    8   41 1     
   24    8   42 1     
   25    9   14 ar    
   26    9   10 ar    
   27   10   11 ar    
   28   11   12 ar    
   29   11   43 1     
   30   12   13 ar    
   31   13   17 1     
   32   13   14 ar    
   33   14   15 1     
   34   15   16 2     
   35   16   17 1     
   36   16   44 1     
   37   17   18 1     
   38   18   19 1     
   39   18   45 1     
   40   18   46 1     
   41   19   20 1     
   42   19   22 1     
   43   19   47 1     
   44   20   21 1     
   45   20   48 1     
   46   20   49 1     
   47   21   50 1     
   48   22   26 1     
   49   22   23 1     
   50   22   51 1     
   51   23   24 1     
   52   23   52 1     
   53   23   53 1     
   54   24   25 1     
   55   24   54 1     
   56   24   55 1     
   57   25   26 1     
   58   26   56 1     
   59   26   57 1     
   60   27   28 1     
   61   27   58 1     
   62   27   59 1     
   63   28   29 1     
   64   28   60 1     
   65   29   61 1     
   66   29   62 1     
   67   29   63 1     
   68   10   65 1     
   69   12   66 1     
   70   15   67 1     
   71   21   68 1     
   72   21   69 1     
   73   25   70 1     
   74   25   71 1     
@<TRIPOS>SUBSTRUCTURE
      1 S1             1
@<TRIPOS>SET
LONE_PAIRS      STATIC     ATOMS    <user>   **** ""
7 65 66 67 68 69 70 71
DONOR_HYDROGENS      STATIC     ATOMS    <user>   **** ""
2 64 50
ATOM$BLUE        STATIC     ATOMS    COLORGROUP SYSTEM
7 65 66 67 68 69 70 71
ATOM$RED        STATIC     ATOMS    COLORGROUP SYSTEM
2 64 50
