AV-unprocessed.smi:126|AV-procd|sdf|1152|dock10
  -GOLD-   2262018293D 1   1.00000     0.00000
 Structure written by MMmdl.
 40 42  0  0  0  0  0  0  0  0  1 V2000
  151.3936  136.6860  157.6844 O   0  0  0  0  0  0  0  0  0  0  0  0
  151.7079  136.9035  156.5134 C   0  0  0  0  0  0  0  0  0  0  0  0
  152.4969  138.1692  156.1427 C   0  0  0  0  0  0  0  0  0  0  0  0
  151.7467  139.4211  156.3852 N   0  0  0  0  0  0  0  0  0  0  0  0
  150.9090  139.9163  155.3551 C   0  0  0  0  0  0  0  0  0  0  0  0
  150.7950  139.3194  154.2833 O   0  0  0  0  0  0  0  0  0  0  0  0
  150.2121  141.1624  155.6536 C   0  0  0  0  0  0  0  0  0  0  0  0
  149.3897  141.7008  154.7372 F   0  0  0  0  0  0  0  0  0  0  0  0
  150.3781  141.7851  156.8386 C   0  0  0  0  0  0  0  0  0  0  0  0
  151.2078  141.2955  157.8315 N   0  0  0  0  0  0  0  0  0  0  0  0
  151.3852  142.0084  159.1552 C   0  0  1  0  0  0  0  0  0  0  0  0
  152.8513  142.4383  159.3469 C   0  0  0  0  0  0  0  0  0  0  0  0
  152.7223  143.9010  159.7220 C   0  0  0  0  0  0  0  0  0  0  0  0
  151.4523  144.3018  158.9867 C   0  0  0  0  0  0  0  0  0  0  0  0
  150.6091  143.1730  159.1764 O   0  0  0  0  0  0  0  0  0  0  0  0
  151.9151  140.0922  157.6196 C   0  0  0  0  0  0  0  0  0  0  0  0
  152.6656  139.6449  158.4897 O   0  0  0  0  0  0  0  0  0  0  0  0
  151.3731  136.1143  155.4765 N   0  0  0  0  0  0  0  0  0  0  0  0
  150.6817  134.8729  155.4952 C   0  0  0  0  0  0  0  0  0  0  0  0
  149.8074  134.6021  154.4215 C   0  0  0  0  0  0  0  0  0  0  0  0
  149.1053  133.3828  154.3618 C   0  0  0  0  0  0  0  0  0  0  0  0
  149.2825  132.4179  155.3711 C   0  0  0  0  0  0  0  0  0  0  0  0
  150.1661  132.6716  156.4369 C   0  0  0  0  0  0  0  0  0  0  0  0
  150.8679  133.8913  156.4992 C   0  0  0  0  0  0  0  0  0  0  0  0
  153.4370  138.1779  156.6974 H   0  0  0  0  0  0  0  0  0  0  0  0
  152.8069  138.0833  155.1003 H   0  0  0  0  0  0  0  0  0  0  0  0
  149.8317  142.7019  156.9971 H   0  0  0  0  0  0  0  0  0  0  0  0
  151.0180  141.3181  159.9164 H   0  0  0  0  0  0  0  0  0  0  0  0
  153.3394  141.8363  160.1139 H   0  0  0  0  0  0  0  0  0  0  0  0
  153.4009  142.3332  158.4099 H   0  0  0  0  0  0  0  0  0  0  0  0
  152.5791  144.0021  160.7986 H   0  0  0  0  0  0  0  0  0  0  0  0
  153.5894  144.4951  159.4328 H   0  0  0  0  0  0  0  0  0  0  0  0
  151.0014  145.2108  159.3850 H   0  0  0  0  0  0  0  0  0  0  0  0
  151.6499  144.4511  157.9243 H   0  0  0  0  0  0  0  0  0  0  0  0
  151.5989  136.4708  154.5593 H   0  0  0  0  0  0  0  0  0  0  0  0
  149.6666  135.3337  153.6392 H   0  0  0  0  0  0  0  0  0  0  0  0
  148.4324  133.1871  153.5402 H   0  0  0  0  0  0  0  0  0  0  0  0
  148.7458  131.4817  155.3243 H   0  0  0  0  0  0  0  0  0  0  0  0
  150.3111  131.9272  157.2059 H   0  0  0  0  0  0  0  0  0  0  0  0
  151.5548  134.0456  157.3169 H   0  0  0  0  0  0  0  0  0  0  0  0
  1  2  2  0  0  0  0
  2  3  1  0  0  0  0
  2 18  1  0  0  0  0
  3  4  1  0  0  0  0
  3 25  1  0  0  0  0
  3 26  1  0  0  0  0
  4 16  1  0  0  0  0
  4  5  1  0  0  0  0
  5  6  2  0  0  0  0
  5  7  1  0  0  0  0
  7  8  1  0  0  0  0
  7  9  2  0  0  0  0
  9 10  1  0  0  0  0
  9 27  1  0  0  0  0
 10 11  1  0  0  0  0
 10 16  1  0  0  0  0
 11 15  1  0  0  0  0
 11 12  1  0  0  0  0
 11 28  1  0  0  0  0
 12 13  1  0  0  0  0
 12 29  1  0  0  0  0
 12 30  1  0  0  0  0
 13 14  1  0  0  0  0
 13 31  1  0  0  0  0
 13 32  1  0  0  0  0
 14 15  1  0  0  0  0
 14 33  1  0  0  0  0
 14 34  1  0  0  0  0
 16 17  2  0  0  0  0
 18 19  1  0  0  0  0
 18 35  1  0  0  0  0
 19 24  1  0  0  0  0
 19 20  2  0  0  0  0
 20 21  1  0  0  0  0
 20 36  1  0  0  0  0
 21 22  2  0  0  0  0
 21 37  1  0  0  0  0
 22 23  1  0  0  0  0
 22 38  1  0  0  0  0
 23 24  2  0  0  0  0
 23 39  1  0  0  0  0
 24 40  1  0  0  0  0
M  END
> <s_m_source_file>
AV-unprocessed.smi

> <i_m_source_file_index>
126

> <i_lp_mmshare_version>
43012

> <i_f3d_flags>
0

> <s_epik_input>
W2NIXTFbY0hdW2NIXVtjSF1bY0hdYzFbTkhdQyg9TylbQ0gyXW4yYyg9TyljKEYpW2NIXW4oYzI9TylbQ0BASF0zW0NIMl1bQ0gyXVtDSDJdTzM=

> <s_epik_cmdline>
J2VwaWtfcHl0aG9uJywgJy1waCcsICc3LjAnLCAnLXRuJywgJzgnLCAnLW1hJywgJzIwMCcsICctbWV0YWxfYmluZGluZycsICctaW1hZScsICc8aW5maWxlLm1hZT4nLCAnLW9tYWUnLCAnPG91dGZpbGUubWFlPic=

> <r_lp_tautomer_probability>
1

> <r_epik_Ionization_Penalty>
1.86934e-06

> <r_epik_Ionization_Penalty_Charging>
3.88729e-08

> <r_epik_Ionization_Penalty_Neutral>
1.83046e-06

> <r_epik_State_Penalty>
-0

> <r_epik_Charging_Adjusted_Penalty>
3.88729e-08

> <i_epik_Tot_Q>
0

> <i_epik_Tot_abs_Q>
0

> <r_epik_Metal_State_Penalty>
-0

> <b_epik_Metal_Only>
0

> <s_epik_Chemistry_Notes>
This compound contains an acetal/aminal-like group ( X-CH(R)-Y where X, Y are N, S, or O) that may be acid/base labile, releasing an aldehyde.

> <s_lp_Force_Field>
OPLS_2005

> <r_lp_Energy>
33.9476

> <b_lp_Chiralities_Consistent>
1

> <s_lp_Variant>
AV-unprocessed.smi:126-2

> <Gold.Version>
5.8.1

> <Gold.Id.Protein>
6NUR|6NUR_protein|mol2

> <Gold.PLP.Fitness>
44.6682

> <Gold.PLP.PLP>
-42.4290

> <Gold.PLP.part.hbond>
-1.0000

> <Gold.PLP.part.metal>
0.0000

> <Gold.PLP.part.buried>
-1.9633

> <Gold.PLP.part.nonpolar>
-40.0340

> <Gold.PLP.part.repulsive>
2.0770

> <Gold.PLP.ligand.clash>
0.0000

> <Gold.PLP.ligand.torsion>
0.6701

> <Gold.PLP.Chemscore.Hbond>
0.3500

> <Gold.PLP.Chemscore.CHOScore>
0.8352

> <Gold.PLP.Chemscore.Metal>
0.0000

> <Gold.Chemscore.Hbonds>
donor molecule, donor type, donor heavy atom, donor atom, acceptor molecule, acceptor atom, score
      P1  H  7989  7998       L1     6  0.35
      L1  C     9    27       P1  8028  0.84

> <Gold.PLP.Chemscore.Internal.Correction>
0.0236

> <Gold.Rescore>
     Score         DG    S(hbond)    S(metal)    S(lipo)     H(rot)  DE(clash)    DE(int)     intcor
     11.41     -13.92       0.83        0.00      84.90       1.66       0.28       2.23       ----

> <Gold.Chemscore.Fitness>
11.4094

> <Gold.Chemscore.DG>
-13.9202

> <Gold.Chemscore.ZeroCoef>
-5.4800

> <Gold.Chemscore.Hbond>
0.8269

> <Gold.Chemscore.Metal>
0.0000

> <Gold.Chemscore.Lipo>
84.9015

> <Gold.Chemscore.Internal_Hbond>
0.0000

> <Gold.Chemscore.DEClash>
0.2769

> <Gold.Chemscore.DEInternal>
2.2339

> <Gold.Chemscore.Rot>
1.6621

> <Gold.Chemscore.Internal.Correction>
   9.000000E+99

> <Gold.Chemscore.Hbonds>
donor molecule, donor type, donor heavy atom, donor atom, acceptor molecule, acceptor atom, score
      P1  H  7989  7998       L1     6  0.01

> <Gold.Chemscore.Hbond.Weighted>
-2.7617

> <Gold.Chemscore.Metal.Weighted>
-0.0000

> <Gold.Chemscore.Lipo.Weighted>
-9.9335

> <Gold.Chemscore.Internal_Hbond.Weighted>
0.0000

> <Gold.Chemscore.DEClash.Weighted>
0.2769

> <Gold.Chemscore.DEInternal.Weighted>
2.2339

> <Gold.Chemscore.Rot.Weighted>
4.2550

> <Gold.Chemscore.Internal.Correction.Weighted>
   9.000000E+99

> <Gold.Protein.RotatedTorsions>
[ 6907 6896 6895 6894 ] final   51.63 input  -60.11 | X-H torsion
[ 7974 7965 7964 7962 ] final   57.32 input  175.53 | X-H torsion
[ 8008 7997 7996 7995 ] final   23.48 input   59.86 | X-H torsion
[ 10167 10162 10161 10158 ] final -110.47 input  -65.29 | X-H torsion
[ 10718 10713 10712 10709 ] final -142.31 input   66.30 | X-H torsion
[ 10763 10752 10751 10750 ] final  121.37 input  -60.55 | X-H torsion
[ 11005 11000 10999 10996 ] final  -68.05 input  -57.11 | X-H torsion

> <Gold.Protein.ActiveResidues>
 VAL166  LYS551  ARG553  GLY616  TRP617  ASP618  TYR619  PRO620  LYS621  CYS622 
 ASP623  PHE694  ASN695  SER759  ASP760  ASP761  ALA762  ILE779  LEU786  VAL792 
 PHE793  MET794  SER795  GLU796  ALA797  LYS798  CYS799  TRP800  GLU811  SER814 

> <Gold.Protein.RotatedAtoms>
  152.3147  134.7455  160.0328 H   0  0  0  0  0  0  0  0  0  0  0  0  # atno 6907 bound_to 6896
  151.7924  133.3355  159.3511 H   0  0  0  0  0  0  0  0  0  0  0  0  # atno 6908 bound_to 6896
  150.7338  134.5761  159.5959 H   0  0  0  0  0  0  0  0  0  0  0  0  # atno 6909 bound_to 6896
  145.9303  139.3802  143.0425 H   0  0  0  0  0  0  0  0  0  0  0  0  # atno 7974 bound_to 7965
  154.9816  140.3103  155.4944 H   0  0  0  0  0  0  0  0  0  0  0  0  # atno 8008 bound_to 7997
  156.2952  140.2265  156.4855 H   0  0  0  0  0  0  0  0  0  0  0  0  # atno 8009 bound_to 7997
  154.7784  140.0447  157.1096 H   0  0  0  0  0  0  0  0  0  0  0  0  # atno 8010 bound_to 7997
  140.1441  143.4254  152.1541 H   0  0  0  0  0  0  0  0  0  0  0  0  # atno 10167 bound_to 10162
  156.3444  130.7655  151.1797 H   0  0  0  0  0  0  0  0  0  0  0  0  # atno 10718 bound_to 10713
  153.6130  135.3427  155.2985 H   0  0  0  0  0  0  0  0  0  0  0  0  # atno 10763 bound_to 10752
  154.8615  135.4254  154.2290 H   0  0  0  0  0  0  0  0  0  0  0  0  # atno 10764 bound_to 10752
  153.3144  135.7034  153.7158 H   0  0  0  0  0  0  0  0  0  0  0  0  # atno 10765 bound_to 10752
  141.1523  133.6732  156.6387 H   0  0  0  0  0  0  0  0  0  0  0  0  # atno 11005 bound_to 11000
  145.8435  140.9568  143.0787 LP  0  0  0  0  0  0  0  0  0  0  0  0  # atno 17320 bound_to 7965
  144.6764  140.0315  143.7482 LP  0  0  0  0  0  0  0  0  0  0  0  0  # atno 17321 bound_to 7965
  139.5457  144.7296  151.4590 LP  0  0  0  0  0  0  0  0  0  0  0  0  # atno 17342 bound_to 10162
  140.6742  143.8226  150.7037 LP  0  0  0  0  0  0  0  0  0  0  0  0  # atno 17343 bound_to 10162
  157.7452  131.0445  150.4798 LP  0  0  0  0  0  0  0  0  0  0  0  0  # atno 17370 bound_to 10713
  156.4983  130.4111  149.6367 LP  0  0  0  0  0  0  0  0  0  0  0  0  # atno 17371 bound_to 10713
  140.3410  134.7849  157.4398 LP  0  0  0  0  0  0  0  0  0  0  0  0  # atno 17394 bound_to 11000
  140.0938  134.5565  155.8418 LP  0  0  0  0  0  0  0  0  0  0  0  0  # atno 17395 bound_to 11000

$$$$
