AV-unprocessed.smi:2153|AV-procd|sdf|8769|dock1
  -GOLD-   2272011553D 1   1.00000     0.00000
 Structure written by MMmdl.
 48 49  0  0  0  0  0  0  0  0  1 V2000
  150.2555  141.6339  157.6281 C   0  0  0  0  0  0  0  0  0  0  0  0
  151.6705  141.9402  158.1442 C   0  0  1  0  0  0  0  0  0  0  0  0
  151.6805  143.2450  158.9662 C   0  0  0  0  0  0  0  0  0  0  0  0
  153.0841  143.5766  159.4948 C   0  0  0  0  0  0  0  0  0  0  0  0
  153.6434  142.4164  160.3276 C   0  0  0  0  0  0  0  0  0  0  0  0
  153.6462  141.1137  159.5175 C   0  0  0  0  0  0  0  0  0  0  0  0
  152.2458  140.7654  158.9680 C   0  0  2  0  0  0  0  0  0  0  0  0
  152.3602  139.6457  158.0993 O   0  0  0  0  0  0  0  0  0  0  0  0
  151.5991  138.5101  158.4879 C   0  0  0  0  0  0  0  0  0  0  0  0
  152.1061  137.2857  157.7084 C   0  0  0  0  0  0  0  0  0  0  0  0
  151.0148  136.3811  157.3595 N   0  0  0  0  0  0  0  0  0  0  0  0
  150.6869  135.9996  156.1157 C   0  0  0  0  0  0  0  0  0  0  0  0
  151.3341  136.3115  155.1166 O   0  0  0  0  0  0  0  0  0  0  0  0
  149.4251  135.1416  155.9787 C   0  0  0  0  0  0  0  0  0  0  0  0
  149.7473  133.8000  155.4764 N   0  0  0  0  0  0  0  0  0  0  0  0
  149.0412  133.2905  154.4014 C   0  0  0  0  0  0  0  0  0  0  0  0
  149.2906  132.0830  153.8491 C   0  0  0  0  0  0  0  0  0  0  0  0
  150.3538  131.2289  154.3643 C   0  0  0  0  0  0  0  0  0  0  0  0
  150.6134  130.1225  153.8905 O   0  0  0  0  0  0  0  0  0  0  0  0
  151.0654  131.7764  155.4590 N   0  0  0  0  0  0  0  0  0  0  0  0
  152.1454  131.0090  156.0438 C   0  0  0  0  0  0  0  0  0  0  0  0
  150.7836  133.0295  156.0474 C   0  0  0  0  0  0  0  0  0  0  0  0
  151.4158  133.4466  157.0208 O   0  0  0  0  0  0  0  0  0  0  0  0
  149.5636  141.4556  158.4519 H   0  0  0  0  0  0  0  0  0  0  0  0
  150.2477  140.7494  156.9907 H   0  0  0  0  0  0  0  0  0  0  0  0
  149.8648  142.4634  157.0385 H   0  0  0  0  0  0  0  0  0  0  0  0
  152.3142  142.0908  157.2758 H   0  0  0  0  0  0  0  0  0  0  0  0
  151.3185  144.0730  158.3557 H   0  0  0  0  0  0  0  0  0  0  0  0
  150.9896  143.1567  159.8057 H   0  0  0  0  0  0  0  0  0  0  0  0
  153.7528  143.7841  158.6585 H   0  0  0  0  0  0  0  0  0  0  0  0
  153.0511  144.4845  160.0974 H   0  0  0  0  0  0  0  0  0  0  0  0
  154.6561  142.6503  160.6571 H   0  0  0  0  0  0  0  0  0  0  0  0
  153.0445  142.2864  161.2299 H   0  0  0  0  0  0  0  0  0  0  0  0
  154.3332  141.2161  158.6803 H   0  0  0  0  0  0  0  0  0  0  0  0
  154.0396  140.3086  160.1367 H   0  0  0  0  0  0  0  0  0  0  0  0
  151.5647  140.5404  159.7912 H   0  0  0  0  0  0  0  0  0  0  0  0
  151.6715  138.3195  159.5581 H   0  0  0  0  0  0  0  0  0  0  0  0
  150.5456  138.6916  158.2738 H   0  0  0  0  0  0  0  0  0  0  0  0
  152.6336  137.5992  156.8065 H   0  0  0  0  0  0  0  0  0  0  0  0
  152.8228  136.7326  158.3157 H   0  0  0  0  0  0  0  0  0  0  0  0
  150.4264  136.0700  158.1186 H   0  0  0  0  0  0  0  0  0  0  0  0
  148.9214  135.0802  156.9448 H   0  0  0  0  0  0  0  0  0  0  0  0
  148.7171  135.6356  155.3112 H   0  0  0  0  0  0  0  0  0  0  0  0
  148.2493  133.8896  153.9755 H   0  0  0  0  0  0  0  0  0  0  0  0
  148.6996  131.7468  153.0098 H   0  0  0  0  0  0  0  0  0  0  0  0
  152.9914  131.6801  156.2034 H   0  0  0  0  0  0  0  0  0  0  0  0
  152.4624  130.2105  155.3733 H   0  0  0  0  0  0  0  0  0  0  0  0
  151.7723  130.6039  156.9857 H   0  0  0  0  0  0  0  0  0  0  0  0
  1  2  1  0  0  0  0
  1 24  1  0  0  0  0
  1 25  1  0  0  0  0
  1 26  1  0  0  0  0
  2  7  1  0  0  0  0
  2  3  1  0  0  0  0
  2 27  1  0  0  0  0
  3  4  1  0  0  0  0
  3 28  1  0  0  0  0
  3 29  1  0  0  0  0
  4  5  1  0  0  0  0
  4 30  1  0  0  0  0
  4 31  1  0  0  0  0
  5  6  1  0  0  0  0
  5 32  1  0  0  0  0
  5 33  1  0  0  0  0
  6  7  1  0  0  0  0
  6 34  1  0  0  0  0
  6 35  1  0  0  0  0
  7  8  1  0  0  0  0
  7 36  1  0  0  0  0
  8  9  1  0  0  0  0
  9 10  1  0  0  0  0
  9 37  1  0  0  0  0
  9 38  1  0  0  0  0
 10 11  1  0  0  0  0
 10 39  1  0  0  0  0
 10 40  1  0  0  0  0
 11 12  1  0  0  0  0
 11 41  1  0  0  0  0
 12 13  2  0  0  0  0
 12 14  1  0  0  0  0
 14 15  1  0  0  0  0
 14 42  1  0  0  0  0
 14 43  1  0  0  0  0
 15 22  1  0  0  0  0
 15 16  1  0  0  0  0
 16 17  2  0  0  0  0
 16 44  1  0  0  0  0
 17 18  1  0  0  0  0
 17 45  1  0  0  0  0
 18 19  2  0  0  0  0
 18 20  1  0  0  0  0
 20 21  1  0  0  0  0
 20 22  1  0  0  0  0
 21 46  1  0  0  0  0
 21 47  1  0  0  0  0
 21 48  1  0  0  0  0
 22 23  2  0  0  0  0
M  END
> <s_m_source_file>
AV-unprocessed.smi

> <i_m_source_file_index>
2153

> <i_lp_mmshare_version>
43012

> <i_f3d_flags>
0

> <s_epik_input>
W0NIM11bQ0BASF0xW0NIMl1bQ0gyXVtDSDJdW0NIMl1bQ0BIXTFPW0NIMl1bQ0gyXVtOSF1DKD1PKVtDSDJdbjJbY0hdW2NIXWMoPU8pbihbQ0gzXSljMj1P

> <s_epik_cmdline>
J2VwaWtfcHl0aG9uJywgJy1waCcsICc3LjAnLCAnLXRuJywgJzgnLCAnLW1hJywgJzIwMCcsICctbWV0YWxfYmluZGluZycsICctaW1hZScsICc8aW5maWxlLm1hZT4nLCAnLW9tYWUnLCAnPG91dGZpbGUubWFlPic=

> <r_lp_tautomer_probability>
1

> <r_epik_Ionization_Penalty>
4.02205e-08

> <r_epik_Ionization_Penalty_Charging>
1.23606e-08

> <r_epik_Ionization_Penalty_Neutral>
2.78599e-08

> <r_epik_State_Penalty>
-0

> <r_epik_Charging_Adjusted_Penalty>
1.23606e-08

> <i_epik_Tot_Q>
0

> <i_epik_Tot_abs_Q>
0

> <r_epik_Metal_State_Penalty>
-0

> <b_epik_Metal_Only>
0

> <s_lp_Force_Field>
OPLS_2005

> <r_lp_Energy>
17.7366

> <b_lp_Chiralities_Consistent>
1

> <s_lp_Variant>
AV-unprocessed.smi:2153-4

> <Gold.Version>
5.8.1

> <Gold.Id.Protein>
6NUR|6NUR_protein|mol2

> <Gold.PLP.Fitness>
48.0903

> <Gold.PLP.PLP>
-41.5975

> <Gold.PLP.part.hbond>
-2.0000

> <Gold.PLP.part.metal>
0.0000

> <Gold.PLP.part.buried>
-5.9282

> <Gold.PLP.part.nonpolar>
-33.3761

> <Gold.PLP.part.repulsive>
0.2922

> <Gold.PLP.ligand.clash>
0.0000

> <Gold.PLP.ligand.torsion>
1.1796

> <Gold.PLP.Chemscore.Hbond>
1.8960

> <Gold.PLP.Chemscore.CHOScore>
1.0000

> <Gold.PLP.Chemscore.Metal>
0.0000

> <Gold.Chemscore.Hbonds>
donor molecule, donor type, donor heavy atom, donor atom, acceptor molecule, acceptor atom, score
      P1  H  6896  6908       L1    23  0.26
      P1  H 10752 10764       L1    13  1.00

> <Gold.PLP.Chemscore.Internal.Correction>
0.1640

> <Gold.Rescore>
     Score         DG    S(hbond)    S(metal)    S(lipo)     H(rot)  DE(clash)    DE(int)     intcor
     15.88     -17.11       1.85        0.00      94.67       2.20       0.01       1.22       ----

> <Gold.Chemscore.Fitness>
15.8755

> <Gold.Chemscore.DG>
-17.1053

> <Gold.Chemscore.ZeroCoef>
-5.4800

> <Gold.Chemscore.Hbond>
1.8480

> <Gold.Chemscore.Metal>
0.0000

> <Gold.Chemscore.Lipo>
94.6733

> <Gold.Chemscore.Internal_Hbond>
0.0000

> <Gold.Chemscore.DEClash>
0.0077

> <Gold.Chemscore.DEInternal>
1.2221

> <Gold.Chemscore.Rot>
2.1968

> <Gold.Chemscore.Internal.Correction>
   9.000000E+99

> <Gold.Chemscore.Hbonds>
donor molecule, donor type, donor heavy atom, donor atom, acceptor molecule, acceptor atom, score
      P1  H  6896  6908       L1    23  0.26
      P1  H 10752 10764       L1    13  1.00

> <Gold.Chemscore.Hbond.Weighted>
-6.1723

> <Gold.Chemscore.Metal.Weighted>
-0.0000

> <Gold.Chemscore.Lipo.Weighted>
-11.0768

> <Gold.Chemscore.Internal_Hbond.Weighted>
0.0000

> <Gold.Chemscore.DEClash.Weighted>
0.0077

> <Gold.Chemscore.DEInternal.Weighted>
1.2221

> <Gold.Chemscore.Rot.Weighted>
5.6238

> <Gold.Chemscore.Internal.Correction.Weighted>
   9.000000E+99

> <Gold.Protein.RotatedTorsions>
[ 6907 6896 6895 6894 ] final  106.83 input  -60.11 | X-H torsion
[ 7974 7965 7964 7962 ] final   79.94 input  175.53 | X-H torsion
[ 8008 7997 7996 7995 ] final  -87.70 input   59.86 | X-H torsion
[ 10167 10162 10161 10158 ] final  128.63 input  -65.29 | X-H torsion
[ 10718 10713 10712 10709 ] final  -89.33 input   66.30 | X-H torsion
[ 10763 10752 10751 10750 ] final  -59.43 input  -60.55 | X-H torsion
[ 11005 11000 10999 10996 ] final -168.03 input  -57.11 | X-H torsion

> <Gold.Protein.ActiveResidues>
 VAL166  LYS551  ARG553  GLY616  TRP617  ASP618  TYR619  PRO620  LYS621  CYS622 
 ASP623  PHE694  ASN695  SER759  ASP760  ASP761  ALA762  ILE779  LEU786  VAL792 
 PHE793  MET794  SER795  GLU796  ALA797  LYS798  CYS799  TRP800  GLU811  SER814 

> <Gold.Protein.RotatedAtoms>
  152.5178  133.9323  159.7586 H   0  0  0  0  0  0  0  0  0  0  0  0  # atno 6907 bound_to 6896
  150.9671  133.6375  159.2751 H   0  0  0  0  0  0  0  0  0  0  0  0  # atno 6908 bound_to 6896
  151.3600  135.0907  159.9484 H   0  0  0  0  0  0  0  0  0  0  0  0  # atno 6909 bound_to 6896
  145.6577  139.2463  143.1941 H   0  0  0  0  0  0  0  0  0  0  0  0  # atno 7974 bound_to 7965
  154.6663  140.0562  157.0117 H   0  0  0  0  0  0  0  0  0  0  0  0  # atno 8008 bound_to 7997
  155.1154  140.3242  155.4492 H   0  0  0  0  0  0  0  0  0  0  0  0  # atno 8009 bound_to 7997
  156.2639  140.2007  156.6277 H   0  0  0  0  0  0  0  0  0  0  0  0  # atno 8010 bound_to 7997
  139.5518  144.6818  151.4302 H   0  0  0  0  0  0  0  0  0  0  0  0  # atno 10167 bound_to 10162
  155.9984  130.4868  150.5155 H   0  0  0  0  0  0  0  0  0  0  0  0  # atno 10718 bound_to 10713
  154.2536  135.6321  153.5249 H   0  0  0  0  0  0  0  0  0  0  0  0  # atno 10763 bound_to 10752
  152.9908  135.5571  154.5780 H   0  0  0  0  0  0  0  0  0  0  0  0  # atno 10764 bound_to 10752
  154.5313  135.2888  155.1152 H   0  0  0  0  0  0  0  0  0  0  0  0  # atno 10765 bound_to 10752
  140.5466  134.5470  157.5112 H   0  0  0  0  0  0  0  0  0  0  0  0  # atno 11005 bound_to 11000
  146.1151  140.7379  142.9484 LP  0  0  0  0  0  0  0  0  0  0  0  0  # atno 17320 bound_to 7965
  144.7100  140.4002  143.7088 LP  0  0  0  0  0  0  0  0  0  0  0  0  # atno 17321 bound_to 7965
  140.6782  143.8142  150.7086 LP  0  0  0  0  0  0  0  0  0  0  0  0  # atno 17342 bound_to 10162
  140.1587  143.4294  152.2082 LP  0  0  0  0  0  0  0  0  0  0  0  0  # atno 17343 bound_to 10162
  157.3123  131.0666  151.1992 LP  0  0  0  0  0  0  0  0  0  0  0  0  # atno 17370 bound_to 10713
  157.2934  130.6807  149.6126 LP  0  0  0  0  0  0  0  0  0  0  0  0  # atno 17371 bound_to 10713
  139.9476  134.7673  156.0523 LP  0  0  0  0  0  0  0  0  0  0  0  0  # atno 17394 bound_to 11000
  141.1196  133.6617  156.3181 LP  0  0  0  0  0  0  0  0  0  0  0  0  # atno 17395 bound_to 11000

$$$$
