AV-unprocessed.smi:1091|AV-procd|sdf|4736|dock3
  -GOLD-   22720 3273D 1   1.00000     0.00000
 Structure written by MMmdl.
 38 39  0  0  0  0  0  0  0  0  1 V2000
  146.5025  139.2896  153.9434 O   0  0  0  0  0  0  0  0  0  0  0  0
  147.3371  138.6037  153.3579 C   0  0  0  0  0  0  0  0  0  0  0  0
  148.6681  138.6802  153.5542 N   0  0  0  0  0  0  0  0  0  0  0  0
  149.3896  139.5241  154.4404 C   0  0  0  0  0  0  0  0  0  0  0  0
  150.6995  139.1427  154.7938 C   0  0  0  0  0  0  0  0  0  0  0  0
  151.4442  139.9641  155.6611 C   0  0  0  0  0  0  0  0  0  0  0  0
  150.8566  141.1503  156.1431 C   0  0  0  0  0  0  0  0  0  0  0  0
  151.5876  141.9481  156.9987 O   0  0  0  0  0  0  0  0  0  0  0  0
  150.8877  142.7365  157.9580 C   0  0  0  0  0  0  0  0  0  0  0  0
  151.8774  143.6731  158.6607 C   0  0  0  0  0  0  0  0  0  0  0  0
  152.8351  142.9492  159.2390 F   0  0  0  0  0  0  0  0  0  0  0  0
  152.4394  144.4971  157.7764 F   0  0  0  0  0  0  0  0  0  0  0  0
  151.2525  144.3836  159.5993 F   0  0  0  0  0  0  0  0  0  0  0  0
  149.6043  141.5361  155.7947 N   0  0  0  0  0  0  0  0  0  0  0  0
  148.8946  140.7435  154.9633 C   0  0  0  0  0  0  0  0  0  0  0  0
  146.9638  137.6727  152.4605 N   0  0  0  0  0  0  0  0  0  0  0  0
  145.6136  137.3242  152.0106 C   0  0  0  0  0  0  0  0  0  0  0  0
  144.6494  137.3947  153.2098 C   0  0  0  0  0  0  0  0  0  0  0  0
  143.1911  137.1302  152.8074 C   0  0  0  0  0  0  0  0  0  0  0  0
  142.9861  135.4571  152.1391 S   0  0  0  0  0  0  0  0  0  0  0  0
  144.2173  135.5457  150.8105 C   0  0  0  0  0  0  0  0  0  0  0  0
  145.6016  135.9261  151.3556 C   0  0  0  0  0  0  0  0  0  0  0  0
  149.2245  138.0024  153.0540 H   0  0  0  0  0  0  0  0  0  0  0  0
  151.1294  138.2284  154.4114 H   0  0  0  0  0  0  0  0  0  0  0  0
  152.4467  139.6884  155.9529 H   0  0  0  0  0  0  0  0  0  0  0  0
  150.1103  143.3249  157.4676 H   0  0  0  0  0  0  0  0  0  0  0  0
  150.4053  142.0934  158.6963 H   0  0  0  0  0  0  0  0  0  0  0  0
  147.9173  141.1216  154.7080 H   0  0  0  0  0  0  0  0  0  0  0  0
  147.7100  137.1310  152.0488 H   0  0  0  0  0  0  0  0  0  0  0  0
  145.2806  138.0633  151.2797 H   0  0  0  0  0  0  0  0  0  0  0  0
  144.9524  136.6808  153.9772 H   0  0  0  0  0  0  0  0  0  0  0  0
  144.7127  138.3822  153.6690 H   0  0  0  0  0  0  0  0  0  0  0  0
  142.5355  137.2424  153.6711 H   0  0  0  0  0  0  0  0  0  0  0  0
  142.8638  137.8552  152.0615 H   0  0  0  0  0  0  0  0  0  0  0  0
  144.2615  134.5770  150.3127 H   0  0  0  0  0  0  0  0  0  0  0  0
  143.8879  136.2722  150.0670 H   0  0  0  0  0  0  0  0  0  0  0  0
  146.3178  135.8948  150.5339 H   0  0  0  0  0  0  0  0  0  0  0  0
  145.9320  135.1745  152.0738 H   0  0  0  0  0  0  0  0  0  0  0  0
  1  2  2  0  0  0  0
  2  3  1  0  0  0  0
  2 16  1  0  0  0  0
  3  4  1  0  0  0  0
  3 23  1  0  0  0  0
  4 15  1  0  0  0  0
  4  5  2  0  0  0  0
  5  6  1  0  0  0  0
  5 24  1  0  0  0  0
  6  7  2  0  0  0  0
  6 25  1  0  0  0  0
  7  8  1  0  0  0  0
  7 14  1  0  0  0  0
  8  9  1  0  0  0  0
  9 10  1  0  0  0  0
  9 26  1  0  0  0  0
  9 27  1  0  0  0  0
 10 11  1  0  0  0  0
 10 12  1  0  0  0  0
 10 13  1  0  0  0  0
 14 15  2  0  0  0  0
 15 28  1  0  0  0  0
 16 17  1  0  0  0  0
 16 29  1  0  0  0  0
 17 22  1  0  0  0  0
 17 18  1  0  0  0  0
 17 30  1  0  0  0  0
 18 19  1  0  0  0  0
 18 31  1  0  0  0  0
 18 32  1  0  0  0  0
 19 20  1  0  0  0  0
 19 33  1  0  0  0  0
 19 34  1  0  0  0  0
 20 21  1  0  0  0  0
 21 22  1  0  0  0  0
 21 35  1  0  0  0  0
 21 36  1  0  0  0  0
 22 37  1  0  0  0  0
 22 38  1  0  0  0  0
M  END
> <s_m_source_file>
AV-unprocessed.smi

> <i_m_source_file_index>
1091

> <i_lp_mmshare_version>
43012

> <i_f3d_flags>
0

> <s_epik_input>
W0NIMl0xW0NIMl1TW0NIMl1bQ0gyXVtDSF0xW05IXUMoPU8pW05IXWMyW2NIXVtjSF1jKG5bY0hdMilPW0NIMl1DKEYpKEYpRg==

> <s_epik_cmdline>
J2VwaWtfcHl0aG9uJywgJy1waCcsICc3LjAnLCAnLXRuJywgJzgnLCAnLW1hJywgJzIwMCcsICctbWV0YWxfYmluZGluZycsICctaW1hZScsICc8aW5maWxlLm1hZT4nLCAnLW9tYWUnLCAnPG91dGZpbGUubWFlPic=

> <r_lp_tautomer_probability>
1

> <r_epik_Ionization_Penalty>
4.01219e-05

> <r_epik_Ionization_Penalty_Charging>
0

> <r_epik_Ionization_Penalty_Neutral>
4.01219e-05

> <r_epik_State_Penalty>
-0

> <r_epik_Charging_Adjusted_Penalty>
0

> <i_epik_Tot_Q>
0

> <i_epik_Tot_abs_Q>
0

> <r_epik_Metal_State_Penalty>
-0

> <b_epik_Metal_Only>
0

> <s_lp_Force_Field>
OPLS_2005

> <r_lp_Energy>
17.6645

> <b_lp_Chiralities_Consistent>
1

> <s_lp_Variant>
AV-unprocessed.smi:1091-1

> <Gold.Version>
5.8.1

> <Gold.Id.Protein>
6NUR|6NUR_protein|mol2

> <Gold.PLP.Fitness>
48.9627

> <Gold.PLP.PLP>
-45.6503

> <Gold.PLP.part.hbond>
-2.9851

> <Gold.PLP.part.metal>
0.0000

> <Gold.PLP.part.buried>
-2.7139

> <Gold.PLP.part.nonpolar>
-41.2041

> <Gold.PLP.part.repulsive>
0.4227

> <Gold.PLP.ligand.clash>
0.0000

> <Gold.PLP.ligand.torsion>
0.7780

> <Gold.PLP.Chemscore.Hbond>
1.6100

> <Gold.PLP.Chemscore.CHOScore>
0.0000

> <Gold.PLP.Chemscore.Metal>
0.0000

> <Gold.Chemscore.Hbonds>
donor molecule, donor type, donor heavy atom, donor atom, acceptor molecule, acceptor atom, score
      L1  H     3    23       P1  7948  0.64
      L1  H    16    29       P1  7948  0.99

> <Gold.PLP.Chemscore.Internal.Correction>
0.0385

> <Gold.Rescore>
     Score         DG    S(hbond)    S(metal)    S(lipo)     H(rot)  DE(clash)    DE(int)     intcor
     12.71     -16.07       1.85        0.00      74.09       1.67       0.19       3.17       ----

> <Gold.Chemscore.Fitness>
12.7140

> <Gold.Chemscore.DG>
-16.0663

> <Gold.Chemscore.ZeroCoef>
-5.4800

> <Gold.Chemscore.Hbond>
1.8535

> <Gold.Chemscore.Metal>
0.0000

> <Gold.Chemscore.Lipo>
74.0907

> <Gold.Chemscore.Internal_Hbond>
0.0000

> <Gold.Chemscore.DEClash>
0.1870

> <Gold.Chemscore.DEInternal>
3.1653

> <Gold.Chemscore.Rot>
1.6691

> <Gold.Chemscore.Internal.Correction>
   9.000000E+99

> <Gold.Chemscore.Hbonds>
donor molecule, donor type, donor heavy atom, donor atom, acceptor molecule, acceptor atom, score
      L1  H     3    23       P1  7948  0.61
      L1  H    16    29       P1  7948  0.92

> <Gold.Chemscore.Hbond.Weighted>
-6.1906

> <Gold.Chemscore.Metal.Weighted>
-0.0000

> <Gold.Chemscore.Lipo.Weighted>
-8.6686

> <Gold.Chemscore.Internal_Hbond.Weighted>
0.0000

> <Gold.Chemscore.DEClash.Weighted>
0.1870

> <Gold.Chemscore.DEInternal.Weighted>
3.1653

> <Gold.Chemscore.Rot.Weighted>
4.2729

> <Gold.Chemscore.Internal.Correction.Weighted>
   9.000000E+99

> <Gold.Protein.RotatedTorsions>
[ 6907 6896 6895 6894 ] final -176.60 input  -60.11 | X-H torsion
[ 7974 7965 7964 7962 ] final -123.73 input  175.53 | X-H torsion
[ 8008 7997 7996 7995 ] final  -81.87 input   59.86 | X-H torsion
[ 10167 10162 10161 10158 ] final   26.06 input  -65.29 | X-H torsion
[ 10718 10713 10712 10709 ] final  -15.28 input   66.30 | X-H torsion
[ 10763 10752 10751 10750 ] final  163.34 input  -60.55 | X-H torsion
[ 11005 11000 10999 10996 ] final  -28.25 input  -57.11 | X-H torsion

> <Gold.Protein.ActiveResidues>
 VAL166  LYS551  ARG553  GLY616  TRP617  ASP618  TYR619  PRO620  LYS621  CYS622 
 ASP623  PHE694  ASN695  SER759  ASP760  ASP761  ALA762  ILE779  LEU786  VAL792 
 PHE793  MET794  SER795  GLU796  ALA797  LYS798  CYS799  TRP800  GLU811  SER814 

> <Gold.Protein.RotatedAtoms>
  151.6074  133.3350  159.3060 H   0  0  0  0  0  0  0  0  0  0  0  0  # atno 6907 bound_to 6896
  150.8175  134.7368  159.6754 H   0  0  0  0  0  0  0  0  0  0  0  0  # atno 6908 bound_to 6896
  152.4270  134.5855  160.0011 H   0  0  0  0  0  0  0  0  0  0  0  0  # atno 6909 bound_to 6896
  145.0156  140.7944  143.4412 H   0  0  0  0  0  0  0  0  0  0  0  0  # atno 7974 bound_to 7965
  154.6028  140.0641  156.9391 H   0  0  0  0  0  0  0  0  0  0  0  0  # atno 8008 bound_to 7997
  155.2104  140.3322  155.4311 H   0  0  0  0  0  0  0  0  0  0  0  0  # atno 8009 bound_to 7997
  156.2329  140.1849  156.7180 H   0  0  0  0  0  0  0  0  0  0  0  0  # atno 8010 bound_to 7997
  140.5054  144.0247  150.6350 H   0  0  0  0  0  0  0  0  0  0  0  0  # atno 10167 bound_to 10162
  156.6040  130.4831  149.6228 H   0  0  0  0  0  0  0  0  0  0  0  0  # atno 10718 bound_to 10713
  154.2921  135.2761  155.2650 H   0  0  0  0  0  0  0  0  0  0  0  0  # atno 10763 bound_to 10752
  154.5124  135.5779  153.6619 H   0  0  0  0  0  0  0  0  0  0  0  0  # atno 10764 bound_to 10752
  152.9912  135.6184  154.3087 H   0  0  0  0  0  0  0  0  0  0  0  0  # atno 10765 bound_to 10752
  140.9191  133.7410  156.0776 H   0  0  0  0  0  0  0  0  0  0  0  0  # atno 11005 bound_to 11000
  145.1964  139.2274  143.5215 LP  0  0  0  0  0  0  0  0  0  0  0  0  # atno 17320 bound_to 7965
  146.3477  140.1772  142.8589 LP  0  0  0  0  0  0  0  0  0  0  0  0  # atno 17321 bound_to 7965
  140.3555  143.2938  152.0441 LP  0  0  0  0  0  0  0  0  0  0  0  0  # atno 17342 bound_to 10162
  139.4882  144.6342  151.7009 LP  0  0  0  0  0  0  0  0  0  0  0  0  # atno 17343 bound_to 10162
  156.2445  130.6871  151.1587 LP  0  0  0  0  0  0  0  0  0  0  0  0  # atno 17370 bound_to 10713
  157.7272  131.0641  150.5876 LP  0  0  0  0  0  0  0  0  0  0  0  0  # atno 17371 bound_to 10713
  140.8011  134.3508  157.5439 LP  0  0  0  0  0  0  0  0  0  0  0  0  # atno 17394 bound_to 11000
  139.8772  134.9198  156.3236 LP  0  0  0  0  0  0  0  0  0  0  0  0  # atno 17395 bound_to 11000

$$$$
