#       Name:                AV-unprocessed.smi:2505
#       Creating user name   scv26
#       Creation time:       Fri Mar 27 13:48:40 2020


#       File generated by GOLD software.
#

@<TRIPOS>MOLECULE
AV-unprocessed.smi:2505
    54    58     1
SMALL
NO_CHARGES


@<TRIPOS>ATOM
      1 ****         0.4388   2.4792   0.4598 O.2            1 S1                 0.0000
      2 ****         0.1371   1.2917   0.3644 C.2            1 S1                 0.0000
      3 ****         1.0201   0.2773   0.2918 N.am           1 S1                 0.0000
      4 ****         2.4377   0.3312   0.3458 C.ar           1 S1                 0.0000
      5 ****         3.1943   1.4150   0.8559 C.ar           1 S1                 0.0000
      6 ****         4.5444   1.3840   0.8876 N.ar           1 S1                 0.0000
      7 ****         5.1373   0.2862   0.4105 C.ar           1 S1                 0.0000
      8 ****         6.6323   0.2448   0.4819 C.3            1 S1                 0.0000
      9 ****         7.4704   1.3371  -0.1508 C.3            1 S1                 0.0000
     10 ****         7.4603  -0.0393  -0.7550 C.3            1 S1                 0.0000
     11 ****         4.5292  -0.8020  -0.0700 N.ar           1 S1                 0.0000
     12 ****         3.1797  -0.7806  -0.1042 C.ar           1 S1                 0.0000
     13 ****        -1.1463   0.9041   0.2720 N.am           1 S1                 0.0000
     14 ****        -2.3449   1.7513   0.3142 C.3            1 S1                 0.0000
     15 ****        -3.0040   1.8332   1.7132 C.3            1 S1                 0.0000
     16 ****        -2.3342   1.3451   2.9754 C.3            1 S1                 0.0000
     17 ****        -2.9063  -0.0657   3.1433 C.3            1 S1                 0.0000
     18 ****        -3.3870  -0.4234   1.8495 O.3            1 S1                 0.0000
     19 ****        -3.9598   0.7410   1.2604 C.3            1 S1                 0.0000
     20 ****        -3.5975   1.0126  -0.2137 C.3            1 S1                 0.0000
     21 ****        -3.4536  -0.1925  -1.1441 C.3            1 S1                 0.0000
     22 ****        -4.8378  -0.4599  -1.7376 C.3            1 S1                 0.0000
     23 ****        -5.5710   0.8836  -1.6867 C.3            1 S1                 0.0000
     24 ****        -4.6153   1.8534  -0.9838 C.3            1 S1                 0.0000
     25 ****         0.6262  -0.6383   0.1314 H              1 S1                 0.0000
     26 ****         2.7407   2.3049   1.2628 H              1 S1                 0.0000
     27 ****         6.9714  -0.1710   1.4287 H              1 S1                 0.0000
     28 ****         6.9525   2.1258  -0.6933 H              1 S1                 0.0000
     29 ****         8.3694   1.6479   0.3773 H              1 S1                 0.0000
     30 ****         8.3524  -0.6497  -0.6315 H              1 S1                 0.0000
     31 ****         6.9362  -0.1662  -1.7004 H              1 S1                 0.0000
     32 ****         2.6893  -1.6599  -0.4962 H              1 S1                 0.0000
     33 ****        -1.3106  -0.0779   0.1016 H              1 S1                 0.0000
     34 ****        -2.2166   2.7275  -0.1565 H              1 S1                 0.0000
     35 ****        -3.5275   2.7828   1.8356 H              1 S1                 0.0000
     36 ****        -1.2490   1.3239   2.8884 H              1 S1                 0.0000
     37 ****        -2.5760   1.9688   3.8365 H              1 S1                 0.0000
     38 ****        -2.1658  -0.7788   3.5052 H              1 S1                 0.0000
     39 ****        -3.7443  -0.0582   3.8419 H              1 S1                 0.0000
     40 ****        -4.9997   0.9094   1.5437 H              1 S1                 0.0000
     41 ****        -2.7565   0.0426  -1.9498 H              1 S1                 0.0000
     42 ****        -3.0624  -1.0757  -0.6383 H              1 S1                 0.0000
     43 ****        -4.7741  -0.8594  -2.7501 H              1 S1                 0.0000
     44 ****        -5.3687  -1.1918  -1.1274 H              1 S1                 0.0000
     45 ****        -5.8334   1.2416  -2.6828 H              1 S1                 0.0000
     46 ****        -6.4970   0.7810  -1.1198 H              1 S1                 0.0000
     47 ****        -5.1572   2.5478  -0.3406 H              1 S1                 0.0000
     48 ****        -4.1040   2.4584  -1.7338 H              1 S1                 0.0000
     49 ****         1.4011   2.7498   0.4885 LP             1 S1                 0.0000
     50 ****        -0.2779   3.1748   0.5087 LP             1 S1                 0.0000
     51 ****         5.0762   2.1485   1.2519 LP             1 S1                 0.0000
     52 ****         5.0488  -1.5946  -0.3891 LP             1 S1                 0.0000
     53 ****        -4.0800  -1.1398   1.9301 LP             1 S1                 0.0000
     54 ****        -2.6306  -0.7534   1.2847 LP             1 S1                 0.0000
@<TRIPOS>BOND
    1    1    2 2     
    2    2    3 am    
    3    2   13 am    
    4    3    4 1     
    5    3   25 1     
    6    4   12 ar    
    7    4    5 ar    
    8    5    6 ar    
    9    5   26 1     
   10    6    7 ar    
   11    7    8 1     
   12    7   11 ar    
   13    8   10 1     
   14    8    9 1     
   15    8   27 1     
   16    9   10 1     
   17    9   28 1     
   18    9   29 1     
   19   10   30 1     
   20   10   31 1     
   21   11   12 ar    
   22   12   32 1     
   23   13   14 1     
   24   13   33 1     
   25   14   20 1     
   26   14   15 1     
   27   14   34 1     
   28   15   19 1     
   29   15   16 1     
   30   15   35 1     
   31   16   17 1     
   32   16   36 1     
   33   16   37 1     
   34   17   18 1     
   35   17   38 1     
   36   17   39 1     
   37   18   19 1     
   38   19   20 1     
   39   19   40 1     
   40   20   24 1     
   41   20   21 1     
   42   21   22 1     
   43   21   41 1     
   44   21   42 1     
   45   22   23 1     
   46   22   43 1     
   47   22   44 1     
   48   23   24 1     
   49   23   45 1     
   50   23   46 1     
   51   24   47 1     
   52   24   48 1     
   53    1   49 1     
   54    1   50 1     
   55    6   51 1     
   56   11   52 1     
   57   18   53 1     
   58   18   54 1     
@<TRIPOS>SUBSTRUCTURE
      1 S1             1
@<TRIPOS>SET
LONE_PAIRS      STATIC     ATOMS    <user>   **** ""
6 49 50 51 52 53 54
DONOR_HYDROGENS      STATIC     ATOMS    <user>   **** ""
2 25 33
ATOM$BLUE        STATIC     ATOMS    COLORGROUP SYSTEM
6 49 50 51 52 53 54
ATOM$RED        STATIC     ATOMS    COLORGROUP SYSTEM
2 25 33
