AV-unprocessed.smi:1233|AV-procd|sdf|5172|dock3
  -GOLD-   22720 4243D 1   1.00000     0.00000
 Structure written by MMmdl.
 38 39  0  0  0  0  0  0  0  0  1 V2000
  151.6424  138.3349  154.3724 C   0  0  0  0  0  0  0  0  0  0  0  0
  150.3439  138.3551  153.7893 O   0  0  0  0  0  0  0  0  0  0  0  0
  149.4978  139.4041  154.0969 C   0  0  0  0  0  0  0  0  0  0  0  0
  150.0264  140.5026  154.6928 N   0  0  0  0  0  0  0  0  0  0  0  0
  149.2051  141.5282  154.9945 C   0  0  0  0  0  0  0  0  0  0  0  0
  147.8259  141.5150  154.7204 C   0  0  0  0  0  0  0  0  0  0  0  0
  147.2747  140.3774  154.1019 C   0  0  0  0  0  0  0  0  0  0  0  0
  148.1233  139.2891  153.7789 C   0  0  0  0  0  0  0  0  0  0  0  0
  147.6908  138.0841  153.1538 N   0  0  0  0  0  0  0  0  0  0  0  0
  146.4655  137.5343  153.0911 C   0  0  0  0  0  0  0  0  0  0  0  0
  145.4411  137.9985  153.5895 O   0  0  0  0  0  0  0  0  0  0  0  0
  146.4927  136.3858  152.3997 N   0  0  0  0  0  0  0  0  0  0  0  0
  145.3509  135.5013  152.1597 C   0  0  1  0  0  0  0  0  0  0  0  0
  145.6740  134.5093  151.0196 C   0  0  0  0  0  0  0  0  0  0  0  0
  144.4313  133.9306  150.3239 C   0  0  0  0  0  0  0  0  0  0  0  0
  143.5226  133.0828  151.2265 C   0  0  0  0  0  0  0  0  0  0  0  0
  142.8576  133.8822  152.3604 C   0  0  0  0  0  0  0  0  0  0  0  0
  143.7578  134.1221  153.4814 N   0  0  0  0  0  0  0  0  0  0  0  0
  144.8971  134.8309  153.4703 C   0  0  0  0  0  0  0  0  0  0  0  0
  145.5753  134.9374  154.4920 O   0  0  0  0  0  0  0  0  0  0  0  0
  152.1781  137.4503  154.0284 H   0  0  0  0  0  0  0  0  0  0  0  0
  151.5915  138.2878  155.4611 H   0  0  0  0  0  0  0  0  0  0  0  0
  152.2252  139.2090  154.0779 H   0  0  0  0  0  0  0  0  0  0  0  0
  149.6610  142.3850  155.4684 H   0  0  0  0  0  0  0  0  0  0  0  0
  147.2040  142.3593  154.9786 H   0  0  0  0  0  0  0  0  0  0  0  0
  146.2175  140.3749  153.8940 H   0  0  0  0  0  0  0  0  0  0  0  0
  148.4226  137.5658  152.6900 H   0  0  0  0  0  0  0  0  0  0  0  0
  147.3800  136.0765  152.0299 H   0  0  0  0  0  0  0  0  0  0  0  0
  144.5220  136.1360  151.8406 H   0  0  0  0  0  0  0  0  0  0  0  0
  146.2672  135.0120  150.2545 H   0  0  0  0  0  0  0  0  0  0  0  0
  146.3032  133.7002  151.3937 H   0  0  0  0  0  0  0  0  0  0  0  0
  143.8510  134.7413  149.8818 H   0  0  0  0  0  0  0  0  0  0  0  0
  144.7608  133.3129  149.4878 H   0  0  0  0  0  0  0  0  0  0  0  0
  142.7362  132.6560  150.6030 H   0  0  0  0  0  0  0  0  0  0  0  0
  144.0743  132.2338  151.6321 H   0  0  0  0  0  0  0  0  0  0  0  0
  142.4483  134.8241  151.9926 H   0  0  0  0  0  0  0  0  0  0  0  0
  142.0124  133.3135  152.7489 H   0  0  0  0  0  0  0  0  0  0  0  0
  143.4939  133.6985  154.3591 H   0  0  0  0  0  0  0  0  0  0  0  0
  1  2  1  0  0  0  0
  1 21  1  0  0  0  0
  1 22  1  0  0  0  0
  1 23  1  0  0  0  0
  2  3  1  0  0  0  0
  3  8  1  0  0  0  0
  3  4  2  0  0  0  0
  4  5  1  0  0  0  0
  5  6  2  0  0  0  0
  5 24  1  0  0  0  0
  6  7  1  0  0  0  0
  6 25  1  0  0  0  0
  7  8  2  0  0  0  0
  7 26  1  0  0  0  0
  8  9  1  0  0  0  0
  9 10  1  0  0  0  0
  9 27  1  0  0  0  0
 10 11  2  0  0  0  0
 10 12  1  0  0  0  0
 12 13  1  0  0  0  0
 12 28  1  0  0  0  0
 13 19  1  0  0  0  0
 13 14  1  0  0  0  0
 13 29  1  0  0  0  0
 14 15  1  0  0  0  0
 14 30  1  0  0  0  0
 14 31  1  0  0  0  0
 15 16  1  0  0  0  0
 15 32  1  0  0  0  0
 15 33  1  0  0  0  0
 16 17  1  0  0  0  0
 16 34  1  0  0  0  0
 16 35  1  0  0  0  0
 17 18  1  0  0  0  0
 17 36  1  0  0  0  0
 17 37  1  0  0  0  0
 18 19  1  0  0  0  0
 18 38  1  0  0  0  0
 19 20  2  0  0  0  0
M  END
> <s_m_source_file>
AV-unprocessed.smi

> <i_m_source_file_index>
1233

> <i_lp_mmshare_version>
43012

> <i_f3d_flags>
0

> <s_epik_input>
W0NIM11PYzFuW2NIXVtjSF1bY0hdYzFbTkhdQyg9TylbTkhdW0NAQEhdMltDSDJdW0NIMl1bQ0gyXVtDSDJdW05IXUMyPU8=

> <s_epik_cmdline>
J2VwaWtfcHl0aG9uJywgJy1waCcsICc3LjAnLCAnLXRuJywgJzgnLCAnLW1hJywgJzIwMCcsICctbWV0YWxfYmluZGluZycsICctaW1hZScsICc8aW5maWxlLm1hZT4nLCAnLW9tYWUnLCAnPG91dGZpbGUubWFlPic=

> <r_lp_tautomer_probability>
1

> <r_epik_Ionization_Penalty>
8.308e-05

> <r_epik_Ionization_Penalty_Charging>
0

> <r_epik_Ionization_Penalty_Neutral>
8.308e-05

> <r_epik_State_Penalty>
-0

> <r_epik_Charging_Adjusted_Penalty>
0

> <i_epik_Tot_Q>
0

> <i_epik_Tot_abs_Q>
0

> <r_epik_Metal_State_Penalty>
-0

> <b_epik_Metal_Only>
0

> <s_lp_Force_Field>
OPLS_2005

> <r_lp_Energy>
13.1294

> <b_lp_Chiralities_Consistent>
1

> <s_lp_Variant>
AV-unprocessed.smi:1233-2

> <Gold.Version>
5.8.1

> <Gold.Id.Protein>
6NUR|6NUR_protein|mol2

> <Gold.PLP.Fitness>
41.6266

> <Gold.PLP.PLP>
-29.4249

> <Gold.PLP.part.hbond>
-3.9263

> <Gold.PLP.part.metal>
0.0000

> <Gold.PLP.part.buried>
-1.8000

> <Gold.PLP.part.nonpolar>
-24.8709

> <Gold.PLP.part.repulsive>
0.6952

> <Gold.PLP.ligand.clash>
0.0000

> <Gold.PLP.ligand.torsion>
0.4084

> <Gold.PLP.Chemscore.Hbond>
3.3304

> <Gold.PLP.Chemscore.CHOScore>
1.0000

> <Gold.PLP.Chemscore.Metal>
0.0000

> <Gold.Chemscore.Hbonds>
donor molecule, donor type, donor heavy atom, donor atom, acceptor molecule, acceptor atom, score
      L1  H     9    27       P1  7948  1.00
      L1  H    12    28       P1  7948  1.00
      L1  H    18    38       P1 10957  0.43
      P1  H  7989  7998       L1     4  0.90
      L1  C     5    24       P1  8028  1.00

> <Gold.PLP.Chemscore.Internal.Correction>
0.0272

> <Gold.Rescore>
     Score         DG    S(hbond)    S(metal)    S(lipo)     H(rot)  DE(clash)    DE(int)     intcor
     17.27     -19.11       2.89        0.00      62.79       1.31       0.46       1.38       ----

> <Gold.Chemscore.Fitness>
17.2720

> <Gold.Chemscore.DG>
-19.1148

> <Gold.Chemscore.ZeroCoef>
-5.4800

> <Gold.Chemscore.Hbond>
2.8859

> <Gold.Chemscore.Metal>
0.0000

> <Gold.Chemscore.Lipo>
62.7944

> <Gold.Chemscore.Internal_Hbond>
0.0000

> <Gold.Chemscore.DEClash>
0.4631

> <Gold.Chemscore.DEInternal>
1.3796

> <Gold.Chemscore.Rot>
1.3090

> <Gold.Chemscore.Internal.Correction>
   9.000000E+99

> <Gold.Chemscore.Hbonds>
donor molecule, donor type, donor heavy atom, donor atom, acceptor molecule, acceptor atom, score
      L1  H     9    27       P1  7948  0.96
      L1  H    12    28       P1  7948  0.94
      L1  H    18    38       P1 10957  0.44
      P1  H  7989  7998       L1     4  0.24

> <Gold.Chemscore.Hbond.Weighted>
-9.6388

> <Gold.Chemscore.Metal.Weighted>
-0.0000

> <Gold.Chemscore.Lipo.Weighted>
-7.3469

> <Gold.Chemscore.Internal_Hbond.Weighted>
0.0000

> <Gold.Chemscore.DEClash.Weighted>
0.4631

> <Gold.Chemscore.DEInternal.Weighted>
1.3796

> <Gold.Chemscore.Rot.Weighted>
3.3509

> <Gold.Chemscore.Internal.Correction.Weighted>
   9.000000E+99

> <Gold.Protein.RotatedTorsions>
[ 6907 6896 6895 6894 ] final -162.63 input  -60.11 | X-H torsion
[ 7974 7965 7964 7962 ] final  131.67 input  175.53 | X-H torsion
[ 8008 7997 7996 7995 ] final   90.27 input   59.86 | X-H torsion
[ 10167 10162 10161 10158 ] final -105.94 input  -65.29 | X-H torsion
[ 10718 10713 10712 10709 ] final  -63.90 input   66.30 | X-H torsion
[ 10763 10752 10751 10750 ] final  109.63 input  -60.55 | X-H torsion
[ 11005 11000 10999 10996 ] final  -80.46 input  -57.11 | X-H torsion

> <Gold.Protein.ActiveResidues>
 VAL166  LYS551  ARG553  GLY616  TRP617  ASP618  TYR619  PRO620  LYS621  CYS622 
 ASP623  PHE694  ASN695  SER759  ASP760  ASP761  ALA762  ILE779  LEU786  VAL792 
 PHE793  MET794  SER795  GLU796  ALA797  LYS798  CYS799  TRP800  GLU811  SER814 

> <Gold.Protein.RotatedAtoms>
  151.3834  133.3813  159.2712 H   0  0  0  0  0  0  0  0  0  0  0  0  # atno 6907 bound_to 6896
  150.9560  134.8955  159.7712 H   0  0  0  0  0  0  0  0  0  0  0  0  # atno 6908 bound_to 6896
  152.5131  134.3791  159.9397 H   0  0  0  0  0  0  0  0  0  0  0  0  # atno 6909 bound_to 6896
  145.0048  139.4277  143.5274 H   0  0  0  0  0  0  0  0  0  0  0  0  # atno 7974 bound_to 7965
  156.0099  140.3351  155.6930 H   0  0  0  0  0  0  0  0  0  0  0  0  # atno 8008 bound_to 7997
  155.6172  140.0671  157.2706 H   0  0  0  0  0  0  0  0  0  0  0  0  # atno 8009 bound_to 7997
  154.4278  140.1783  156.1322 H   0  0  0  0  0  0  0  0  0  0  0  0  # atno 8010 bound_to 7997
  140.1931  143.3876  152.1190 H   0  0  0  0  0  0  0  0  0  0  0  0  # atno 10167 bound_to 10162
  156.0762  130.4226  150.1343 H   0  0  0  0  0  0  0  0  0  0  0  0  # atno 10718 bound_to 10713
  153.4374  135.3774  155.2207 H   0  0  0  0  0  0  0  0  0  0  0  0  # atno 10763 bound_to 10752
  154.8752  135.3855  154.4194 H   0  0  0  0  0  0  0  0  0  0  0  0  # atno 10764 bound_to 10752
  153.4735  135.7087  153.6043 H   0  0  0  0  0  0  0  0  0  0  0  0  # atno 10765 bound_to 10752
  141.1668  133.7151  156.8276 H   0  0  0  0  0  0  0  0  0  0  0  0  # atno 11005 bound_to 11000
  146.3459  139.9458  142.8735 LP  0  0  0  0  0  0  0  0  0  0  0  0  # atno 17320 bound_to 7965
  145.2103  140.9893  143.4104 LP  0  0  0  0  0  0  0  0  0  0  0  0  # atno 17321 bound_to 7965
  139.5247  144.7087  151.5273 LP  0  0  0  0  0  0  0  0  0  0  0  0  # atno 17342 bound_to 10162
  140.6442  143.8828  150.6721 LP  0  0  0  0  0  0  0  0  0  0  0  0  # atno 17343 bound_to 10162
  156.9384  130.9736  151.3520 LP  0  0  0  0  0  0  0  0  0  0  0  0  # atno 17370 bound_to 10713
  157.5858  130.8409  149.8588 LP  0  0  0  0  0  0  0  0  0  0  0  0  # atno 17371 bound_to 10713
  140.2074  134.8852  157.3237 LP  0  0  0  0  0  0  0  0  0  0  0  0  # atno 17394 bound_to 11000
  140.2123  134.4124  155.7607 LP  0  0  0  0  0  0  0  0  0  0  0  0  # atno 17395 bound_to 11000

$$$$
