AV-unprocessed.smi:1563|AV-procd|sdf|6290|dock1
  -GOLD-   22720 6493D 1   1.00000     0.00000
 Structure written by MMmdl.
 43 44  0  0  0  0  0  0  0  0  1 V2000
  156.4834  132.5484  159.2896 C   0  0  0  0  0  0  0  0  0  0  0  0
  155.5614  133.7159  159.6251 C   0  0  0  0  0  0  0  0  0  0  0  0
  154.3596  133.6441  159.3705 O   0  0  0  0  0  0  0  0  0  0  0  0
  156.1359  134.7821  160.2025 N   0  0  0  0  0  0  0  0  0  0  0  0
  155.4351  135.9950  160.6112 C   0  0  1  0  0  0  0  0  0  0  0  0
  154.7270  135.7866  161.9702 C   0  0  0  0  0  0  0  0  0  0  0  0
  154.1559  137.1025  162.5333 C   0  0  0  0  0  0  0  0  0  0  0  0
  155.2151  138.2191  162.5123 C   0  0  0  0  0  0  0  0  0  0  0  0
  155.7068  138.3700  161.1326 N   0  0  0  0  0  0  0  0  0  0  0  0
  155.3508  139.3443  160.2574 C   0  0  0  0  0  0  0  0  0  0  0  0
  155.5903  139.2867  159.0503 O   0  0  0  0  0  0  0  0  0  0  0  0
  154.7243  140.3968  160.8105 N   0  0  0  0  0  0  0  0  0  0  0  0
  154.2146  141.5504  160.0785 C   0  0  0  0  0  0  0  0  0  0  0  0
  152.8619  142.0195  160.6400 C   0  0  0  0  0  0  0  0  0  0  0  0
  152.3716  143.2901  159.9727 C   0  0  0  0  0  0  0  0  0  0  0  0
  152.3125  144.5030  160.6918 C   0  0  0  0  0  0  0  0  0  0  0  0
  151.8449  145.6539  160.0286 C   0  0  0  0  0  0  0  0  0  0  0  0
  151.4553  145.5481  158.6795 C   0  0  0  0  0  0  0  0  0  0  0  0
  151.5503  144.2902  158.0513 C   0  0  0  0  0  0  0  0  0  0  0  0
  151.9974  143.1803  158.6779 N   0  0  0  0  0  0  0  0  0  0  0  0
  156.4311  137.1694  160.6975 C   0  0  0  0  0  0  0  0  0  0  0  0
  157.4454  132.9051  158.9199 H   0  0  0  0  0  0  0  0  0  0  0  0
  156.0381  131.9151  158.5216 H   0  0  0  0  0  0  0  0  0  0  0  0
  156.6574  131.9398  160.1773 H   0  0  0  0  0  0  0  0  0  0  0  0
  157.1306  134.7506  160.3725 H   0  0  0  0  0  0  0  0  0  0  0  0
  154.6857  136.2439  159.8569 H   0  0  0  0  0  0  0  0  0  0  0  0
  153.9312  135.0470  161.8760 H   0  0  0  0  0  0  0  0  0  0  0  0
  155.4403  135.3802  162.6886 H   0  0  0  0  0  0  0  0  0  0  0  0
  153.2935  137.4088  161.9395 H   0  0  0  0  0  0  0  0  0  0  0  0
  153.7932  136.9468  163.5495 H   0  0  0  0  0  0  0  0  0  0  0  0
  154.8015  139.1334  162.9374 H   0  0  0  0  0  0  0  0  0  0  0  0
  156.0481  137.9524  163.1644 H   0  0  0  0  0  0  0  0  0  0  0  0
  154.5707  140.3851  161.8083 H   0  0  0  0  0  0  0  0  0  0  0  0
  154.9495  142.3520  160.1563 H   0  0  0  0  0  0  0  0  0  0  0  0
  154.1262  141.3113  159.0172 H   0  0  0  0  0  0  0  0  0  0  0  0
  152.1093  141.2404  160.5116 H   0  0  0  0  0  0  0  0  0  0  0  0
  152.9418  142.1917  161.7145 H   0  0  0  0  0  0  0  0  0  0  0  0
  152.6162  144.5517  161.7273 H   0  0  0  0  0  0  0  0  0  0  0  0
  151.7856  146.6002  160.5456 H   0  0  0  0  0  0  0  0  0  0  0  0
  151.0918  146.4098  158.1394 H   0  0  0  0  0  0  0  0  0  0  0  0
  151.2590  144.1727  157.0181 H   0  0  0  0  0  0  0  0  0  0  0  0
  157.2225  136.9454  161.4146 H   0  0  0  0  0  0  0  0  0  0  0  0
  156.9348  137.3112  159.7399 H   0  0  0  0  0  0  0  0  0  0  0  0
  1  2  1  0  0  0  0
  1 22  1  0  0  0  0
  1 23  1  0  0  0  0
  1 24  1  0  0  0  0
  2  3  2  0  0  0  0
  2  4  1  0  0  0  0
  4  5  1  0  0  0  0
  4 25  1  0  0  0  0
  5 21  1  0  0  0  0
  5  6  1  0  0  0  0
  5 26  1  0  0  0  0
  6  7  1  0  0  0  0
  6 27  1  0  0  0  0
  6 28  1  0  0  0  0
  7  8  1  0  0  0  0
  7 29  1  0  0  0  0
  7 30  1  0  0  0  0
  8  9  1  0  0  0  0
  8 31  1  0  0  0  0
  8 32  1  0  0  0  0
  9 10  1  0  0  0  0
  9 21  1  0  0  0  0
 10 11  2  0  0  0  0
 10 12  1  0  0  0  0
 12 13  1  0  0  0  0
 12 33  1  0  0  0  0
 13 14  1  0  0  0  0
 13 34  1  0  0  0  0
 13 35  1  0  0  0  0
 14 15  1  0  0  0  0
 14 36  1  0  0  0  0
 14 37  1  0  0  0  0
 15 20  1  0  0  0  0
 15 16  2  0  0  0  0
 16 17  1  0  0  0  0
 16 38  1  0  0  0  0
 17 18  2  0  0  0  0
 17 39  1  0  0  0  0
 18 19  1  0  0  0  0
 18 40  1  0  0  0  0
 19 20  2  0  0  0  0
 19 41  1  0  0  0  0
 21 42  1  0  0  0  0
 21 43  1  0  0  0  0
M  END
> <s_m_source_file>
AV-unprocessed.smi

> <i_m_source_file_index>
1563

> <i_lp_mmshare_version>
43012

> <i_f3d_flags>
0

> <s_epik_input>
W0NIM11DKD1PKVtOSF1bQ0BASF0xW0NIMl1bQ0gyXVtDSDJdTihbQ0gyXTEpQyg9TylbTkhdW0NIMl1bQ0gyXWMyW2NIXVtjSF1bY0hdW2NIXW4y

> <s_epik_cmdline>
J2VwaWtfcHl0aG9uJywgJy1waCcsICc3LjAnLCAnLXRuJywgJzgnLCAnLW1hJywgJzIwMCcsICctbWV0YWxfYmluZGluZycsICctaW1hZScsICc8aW5maWxlLm1hZT4nLCAnLW9tYWUnLCAnPG91dGZpbGUubWFlPic=

> <r_epik_Ionization_Penalty>
0.0442074

> <r_epik_Ionization_Penalty_Charging>
0

> <r_epik_Ionization_Penalty_Neutral>
0.0442074

> <r_epik_State_Penalty>
0.0374027

> <r_epik_Charging_Adjusted_Penalty>
0.0374027

> <i_epik_Tot_Q>
0

> <i_epik_Tot_abs_Q>
0

> <r_epik_Metal_State_Penalty>
0.0347963

> <b_epik_Metal_Only>
0

> <s_lp_Force_Field>
OPLS_2005

> <r_lp_Energy>
22.675

> <b_lp_Chiralities_Consistent>
1

> <s_lp_Variant>
AV-unprocessed.smi:1563-2

> <Gold.Version>
5.8.1

> <Gold.Id.Protein>
6NUR|6NUR_protein|mol2

> <Gold.PLP.Fitness>
44.8274

> <Gold.PLP.PLP>
-36.9442

> <Gold.PLP.part.hbond>
-2.0000

> <Gold.PLP.part.metal>
0.0000

> <Gold.PLP.part.buried>
-4.4986

> <Gold.PLP.part.nonpolar>
-29.8258

> <Gold.PLP.part.repulsive>
0.0835

> <Gold.PLP.ligand.clash>
0.0000

> <Gold.PLP.ligand.torsion>
0.5753

> <Gold.PLP.Chemscore.Hbond>
2.0000

> <Gold.PLP.Chemscore.CHOScore>
0.9871

> <Gold.PLP.Chemscore.Metal>
0.0000

> <Gold.Chemscore.Hbonds>
donor molecule, donor type, donor heavy atom, donor atom, acceptor molecule, acceptor atom, score
      P1  H  6896  6908       L1     3  1.00
      P1  H  7997  8010       L1    11  0.98
      L1  C    19    41       P1  8028  0.43

> <Gold.PLP.Chemscore.Internal.Correction>
0.0724

> <Gold.Rescore>
     Score         DG    S(hbond)    S(metal)    S(lipo)     H(rot)  DE(clash)    DE(int)     intcor
     19.09     -19.76       1.99        0.00     101.94       1.68       0.10       0.57       ----

> <Gold.Chemscore.Fitness>
19.0947

> <Gold.Chemscore.DG>
-19.7638

> <Gold.Chemscore.ZeroCoef>
-5.4800

> <Gold.Chemscore.Hbond>
1.9942

> <Gold.Chemscore.Metal>
0.0000

> <Gold.Chemscore.Lipo>
101.9430

> <Gold.Chemscore.Internal_Hbond>
0.0000

> <Gold.Chemscore.DEClash>
0.1011

> <Gold.Chemscore.DEInternal>
0.5680

> <Gold.Chemscore.Rot>
1.6813

> <Gold.Chemscore.Internal.Correction>
   9.000000E+99

> <Gold.Chemscore.Hbonds>
donor molecule, donor type, donor heavy atom, donor atom, acceptor molecule, acceptor atom, score
      P1  H  6896  6908       L1     3  0.98
      P1  H  7997  8010       L1    11  0.93

> <Gold.Chemscore.Hbond.Weighted>
-6.6607

> <Gold.Chemscore.Metal.Weighted>
-0.0000

> <Gold.Chemscore.Lipo.Weighted>
-11.9273

> <Gold.Chemscore.Internal_Hbond.Weighted>
0.0000

> <Gold.Chemscore.DEClash.Weighted>
0.1011

> <Gold.Chemscore.DEInternal.Weighted>
0.5680

> <Gold.Chemscore.Rot.Weighted>
4.3042

> <Gold.Chemscore.Internal.Correction.Weighted>
   9.000000E+99

> <Gold.Protein.RotatedTorsions>
[ 6907 6896 6895 6894 ] final  -30.93 input  -60.11 | X-H torsion
[ 7974 7965 7964 7962 ] final  173.31 input  175.53 | X-H torsion
[ 8008 7997 7996 7995 ] final    3.97 input   59.86 | X-H torsion
[ 10167 10162 10161 10158 ] final -107.29 input  -65.29 | X-H torsion
[ 10718 10713 10712 10709 ] final  -76.29 input   66.30 | X-H torsion
[ 10763 10752 10751 10750 ] final  -55.46 input  -60.55 | X-H torsion
[ 11005 11000 10999 10996 ] final -170.16 input  -57.11 | X-H torsion

> <Gold.Protein.ActiveResidues>
 VAL166  LYS551  ARG553  GLY616  TRP617  ASP618  TYR619  PRO620  LYS621  CYS622 
 ASP623  PHE694  ASN695  SER759  ASP760  ASP761  ALA762  ILE779  LEU786  VAL792 
 PHE793  MET794  SER795  GLU796  ALA797  LYS798  CYS799  TRP800  GLU811  SER814 

> <Gold.Protein.RotatedAtoms>
  151.0989  134.9960  159.8438 H   0  0  0  0  0  0  0  0  0  0  0  0  # atno 6907 bound_to 6896
  152.5435  134.1974  159.8708 H   0  0  0  0  0  0  0  0  0  0  0  0  # atno 6908 bound_to 6896
  151.2016  133.4563  159.2629 H   0  0  0  0  0  0  0  0  0  0  0  0  # atno 6909 bound_to 6896
  144.7247  139.9628  143.6435 H   0  0  0  0  0  0  0  0  0  0  0  0  # atno 7974 bound_to 7965
  154.7102  140.2691  155.6637 H   0  0  0  0  0  0  0  0  0  0  0  0  # atno 8008 bound_to 7997
  156.2793  140.2755  156.1665 H   0  0  0  0  0  0  0  0  0  0  0  0  # atno 8009 bound_to 7997
  155.0646  140.0371  157.2578 H   0  0  0  0  0  0  0  0  0  0  0  0  # atno 8010 bound_to 7997
  140.1786  143.3985  152.1299 H   0  0  0  0  0  0  0  0  0  0  0  0  # atno 10167 bound_to 10162
  156.0180  130.4462  150.3171 H   0  0  0  0  0  0  0  0  0  0  0  0  # atno 10718 bound_to 10713
  154.1912  135.6427  153.5060 H   0  0  0  0  0  0  0  0  0  0  0  0  # atno 10763 bound_to 10752
  153.0035  135.5429  154.6413 H   0  0  0  0  0  0  0  0  0  0  0  0  # atno 10764 bound_to 10752
  154.5803  135.2924  155.0713 H   0  0  0  0  0  0  0  0  0  0  0  0  # atno 10765 bound_to 10752
  140.5226  134.5694  157.5052 H   0  0  0  0  0  0  0  0  0  0  0  0  # atno 11005 bound_to 11000
  146.0624  139.3616  143.0573 LP  0  0  0  0  0  0  0  0  0  0  0  0  # atno 17320 bound_to 7965
  145.8075  140.9741  143.0966 LP  0  0  0  0  0  0  0  0  0  0  0  0  # atno 17321 bound_to 7965
  139.5306  144.7154  151.5069 LP  0  0  0  0  0  0  0  0  0  0  0  0  # atno 17342 bound_to 10162
  140.6535  143.8648  150.6810 LP  0  0  0  0  0  0  0  0  0  0  0  0  # atno 17343 bound_to 10162
  157.1271  131.0262  151.2985 LP  0  0  0  0  0  0  0  0  0  0  0  0  # atno 17370 bound_to 10713
  157.4580  130.7637  149.7210 LP  0  0  0  0  0  0  0  0  0  0  0  0  # atno 17371 bound_to 10713
  139.9597  134.7473  156.0263 LP  0  0  0  0  0  0  0  0  0  0  0  0  # atno 17394 bound_to 11000
  141.1325  133.6583  156.3504 LP  0  0  0  0  0  0  0  0  0  0  0  0  # atno 17395 bound_to 11000

$$$$
