AV-unprocessed.smi:20|AV-procd|sdf|118|dock5
  -GOLD-   2262015283D 1   1.00000     0.00000
 Structure written by MMmdl.
 57 61  0  0  0  0  0  0  0  0  1 V2000
  150.1459  145.7305  160.1339 O   0  0  0  0  0  0  0  0  0  0  0  0
  151.0779  144.9653  159.8978 C   0  0  0  0  0  0  0  0  0  0  0  0
  151.3832  143.7262  160.7232 C   0  0  0  0  0  0  0  0  0  0  0  0
  152.3586  142.9312  159.8282 C   0  0  1  0  0  0  0  0  0  0  0  0
  153.4374  142.2011  160.6601 C   0  0  0  0  0  0  0  0  0  0  0  0
  154.3373  141.3261  159.7735 C   0  0  0  0  0  0  0  0  0  0  0  0
  153.5023  140.3373  158.9480 C   0  0  0  0  0  0  0  0  0  0  0  0
  152.4605  141.0389  158.1982 N   0  0  0  0  0  0  0  0  0  0  0  0
  151.9599  140.3867  157.1170 C   0  0  0  0  0  0  0  0  0  0  0  0
  152.8103  139.5794  156.4305 N   0  0  0  0  0  0  0  0  0  0  0  0
  152.3931  138.9114  155.3519 C   0  0  0  0  0  0  0  0  0  0  0  0
  151.1830  138.9048  154.7924 N   0  0  0  0  0  0  0  0  0  0  0  0
  150.3202  139.7093  155.4756 C   0  0  0  0  0  0  0  0  0  0  0  0
  150.6181  140.4807  156.6364 C   0  0  0  0  0  0  0  0  0  0  0  0
  149.4739  141.1591  157.0464 N   0  0  0  0  0  0  0  0  0  0  0  0
  148.5620  140.8166  156.1784 C   0  0  0  0  0  0  0  0  0  0  0  0
  148.9874  139.9514  155.1978 N   0  0  0  0  0  0  0  0  0  0  0  0
  148.1941  139.4038  154.1116 C   0  0  0  0  0  0  0  0  0  0  0  0
  146.7046  139.2033  154.4859 C   0  0  2  0  0  0  0  0  0  0  0  0
  146.5223  138.6054  155.9019 C   0  0  0  0  0  0  0  0  0  0  0  0
  145.1640  138.6049  156.2917 O   0  0  0  0  0  0  0  0  0  0  0  0
  145.9491  138.3966  153.3998 C   0  0  1  0  0  0  0  0  0  0  0  0
  146.3898  138.6737  151.9732 C   0  0  0  0  0  0  0  0  0  0  0  0
  145.8528  137.4567  151.2291 C   0  0  0  0  0  0  0  0  0  0  0  0
  145.9305  136.3792  152.1545 O   0  0  0  0  0  0  0  0  0  0  0  0
  146.1655  136.8803  153.4670 C   0  0  0  0  0  0  0  0  0  0  0  0
  151.5718  141.8939  158.9848 C   0  0  0  0  0  0  0  0  0  0  0  0
  152.9532  144.0314  158.9130 C   0  0  0  0  0  0  0  0  0  0  0  0
  151.9592  145.0873  158.9080 N   0  0  0  0  0  0  0  0  0  0  0  0
  151.8537  144.0394  161.6560 H   0  0  0  0  0  0  0  0  0  0  0  0
  150.4771  143.1707  160.9681 H   0  0  0  0  0  0  0  0  0  0  0  0
  154.0455  142.9179  161.2133 H   0  0  0  0  0  0  0  0  0  0  0  0
  152.9540  141.5708  161.4076 H   0  0  0  0  0  0  0  0  0  0  0  0
  154.9235  141.9570  159.1043 H   0  0  0  0  0  0  0  0  0  0  0  0
  155.0536  140.7820  160.3895 H   0  0  0  0  0  0  0  0  0  0  0  0
  154.1653  139.7744  158.2904 H   0  0  0  0  0  0  0  0  0  0  0  0
  153.0252  139.6112  159.6074 H   0  0  0  0  0  0  0  0  0  0  0  0
  153.1355  138.2938  154.8678 H   0  0  0  0  0  0  0  0  0  0  0  0
  147.5495  141.1906  156.2276 H   0  0  0  0  0  0  0  0  0  0  0  0
  148.2905  140.0805  153.2625 H   0  0  0  0  0  0  0  0  0  0  0  0
  148.6379  138.4569  153.8015 H   0  0  0  0  0  0  0  0  0  0  0  0
  146.2510  140.1951  154.5156 H   0  0  0  0  0  0  0  0  0  0  0  0
  146.9001  137.5839  155.9464 H   0  0  0  0  0  0  0  0  0  0  0  0
  147.0974  139.1670  156.6378 H   0  0  0  0  0  0  0  0  0  0  0  0
  145.0501  137.9727  156.9850 H   0  0  0  0  0  0  0  0  0  0  0  0
  144.8784  138.5948  153.4744 H   0  0  0  0  0  0  0  0  0  0  0  0
  145.9984  139.6098  151.5743 H   0  0  0  0  0  0  0  0  0  0  0  0
  147.4786  138.7012  151.9077 H   0  0  0  0  0  0  0  0  0  0  0  0
  144.8071  137.6077  150.9584 H   0  0  0  0  0  0  0  0  0  0  0  0
  146.4118  137.2429  150.3177 H   0  0  0  0  0  0  0  0  0  0  0  0
  147.1958  136.6470  153.7400 H   0  0  0  0  0  0  0  0  0  0  0  0
  145.5088  136.3983  154.1915 H   0  0  0  0  0  0  0  0  0  0  0  0
  150.9799  141.2567  159.6433 H   0  0  0  0  0  0  0  0  0  0  0  0
  150.8736  142.4123  158.3263 H   0  0  0  0  0  0  0  0  0  0  0  0
  153.8805  144.4360  159.3211 H   0  0  0  0  0  0  0  0  0  0  0  0
  153.1603  143.6826  157.9008 H   0  0  0  0  0  0  0  0  0  0  0  0
  151.9557  145.8351  158.2295 H   0  0  0  0  0  0  0  0  0  0  0  0
  1  2  2  0  0  0  0
  2 29  1  0  0  0  0
  2  3  1  0  0  0  0
  3  4  1  0  0  0  0
  3 30  1  0  0  0  0
  3 31  1  0  0  0  0
  4 27  1  0  0  0  0
  4  5  1  0  0  0  0
  4 28  1  0  0  0  0
  5  6  1  0  0  0  0
  5 32  1  0  0  0  0
  5 33  1  0  0  0  0
  6  7  1  0  0  0  0
  6 34  1  0  0  0  0
  6 35  1  0  0  0  0
  7  8  1  0  0  0  0
  7 36  1  0  0  0  0
  7 37  1  0  0  0  0
  8  9  1  0  0  0  0
  8 27  1  0  0  0  0
  9 14  1  0  0  0  0
  9 10  2  0  0  0  0
 10 11  1  0  0  0  0
 11 12  2  0  0  0  0
 11 38  1  0  0  0  0
 12 13  1  0  0  0  0
 13 17  1  0  0  0  0
 13 14  2  0  0  0  0
 14 15  1  0  0  0  0
 15 16  2  0  0  0  0
 16 17  1  0  0  0  0
 16 39  1  0  0  0  0
 17 18  1  0  0  0  0
 18 19  1  0  0  0  0
 18 40  1  0  0  0  0
 18 41  1  0  0  0  0
 19 20  1  0  0  0  0
 19 22  1  0  0  0  0
 19 42  1  0  0  0  0
 20 21  1  0  0  0  0
 20 43  1  0  0  0  0
 20 44  1  0  0  0  0
 21 45  1  0  0  0  0
 22 26  1  0  0  0  0
 22 23  1  0  0  0  0
 22 46  1  0  0  0  0
 23 24  1  0  0  0  0
 23 47  1  0  0  0  0
 23 48  1  0  0  0  0
 24 25  1  0  0  0  0
 24 49  1  0  0  0  0
 24 50  1  0  0  0  0
 25 26  1  0  0  0  0
 26 51  1  0  0  0  0
 26 52  1  0  0  0  0
 27 53  1  0  0  0  0
 27 54  1  0  0  0  0
 28 29  1  0  0  0  0
 28 55  1  0  0  0  0
 28 56  1  0  0  0  0
 29 57  1  0  0  0  0
M  END
> <s_m_source_file>
AV-unprocessed.smi

> <i_m_source_file_index>
20

> <i_lp_mmshare_version>
43012

> <i_f3d_flags>
0

> <s_epik_input>
W0NIMl0xW05IXUMoPU8pW0NIMl1bQ0BAXTEyW0NIMl1bQ0gyXVtDSDJdTihbQ0gyXTIpYyhuW2NIXW4zKWMoYzM0KW5bY0hdbjRbQ0gyXVtDQEhdKFtDSDJdW09IXSlbQ0BASF01W0NIMl1bQ0gyXU9bQ0gyXTU=

> <s_epik_cmdline>
J2VwaWtfcHl0aG9uJywgJy1waCcsICc3LjAnLCAnLXRuJywgJzgnLCAnLW1hJywgJzIwMCcsICctbWV0YWxfYmluZGluZycsICctaW1hZScsICc8aW5maWxlLm1hZT4nLCAnLW9tYWUnLCAnPG91dGZpbGUubWFlPic=

> <r_lp_tautomer_probability>
1

> <r_epik_Ionization_Penalty>
0.0019697

> <r_epik_Ionization_Penalty_Charging>
0

> <r_epik_Ionization_Penalty_Neutral>
0.0019697

> <r_epik_State_Penalty>
0.00113613

> <r_epik_Charging_Adjusted_Penalty>
0.00113613

> <i_epik_Tot_Q>
0

> <i_epik_Tot_abs_Q>
0

> <r_epik_Metal_State_Penalty>
-0

> <b_epik_Metal_Only>
0

> <s_lp_Force_Field>
OPLS_2005

> <r_lp_Energy>
59.1367

> <b_lp_Chiralities_Consistent>
1

> <s_lp_Variant>
AV-unprocessed.smi:20-6

> <Gold.Version>
5.8.1

> <Gold.Id.Protein>
6NUR|6NUR_protein|mol2

> <Gold.PLP.Fitness>
47.1513

> <Gold.PLP.PLP>
-45.7332

> <Gold.PLP.part.hbond>
-2.9309

> <Gold.PLP.part.metal>
0.0000

> <Gold.PLP.part.buried>
-2.1105

> <Gold.PLP.part.nonpolar>
-43.2009

> <Gold.PLP.part.repulsive>
1.1560

> <Gold.PLP.ligand.clash>
0.0000

> <Gold.PLP.ligand.torsion>
1.0277

> <Gold.PLP.Chemscore.Hbond>
1.0000

> <Gold.PLP.Chemscore.CHOScore>
0.0000

> <Gold.PLP.Chemscore.Metal>
0.0000

> <Gold.Chemscore.Hbonds>
donor molecule, donor type, donor heavy atom, donor atom, acceptor molecule, acceptor atom, score
      P1  H  7989  7998       L1    12  0.02
      P1  H  7997  8008       L1    10  1.00

> <Gold.PLP.Chemscore.Internal.Correction>
0.4735

> <Gold.Rescore>
     Score         DG    S(hbond)    S(metal)    S(lipo)     H(rot)  DE(clash)    DE(int)     intcor
     10.20     -13.99       0.85        0.00     101.53       2.43       1.88       1.91       ----

> <Gold.Chemscore.Fitness>
10.1955

> <Gold.Chemscore.DG>
-13.9895

> <Gold.Chemscore.ZeroCoef>
-5.4800

> <Gold.Chemscore.Hbond>
0.8544

> <Gold.Chemscore.Metal>
0.0000

> <Gold.Chemscore.Lipo>
101.5285

> <Gold.Chemscore.Internal_Hbond>
0.0000

> <Gold.Chemscore.DEClash>
1.8847

> <Gold.Chemscore.DEInternal>
1.9093

> <Gold.Chemscore.Rot>
2.4309

> <Gold.Chemscore.Internal.Correction>
   9.000000E+99

> <Gold.Chemscore.Hbonds>
donor molecule, donor type, donor heavy atom, donor atom, acceptor molecule, acceptor atom, score
      P1  H  7997  8008       L1    10  0.81

> <Gold.Chemscore.Hbond.Weighted>
-2.8538

> <Gold.Chemscore.Metal.Weighted>
-0.0000

> <Gold.Chemscore.Lipo.Weighted>
-11.8788

> <Gold.Chemscore.Internal_Hbond.Weighted>
0.0000

> <Gold.Chemscore.DEClash.Weighted>
1.8847

> <Gold.Chemscore.DEInternal.Weighted>
1.9093

> <Gold.Chemscore.Rot.Weighted>
6.2231

> <Gold.Chemscore.Internal.Correction.Weighted>
   9.000000E+99

> <Gold.Protein.RotatedTorsions>
[ 6907 6896 6895 6894 ] final  -21.36 input  -60.11 | X-H torsion
[ 7974 7965 7964 7962 ] final  163.91 input  175.53 | X-H torsion
[ 8008 7997 7996 7995 ] final  -49.72 input   59.86 | X-H torsion
[ 10167 10162 10161 10158 ] final -170.43 input  -65.29 | X-H torsion
[ 10718 10713 10712 10709 ] final  110.51 input   66.30 | X-H torsion
[ 10763 10752 10751 10750 ] final   40.95 input  -60.55 | X-H torsion
[ 11005 11000 10999 10996 ] final -115.66 input  -57.11 | X-H torsion

> <Gold.Protein.ActiveResidues>
 VAL166  LYS551  ARG553  GLY616  TRP617  ASP618  TYR619  PRO620  LYS621  CYS622 
 ASP623  PHE694  ASN695  SER759  ASP760  ASP761  ALA762  ILE779  LEU786  VAL792 
 PHE793  MET794  SER795  GLU796  ALA797  LYS798  CYS799  TRP800  GLU811  SER814 

> <Gold.Protein.RotatedAtoms>
  151.2345  135.0566  159.9000 H   0  0  0  0  0  0  0  0  0  0  0  0  # atno 6907 bound_to 6896
  152.5401  134.0501  159.8116 H   0  0  0  0  0  0  0  0  0  0  0  0  # atno 6908 bound_to 6896
  151.0685  133.5436  159.2660 H   0  0  0  0  0  0  0  0  0  0  0  0  # atno 6909 bound_to 6896
  144.7568  139.8250  143.6347 H   0  0  0  0  0  0  0  0  0  0  0  0  # atno 7974 bound_to 7965
  154.4049  140.1290  156.4548 H   0  0  0  0  0  0  0  0  0  0  0  0  # atno 8008 bound_to 7997
  155.7331  140.3491  155.5049 H   0  0  0  0  0  0  0  0  0  0  0  0  # atno 8009 bound_to 7997
  155.9109  140.1035  157.1270 H   0  0  0  0  0  0  0  0  0  0  0  0  # atno 8010 bound_to 7997
  139.5862  144.1313  152.1578 H   0  0  0  0  0  0  0  0  0  0  0  0  # atno 10167 bound_to 10162
  157.6490  131.0934  150.6612 H   0  0  0  0  0  0  0  0  0  0  0  0  # atno 10718 bound_to 10713
  152.9921  135.6176  154.2709 H   0  0  0  0  0  0  0  0  0  0  0  0  # atno 10763 bound_to 10752
  154.2442  135.2787  155.2844 H   0  0  0  0  0  0  0  0  0  0  0  0  # atno 10764 bound_to 10752
  154.5343  135.5779  153.6843 H   0  0  0  0  0  0  0  0  0  0  0  0  # atno 10765 bound_to 10752
  141.0473  133.9742  157.2896 H   0  0  0  0  0  0  0  0  0  0  0  0  # atno 11005 bound_to 11000
  146.1588  139.4695  143.0001 LP  0  0  0  0  0  0  0  0  0  0  0  0  # atno 17320 bound_to 7965
  145.6751  141.0206  143.1637 LP  0  0  0  0  0  0  0  0  0  0  0  0  # atno 17321 bound_to 7965
  140.0877  144.5647  150.7076 LP  0  0  0  0  0  0  0  0  0  0  0  0  # atno 17342 bound_to 10162
  140.7133  143.2523  151.4513 LP  0  0  0  0  0  0  0  0  0  0  0  0  # atno 17343 bound_to 10162
  156.6926  130.4599  149.5595 LP  0  0  0  0  0  0  0  0  0  0  0  0  # atno 17370 bound_to 10713
  156.1851  130.6524  151.0997 LP  0  0  0  0  0  0  0  0  0  0  0  0  # atno 17371 bound_to 10713
  139.9322  135.0199  156.8438 LP  0  0  0  0  0  0  0  0  0  0  0  0  # atno 17394 bound_to 11000
  140.6122  134.0072  155.7582 LP  0  0  0  0  0  0  0  0  0  0  0  0  # atno 17395 bound_to 11000

$$$$
