AV-unprocessed.smi:2184|AV-procd|sdf|8873|dock9
  -GOLD-   2272012 73D 1   1.00000     0.00000
 Structure written by MMmdl.
 47 48  0  0  0  0  0  0  0  0  1 V2000
  151.7092  144.2661  159.9794 C   0  0  0  0  0  0  0  0  0  0  0  0
  153.0678  143.4274  159.1188 S   0  0  0  0  0  0  0  0  0  0  0  0
  153.2126  141.9046  160.1014 C   0  0  2  0  0  0  0  0  0  0  0  0
  153.5053  142.2465  161.5711 C   0  0  0  0  0  0  0  0  0  0  0  0
  154.2727  140.9545  159.5305 C   0  0  0  0  0  0  0  0  0  0  0  0
  153.9375  139.9171  158.9582 O   0  0  0  0  0  0  0  0  0  0  0  0
  155.5528  141.3150  159.7020 N   0  0  0  0  0  0  0  0  0  0  0  0
  156.6980  140.5353  159.2479 C   0  0  0  0  0  0  0  0  0  0  0  0
  157.9458  141.3548  158.9488 C   0  0  0  0  0  0  0  0  0  0  0  0
  158.0862  142.1497  157.7901 C   0  0  0  0  0  0  0  0  0  0  0  0
  159.2793  142.8719  157.5966 C   0  0  0  0  0  0  0  0  0  0  0  0
  160.3062  142.7857  158.5662 C   0  0  0  0  0  0  0  0  0  0  0  0
  161.5092  143.5040  158.3929 N   0  0  0  0  0  0  0  0  0  0  0  0
  162.6663  142.7875  157.8598 C   0  0  0  0  0  0  0  0  0  0  0  0
  163.7844  143.7656  157.4487 C   0  0  1  0  0  0  0  0  0  0  0  0
  163.4954  144.5094  156.1325 C   0  0  0  0  0  0  0  0  0  0  0  0
  164.0754  144.6625  158.5226 O   0  0  0  0  0  0  0  0  0  0  0  0
  162.9541  145.4025  159.0033 C   0  0  2  0  0  0  0  0  0  0  0  0
  163.4360  146.3045  160.1443 C   0  0  0  0  0  0  0  0  0  0  0  0
  161.8541  144.4307  159.4662 C   0  0  0  0  0  0  0  0  0  0  0  0
  160.1705  142.0152  159.6733 N   0  0  0  0  0  0  0  0  0  0  0  0
  159.0249  141.3254  159.8544 C   0  0  0  0  0  0  0  0  0  0  0  0
  151.5222  145.2377  159.5224 H   0  0  0  0  0  0  0  0  0  0  0  0
  151.9596  144.4209  161.0288 H   0  0  0  0  0  0  0  0  0  0  0  0
  150.7929  143.6791  159.9212 H   0  0  0  0  0  0  0  0  0  0  0  0
  152.2425  141.4062  160.0685 H   0  0  0  0  0  0  0  0  0  0  0  0
  153.6058  141.3448  162.1767 H   0  0  0  0  0  0  0  0  0  0  0  0
  152.6965  142.8387  161.9998 H   0  0  0  0  0  0  0  0  0  0  0  0
  154.4252  142.8235  161.6744 H   0  0  0  0  0  0  0  0  0  0  0  0
  155.7463  142.1802  160.1847 H   0  0  0  0  0  0  0  0  0  0  0  0
  156.9457  139.7942  160.0093 H   0  0  0  0  0  0  0  0  0  0  0  0
  156.4230  139.9863  158.3460 H   0  0  0  0  0  0  0  0  0  0  0  0
  157.3036  142.2133  157.0492 H   0  0  0  0  0  0  0  0  0  0  0  0
  159.3977  143.4683  156.7043 H   0  0  0  0  0  0  0  0  0  0  0  0
  163.0395  142.1074  158.6269 H   0  0  0  0  0  0  0  0  0  0  0  0
  162.3795  142.1781  157.0017 H   0  0  0  0  0  0  0  0  0  0  0  0
  164.6911  143.1822  157.2870 H   0  0  0  0  0  0  0  0  0  0  0  0
  163.4162  143.8068  155.3027 H   0  0  0  0  0  0  0  0  0  0  0  0
  164.2980  145.2083  155.8969 H   0  0  0  0  0  0  0  0  0  0  0  0
  162.5618  145.0700  156.1701 H   0  0  0  0  0  0  0  0  0  0  0  0
  162.5671  146.0422  158.2098 H   0  0  0  0  0  0  0  0  0  0  0  0
  162.6174  146.9041  160.5433 H   0  0  0  0  0  0  0  0  0  0  0  0
  164.2111  146.9887  159.7986 H   0  0  0  0  0  0  0  0  0  0  0  0
  163.8514  145.7170  160.9635 H   0  0  0  0  0  0  0  0  0  0  0  0
  160.9903  145.0044  159.7991 H   0  0  0  0  0  0  0  0  0  0  0  0
  162.1999  143.8543  160.3254 H   0  0  0  0  0  0  0  0  0  0  0  0
  158.9691  140.7289  160.7530 H   0  0  0  0  0  0  0  0  0  0  0  0
  1  2  1  0  0  0  0
  1 23  1  0  0  0  0
  1 24  1  0  0  0  0
  1 25  1  0  0  0  0
  2  3  1  0  0  0  0
  3  4  1  0  0  0  0
  3  5  1  0  0  0  0
  3 26  1  0  0  0  0
  4 27  1  0  0  0  0
  4 28  1  0  0  0  0
  4 29  1  0  0  0  0
  5  6  2  0  0  0  0
  5  7  1  0  0  0  0
  7  8  1  0  0  0  0
  7 30  1  0  0  0  0
  8  9  1  0  0  0  0
  8 31  1  0  0  0  0
  8 32  1  0  0  0  0
  9 22  1  0  0  0  0
  9 10  2  0  0  0  0
 10 11  1  0  0  0  0
 10 33  1  0  0  0  0
 11 12  2  0  0  0  0
 11 34  1  0  0  0  0
 12 13  1  0  0  0  0
 12 21  1  0  0  0  0
 13 20  1  0  0  0  0
 13 14  1  0  0  0  0
 14 15  1  0  0  0  0
 14 35  1  0  0  0  0
 14 36  1  0  0  0  0
 15 16  1  0  0  0  0
 15 17  1  0  0  0  0
 15 37  1  0  0  0  0
 16 38  1  0  0  0  0
 16 39  1  0  0  0  0
 16 40  1  0  0  0  0
 17 18  1  0  0  0  0
 18 19  1  0  0  0  0
 18 20  1  0  0  0  0
 18 41  1  0  0  0  0
 19 42  1  0  0  0  0
 19 43  1  0  0  0  0
 19 44  1  0  0  0  0
 20 45  1  0  0  0  0
 20 46  1  0  0  0  0
 21 22  2  0  0  0  0
 22 47  1  0  0  0  0
M  END
> <s_m_source_file>
AV-unprocessed.smi

> <i_m_source_file_index>
2184

> <i_lp_mmshare_version>
43012

> <i_f3d_flags>
0

> <s_epik_input>
W0NIM11TW0NASF0oW0NIM10pQyg9TylbTkhdW0NIMl1jMVtjSF1bY0hdYyhuW2NIXTEpTjJbQ0gyXVtDQEBIXShbQ0gzXSlPW0NAQEhdKFtDSDNdKVtDSDJdMg==

> <s_epik_cmdline>
J2VwaWtfcHl0aG9uJywgJy1waCcsICc3LjAnLCAnLXRuJywgJzgnLCAnLW1hJywgJzIwMCcsICctbWV0YWxfYmluZGluZycsICctaW1hZScsICc8aW5maWxlLm1hZT4nLCAnLW9tYWUnLCAnPG91dGZpbGUubWFlPic=

> <r_lp_tautomer_probability>
1

> <r_epik_Ionization_Penalty>
0.00551702

> <r_epik_Ionization_Penalty_Charging>
0

> <r_epik_Ionization_Penalty_Neutral>
0.00551702

> <r_epik_State_Penalty>
0.00403758

> <r_epik_Charging_Adjusted_Penalty>
0.00403758

> <i_epik_Tot_Q>
0

> <i_epik_Tot_abs_Q>
0

> <r_epik_Metal_State_Penalty>
-0

> <b_epik_Metal_Only>
0

> <s_lp_Force_Field>
OPLS_2005

> <r_lp_Energy>
19.1656

> <b_lp_Chiralities_Consistent>
1

> <s_lp_Variant>
AV-unprocessed.smi:2184-5

> <Gold.Version>
5.8.1

> <Gold.Id.Protein>
6NUR|6NUR_protein|mol2

> <Gold.PLP.Fitness>
41.2384

> <Gold.PLP.PLP>
-39.6412

> <Gold.PLP.part.hbond>
-1.4254

> <Gold.PLP.part.metal>
0.0000

> <Gold.PLP.part.buried>
-5.0201

> <Gold.PLP.part.nonpolar>
-32.7966

> <Gold.PLP.part.repulsive>
0.2425

> <Gold.PLP.ligand.clash>
0.0000

> <Gold.PLP.ligand.torsion>
0.8864

> <Gold.PLP.Chemscore.Hbond>
1.0000

> <Gold.PLP.Chemscore.CHOScore>
0.0000

> <Gold.PLP.Chemscore.Metal>
0.0000

> <Gold.Chemscore.Hbonds>
donor molecule, donor type, donor heavy atom, donor atom, acceptor molecule, acceptor atom, score
      P1  H  7997  8009       L1     6  1.00

> <Gold.PLP.Chemscore.Internal.Correction>
0.3701

> <Gold.Rescore>
     Score         DG    S(hbond)    S(metal)    S(lipo)     H(rot)  DE(clash)    DE(int)     intcor
     16.95     -18.01       0.89        0.00     116.58       1.59       0.14       0.92       ----

> <Gold.Chemscore.Fitness>
16.9523

> <Gold.Chemscore.DG>
-18.0139

> <Gold.Chemscore.ZeroCoef>
-5.4800

> <Gold.Chemscore.Hbond>
0.8912

> <Gold.Chemscore.Metal>
0.0000

> <Gold.Chemscore.Lipo>
116.5797

> <Gold.Chemscore.Internal_Hbond>
0.0000

> <Gold.Chemscore.DEClash>
0.1445

> <Gold.Chemscore.DEInternal>
0.9172

> <Gold.Chemscore.Rot>
1.5947

> <Gold.Chemscore.Internal.Correction>
   9.000000E+99

> <Gold.Chemscore.Hbonds>
donor molecule, donor type, donor heavy atom, donor atom, acceptor molecule, acceptor atom, score
      P1  H  7997  8009       L1     6  0.33

> <Gold.Chemscore.Hbond.Weighted>
-2.9765

> <Gold.Chemscore.Metal.Weighted>
-0.0000

> <Gold.Chemscore.Lipo.Weighted>
-13.6398

> <Gold.Chemscore.Internal_Hbond.Weighted>
0.0000

> <Gold.Chemscore.DEClash.Weighted>
0.1445

> <Gold.Chemscore.DEInternal.Weighted>
0.9172

> <Gold.Chemscore.Rot.Weighted>
4.0824

> <Gold.Chemscore.Internal.Correction.Weighted>
   9.000000E+99

> <Gold.Protein.RotatedTorsions>
[ 6907 6896 6895 6894 ] final -163.91 input  -60.11 | X-H torsion
[ 7974 7965 7964 7962 ] final  120.40 input  175.53 | X-H torsion
[ 8008 7997 7996 7995 ] final  127.79 input   59.86 | X-H torsion
[ 10167 10162 10161 10158 ] final    8.90 input  -65.29 | X-H torsion
[ 10718 10713 10712 10709 ] final    9.23 input   66.30 | X-H torsion
[ 10763 10752 10751 10750 ] final -129.81 input  -60.55 | X-H torsion
[ 11005 11000 10999 10996 ] final   18.43 input  -57.11 | X-H torsion

> <Gold.Protein.ActiveResidues>
 VAL166  LYS551  ARG553  GLY616  TRP617  ASP618  TYR619  PRO620  LYS621  CYS622 
 ASP623  PHE694  ASN695  SER759  ASP760  ASP761  ALA762  ILE779  LEU786  VAL792 
 PHE793  MET794  SER795  GLU796  ALA797  LYS798  CYS799  TRP800  GLU811  SER814 

> <Gold.Protein.RotatedAtoms>
  151.4035  133.3750  159.2734 H   0  0  0  0  0  0  0  0  0  0  0  0  # atno 6907 bound_to 6896
  150.9416  134.8825  159.7626 H   0  0  0  0  0  0  0  0  0  0  0  0  # atno 6908 bound_to 6896
  152.5073  134.3986  159.9461 H   0  0  0  0  0  0  0  0  0  0  0  0  # atno 6909 bound_to 6896
  145.1316  139.3324  143.4662 H   0  0  0  0  0  0  0  0  0  0  0  0  # atno 7974 bound_to 7965
  156.2899  140.2660  156.2330 H   0  0  0  0  0  0  0  0  0  0  0  0  # atno 8008 bound_to 7997
  155.0053  140.0387  157.2395 H   0  0  0  0  0  0  0  0  0  0  0  0  # atno 8009 bound_to 7997
  154.7565  140.2753  155.6254 H   0  0  0  0  0  0  0  0  0  0  0  0  # atno 8010 bound_to 7997
  140.6287  143.8043  150.7267 H   0  0  0  0  0  0  0  0  0  0  0  0  # atno 10167 bound_to 10162
  156.9633  130.5941  149.5663 H   0  0  0  0  0  0  0  0  0  0  0  0  # atno 10718 bound_to 10713
  154.8757  135.3883  154.3981 H   0  0  0  0  0  0  0  0  0  0  0  0  # atno 10763 bound_to 10752
  153.4708  135.7030  153.5999 H   0  0  0  0  0  0  0  0  0  0  0  0  # atno 10764 bound_to 10752
  153.4457  135.3845  155.2222 H   0  0  0  0  0  0  0  0  0  0  0  0  # atno 10765 bound_to 10752
  140.4249  134.1480  155.7675 H   0  0  0  0  0  0  0  0  0  0  0  0  # atno 11005 bound_to 11000
  146.3513  140.1317  142.8597 LP  0  0  0  0  0  0  0  0  0  0  0  0  # atno 17320 bound_to 7965
  145.0629  140.9101  143.4928 LP  0  0  0  0  0  0  0  0  0  0  0  0  # atno 17321 bound_to 7965
  140.1649  143.4244  152.2041 LP  0  0  0  0  0  0  0  0  0  0  0  0  # atno 17342 bound_to 10162
  139.5504  144.7333  151.4453 LP  0  0  0  0  0  0  0  0  0  0  0  0  # atno 17343 bound_to 10162
  156.0313  130.5404  150.8541 LP  0  0  0  0  0  0  0  0  0  0  0  0  # atno 17370 bound_to 10713
  157.5643  131.0946  150.9513 LP  0  0  0  0  0  0  0  0  0  0  0  0  # atno 17371 bound_to 10713
  141.1769  133.8495  157.1390 LP  0  0  0  0  0  0  0  0  0  0  0  0  # atno 17394 bound_to 11000
  140.0174  134.9961  157.0522 LP  0  0  0  0  0  0  0  0  0  0  0  0  # atno 17395 bound_to 11000

$$$$
