AV-unprocessed.smi:831|AV-procd|sdf|3875|dock2
  -GOLD-   22720 1333D 1   1.00000     0.00000
 Structure written by MMmdl.
 50 51  0  0  0  0  0  0  0  0  1 V2000
  152.8762  142.6965  159.5399 C   0  0  0  0  0  0  0  0  0  0  0  0
  151.7688  142.7841  158.4779 C   0  0  0  0  0  0  0  0  0  0  0  0
  151.1020  144.1673  158.4966 C   0  0  0  0  0  0  0  0  0  0  0  0
  150.7289  141.6668  158.6581 C   0  0  0  0  0  0  0  0  0  0  0  0
  149.9319  141.5773  157.4825 O   0  0  0  0  0  0  0  0  0  0  0  0
  150.6573  141.5413  156.2575 C   0  0  1  0  0  0  0  0  0  0  0  0
  151.6430  140.3670  156.3489 C   0  0  0  0  0  0  0  0  0  0  0  0
  149.6819  141.3525  155.0756 C   0  0  0  0  0  0  0  0  0  0  0  0
  149.9386  140.5154  154.2122 O   0  0  0  0  0  0  0  0  0  0  0  0
  148.5575  142.0846  155.0027 N   0  0  0  0  0  0  0  0  0  0  0  0
  147.5349  142.0338  153.9634 C   0  0  0  0  0  0  0  0  0  0  0  0
  147.0172  140.6329  153.6731 C   0  0  0  0  0  0  0  0  0  0  0  0
  147.0471  140.0639  152.3818 C   0  0  0  0  0  0  0  0  0  0  0  0
  146.5501  138.7595  152.1976 C   0  0  0  0  0  0  0  0  0  0  0  0
  146.0378  138.0505  153.3101 C   0  0  0  0  0  0  0  0  0  0  0  0
  145.5298  136.7435  153.1461 N   0  0  0  0  0  0  0  0  0  0  0  0
  146.5314  135.6993  152.9442 C   0  0  0  0  0  0  0  0  0  0  0  0
  145.8909  134.3073  153.0818 C   0  0  0  0  0  0  0  0  0  0  0  0
  144.7866  134.1939  152.1906 O   0  0  0  0  0  0  0  0  0  0  0  0
  143.7723  135.1497  152.4814 C   0  0  0  0  0  0  0  0  0  0  0  0
  144.3373  136.5707  152.3181 C   0  0  0  0  0  0  0  0  0  0  0  0
  146.0258  138.5948  154.5520 N   0  0  0  0  0  0  0  0  0  0  0  0
  146.5012  139.8462  154.7226 C   0  0  0  0  0  0  0  0  0  0  0  0
  152.4709  142.8110  160.5458 H   0  0  0  0  0  0  0  0  0  0  0  0
  153.6256  143.4744  159.3922 H   0  0  0  0  0  0  0  0  0  0  0  0
  153.3904  141.7358  159.4974 H   0  0  0  0  0  0  0  0  0  0  0  0
  152.2310  142.6576  157.4981 H   0  0  0  0  0  0  0  0  0  0  0  0
  150.6155  144.3604  159.4532 H   0  0  0  0  0  0  0  0  0  0  0  0
  150.3454  144.2504  157.7156 H   0  0  0  0  0  0  0  0  0  0  0  0
  151.8336  144.9582  158.3289 H   0  0  0  0  0  0  0  0  0  0  0  0
  151.2323  140.7235  158.8734 H   0  0  0  0  0  0  0  0  0  0  0  0
  150.0840  141.8913  159.5090 H   0  0  0  0  0  0  0  0  0  0  0  0
  151.2447  142.4542  156.1674 H   0  0  0  0  0  0  0  0  0  0  0  0
  152.2329  140.2743  155.4363 H   0  0  0  0  0  0  0  0  0  0  0  0
  151.1287  139.4195  156.5146 H   0  0  0  0  0  0  0  0  0  0  0  0
  152.3385  140.5111  157.1760 H   0  0  0  0  0  0  0  0  0  0  0  0
  148.3951  142.7423  155.7514 H   0  0  0  0  0  0  0  0  0  0  0  0
  146.6878  142.6562  154.2549 H   0  0  0  0  0  0  0  0  0  0  0  0
  147.9435  142.4475  153.0401 H   0  0  0  0  0  0  0  0  0  0  0  0
  147.4464  140.6063  151.5379 H   0  0  0  0  0  0  0  0  0  0  0  0
  146.5816  138.3153  151.2140 H   0  0  0  0  0  0  0  0  0  0  0  0
  146.9627  135.8137  151.9489 H   0  0  0  0  0  0  0  0  0  0  0  0
  147.3512  135.7833  153.6560 H   0  0  0  0  0  0  0  0  0  0  0  0
  146.6206  133.5334  152.8430 H   0  0  0  0  0  0  0  0  0  0  0  0
  145.5638  134.1298  154.1078 H   0  0  0  0  0  0  0  0  0  0  0  0
  142.9358  134.9985  151.7992 H   0  0  0  0  0  0  0  0  0  0  0  0
  143.3907  134.9955  153.4922 H   0  0  0  0  0  0  0  0  0  0  0  0
  143.5741  137.2976  152.5990 H   0  0  0  0  0  0  0  0  0  0  0  0
  144.5929  136.7522  151.2732 H   0  0  0  0  0  0  0  0  0  0  0  0
  146.4656  140.2320  155.7309 H   0  0  0  0  0  0  0  0  0  0  0  0
  1  2  1  0  0  0  0
  1 24  1  0  0  0  0
  1 25  1  0  0  0  0
  1 26  1  0  0  0  0
  2  3  1  0  0  0  0
  2  4  1  0  0  0  0
  2 27  1  0  0  0  0
  3 28  1  0  0  0  0
  3 29  1  0  0  0  0
  3 30  1  0  0  0  0
  4  5  1  0  0  0  0
  4 31  1  0  0  0  0
  4 32  1  0  0  0  0
  5  6  1  0  0  0  0
  6  7  1  0  0  0  0
  6  8  1  0  0  0  0
  6 33  1  0  0  0  0
  7 34  1  0  0  0  0
  7 35  1  0  0  0  0
  7 36  1  0  0  0  0
  8  9  2  0  0  0  0
  8 10  1  0  0  0  0
 10 11  1  0  0  0  0
 10 37  1  0  0  0  0
 11 12  1  0  0  0  0
 11 38  1  0  0  0  0
 11 39  1  0  0  0  0
 12 23  1  0  0  0  0
 12 13  2  0  0  0  0
 13 14  1  0  0  0  0
 13 40  1  0  0  0  0
 14 15  2  0  0  0  0
 14 41  1  0  0  0  0
 15 16  1  0  0  0  0
 15 22  1  0  0  0  0
 16 21  1  0  0  0  0
 16 17  1  0  0  0  0
 17 18  1  0  0  0  0
 17 42  1  0  0  0  0
 17 43  1  0  0  0  0
 18 19  1  0  0  0  0
 18 44  1  0  0  0  0
 18 45  1  0  0  0  0
 19 20  1  0  0  0  0
 20 21  1  0  0  0  0
 20 46  1  0  0  0  0
 20 47  1  0  0  0  0
 21 48  1  0  0  0  0
 21 49  1  0  0  0  0
 22 23  2  0  0  0  0
 23 50  1  0  0  0  0
M  END
> <s_m_source_file>
AV-unprocessed.smi

> <i_m_source_file_index>
831

> <i_lp_mmshare_version>
43012

> <i_f3d_flags>
0

> <s_epik_input>
W0NIM11bQ0hdKFtDSDNdKVtDSDJdT1tDQEhdKFtDSDNdKUMoPU8pW05IXVtDSDJdYzFbY0hdW2NIXWMobltjSF0xKU4yW0NIMl1bQ0gyXU9bQ0gyXVtDSDJdMg==

> <s_epik_cmdline>
J2VwaWtfcHl0aG9uJywgJy1waCcsICc3LjAnLCAnLXRuJywgJzgnLCAnLW1hJywgJzIwMCcsICctbWV0YWxfYmluZGluZycsICctaW1hZScsICc8aW5maWxlLm1hZT4nLCAnLW9tYWUnLCAnPG91dGZpbGUubWFlPic=

> <r_lp_tautomer_probability>
1

> <r_epik_Ionization_Penalty>
0.00456501

> <r_epik_Ionization_Penalty_Charging>
0

> <r_epik_Ionization_Penalty_Neutral>
0.00456501

> <r_epik_State_Penalty>
0.00329791

> <r_epik_Charging_Adjusted_Penalty>
0.00329791

> <i_epik_Tot_Q>
0

> <i_epik_Tot_abs_Q>
0

> <r_epik_Metal_State_Penalty>
-0

> <b_epik_Metal_Only>
0

> <s_lp_Force_Field>
OPLS_2005

> <r_lp_Energy>
24.1479

> <b_lp_Chiralities_Consistent>
1

> <s_lp_Variant>
AV-unprocessed.smi:831-2

> <Gold.Version>
5.8.1

> <Gold.Id.Protein>
6NUR|6NUR_protein|mol2

> <Gold.PLP.Fitness>
42.5989

> <Gold.PLP.PLP>
-38.4790

> <Gold.PLP.part.hbond>
-2.0000

> <Gold.PLP.part.metal>
0.0000

> <Gold.PLP.part.buried>
-2.2772

> <Gold.PLP.part.nonpolar>
-34.2623

> <Gold.PLP.part.repulsive>
0.7232

> <Gold.PLP.ligand.clash>
0.0000

> <Gold.PLP.ligand.torsion>
0.7207

> <Gold.PLP.Chemscore.Hbond>
1.7280

> <Gold.PLP.Chemscore.CHOScore>
0.0000

> <Gold.PLP.Chemscore.Metal>
0.0000

> <Gold.Chemscore.Hbonds>
donor molecule, donor type, donor heavy atom, donor atom, acceptor molecule, acceptor atom, score
      L1  H    10    37       P1  8028  0.48
      P1  H  7989  7998       L1     9  0.77

> <Gold.PLP.Chemscore.Internal.Correction>
0.3773

> <Gold.Rescore>
     Score         DG    S(hbond)    S(metal)    S(lipo)     H(rot)  DE(clash)    DE(int)     intcor
     13.97     -15.91       1.20        0.00      96.63       1.92       0.33       1.60       ----

> <Gold.Chemscore.Fitness>
13.9745

> <Gold.Chemscore.DG>
-15.9052

> <Gold.Chemscore.ZeroCoef>
-5.4800

> <Gold.Chemscore.Hbond>
1.2048

> <Gold.Chemscore.Metal>
0.0000

> <Gold.Chemscore.Lipo>
96.6318

> <Gold.Chemscore.Internal_Hbond>
0.0000

> <Gold.Chemscore.DEClash>
0.3268

> <Gold.Chemscore.DEInternal>
1.6039

> <Gold.Chemscore.Rot>
1.9159

> <Gold.Chemscore.Internal.Correction>
   9.000000E+99

> <Gold.Chemscore.Hbonds>
donor molecule, donor type, donor heavy atom, donor atom, acceptor molecule, acceptor atom, score
      L1  H    10    37       P1  8028  0.44
      P1  H  7989  7998       L1     9  0.54

> <Gold.Chemscore.Hbond.Weighted>
-4.0240

> <Gold.Chemscore.Metal.Weighted>
-0.0000

> <Gold.Chemscore.Lipo.Weighted>
-11.3059

> <Gold.Chemscore.Internal_Hbond.Weighted>
0.0000

> <Gold.Chemscore.DEClash.Weighted>
0.3268

> <Gold.Chemscore.DEInternal.Weighted>
1.6039

> <Gold.Chemscore.Rot.Weighted>
4.9047

> <Gold.Chemscore.Internal.Correction.Weighted>
   9.000000E+99

> <Gold.Protein.RotatedTorsions>
[ 6907 6896 6895 6894 ] final  147.49 input  -60.11 | X-H torsion
[ 7974 7965 7964 7962 ] final   82.77 input  175.53 | X-H torsion
[ 8008 7997 7996 7995 ] final   -2.69 input   59.86 | X-H torsion
[ 10167 10162 10161 10158 ] final -152.57 input  -65.29 | X-H torsion
[ 10718 10713 10712 10709 ] final   -5.22 input   66.30 | X-H torsion
[ 10763 10752 10751 10750 ] final    4.23 input  -60.55 | X-H torsion
[ 11005 11000 10999 10996 ] final  -95.35 input  -57.11 | X-H torsion

> <Gold.Protein.ActiveResidues>
 VAL166  LYS551  ARG553  GLY616  TRP617  ASP618  TYR619  PRO620  LYS621  CYS622 
 ASP623  PHE694  ASN695  SER759  ASP760  ASP761  ALA762  ILE779  LEU786  VAL792 
 PHE793  MET794  SER795  GLU796  ALA797  LYS798  CYS799  TRP800  GLU811  SER814 

> <Gold.Protein.RotatedAtoms>
  152.1540  133.4540  159.4827 H   0  0  0  0  0  0  0  0  0  0  0  0  # atno 6907 bound_to 6896
  150.6899  134.2154  159.4384 H   0  0  0  0  0  0  0  0  0  0  0  0  # atno 6908 bound_to 6896
  152.0052  134.9906  160.0617 H   0  0  0  0  0  0  0  0  0  0  0  0  # atno 6909 bound_to 6896
  145.6208  139.2385  143.2140 H   0  0  0  0  0  0  0  0  0  0  0  0  # atno 7974 bound_to 7965
  154.6330  140.2528  155.7412 H   0  0  0  0  0  0  0  0  0  0  0  0  # atno 8008 bound_to 7997
  156.2489  140.2903  156.0610 H   0  0  0  0  0  0  0  0  0  0  0  0  # atno 8009 bound_to 7997
  155.1716  140.0386  157.2854 H   0  0  0  0  0  0  0  0  0  0  0  0  # atno 8010 bound_to 7997
  139.7170  143.9017  152.2489 H   0  0  0  0  0  0  0  0  0  0  0  0  # atno 10167 bound_to 10162
  156.7497  130.5235  149.5806 H   0  0  0  0  0  0  0  0  0  0  0  0  # atno 10718 bound_to 10713
  153.2738  135.6934  153.7454 H   0  0  0  0  0  0  0  0  0  0  0  0  # atno 10763 bound_to 10752
  153.6467  135.3384  155.3088 H   0  0  0  0  0  0  0  0  0  0  0  0  # atno 10764 bound_to 10752
  154.8473  135.4444  154.1769 H   0  0  0  0  0  0  0  0  0  0  0  0  # atno 10765 bound_to 10752
  141.1444  133.8020  157.0423 H   0  0  0  0  0  0  0  0  0  0  0  0  # atno 11005 bound_to 11000
  146.1433  140.7028  142.9357 LP  0  0  0  0  0  0  0  0  0  0  0  0  # atno 17320 bound_to 7965
  144.7232  140.4441  143.6992 LP  0  0  0  0  0  0  0  0  0  0  0  0  # atno 17321 bound_to 7965
  139.8902  144.6969  150.8778 LP  0  0  0  0  0  0  0  0  0  0  0  0  # atno 17342 bound_to 10162
  140.7746  143.3592  151.1861 LP  0  0  0  0  0  0  0  0  0  0  0  0  # atno 17343 bound_to 10162
  156.1409  130.6244  151.0466 LP  0  0  0  0  0  0  0  0  0  0  0  0  # atno 17370 bound_to 10713
  157.6782  131.0845  150.7439 LP  0  0  0  0  0  0  0  0  0  0  0  0  # atno 17371 bound_to 10713
  140.0684  134.9716  157.1426 LP  0  0  0  0  0  0  0  0  0  0  0  0  # atno 17394 bound_to 11000
  140.3746  134.2353  155.7175 LP  0  0  0  0  0  0  0  0  0  0  0  0  # atno 17395 bound_to 11000

$$$$
