#       Name:                AV-unprocessed.smi:1668
#       Creating user name   scv26
#       Creation time:       Fri Mar 27 07:40:03 2020


#       File generated by GOLD software.
#

@<TRIPOS>MOLECULE
AV-unprocessed.smi:1668
    52    54     1
SMALL
NO_CHARGES


@<TRIPOS>ATOM
      1 ****        -6.1022  -2.4576   0.4905 C.3            1 S1                 0.0000
      2 ****        -4.6907  -2.6132   0.5045 O.3            1 S1                 0.0000
      3 ****        -3.9135  -1.4768   0.5720 C.ar           1 S1                 0.0000
      4 ****        -4.4293  -0.1601   0.6054 C.ar           1 S1                 0.0000
      5 ****        -3.5605   0.9447   0.6704 C.ar           1 S1                 0.0000
      6 ****        -2.1554   0.7639   0.7089 C.ar           1 S1                 0.0000
      7 ****        -1.2587   1.8116   0.7638 O.3            1 S1                 0.0000
      8 ****        -1.7643   3.1382   0.7763 C.3            1 S1                 0.0000
      9 ****        -1.6356  -0.5536   0.6846 C.ar           1 S1                 0.0000
     10 ****        -0.1267  -0.7887   0.7118 C.3            1 S1                 0.0000
     11 ****         0.2147  -1.9450   1.4528 O.3            1 S1                 0.0000
     12 ****         0.4286  -0.9379  -0.7188 C.3            1 S1                 0.0000
     13 ****         1.8714  -0.7089  -0.7692 N.am           1 S1                 0.0000
     14 ****         2.8391  -1.6561  -0.7564 C.2            1 S1                 0.0000
     15 ****         2.6594  -2.8731  -0.7179 O.2            1 S1                 0.0000
     16 ****         4.0388  -1.0294  -0.7881 N.am           1 S1                 0.0000
     17 ****         5.3558  -1.6549  -0.7843 C.3            1 S1                 0.0000
     18 ****         3.8338   0.3558  -0.8106 C.ar           1 S1                 0.0000
     19 ****         4.7471   1.4236  -0.8367 C.ar           1 S1                 0.0000
     20 ****         4.2099   2.7324  -0.8536 C.ar           1 S1                 0.0000
     21 ****         2.8062   2.9425  -0.8439 C.ar           1 S1                 0.0000
     22 ****         1.9100   1.8484  -0.8178 C.ar           1 S1                 0.0000
     23 ****         2.4701   0.5590  -0.8007 C.ar           1 S1                 0.0000
     24 ****        -2.5176  -1.6553   0.6077 C.ar           1 S1                 0.0000
     25 ****        -6.5718  -3.4401   0.4462 H              1 S1                 0.0000
     26 ****        -6.4334  -1.8942  -0.3829 H              1 S1                 0.0000
     27 ****        -6.4576  -1.9636   1.3958 H              1 S1                 0.0000
     28 ****        -5.4912   0.0312   0.5780 H              1 S1                 0.0000
     29 ****        -4.0034   1.9286   0.6875 H              1 S1                 0.0000
     30 ****        -0.9297   3.8380   0.8186 H              1 S1                 0.0000
     31 ****        -2.3904   3.3186   1.6511 H              1 S1                 0.0000
     32 ****        -2.3327   3.3572  -0.1284 H              1 S1                 0.0000
     33 ****         0.3558   0.0515   1.2119 H              1 S1                 0.0000
     34 ****        -0.0569  -1.8171   2.3488 H              1 S1                 0.0000
     35 ****         0.1634  -1.9072  -1.1444 H              1 S1                 0.0000
     36 ****        -0.0353  -0.1950  -1.3692 H              1 S1                 0.0000
     37 ****         5.9748  -1.2407  -1.5804 H              1 S1                 0.0000
     38 ****         5.2966  -2.7336  -0.9345 H              1 S1                 0.0000
     39 ****         5.8552  -1.4725   0.1674 H              1 S1                 0.0000
     40 ****         5.8140   1.2554  -0.8434 H              1 S1                 0.0000
     41 ****         4.8763   3.5820  -0.8743 H              1 S1                 0.0000
     42 ****         2.4168   3.9497  -0.8576 H              1 S1                 0.0000
     43 ****         0.8417   2.0027  -0.8125 H              1 S1                 0.0000
     44 ****        -2.1225  -2.6600   0.5725 H              1 S1                 0.0000
     45 ****        -4.4369  -3.0974  -0.3329 LP             1 S1                 0.0000
     46 ****        -4.4619  -3.1772   1.2980 LP             1 S1                 0.0000
     47 ****        -0.6618   1.7310  -0.0345 LP             1 S1                 0.0000
     48 ****        -0.7185   1.6940   1.5971 LP             1 S1                 0.0000
     49 ****         1.2036  -2.0889   1.4172 LP             1 S1                 0.0000
     50 ****        -0.2521  -2.7418   1.0691 LP             1 S1                 0.0000
     51 ****         1.7298  -3.2407  -0.6927 LP             1 S1                 0.0000
     52 ****         3.4430  -3.4943  -0.7118 LP             1 S1                 0.0000
@<TRIPOS>BOND
    1    1    2 1     
    2    1   25 1     
    3    1   26 1     
    4    1   27 1     
    5    2    3 1     
    6    3   24 ar    
    7    3    4 ar    
    8    4    5 ar    
    9    4   28 1     
   10    5    6 ar    
   11    5   29 1     
   12    6    7 1     
   13    6    9 ar    
   14    7    8 1     
   15    8   30 1     
   16    8   31 1     
   17    8   32 1     
   18    9   10 1     
   19    9   24 ar    
   20   10   11 1     
   21   10   12 1     
   22   10   33 1     
   23   11   34 1     
   24   12   13 1     
   25   12   35 1     
   26   12   36 1     
   27   13   23 1     
   28   13   14 am    
   29   14   15 2     
   30   14   16 am    
   31   16   17 1     
   32   16   18 1     
   33   17   37 1     
   34   17   38 1     
   35   17   39 1     
   36   18   23 ar    
   37   18   19 ar    
   38   19   20 ar    
   39   19   40 1     
   40   20   21 ar    
   41   20   41 1     
   42   21   22 ar    
   43   21   42 1     
   44   22   23 ar    
   45   22   43 1     
   46   24   44 1     
   47    2   45 1     
   48    2   46 1     
   49    7   47 1     
   50    7   48 1     
   51   11   49 1     
   52   11   50 1     
   53   15   51 1     
   54   15   52 1     
@<TRIPOS>SUBSTRUCTURE
      1 S1             1
@<TRIPOS>SET
LONE_PAIRS      STATIC     ATOMS    <user>   **** ""
8 45 46 47 48 49 50 51 52
DONOR_HYDROGENS      STATIC     ATOMS    <user>   **** ""
1 34
ATOM$BLUE        STATIC     ATOMS    COLORGROUP SYSTEM
8 45 46 47 48 49 50 51 52
ATOM$RED        STATIC     ATOMS    COLORGROUP SYSTEM
1 34
