AV-unprocessed.smi:110|AV-procd|sdf|1078|dock10
  -GOLD-   2262018163D 1   1.00000     0.00000
 Structure written by MMmdl.
 46 50  0  0  0  0  0  0  0  0  1 V2000
  146.8894  136.2067  156.8604 O   0  0  0  0  0  0  0  0  0  0  0  0
  146.4116  137.4261  156.3342 C   0  0  0  0  0  0  0  0  0  0  0  0
  146.9418  137.6291  154.9063 C   0  0  2  0  0  0  0  0  0  0  0  0
  148.3703  137.6803  154.9090 O   0  0  0  0  0  0  0  0  0  0  0  0
  148.8594  138.7393  154.1364 C   0  0  2  0  0  0  0  0  0  0  0  0
  149.3959  139.8099  155.0521 N   0  0  0  0  0  0  0  0  0  0  0  0
  148.9950  141.1273  155.1244 C   0  0  0  0  0  0  0  0  0  0  0  0
  149.6403  141.8684  155.9812 N   0  0  0  0  0  0  0  0  0  0  0  0
  150.5967  141.0180  156.5206 C   0  0  0  0  0  0  0  0  0  0  0  0
  151.6367  141.1745  157.4851 C   0  0  0  0  0  0  0  0  0  0  0  0
  151.8738  142.3300  158.1620 N   0  0  0  0  0  0  0  0  0  0  0  0
  151.5198  143.6182  157.5451 C   0  0  0  0  0  0  0  0  0  0  0  0
  151.4099  144.6683  158.6635 C   0  0  0  0  0  0  0  0  0  0  0  0
  151.8579  143.8713  159.8429 C   0  0  0  0  0  0  0  0  0  0  0  0
  152.0362  144.3355  161.1576 C   0  0  0  0  0  0  0  0  0  0  0  0
  152.4823  143.4188  162.1322 C   0  0  0  0  0  0  0  0  0  0  0  0
  152.7458  142.0757  161.7791 C   0  0  0  0  0  0  0  0  0  0  0  0
  152.5617  141.6322  160.4507 C   0  0  0  0  0  0  0  0  0  0  0  0
  152.0994  142.5484  159.4803 C   0  0  0  0  0  0  0  0  0  0  0  0
  152.4072  140.0871  157.7445 N   0  0  0  0  0  0  0  0  0  0  0  0
  152.1944  138.9364  157.1036 C   0  0  0  0  0  0  0  0  0  0  0  0
  151.2687  138.6541  156.1877 N   0  0  0  0  0  0  0  0  0  0  0  0
  150.4699  139.7289  155.9238 C   0  0  0  0  0  0  0  0  0  0  0  0
  147.6612  139.2697  153.3372 C   0  0  1  0  0  0  0  0  0  0  0  0
  147.5580  138.6144  152.0867 O   0  0  0  0  0  0  0  0  0  0  0  0
  146.5136  138.9592  154.2846 C   0  0  1  0  0  0  0  0  0  0  0  0
  145.2622  138.8944  153.6277 O   0  0  0  0  0  0  0  0  0  0  0  0
  146.6310  136.8106  154.2543 H   0  0  0  0  0  0  0  0  0  0  0  0
  149.7212  138.4533  153.5323 H   0  0  0  0  0  0  0  0  0  0  0  0
  147.7397  140.3373  153.1375 H   0  0  0  0  0  0  0  0  0  0  0  0
  146.4711  139.7308  155.0553 H   0  0  0  0  0  0  0  0  0  0  0  0
  147.5205  135.8457  156.2568 H   0  0  0  0  0  0  0  0  0  0  0  0
  145.3224  137.3706  156.3227 H   0  0  0  0  0  0  0  0  0  0  0  0
  146.6841  138.2568  156.9848 H   0  0  0  0  0  0  0  0  0  0  0  0
  148.1998  141.5347  154.5174 H   0  0  0  0  0  0  0  0  0  0  0  0
  152.3066  143.9051  156.8466 H   0  0  0  0  0  0  0  0  0  0  0  0
  150.5855  143.5451  156.9868 H   0  0  0  0  0  0  0  0  0  0  0  0
  152.0595  145.5272  158.4923 H   0  0  0  0  0  0  0  0  0  0  0  0
  150.3840  145.0097  158.8038 H   0  0  0  0  0  0  0  0  0  0  0  0
  151.8405  145.3662  161.4141 H   0  0  0  0  0  0  0  0  0  0  0  0
  152.6290  143.7468  163.1508 H   0  0  0  0  0  0  0  0  0  0  0  0
  153.0956  141.3831  162.5304 H   0  0  0  0  0  0  0  0  0  0  0  0
  152.7856  140.6073  160.1965 H   0  0  0  0  0  0  0  0  0  0  0  0
  152.8590  138.1257  157.3629 H   0  0  0  0  0  0  0  0  0  0  0  0
  148.1519  137.8789  152.0862 H   0  0  0  0  0  0  0  0  0  0  0  0
  145.0742  139.7427  153.2561 H   0  0  0  0  0  0  0  0  0  0  0  0
  1  2  1  0  0  0  0
  1 32  1  0  0  0  0
  2  3  1  0  0  0  0
  2 33  1  0  0  0  0
  2 34  1  0  0  0  0
  3 28  1  0  0  0  0
  3 26  1  0  0  0  0
  3  4  1  0  0  0  0
  4  5  1  0  0  0  0
  5 29  1  0  0  0  0
  5  6  1  0  0  0  0
  5 24  1  0  0  0  0
  6 23  1  0  0  0  0
  6  7  1  0  0  0  0
  7  8  2  0  0  0  0
  7 35  1  0  0  0  0
  8  9  1  0  0  0  0
  9 23  2  0  0  0  0
  9 10  1  0  0  0  0
 10 11  1  0  0  0  0
 10 20  2  0  0  0  0
 11 19  1  0  0  0  0
 11 12  1  0  0  0  0
 12 13  1  0  0  0  0
 12 36  1  0  0  0  0
 12 37  1  0  0  0  0
 13 14  1  0  0  0  0
 13 38  1  0  0  0  0
 13 39  1  0  0  0  0
 14 19  2  0  0  0  0
 14 15  1  0  0  0  0
 15 16  2  0  0  0  0
 15 40  1  0  0  0  0
 16 17  1  0  0  0  0
 16 41  1  0  0  0  0
 17 18  2  0  0  0  0
 17 42  1  0  0  0  0
 18 19  1  0  0  0  0
 18 43  1  0  0  0  0
 20 21  1  0  0  0  0
 21 22  2  0  0  0  0
 21 44  1  0  0  0  0
 22 23  1  0  0  0  0
 24 30  1  0  0  0  0
 24 25  1  0  0  0  0
 24 26  1  0  0  0  0
 25 45  1  0  0  0  0
 26 31  1  0  0  0  0
 26 27  1  0  0  0  0
 27 46  1  0  0  0  0
M  END
> <s_m_source_file>
AV-unprocessed.smi

> <i_m_source_file_index>
110

> <i_lp_mmshare_version>
43012

> <i_f3d_flags>
0

> <s_epik_input>
W09IXVtDSDJdW0NASF0xT1tDQEhdKFtDQEhdKFtPSF0pW0NAQEhdMVtPSF0pbihbY0hdbjIpYyhjMjMpbltjSF1uYzNOKFtDSDJdW0NIMl00KWMoYzQ1KVtjSF1bY0hdW2NIXVtjSF01

> <s_epik_cmdline>
J2VwaWtfcHl0aG9uJywgJy1waCcsICc3LjAnLCAnLXRuJywgJzgnLCAnLW1hJywgJzIwMCcsICctbWV0YWxfYmluZGluZycsICctaW1hZScsICc8aW5maWxlLm1hZT4nLCAnLW9tYWUnLCAnPG91dGZpbGUubWFlPic=

> <r_lp_tautomer_probability>
1

> <r_epik_Ionization_Penalty>
0.00068475

> <r_epik_Ionization_Penalty_Charging>
0

> <r_epik_Ionization_Penalty_Neutral>
0.00068475

> <r_epik_State_Penalty>
0.000417442

> <r_epik_Charging_Adjusted_Penalty>
0.000417442

> <i_epik_Tot_Q>
0

> <i_epik_Tot_abs_Q>
0

> <r_epik_Metal_State_Penalty>
-0

> <b_epik_Metal_Only>
0

> <s_epik_Chemistry_Notes>
This compound contains an acetal/aminal-like group ( X-CH(R)-Y where X, Y are N, S, or O) that may be acid/base labile, releasing an aldehyde.

> <s_lp_Force_Field>
OPLS_2005

> <r_lp_Energy>
62.7544

> <b_lp_Chiralities_Consistent>
1

> <s_lp_Variant>
AV-unprocessed.smi:110-16

> <Gold.Version>
5.8.1

> <Gold.Id.Protein>
6NUR|6NUR_protein|mol2

> <Gold.PLP.Fitness>
54.6724

> <Gold.PLP.PLP>
-49.3435

> <Gold.PLP.part.hbond>
-4.0000

> <Gold.PLP.part.metal>
0.0000

> <Gold.PLP.part.buried>
-5.9813

> <Gold.PLP.part.nonpolar>
-40.1385

> <Gold.PLP.part.repulsive>
1.1927

> <Gold.PLP.ligand.clash>
0.0000

> <Gold.PLP.ligand.torsion>
0.5753

> <Gold.PLP.Chemscore.Hbond>
2.1160

> <Gold.PLP.Chemscore.CHOScore>
0.0000

> <Gold.PLP.Chemscore.Metal>
0.0000

> <Gold.Chemscore.Hbonds>
donor molecule, donor type, donor heavy atom, donor atom, acceptor molecule, acceptor atom, score
      L1  H    25    45       P1  7948  1.00
      L1  H    27    46       P1 10175  0.70
      P1  H  7997  8009       L1    20  0.16

> <Gold.PLP.Chemscore.Internal.Correction>
0.1315

> <Gold.Rescore>
     Score         DG    S(hbond)    S(metal)    S(lipo)     H(rot)  DE(clash)    DE(int)     intcor
     14.35     -15.90       1.91        0.00     108.56       3.38       0.74       0.81       ----

> <Gold.Chemscore.Fitness>
14.3531

> <Gold.Chemscore.DG>
-15.9005

> <Gold.Chemscore.ZeroCoef>
-5.4800

> <Gold.Chemscore.Hbond>
1.9107

> <Gold.Chemscore.Metal>
0.0000

> <Gold.Chemscore.Lipo>
108.5557

> <Gold.Chemscore.Internal_Hbond>
0.0000

> <Gold.Chemscore.DEClash>
0.7382

> <Gold.Chemscore.DEInternal>
0.8093

> <Gold.Chemscore.Rot>
3.3837

> <Gold.Chemscore.Internal.Correction>
   9.000000E+99

> <Gold.Chemscore.Hbonds>
donor molecule, donor type, donor heavy atom, donor atom, acceptor molecule, acceptor atom, score
      L1  H    25    45       P1  7948  1.00
      L1  H    27    46       P1 10175  0.70

> <Gold.Chemscore.Hbond.Weighted>
-6.3817

> <Gold.Chemscore.Metal.Weighted>
-0.0000

> <Gold.Chemscore.Lipo.Weighted>
-12.7010

> <Gold.Chemscore.Internal_Hbond.Weighted>
0.0000

> <Gold.Chemscore.DEClash.Weighted>
0.7382

> <Gold.Chemscore.DEInternal.Weighted>
0.8093

> <Gold.Chemscore.Rot.Weighted>
8.6622

> <Gold.Chemscore.Internal.Correction.Weighted>
   9.000000E+99

> <Gold.Protein.RotatedTorsions>
[ 6907 6896 6895 6894 ] final  100.72 input  -60.11 | X-H torsion
[ 7974 7965 7964 7962 ] final  -16.39 input  175.53 | X-H torsion
[ 8008 7997 7996 7995 ] final  165.29 input   59.86 | X-H torsion
[ 10167 10162 10161 10158 ] final  132.30 input  -65.29 | X-H torsion
[ 10718 10713 10712 10709 ] final  157.83 input   66.30 | X-H torsion
[ 10763 10752 10751 10750 ] final  117.70 input  -60.55 | X-H torsion
[ 11005 11000 10999 10996 ] final  143.21 input  -57.11 | X-H torsion

> <Gold.Protein.ActiveResidues>
 VAL166  LYS551  ARG553  GLY616  TRP617  ASP618  TYR619  PRO620  LYS621  CYS622 
 ASP623  PHE694  ASN695  SER759  ASP760  ASP761  ALA762  ILE779  LEU786  VAL792 
 PHE793  MET794  SER795  GLU796  ALA797  LYS798  CYS799  TRP800  GLU811  SER814 

> <Gold.Protein.RotatedAtoms>
  152.5366  134.0233  159.7991 H   0  0  0  0  0  0  0  0  0  0  0  0  # atno 6907 bound_to 6896
  151.0416  133.5693  159.2658 H   0  0  0  0  0  0  0  0  0  0  0  0  # atno 6908 bound_to 6896
  151.2661  135.0677  159.9170 H   0  0  0  0  0  0  0  0  0  0  0  0  # atno 6909 bound_to 6896
  146.1989  140.3630  142.8430 H   0  0  0  0  0  0  0  0  0  0  0  0  # atno 7974 bound_to 7965
  156.1812  140.1674  156.8270 H   0  0  0  0  0  0  0  0  0  0  0  0  # atno 8008 bound_to 7997
  154.5363  140.0746  156.8465 H   0  0  0  0  0  0  0  0  0  0  0  0  # atno 8009 bound_to 7997
  155.3305  140.3379  155.4242 H   0  0  0  0  0  0  0  0  0  0  0  0  # atno 8010 bound_to 7997
  139.5346  144.6668  151.4832 H   0  0  0  0  0  0  0  0  0  0  0  0  # atno 10167 bound_to 10162
  157.1861  131.0644  151.2105 H   0  0  0  0  0  0  0  0  0  0  0  0  # atno 10718 bound_to 10713
  153.5564  135.3529  155.2781 H   0  0  0  0  0  0  0  0  0  0  0  0  # atno 10763 bound_to 10752
  154.8700  135.4126  154.2879 H   0  0  0  0  0  0  0  0  0  0  0  0  # atno 10764 bound_to 10752
  153.3616  135.7060  153.6777 H   0  0  0  0  0  0  0  0  0  0  0  0  # atno 10765 bound_to 10752
  140.0536  134.9242  157.1061 H   0  0  0  0  0  0  0  0  0  0  0  0  # atno 11005 bound_to 11000
  144.8641  140.7181  143.6089 LP  0  0  0  0  0  0  0  0  0  0  0  0  # atno 17320 bound_to 7965
  145.3549  139.1696  143.4414 LP  0  0  0  0  0  0  0  0  0  0  0  0  # atno 17321 bound_to 7965
  140.6544  143.8629  150.6820 LP  0  0  0  0  0  0  0  0  0  0  0  0  # atno 17342 bound_to 10162
  140.2004  143.3964  152.1796 LP  0  0  0  0  0  0  0  0  0  0  0  0  # atno 17343 bound_to 10162
  157.3906  130.7280  149.6694 LP  0  0  0  0  0  0  0  0  0  0  0  0  # atno 17370 bound_to 10713
  155.9718  130.4147  150.4148 LP  0  0  0  0  0  0  0  0  0  0  0  0  # atno 17371 bound_to 10713
  140.3878  134.2217  155.7167 LP  0  0  0  0  0  0  0  0  0  0  0  0  # atno 17394 bound_to 11000
  141.1942  133.8134  157.0768 LP  0  0  0  0  0  0  0  0  0  0  0  0  # atno 17395 bound_to 11000

$$$$
