AV-unprocessed.smi:2007|AV-procd|sdf|8139|dock8
  -GOLD-   2272010373D 1   1.00000     0.00000
 Structure written by MMmdl.
 36 37  0  0  0  0  0  0  0  0  3 V2000
  151.2397  137.7382  157.0864 C   0  0  0  0  0  0  0  0  0  0  0  0
  150.3403  136.5984  156.5898 C   0  0  2  0  0  0  0  0  0  0  0  0
  149.9727  136.7740  155.0986 C   0  0  0  0  0  0  0  0  0  0  0  0
  149.3781  135.5480  154.5093 N   0  3  0  0  0  0  0  0  0  0  0  0
  150.2036  134.3347  154.7041 C   0  0  0  0  0  0  0  0  0  0  0  0
  149.5675  133.1440  153.9661 C   0  0  0  0  0  0  0  0  0  0  0  0
  148.2351  132.9495  154.4272 O   0  0  0  0  0  0  0  0  0  0  0  0
  147.4134  134.0853  154.1816 C   0  0  0  0  0  0  0  0  0  0  0  0
  147.9805  135.2995  154.9348 C   0  0  0  0  0  0  0  0  0  0  0  0
  149.1324  136.5394  157.4155 N   0  0  0  0  0  0  0  0  0  0  0  0
  149.0784  136.5114  158.7559 C   0  0  0  0  0  0  0  0  0  0  0  0
  150.1135  136.6108  159.4184 O   0  0  0  0  0  0  0  0  0  0  0  0
  147.8313  136.3372  159.2446 N   0  5  0  0  0  0  0  0  0  0  0  0
  147.6603  135.9692  160.5246 C   0  0  0  0  0  0  0  0  0  0  0  0
  147.4165  136.8426  161.5090 N   0  0  0  0  0  0  0  0  0  0  0  0
  147.2744  136.2414  162.7611 C   0  0  0  0  0  0  0  0  0  0  0  0
  147.4200  134.8798  162.7295 C   0  0  0  0  0  0  0  0  0  0  0  0
  147.7409  134.3085  161.1169 S   0  0  0  0  0  0  0  0  0  0  0  0
  152.1614  137.7910  156.5065 H   0  0  0  0  0  0  0  0  0  0  0  0
  151.5165  137.5923  158.1311 H   0  0  0  0  0  0  0  0  0  0  0  0
  150.7399  138.7041  157.0063 H   0  0  0  0  0  0  0  0  0  0  0  0
  150.9075  135.6743  156.7084 H   0  0  0  0  0  0  0  0  0  0  0  0
  149.2496  137.5879  155.0246 H   0  0  0  0  0  0  0  0  0  0  0  0
  150.8406  137.0856  154.5156 H   0  0  0  0  0  0  0  0  0  0  0  0
  151.2104  134.5047  154.3204 H   0  0  0  0  0  0  0  0  0  0  0  0
  150.2945  134.1174  155.7695 H   0  0  0  0  0  0  0  0  0  0  0  0
  149.5703  133.3091  152.8873 H   0  0  0  0  0  0  0  0  0  0  0  0
  150.1422  132.2365  154.1513 H   0  0  0  0  0  0  0  0  0  0  0  0
  147.3543  134.2846  153.1101 H   0  0  0  0  0  0  0  0  0  0  0  0
  146.4007  133.8701  154.5226 H   0  0  0  0  0  0  0  0  0  0  0  0
  147.9480  135.1230  156.0110 H   0  0  0  0  0  0  0  0  0  0  0  0
  147.3614  136.1740  154.7366 H   0  0  0  0  0  0  0  0  0  0  0  0
  148.2533  136.4695  156.9234 H   0  0  0  0  0  0  0  0  0  0  0  0
  147.0718  136.8605  163.6224 H   0  0  0  0  0  0  0  0  0  0  0  0
  147.3597  134.1817  163.5508 H   0  0  0  0  0  0  0  0  0  0  0  0
  149.3538  135.7088  153.5112 H   0  0  0  0  0  0  0  0  0  0  0  0
  1  2  1  0  0  0  0
  1 19  1  0  0  0  0
  1 20  1  0  0  0  0
  1 21  1  0  0  0  0
  2  3  1  0  0  0  0
  2 10  1  0  0  0  0
  2 22  1  0  0  0  0
  3  4  1  0  0  0  0
  3 23  1  0  0  0  0
  3 24  1  0  0  0  0
  4  9  1  0  0  0  0
  4  5  1  0  0  0  0
  4 36  1  0  0  0  0
  5  6  1  0  0  0  0
  5 25  1  0  0  0  0
  5 26  1  0  0  0  0
  6  7  1  0  0  0  0
  6 27  1  0  0  0  0
  6 28  1  0  0  0  0
  7  8  1  0  0  0  0
  8  9  1  0  0  0  0
  8 29  1  0  0  0  0
  8 30  1  0  0  0  0
  9 31  1  0  0  0  0
  9 32  1  0  0  0  0
 10 11  1  0  0  0  0
 10 33  1  0  0  0  0
 11 12  2  0  0  0  0
 11 13  1  0  0  0  0
 13 14  1  0  0  0  0
 14 18  1  0  0  0  0
 14 15  2  0  0  0  0
 15 16  1  0  0  0  0
 16 17  2  0  0  0  0
 16 34  1  0  0  0  0
 17 18  1  0  0  0  0
 17 35  1  0  0  0  0
M  CHG  1   4   1
M  CHG  1  13  -1
M  END
> <s_m_source_file>
AV-unprocessed.smi

> <i_m_source_file_index>
2007

> <i_lp_mmshare_version>
43012

> <i_f3d_flags>
0

> <s_epik_input>
W0NIMl0xW0NIMl1PW0NIMl1bQ0gyXU4xW0NIMl1bQ0BASF0oW0NIM10pW05IXUMoPU8pW05IXWMybltjSF1bY0hdczI=

> <s_epik_cmdline>
J2VwaWtfcHl0aG9uJywgJy1waCcsICc3LjAnLCAnLXRuJywgJzgnLCAnLW1hJywgJzIwMCcsICctbWV0YWxfYmluZGluZycsICctaW1hZScsICc8aW5maWxlLm1hZT4nLCAnLW9tYWUnLCAnPG91dGZpbGUubWFlPic=

> <r_lp_tautomer_probability>
0.999

> <r_epik_Ionization_Penalty>
6.49226

> <r_epik_Ionization_Penalty_Charging>
5.74393

> <r_epik_Ionization_Penalty_Neutral>
0.748321

> <r_epik_State_Penalty>
5.94164

> <r_epik_Charging_Adjusted_Penalty>
11.6856

> <i_epik_Tot_Q>
0

> <i_epik_Tot_abs_Q>
2

> <r_epik_Metal_State_Penalty>
1.97606

> <b_epik_Metal_Only>
1

> <s_lp_Force_Field>
OPLS_2005

> <r_lp_Energy>
10.1627

> <b_lp_Chiralities_Consistent>
1

> <s_lp_Variant>
AV-unprocessed.smi:2007-7

> <Gold.Version>
5.8.1

> <Gold.Id.Protein>
6NUR|6NUR_protein|mol2

> <Gold.PLP.Fitness>
42.0218

> <Gold.PLP.PLP>
-29.4934

> <Gold.PLP.part.hbond>
-4.0000

> <Gold.PLP.part.metal>
0.0000

> <Gold.PLP.part.buried>
-4.6094

> <Gold.PLP.part.nonpolar>
-20.6666

> <Gold.PLP.part.repulsive>
0.1159

> <Gold.PLP.ligand.clash>
0.0000

> <Gold.PLP.ligand.torsion>
0.9935

> <Gold.PLP.Chemscore.Hbond>
4.7920

> <Gold.PLP.Chemscore.CHOScore>
0.0000

> <Gold.PLP.Chemscore.Metal>
0.0000

> <Gold.Chemscore.Hbonds>
donor molecule, donor type, donor heavy atom, donor atom, acceptor molecule, acceptor atom, score
      L1  H     4    36       P1  7948  2.00
      P1  H  6896  6907       L1    12  1.00
      P1  H  6931  6943       L1    15  0.63
      P1  H  6934  6947       L1    15  0.40

> <Gold.PLP.Chemscore.Internal.Correction>
0.1394

> <Gold.Rescore>
     Score         DG    S(hbond)    S(metal)    S(lipo)     H(rot)  DE(clash)    DE(int)     intcor
     14.66     -17.14       2.86        0.00      53.10       1.60       0.01       2.48       ----

> <Gold.Chemscore.Fitness>
14.6567

> <Gold.Chemscore.DG>
-17.1400

> <Gold.Chemscore.ZeroCoef>
-5.4800

> <Gold.Chemscore.Hbond>
2.8566

> <Gold.Chemscore.Metal>
0.0000

> <Gold.Chemscore.Lipo>
53.0985

> <Gold.Chemscore.Internal_Hbond>
0.0000

> <Gold.Chemscore.DEClash>
0.0074

> <Gold.Chemscore.DEInternal>
2.4758

> <Gold.Chemscore.Rot>
1.5991

> <Gold.Chemscore.Internal.Correction>
   9.000000E+99

> <Gold.Chemscore.Hbonds>
donor molecule, donor type, donor heavy atom, donor atom, acceptor molecule, acceptor atom, score
      L1  H     4    36       P1  7948  0.40
      P1  H  6896  6907       L1    12  0.97
      P1  H  6931  6943       L1    15  0.16
      P1  H  6934  6947       L1    15  0.36

> <Gold.Chemscore.Hbond.Weighted>
-9.5411

> <Gold.Chemscore.Metal.Weighted>
-0.0000

> <Gold.Chemscore.Lipo.Weighted>
-6.2125

> <Gold.Chemscore.Internal_Hbond.Weighted>
0.0000

> <Gold.Chemscore.DEClash.Weighted>
0.0074

> <Gold.Chemscore.DEInternal.Weighted>
2.4758

> <Gold.Chemscore.Rot.Weighted>
4.0936

> <Gold.Chemscore.Internal.Correction.Weighted>
   9.000000E+99

> <Gold.Protein.RotatedTorsions>
[ 6907 6896 6895 6894 ] final  -18.31 input  -60.11 | X-H torsion
[ 7974 7965 7964 7962 ] final   61.98 input  175.53 | X-H torsion
[ 8008 7997 7996 7995 ] final -142.39 input   59.86 | X-H torsion
[ 10167 10162 10161 10158 ] final   78.04 input  -65.29 | X-H torsion
[ 10718 10713 10712 10709 ] final  100.79 input   66.30 | X-H torsion
[ 10763 10752 10751 10750 ] final   34.52 input  -60.55 | X-H torsion
[ 11005 11000 10999 10996 ] final  156.92 input  -57.11 | X-H torsion

> <Gold.Protein.ActiveResidues>
 VAL166  LYS551  ARG553  GLY616  TRP617  ASP618  TYR619  PRO620  LYS621  CYS622 
 ASP623  PHE694  ASN695  SER759  ASP760  ASP761  ALA762  ILE779  LEU786  VAL792 
 PHE793  MET794  SER795  GLU796  ALA797  LYS798  CYS799  TRP800  GLU811  SER814 

> <Gold.Protein.RotatedAtoms>
  151.2801  135.0711  159.9165 H   0  0  0  0  0  0  0  0  0  0  0  0  # atno 6907 bound_to 6896
  152.5335  134.0040  159.7918 H   0  0  0  0  0  0  0  0  0  0  0  0  # atno 6908 bound_to 6896
  151.0292  133.5755  159.2693 H   0  0  0  0  0  0  0  0  0  0  0  0  # atno 6909 bound_to 6896
  145.8785  139.3427  143.0720 H   0  0  0  0  0  0  0  0  0  0  0  0  # atno 7974 bound_to 7965
  155.4934  140.0569  157.2950 H   0  0  0  0  0  0  0  0  0  0  0  0  # atno 8008 bound_to 7997
  154.4614  140.1998  156.0185 H   0  0  0  0  0  0  0  0  0  0  0  0  # atno 8009 bound_to 7997
  156.0897  140.3235  155.7804 H   0  0  0  0  0  0  0  0  0  0  0  0  # atno 8010 bound_to 7997
  139.9751  144.5866  150.7950 H   0  0  0  0  0  0  0  0  0  0  0  0  # atno 10167 bound_to 10162
  157.6845  131.0708  150.5155 H   0  0  0  0  0  0  0  0  0  0  0  0  # atno 10718 bound_to 10713
  153.0160  135.6358  154.1682 H   0  0  0  0  0  0  0  0  0  0  0  0  # atno 10763 bound_to 10752
  154.1421  135.2834  155.3160 H   0  0  0  0  0  0  0  0  0  0  0  0  # atno 10764 bound_to 10752
  154.6117  135.5554  153.7541 H   0  0  0  0  0  0  0  0  0  0  0  0  # atno 10765 bound_to 10752
  140.1720  134.8536  157.2701 H   0  0  0  0  0  0  0  0  0  0  0  0  # atno 11005 bound_to 11000
  145.9052  140.9217  143.0482 LP  0  0  0  0  0  0  0  0  0  0  0  0  # atno 17320 bound_to 7965
  144.6727  140.1085  143.7456 LP  0  0  0  0  0  0  0  0  0  0  0  0  # atno 17321 bound_to 7965
  140.7508  143.2962  151.3198 LP  0  0  0  0  0  0  0  0  0  0  0  0  # atno 17342 bound_to 10162
  139.6452  144.0465  152.2585 LP  0  0  0  0  0  0  0  0  0  0  0  0  # atno 17343 bound_to 10162
  156.5470  130.4222  149.6126 LP  0  0  0  0  0  0  0  0  0  0  0  0  # atno 17370 bound_to 10713
  156.2935  130.7137  151.1992 LP  0  0  0  0  0  0  0  0  0  0  0  0  # atno 17371 bound_to 10713
  140.2366  134.3845  155.7498 LP  0  0  0  0  0  0  0  0  0  0  0  0  # atno 17394 bound_to 11000
  141.2218  133.7243  156.8724 LP  0  0  0  0  0  0  0  0  0  0  0  0  # atno 17395 bound_to 11000

$$$$
