AV-unprocessed.smi:1894|AV-procd|sdf|7679|dock9
  -GOLD-   22720 9423D 1   1.00000     0.00000
 Structure written by MMmdl.
 32 34  0  0  0  0  0  0  0  0  1 V2000
  150.8341  140.3486  158.2713 O   0  0  0  0  0  0  0  0  0  0  0  0
  151.1065  141.1682  157.3947 C   0  0  0  0  0  0  0  0  0  0  0  0
  150.8922  140.8112  155.9240 C   0  0  0  0  0  0  0  0  0  0  0  0
  151.6025  139.5939  155.5786 N   0  0  0  0  0  0  0  0  0  0  0  0
  151.2785  138.6098  154.7380 C   0  0  0  0  0  0  0  0  0  0  0  0
  152.1781  137.6374  154.6802 N   0  0  0  0  0  0  0  0  0  0  0  0
  153.0940  138.1207  155.5715 C   0  0  0  0  0  0  0  0  0  0  0  0
  152.7974  139.2900  156.1389 N   0  0  0  0  0  0  0  0  0  0  0  0
  151.6006  142.3908  157.6450 N   0  0  0  0  0  0  0  0  0  0  0  0
  151.9031  142.9351  158.9643 C   0  0  0  0  0  0  0  0  0  0  0  0
  151.9740  144.4538  158.9687 C   0  0  0  0  0  0  0  0  0  0  0  0
  151.9122  145.2397  160.2577 C   0  0  0  0  0  0  0  0  0  0  0  0
  150.7614  145.2999  159.2805 C   0  0  0  0  0  0  0  0  0  0  0  0
  153.1852  142.3463  159.5247 C   0  0  0  0  0  0  0  0  0  0  0  0
  153.2112  140.9577  160.1172 C   0  0  0  0  0  0  0  0  0  0  0  0
  153.3893  142.1649  161.0103 C   0  0  0  0  0  0  0  0  0  0  0  0
  149.8294  140.6646  155.7276 H   0  0  0  0  0  0  0  0  0  0  0  0
  151.2293  141.6268  155.2820 H   0  0  0  0  0  0  0  0  0  0  0  0
  150.3659  138.6041  154.1599 H   0  0  0  0  0  0  0  0  0  0  0  0
  154.0069  137.5947  155.8094 H   0  0  0  0  0  0  0  0  0  0  0  0
  151.7967  142.9880  156.8546 H   0  0  0  0  0  0  0  0  0  0  0  0
  151.0984  142.6413  159.6418 H   0  0  0  0  0  0  0  0  0  0  0  0
  152.6460  144.8549  158.2121 H   0  0  0  0  0  0  0  0  0  0  0  0
  151.7487  144.6926  161.1838 H   0  0  0  0  0  0  0  0  0  0  0  0
  152.5488  146.1180  160.3411 H   0  0  0  0  0  0  0  0  0  0  0  0
  150.6304  146.2173  158.7105 H   0  0  0  0  0  0  0  0  0  0  0  0
  149.8419  144.7915  159.5626 H   0  0  0  0  0  0  0  0  0  0  0  0
  154.0727  142.6331  158.9630 H   0  0  0  0  0  0  0  0  0  0  0  0
  152.2687  140.4178  160.1863 H   0  0  0  0  0  0  0  0  0  0  0  0
  154.0871  140.3436  159.9185 H   0  0  0  0  0  0  0  0  0  0  0  0
  154.3844  142.3566  161.4064 H   0  0  0  0  0  0  0  0  0  0  0  0
  152.5661  142.4170  161.6756 H   0  0  0  0  0  0  0  0  0  0  0  0
  1  2  2  0  0  0  0
  2  3  1  0  0  0  0
  2  9  1  0  0  0  0
  3  4  1  0  0  0  0
  3 17  1  0  0  0  0
  3 18  1  0  0  0  0
  4  8  1  0  0  0  0
  4  5  1  0  0  0  0
  5  6  2  0  0  0  0
  5 19  1  0  0  0  0
  6  7  1  0  0  0  0
  7  8  2  0  0  0  0
  7 20  1  0  0  0  0
  9 10  1  0  0  0  0
  9 21  1  0  0  0  0
 10 11  1  0  0  0  0
 10 14  1  0  0  0  0
 10 22  1  0  0  0  0
 11 13  1  0  0  0  0
 11 12  1  0  0  0  0
 11 23  1  0  0  0  0
 12 13  1  0  0  0  0
 12 24  1  0  0  0  0
 12 25  1  0  0  0  0
 13 26  1  0  0  0  0
 13 27  1  0  0  0  0
 14 16  1  0  0  0  0
 14 15  1  0  0  0  0
 14 28  1  0  0  0  0
 15 16  1  0  0  0  0
 15 29  1  0  0  0  0
 15 30  1  0  0  0  0
 16 31  1  0  0  0  0
 16 32  1  0  0  0  0
M  END
> <s_m_source_file>
AV-unprocessed.smi

> <i_m_source_file_index>
1894

> <i_lp_mmshare_version>
43012

> <i_f3d_flags>
0

> <s_epik_input>
W0NIMl0xW0NIMl1bQ0hdMVtDSF0oW0NIXTJbQ0gyXVtDSDJdMilbTkhdQyg9TylbQ0gyXW4zW2NIXW5bY0hdbjM=

> <s_epik_cmdline>
J2VwaWtfcHl0aG9uJywgJy1waCcsICc3LjAnLCAnLXRuJywgJzgnLCAnLW1hJywgJzIwMCcsICctbWV0YWxfYmluZGluZycsICctaW1hZScsICc8aW5maWxlLm1hZT4nLCAnLW9tYWUnLCAnPG91dGZpbGUubWFlPic=

> <r_lp_tautomer_probability>
1

> <r_epik_Ionization_Penalty>
9.18136e-06

> <r_epik_Ionization_Penalty_Charging>
0

> <r_epik_Ionization_Penalty_Neutral>
9.18136e-06

> <r_epik_State_Penalty>
-0

> <r_epik_Charging_Adjusted_Penalty>
0

> <i_epik_Tot_Q>
0

> <i_epik_Tot_abs_Q>
0

> <r_epik_Metal_State_Penalty>
-0

> <b_epik_Metal_Only>
0

> <s_lp_Force_Field>
OPLS_2005

> <r_lp_Energy>
25.0863

> <b_lp_Chiralities_Consistent>
1

> <s_lp_Variant>
AV-unprocessed.smi:1894-1

> <Gold.Version>
5.8.1

> <Gold.Id.Protein>
6NUR|6NUR_protein|mol2

> <Gold.PLP.Fitness>
45.3322

> <Gold.PLP.PLP>
-42.0569

> <Gold.PLP.part.hbond>
-2.0000

> <Gold.PLP.part.metal>
0.0000

> <Gold.PLP.part.buried>
-4.7770

> <Gold.PLP.part.nonpolar>
-36.3110

> <Gold.PLP.part.repulsive>
0.1403

> <Gold.PLP.ligand.clash>
0.0000

> <Gold.PLP.ligand.torsion>
1.6984

> <Gold.PLP.Chemscore.Hbond>
1.5143

> <Gold.PLP.Chemscore.CHOScore>
0.0000

> <Gold.PLP.Chemscore.Metal>
0.0000

> <Gold.Chemscore.Hbonds>
donor molecule, donor type, donor heavy atom, donor atom, acceptor molecule, acceptor atom, score
      P1  H  7997  8009       L1     8  1.00
      P1  H 10752 10765       L1     6  0.54

> <Gold.PLP.Chemscore.Internal.Correction>
2.1293

> <Gold.Rescore>
     Score         DG    S(hbond)    S(metal)    S(lipo)     H(rot)  DE(clash)    DE(int)     intcor
     12.13     -14.00       1.39        0.00      87.79       2.50       0.11       1.76       ----

> <Gold.Chemscore.Fitness>
12.1312

> <Gold.Chemscore.DG>
-14.0023

> <Gold.Chemscore.ZeroCoef>
-5.4800

> <Gold.Chemscore.Hbond>
1.3906

> <Gold.Chemscore.Metal>
0.0000

> <Gold.Chemscore.Lipo>
87.7942

> <Gold.Chemscore.Internal_Hbond>
0.0000

> <Gold.Chemscore.DEClash>
0.1086

> <Gold.Chemscore.DEInternal>
1.7625

> <Gold.Chemscore.Rot>
2.4977

> <Gold.Chemscore.Internal.Correction>
   9.000000E+99

> <Gold.Chemscore.Hbonds>
donor molecule, donor type, donor heavy atom, donor atom, acceptor molecule, acceptor atom, score
      P1  H  7997  8009       L1     8  0.45
      P1  H 10752 10765       L1     6  0.16

> <Gold.Chemscore.Hbond.Weighted>
-4.6445

> <Gold.Chemscore.Metal.Weighted>
-0.0000

> <Gold.Chemscore.Lipo.Weighted>
-10.2719

> <Gold.Chemscore.Internal_Hbond.Weighted>
0.0000

> <Gold.Chemscore.DEClash.Weighted>
0.1086

> <Gold.Chemscore.DEInternal.Weighted>
1.7625

> <Gold.Chemscore.Rot.Weighted>
6.3941

> <Gold.Chemscore.Internal.Correction.Weighted>
   9.000000E+99

> <Gold.Protein.RotatedTorsions>
[ 6907 6896 6895 6894 ] final   17.74 input  -60.11 | X-H torsion
[ 7974 7965 7964 7962 ] final  -51.10 input  175.53 | X-H torsion
[ 8008 7997 7996 7995 ] final -152.76 input   59.86 | X-H torsion
[ 10167 10162 10161 10158 ] final   58.04 input  -65.29 | X-H torsion
[ 10718 10713 10712 10709 ] final  113.18 input   66.30 | X-H torsion
[ 10763 10752 10751 10750 ] final  161.06 input  -60.55 | X-H torsion
[ 11005 11000 10999 10996 ] final   82.46 input  -57.11 | X-H torsion

> <Gold.Protein.ActiveResidues>
 VAL166  LYS551  ARG553  GLY616  TRP617  ASP618  TYR619  PRO620  LYS621  CYS622 
 ASP623  PHE694  ASN695  SER759  ASP760  ASP761  ALA762  ILE779  LEU786  VAL792 
 PHE793  MET794  SER795  GLU796  ALA797  LYS798  CYS799  TRP800  GLU811  SER814 

> <Gold.Protein.RotatedAtoms>
  151.8544  135.0546  160.0462 H   0  0  0  0  0  0  0  0  0  0  0  0  # atno 6907 bound_to 6896
  152.2712  133.5379  159.5448 H   0  0  0  0  0  0  0  0  0  0  0  0  # atno 6908 bound_to 6896
  150.7152  134.0612  159.3874 H   0  0  0  0  0  0  0  0  0  0  0  0  # atno 6909 bound_to 6896
  145.9227  140.7819  142.9639 H   0  0  0  0  0  0  0  0  0  0  0  0  # atno 7974 bound_to 7965
  155.6602  140.0721  157.2557 H   0  0  0  0  0  0  0  0  0  0  0  0  # atno 8008 bound_to 7997
  154.4144  140.1717  156.1818 H   0  0  0  0  0  0  0  0  0  0  0  0  # atno 8009 bound_to 7997
  155.9704  140.3362  155.6573 H   0  0  0  0  0  0  0  0  0  0  0  0  # atno 8010 bound_to 7997
  140.1915  144.4080  150.6569 H   0  0  0  0  0  0  0  0  0  0  0  0  # atno 10167 bound_to 10162
  157.6352  131.0979  150.7003 H   0  0  0  0  0  0  0  0  0  0  0  0  # atno 10718 bound_to 10713
  154.2570  135.2769  155.2793 H   0  0  0  0  0  0  0  0  0  0  0  0  # atno 10763 bound_to 10752
  154.5416  135.5701  153.6848 H   0  0  0  0  0  0  0  0  0  0  0  0  # atno 10764 bound_to 10752
  152.9969  135.6252  154.2719 H   0  0  0  0  0  0  0  0  0  0  0  0  # atno 10765 bound_to 10752
  139.9063  134.8073  156.2178 H   0  0  0  0  0  0  0  0  0  0  0  0  # atno 11005 bound_to 11000
  144.6755  140.2001  143.7388 LP  0  0  0  0  0  0  0  0  0  0  0  0  # atno 17320 bound_to 7965
  145.8529  139.2184  143.1761 LP  0  0  0  0  0  0  0  0  0  0  0  0  # atno 17321 bound_to 7965
  140.6452  143.2212  151.6201 LP  0  0  0  0  0  0  0  0  0  0  0  0  # atno 17342 bound_to 10162
  139.5254  144.3076  152.1020 LP  0  0  0  0  0  0  0  0  0  0  0  0  # atno 17343 bound_to 10162
  156.7335  130.4717  149.5494 LP  0  0  0  0  0  0  0  0  0  0  0  0  # atno 17370 bound_to 10713
  156.1586  130.6359  151.0690 LP  0  0  0  0  0  0  0  0  0  0  0  0  # atno 17371 bound_to 10713
  141.0425  133.6930  156.1623 LP  0  0  0  0  0  0  0  0  0  0  0  0  # atno 17394 bound_to 11000
  140.6934  134.4641  157.5588 LP  0  0  0  0  0  0  0  0  0  0  0  0  # atno 17395 bound_to 11000

$$$$
