AV-unprocessed.smi:1244|AV-procd|sdf|5221|dock8
  -GOLD-   22720 4323D 1   1.00000     0.00000
 Structure written by MMmdl.
 54 56  0  0  0  0  0  0  0  0  1 V2000
  151.5863  145.6155  159.7643 C   0  0  0  0  0  0  0  0  0  0  0  0
  152.5111  144.7773  158.8651 C   0  0  2  0  0  0  0  0  0  0  0  0
  151.7790  144.1212  157.6772 C   0  0  0  0  0  0  0  0  0  0  0  0
  150.9416  142.9960  158.0797 N   0  0  0  0  0  0  0  0  0  0  0  0
  150.2691  142.4055  156.9235 C   0  0  0  0  0  0  0  0  0  0  0  0
  151.0791  141.3204  156.1881 C   0  0  0  0  0  0  0  0  0  0  0  0
  150.2384  140.1970  155.7916 N   0  0  0  0  0  0  0  0  0  0  0  0
  149.4253  140.1838  154.7261 C   0  0  0  0  0  0  0  0  0  0  0  0
  149.3142  141.1271  153.9428 O   0  0  0  0  0  0  0  0  0  0  0  0
  148.7449  139.0279  154.6465 N   0  0  0  0  0  0  0  0  0  0  0  0
  147.7792  138.6445  153.6730 C   0  0  0  0  0  0  0  0  0  0  0  0
  147.6336  139.3574  152.4577 C   0  0  0  0  0  0  0  0  0  0  0  0
  146.6557  138.9538  151.5328 C   0  0  0  0  0  0  0  0  0  0  0  0
  145.8559  137.8450  151.8542 C   0  0  0  0  0  0  0  0  0  0  0  0
  145.9945  137.1441  152.9970 N   0  0  0  0  0  0  0  0  0  0  0  0
  146.9439  137.5112  153.8931 C   0  0  0  0  0  0  0  0  0  0  0  0
  147.0501  136.7256  155.0643 N   0  0  0  0  0  0  0  0  0  0  0  0
  145.9749  135.8147  155.4433 C   0  0  0  0  0  0  0  0  0  0  0  0
  146.5895  134.8915  156.4913 C   0  0  0  0  0  0  0  0  0  0  0  0
  148.0212  134.7381  155.9877 C   0  0  0  0  0  0  0  0  0  0  0  0
  148.3357  136.1045  155.3693 C   0  0  0  0  0  0  0  0  0  0  0  0
  151.7616  142.0319  158.8070 C   0  0  0  0  0  0  0  0  0  0  0  0
  152.4496  142.6673  160.0290 C   0  0  1  0  0  0  0  0  0  0  0  0
  153.3840  141.6825  160.7397 C   0  0  0  0  0  0  0  0  0  0  0  0
  153.2244  143.7895  159.6107 O   0  0  0  0  0  0  0  0  0  0  0  0
  151.1421  146.4380  159.2033 H   0  0  0  0  0  0  0  0  0  0  0  0
  152.1410  146.0465  160.5981 H   0  0  0  0  0  0  0  0  0  0  0  0
  150.7686  145.0246  160.1766 H   0  0  0  0  0  0  0  0  0  0  0  0
  153.2623  145.4566  158.4610 H   0  0  0  0  0  0  0  0  0  0  0  0
  151.1764  144.8710  157.1630 H   0  0  0  0  0  0  0  0  0  0  0  0
  152.5215  143.7778  156.9551 H   0  0  0  0  0  0  0  0  0  0  0  0
  149.3344  141.9549  157.2605 H   0  0  0  0  0  0  0  0  0  0  0  0
  149.9854  143.1905  156.2208 H   0  0  0  0  0  0  0  0  0  0  0  0
  151.5282  141.7209  155.2803 H   0  0  0  0  0  0  0  0  0  0  0  0
  151.9003  140.9672  156.8140 H   0  0  0  0  0  0  0  0  0  0  0  0
  150.2652  139.3780  156.3810 H   0  0  0  0  0  0  0  0  0  0  0  0
  148.8550  138.3909  155.4216 H   0  0  0  0  0  0  0  0  0  0  0  0
  148.2611  140.2024  152.2182 H   0  0  0  0  0  0  0  0  0  0  0  0
  146.5214  139.4830  150.6010 H   0  0  0  0  0  0  0  0  0  0  0  0
  145.0898  137.5061  151.1728 H   0  0  0  0  0  0  0  0  0  0  0  0
  145.1131  136.3566  155.8338 H   0  0  0  0  0  0  0  0  0  0  0  0
  145.6494  135.2222  154.5872 H   0  0  0  0  0  0  0  0  0  0  0  0
  146.5872  135.3788  157.4675 H   0  0  0  0  0  0  0  0  0  0  0  0
  146.0623  133.9415  156.5826 H   0  0  0  0  0  0  0  0  0  0  0  0
  148.7225  134.4565  156.7737 H   0  0  0  0  0  0  0  0  0  0  0  0
  148.0556  133.9690  155.2149 H   0  0  0  0  0  0  0  0  0  0  0  0
  148.9665  136.0064  154.4847 H   0  0  0  0  0  0  0  0  0  0  0  0
  148.8612  136.7260  156.0945 H   0  0  0  0  0  0  0  0  0  0  0  0
  151.1498  141.1992  159.1515 H   0  0  0  0  0  0  0  0  0  0  0  0
  152.5154  141.6116  158.1397 H   0  0  0  0  0  0  0  0  0  0  0  0
  151.6929  142.9964  160.7418 H   0  0  0  0  0  0  0  0  0  0  0  0
  152.8375  140.8071  161.0916 H   0  0  0  0  0  0  0  0  0  0  0  0
  153.8560  142.1491  161.6045 H   0  0  0  0  0  0  0  0  0  0  0  0
  154.1755  141.3383  160.0734 H   0  0  0  0  0  0  0  0  0  0  0  0
  1  2  1  0  0  0  0
  1 26  1  0  0  0  0
  1 27  1  0  0  0  0
  1 28  1  0  0  0  0
  2 25  1  0  0  0  0
  2  3  1  0  0  0  0
  2 29  1  0  0  0  0
  3  4  1  0  0  0  0
  3 30  1  0  0  0  0
  3 31  1  0  0  0  0
  4  5  1  0  0  0  0
  4 22  1  0  0  0  0
  5  6  1  0  0  0  0
  5 32  1  0  0  0  0
  5 33  1  0  0  0  0
  6  7  1  0  0  0  0
  6 34  1  0  0  0  0
  6 35  1  0  0  0  0
  7  8  1  0  0  0  0
  7 36  1  0  0  0  0
  8  9  2  0  0  0  0
  8 10  1  0  0  0  0
 10 11  1  0  0  0  0
 10 37  1  0  0  0  0
 11 16  1  0  0  0  0
 11 12  2  0  0  0  0
 12 13  1  0  0  0  0
 12 38  1  0  0  0  0
 13 14  2  0  0  0  0
 13 39  1  0  0  0  0
 14 15  1  0  0  0  0
 14 40  1  0  0  0  0
 15 16  2  0  0  0  0
 16 17  1  0  0  0  0
 17 21  1  0  0  0  0
 17 18  1  0  0  0  0
 18 19  1  0  0  0  0
 18 41  1  0  0  0  0
 18 42  1  0  0  0  0
 19 20  1  0  0  0  0
 19 43  1  0  0  0  0
 19 44  1  0  0  0  0
 20 21  1  0  0  0  0
 20 45  1  0  0  0  0
 20 46  1  0  0  0  0
 21 47  1  0  0  0  0
 21 48  1  0  0  0  0
 22 23  1  0  0  0  0
 22 49  1  0  0  0  0
 22 50  1  0  0  0  0
 23 24  1  0  0  0  0
 23 25  1  0  0  0  0
 23 51  1  0  0  0  0
 24 52  1  0  0  0  0
 24 53  1  0  0  0  0
 24 54  1  0  0  0  0
M  END
> <s_m_source_file>
AV-unprocessed.smi

> <i_m_source_file_index>
1244

> <i_lp_mmshare_version>
43012

> <i_f3d_flags>
0

> <s_epik_input>
W0NIM11bQ0BASF0xW0NIMl1OKFtDSDJdW0NASF0oTzEpW0NIM10pW0NIMl1bQ0gyXVtOSF1DKD1PKVtOSF1jMltjSF1bY0hdW2NIXW5jMk4zW0NIMl1bQ0gyXVtDSDJdW0NIMl0z

> <s_epik_cmdline>
J2VwaWtfcHl0aG9uJywgJy1waCcsICc3LjAnLCAnLXRuJywgJzgnLCAnLW1hJywgJzIwMCcsICctbWV0YWxfYmluZGluZycsICctaW1hZScsICc8aW5maWxlLm1hZT4nLCAnLW9tYWUnLCAnPG91dGZpbGUubWFlPic=

> <r_lp_tautomer_probability>
1

> <r_epik_Ionization_Penalty>
0.363951

> <r_epik_Ionization_Penalty_Charging>
0

> <r_epik_Ionization_Penalty_Neutral>
0.363951

> <r_epik_State_Penalty>
0.349372

> <r_epik_Charging_Adjusted_Penalty>
0.349372

> <i_epik_Tot_Q>
0

> <i_epik_Tot_abs_Q>
0

> <r_epik_Metal_State_Penalty>
0.333054

> <b_epik_Metal_Only>
0

> <s_lp_Force_Field>
OPLS_2005

> <r_lp_Energy>
51.1959

> <b_lp_Chiralities_Consistent>
1

> <s_lp_Variant>
AV-unprocessed.smi:1244-1

> <Gold.Version>
5.8.1

> <Gold.Id.Protein>
6NUR|6NUR_protein|mol2

> <Gold.PLP.Fitness>
40.7995

> <Gold.PLP.PLP>
-37.0169

> <Gold.PLP.part.hbond>
-2.0000

> <Gold.PLP.part.metal>
0.0000

> <Gold.PLP.part.buried>
7.9224

> <Gold.PLP.part.nonpolar>
-43.9090

> <Gold.PLP.part.repulsive>
1.4971

> <Gold.PLP.ligand.clash>
0.0000

> <Gold.PLP.ligand.torsion>
0.9863

> <Gold.PLP.Chemscore.Hbond>
0.8009

> <Gold.PLP.Chemscore.CHOScore>
1.0000

> <Gold.PLP.Chemscore.Metal>
0.0000

> <Gold.Chemscore.Hbonds>
donor molecule, donor type, donor heavy atom, donor atom, acceptor molecule, acceptor atom, score
      P1  H  7989  7998       L1     9  0.03
      P1  H  8011  8017       L1     9  0.67
      L1  C    14    40       P1 10171  1.00

> <Gold.PLP.Chemscore.Internal.Correction>
0.3527

> <Gold.Rescore>
     Score         DG    S(hbond)    S(metal)    S(lipo)     H(rot)  DE(clash)    DE(int)     intcor
     12.87     -17.67       0.55        0.00     122.25       1.55       2.48       2.33       ----

> <Gold.Chemscore.Fitness>
12.8654

> <Gold.Chemscore.DG>
-17.6734

> <Gold.Chemscore.ZeroCoef>
-5.4800

> <Gold.Chemscore.Hbond>
0.5548

> <Gold.Chemscore.Metal>
0.0000

> <Gold.Chemscore.Lipo>
122.2488

> <Gold.Chemscore.Internal_Hbond>
0.0000

> <Gold.Chemscore.DEClash>
2.4762

> <Gold.Chemscore.DEInternal>
2.3318

> <Gold.Chemscore.Rot>
1.5479

> <Gold.Chemscore.Internal.Correction>
   9.000000E+99

> <Gold.Chemscore.Hbonds>
donor molecule, donor type, donor heavy atom, donor atom, acceptor molecule, acceptor atom, score
      P1  H  8011  8017       L1     9  0.65

> <Gold.Chemscore.Hbond.Weighted>
-1.8531

> <Gold.Chemscore.Metal.Weighted>
-0.0000

> <Gold.Chemscore.Lipo.Weighted>
-14.3031

> <Gold.Chemscore.Internal_Hbond.Weighted>
0.0000

> <Gold.Chemscore.DEClash.Weighted>
2.4762

> <Gold.Chemscore.DEInternal.Weighted>
2.3318

> <Gold.Chemscore.Rot.Weighted>
3.9627

> <Gold.Chemscore.Internal.Correction.Weighted>
   9.000000E+99

> <Gold.Protein.RotatedTorsions>
[ 6907 6896 6895 6894 ] final  118.13 input  -60.11 | X-H torsion
[ 7974 7965 7964 7962 ] final -142.90 input  175.53 | X-H torsion
[ 8008 7997 7996 7995 ] final  -62.34 input   59.86 | X-H torsion
[ 10167 10162 10161 10158 ] final   71.45 input  -65.29 | X-H torsion
[ 10718 10713 10712 10709 ] final  -27.34 input   66.30 | X-H torsion
[ 10763 10752 10751 10750 ] final   99.35 input  -60.55 | X-H torsion
[ 11005 11000 10999 10996 ] final   24.09 input  -57.11 | X-H torsion

> <Gold.Protein.ActiveResidues>
 VAL166  LYS551  ARG553  GLY616  TRP617  ASP618  TYR619  PRO620  LYS621  CYS622 
 ASP623  PHE694  ASN695  SER759  ASP760  ASP761  ALA762  ILE779  LEU786  VAL792 
 PHE793  MET794  SER795  GLU796  ALA797  LYS798  CYS799  TRP800  GLU811  SER814 

> <Gold.Protein.RotatedAtoms>
  152.4564  133.7732  159.6809 H   0  0  0  0  0  0  0  0  0  0  0  0  # atno 6907 bound_to 6896
  150.8492  133.7804  159.3038 H   0  0  0  0  0  0  0  0  0  0  0  0  # atno 6908 bound_to 6896
  151.5404  135.1071  159.9977 H   0  0  0  0  0  0  0  0  0  0  0  0  # atno 6909 bound_to 6896
  144.8409  140.5901  143.5453 H   0  0  0  0  0  0  0  0  0  0  0  0  # atno 7974 bound_to 7965
  154.4494  140.0998  156.6572 H   0  0  0  0  0  0  0  0  0  0  0  0  # atno 8008 bound_to 7997
  155.5333  140.3482  155.4412 H   0  0  0  0  0  0  0  0  0  0  0  0  # atno 8009 bound_to 7997
  156.0649  140.1335  156.9887 H   0  0  0  0  0  0  0  0  0  0  0  0  # atno 8010 bound_to 7997
  140.0459  144.5351  150.7399 H   0  0  0  0  0  0  0  0  0  0  0  0  # atno 10167 bound_to 10162
  156.4395  130.4461  149.7062 H   0  0  0  0  0  0  0  0  0  0  0  0  # atno 10718 bound_to 10713
  153.3004  135.4116  155.1247 H   0  0  0  0  0  0  0  0  0  0  0  0  # atno 10763 bound_to 10752
  154.8547  135.3540  154.5860 H   0  0  0  0  0  0  0  0  0  0  0  0  # atno 10764 bound_to 10752
  153.6285  135.7061  153.5342 H   0  0  0  0  0  0  0  0  0  0  0  0  # atno 10765 bound_to 10752
  140.3625  134.2110  155.7671 H   0  0  0  0  0  0  0  0  0  0  0  0  # atno 11005 bound_to 11000
  145.4696  139.1504  143.3821 LP  0  0  0  0  0  0  0  0  0  0  0  0  # atno 17320 bound_to 7965
  146.2701  140.4829  142.8818 LP  0  0  0  0  0  0  0  0  0  0  0  0  # atno 17321 bound_to 7965
  140.7239  143.2616  151.4187 LP  0  0  0  0  0  0  0  0  0  0  0  0  # atno 17342 bound_to 10162
  139.5984  144.1349  152.2170 LP  0  0  0  0  0  0  0  0  0  0  0  0  # atno 17343 bound_to 10162
  156.3933  130.7638  151.2640 LP  0  0  0  0  0  0  0  0  0  0  0  0  # atno 17370 bound_to 10713
  157.7506  131.0261  150.3949 LP  0  0  0  0  0  0  0  0  0  0  0  0  # atno 17371 bound_to 10713
  141.1979  133.8047  157.0604 LP  0  0  0  0  0  0  0  0  0  0  0  0  # atno 17394 bound_to 11000
  140.0615  134.9752  157.1313 LP  0  0  0  0  0  0  0  0  0  0  0  0  # atno 17395 bound_to 11000

$$$$
