#       Name:                AV-unprocessed.smi:2923
#       Creating user name   scv26
#       Creation time:       Fri Mar 27 16:10:22 2020


#       File generated by GOLD software.
#

@<TRIPOS>MOLECULE
AV-unprocessed.smi:2923
    52    54     1
SMALL
NO_CHARGES


@<TRIPOS>ATOM
      1 ****        -6.6666   1.1535  -0.5844 C.3            1 S1                 0.0000
      2 ****        -6.0164   1.5377   0.6590 N.3            1 S1                 0.0000
      3 ****        -6.6792   1.1240   1.8859 C.3            1 S1                 0.0000
      4 ****        -4.6414   1.2686   0.6640 C.ar           1 S1                 0.0000
      5 ****        -4.1513  -0.0569   0.6382 C.ar           1 S1                 0.0000
      6 ****        -2.7588  -0.2656   0.6402 C.ar           1 S1                 0.0000
      7 ****        -1.8994   0.8585   0.6606 C.ar           1 S1                 0.0000
      8 ****        -0.4808   0.7811   0.6804 N.am           1 S1                 0.0000
      9 ****         0.3068  -0.2256   0.2651 C.2            1 S1                 0.0000
     10 ****        -0.0869  -1.2874  -0.2170 O.2            1 S1                 0.0000
     11 ****         1.6025   0.0790   0.4176 N.am           1 S1                 0.0000
     12 ****         2.7049  -0.7951   0.0293 C.3            1 S1                 0.0000
     13 ****         4.0744  -0.2422   0.4542 C.3            1 S1                 0.0000
     14 ****         4.8982  -0.9814   1.4736 C.3            1 S1                 0.0000
     15 ****         5.8350  -1.8282   0.6071 C.3            1 S1                 0.0000
     16 ****         5.1704  -1.9279  -0.6502 O.3            1 S1                 0.0000
     17 ****         4.5730  -0.6622  -0.9203 C.3            1 S1                 0.0000
     18 ****         3.1264  -0.6799  -1.4581 C.3            1 S1                 0.0000
     19 ****         2.7582  -1.8618  -2.3563 C.3            1 S1                 0.0000
     20 ****         2.7208   0.5938  -2.2143 C.3            1 S1                 0.0000
     21 ****        -2.4927   2.1374   0.7025 C.ar           1 S1                 0.0000
     22 ****        -3.8264   2.3447   0.6995 N.ar           1 S1                 0.0000
     23 ****        -6.0979   1.5067  -1.4456 H              1 S1                 0.0000
     24 ****        -7.6638   1.5913  -0.6379 H              1 S1                 0.0000
     25 ****        -6.7655   0.0697  -0.6558 H              1 S1                 0.0000
     26 ****        -6.1280   1.4713   2.7607 H              1 S1                 0.0000
     27 ****        -6.7631   0.0378   1.9382 H              1 S1                 0.0000
     28 ****        -7.6834   1.5462   1.9316 H              1 S1                 0.0000
     29 ****        -4.8260  -0.9002   0.6214 H              1 S1                 0.0000
     30 ****        -2.3825  -1.2767   0.6395 H              1 S1                 0.0000
     31 ****        -0.0067   1.6203   0.9804 H              1 S1                 0.0000
     32 ****         1.8436   0.9738   0.8178 H              1 S1                 0.0000
     33 ****         2.5745  -1.8336   0.3427 H              1 S1                 0.0000
     34 ****         4.0755   0.8436   0.5661 H              1 S1                 0.0000
     35 ****         5.4552  -0.3116   2.1292 H              1 S1                 0.0000
     36 ****         4.2676  -1.6151   2.0981 H              1 S1                 0.0000
     37 ****         6.7891  -1.3190   0.4636 H              1 S1                 0.0000
     38 ****         6.0332  -2.8107   1.0359 H              1 S1                 0.0000
     39 ****         5.2533   0.0525  -1.3859 H              1 S1                 0.0000
     40 ****         3.3061  -1.8345  -3.2985 H              1 S1                 0.0000
     41 ****         1.6935  -1.8679  -2.5917 H              1 S1                 0.0000
     42 ****         2.9841  -2.8157  -1.8792 H              1 S1                 0.0000
     43 ****         3.2543   0.6808  -3.1613 H              1 S1                 0.0000
     44 ****         2.9427   1.4938  -1.6402 H              1 S1                 0.0000
     45 ****         1.6537   0.6073  -2.4389 H              1 S1                 0.0000
     46 ****        -1.8786   3.0256   0.7334 H              1 S1                 0.0000
     47 ****        -6.1222   2.5320   0.6693 LP             1 S1                 0.0000
     48 ****        -1.0669  -1.4542  -0.3258 LP             1 S1                 0.0000
     49 ****         0.5732  -1.9833  -0.4999 LP             1 S1                 0.0000
     50 ****         4.4657  -2.6362  -0.6087 LP             1 S1                 0.0000
     51 ****         5.8291  -2.1546  -1.3676 LP             1 S1                 0.0000
     52 ****        -4.2014   3.2714   0.7230 LP             1 S1                 0.0000
@<TRIPOS>BOND
    1    1    2 1     
    2    1   23 1     
    3    1   24 1     
    4    1   25 1     
    5    2    3 1     
    6    2    4 1     
    7    3   26 1     
    8    3   27 1     
    9    3   28 1     
   10    4   22 ar    
   11    4    5 ar    
   12    5    6 ar    
   13    5   29 1     
   14    6    7 ar    
   15    6   30 1     
   16    7    8 1     
   17    7   21 ar    
   18    8    9 am    
   19    8   31 1     
   20    9   10 2     
   21    9   11 am    
   22   11   12 1     
   23   11   32 1     
   24   12   18 1     
   25   12   13 1     
   26   12   33 1     
   27   13   17 1     
   28   13   14 1     
   29   13   34 1     
   30   14   15 1     
   31   14   35 1     
   32   14   36 1     
   33   15   16 1     
   34   15   37 1     
   35   15   38 1     
   36   16   17 1     
   37   17   18 1     
   38   17   39 1     
   39   18   19 1     
   40   18   20 1     
   41   19   40 1     
   42   19   41 1     
   43   19   42 1     
   44   20   43 1     
   45   20   44 1     
   46   20   45 1     
   47   21   22 ar    
   48   21   46 1     
   49    2   47 1     
   50   10   48 1     
   51   10   49 1     
   52   16   50 1     
   53   16   51 1     
   54   22   52 1     
@<TRIPOS>SUBSTRUCTURE
      1 S1             1
@<TRIPOS>SET
LONE_PAIRS      STATIC     ATOMS    <user>   **** ""
6 47 48 49 50 51 52
DONOR_HYDROGENS      STATIC     ATOMS    <user>   **** ""
2 31 32
ATOM$BLUE        STATIC     ATOMS    COLORGROUP SYSTEM
6 47 48 49 50 51 52
ATOM$RED        STATIC     ATOMS    COLORGROUP SYSTEM
2 31 32
