AV-unprocessed.smi:1691|AV-procd|sdf|6774|dock2
  -GOLD-   22720 7533D 1   1.00000     0.00000
 Structure written by MMmdl.
 44 45  0  0  0  0  0  0  0  0  2 V2000
  148.8199  141.0666  156.0884 C   0  0  0  0  0  0  0  0  0  0  0  0
  148.9259  140.8925  154.5610 C   0  0  0  0  0  0  0  0  0  0  0  0
  147.7893  141.6904  153.8905 C   0  0  0  0  0  0  0  0  0  0  0  0
  148.9295  139.3999  154.1164 C   0  0  2  0  0  0  0  0  0  0  0  0
  147.5078  138.7687  154.1288 C   0  0  0  0  0  0  0  0  0  0  0  0
  147.3718  137.6341  153.2197 N   0  0  0  0  0  0  0  0  0  0  0  0
  146.2173  137.0531  152.8638 C   0  0  0  0  0  0  0  0  0  0  0  0
  145.1153  137.4199  153.2707 O   0  0  0  0  0  0  0  0  0  0  0  0
  146.4275  136.0250  152.0264 N   0  0  0  0  0  0  0  0  0  0  0  0
  145.4507  135.1668  151.4628 C   0  0  0  0  0  0  0  0  0  0  0  0
  145.5526  133.7869  151.1180 C   0  0  0  0  0  0  0  0  0  0  0  0
  144.4151  133.3344  150.6108 N   0  0  0  0  0  0  0  0  0  0  0  0
  143.5908  134.4058  150.6296 N   0  0  0  0  0  0  0  0  0  0  0  0
  144.1803  135.5410  151.1405 C   0  0  0  0  0  0  0  0  0  0  0  0
  149.9428  138.6367  154.9125 N   0  3  0  0  0  0  0  0  0  0  0  0
  149.7985  137.1594  154.9260 C   0  0  0  0  0  0  0  0  0  0  0  0
  150.7491  136.5510  155.9701 C   0  0  0  0  0  0  0  0  0  0  0  0
  152.0859  136.9510  155.6898 O   0  0  0  0  0  0  0  0  0  0  0  0
  152.2498  138.3629  155.7583 C   0  0  0  0  0  0  0  0  0  0  0  0
  151.3558  139.0389  154.7055 C   0  0  0  0  0  0  0  0  0  0  0  0
  142.6396  134.3464  150.2946 H   0  0  0  0  0  0  0  0  0  0  0  0
  147.9512  140.5432  156.4892 H   0  0  0  0  0  0  0  0  0  0  0  0
  148.7229  142.1188  156.3580 H   0  0  0  0  0  0  0  0  0  0  0  0
  149.7059  140.6984  156.6048 H   0  0  0  0  0  0  0  0  0  0  0  0
  149.8677  141.3491  154.2553 H   0  0  0  0  0  0  0  0  0  0  0  0
  146.8141  141.2607  154.1218 H   0  0  0  0  0  0  0  0  0  0  0  0
  147.8933  141.7194  152.8058 H   0  0  0  0  0  0  0  0  0  0  0  0
  147.7818  142.7260  154.2317 H   0  0  0  0  0  0  0  0  0  0  0  0
  149.2700  139.3967  153.0796 H   0  0  0  0  0  0  0  0  0  0  0  0
  147.2233  138.5068  155.1490 H   0  0  0  0  0  0  0  0  0  0  0  0
  146.7700  139.4955  153.7925 H   0  0  0  0  0  0  0  0  0  0  0  0
  148.2254  137.2659  152.8257 H   0  0  0  0  0  0  0  0  0  0  0  0
  147.3844  135.8301  151.7708 H   0  0  0  0  0  0  0  0  0  0  0  0
  146.3868  133.1076  151.2122 H   0  0  0  0  0  0  0  0  0  0  0  0
  143.6597  136.4834  151.2254 H   0  0  0  0  0  0  0  0  0  0  0  0
  148.7712  136.8797  155.1584 H   0  0  0  0  0  0  0  0  0  0  0  0
  150.0315  136.7431  153.9473 H   0  0  0  0  0  0  0  0  0  0  0  0
  150.4681  136.8580  156.9789 H   0  0  0  0  0  0  0  0  0  0  0  0
  150.6925  135.4627  155.9405 H   0  0  0  0  0  0  0  0  0  0  0  0
  152.0101  138.7204  156.7610 H   0  0  0  0  0  0  0  0  0  0  0  0
  153.2965  138.6072  155.5752 H   0  0  0  0  0  0  0  0  0  0  0  0
  151.6977  138.7565  153.7111 H   0  0  0  0  0  0  0  0  0  0  0  0
  151.4535  140.1220  154.7858 H   0  0  0  0  0  0  0  0  0  0  0  0
  149.7536  138.9203  155.8633 H   0  0  0  0  0  0  0  0  0  0  0  0
  1  2  1  0  0  0  0
  1 22  1  0  0  0  0
  1 23  1  0  0  0  0
  1 24  1  0  0  0  0
  2  3  1  0  0  0  0
  2  4  1  0  0  0  0
  2 25  1  0  0  0  0
  3 26  1  0  0  0  0
  3 27  1  0  0  0  0
  3 28  1  0  0  0  0
  4  5  1  0  0  0  0
  4 15  1  0  0  0  0
  4 29  1  0  0  0  0
  5  6  1  0  0  0  0
  5 30  1  0  0  0  0
  5 31  1  0  0  0  0
  6  7  1  0  0  0  0
  6 32  1  0  0  0  0
  7  8  2  0  0  0  0
  7  9  1  0  0  0  0
  9 10  1  0  0  0  0
  9 33  1  0  0  0  0
 10 14  2  0  0  0  0
 10 11  1  0  0  0  0
 11 12  2  0  0  0  0
 11 34  1  0  0  0  0
 12 13  1  0  0  0  0
 13 21  1  0  0  0  0
 13 14  1  0  0  0  0
 14 35  1  0  0  0  0
 15 20  1  0  0  0  0
 15 16  1  0  0  0  0
 15 44  1  0  0  0  0
 16 17  1  0  0  0  0
 16 36  1  0  0  0  0
 16 37  1  0  0  0  0
 17 18  1  0  0  0  0
 17 38  1  0  0  0  0
 17 39  1  0  0  0  0
 18 19  1  0  0  0  0
 19 20  1  0  0  0  0
 19 40  1  0  0  0  0
 19 41  1  0  0  0  0
 20 42  1  0  0  0  0
 20 43  1  0  0  0  0
M  CHG  1  15   1
M  END
> <s_m_source_file>
AV-unprocessed.smi

> <i_m_source_file_index>
1691

> <i_lp_mmshare_version>
43012

> <i_f3d_flags>
0

> <s_epik_input>
W0NIMl0xW0NIMl1PW0NIMl1bQ0gyXU4xW0NASF0oW0NIXShbQ0gzXSlbQ0gzXSlbQ0gyXVtOSF1DKD1PKVtOSF1jMltjSF1uW25IXVtjSF0y

> <s_epik_cmdline>
J2VwaWtfcHl0aG9uJywgJy1waCcsICc3LjAnLCAnLXRuJywgJzgnLCAnLW1hJywgJzIwMCcsICctbWV0YWxfYmluZGluZycsICctaW1hZScsICc8aW5maWxlLm1hZT4nLCAnLW9tYWUnLCAnPG91dGZpbGUubWFlPic=

> <r_lp_tautomer_probability>
0.5

> <r_epik_Ionization_Penalty>
0.363378

> <r_epik_Ionization_Penalty_Charging>
0.363339

> <r_epik_Ionization_Penalty_Neutral>
3.97246e-05

> <r_epik_State_Penalty>
0.36031

> <r_epik_Charging_Adjusted_Penalty>
0.723649

> <i_epik_Tot_Q>
1

> <i_epik_Tot_abs_Q>
1

> <r_epik_Metal_State_Penalty>
0.360311

> <b_epik_Metal_Only>
0

> <s_lp_Force_Field>
OPLS_2005

> <r_lp_Energy>
33.682

> <b_lp_Chiralities_Consistent>
1

> <s_lp_Variant>
AV-unprocessed.smi:1691-1

> <Gold.Version>
5.8.1

> <Gold.Id.Protein>
6NUR|6NUR_protein|mol2

> <Gold.PLP.Fitness>
42.5306

> <Gold.PLP.PLP>
-29.1060

> <Gold.PLP.part.hbond>
-3.8489

> <Gold.PLP.part.metal>
0.0000

> <Gold.PLP.part.buried>
-3.1116

> <Gold.PLP.part.nonpolar>
-22.6776

> <Gold.PLP.part.repulsive>
0.5048

> <Gold.PLP.ligand.clash>
0.0000

> <Gold.PLP.ligand.torsion>
0.9326

> <Gold.PLP.Chemscore.Hbond>
4.0000

> <Gold.PLP.Chemscore.CHOScore>
1.0000

> <Gold.PLP.Chemscore.Metal>
0.0000

> <Gold.Chemscore.Hbonds>
donor molecule, donor type, donor heavy atom, donor atom, acceptor molecule, acceptor atom, score
      L1  H     6    32       P1  7948  1.00
      L1  H     9    33       P1  7948  1.00
      L1  H    13    21       P1 10186  1.00
      P1  H 10752 10763       L1    18  0.99
      L1  C    14    35       P1 10171  1.00

> <Gold.PLP.Chemscore.Internal.Correction>
0.2897

> <Gold.Rescore>
     Score         DG    S(hbond)    S(metal)    S(lipo)     H(rot)  DE(clash)    DE(int)     intcor
     18.27     -20.67       3.63        0.00      66.68       1.84       0.30       2.11       ----

> <Gold.Chemscore.Fitness>
18.2651

> <Gold.Chemscore.DG>
-20.6727

> <Gold.Chemscore.ZeroCoef>
-5.4800

> <Gold.Chemscore.Hbond>
3.6251

> <Gold.Chemscore.Metal>
0.0000

> <Gold.Chemscore.Lipo>
66.6801

> <Gold.Chemscore.Internal_Hbond>
0.0000

> <Gold.Chemscore.DEClash>
0.3023

> <Gold.Chemscore.DEInternal>
2.1054

> <Gold.Chemscore.Rot>
1.8425

> <Gold.Chemscore.Internal.Correction>
   9.000000E+99

> <Gold.Chemscore.Hbonds>
donor molecule, donor type, donor heavy atom, donor atom, acceptor molecule, acceptor atom, score
      L1  H     6    32       P1  7948  0.92
      L1  H     9    33       P1  7948  0.93
      L1  H    13    21       P1 10186  0.74
      P1  H 10752 10763       L1    18  0.70

> <Gold.Chemscore.Hbond.Weighted>
-12.1080

> <Gold.Chemscore.Metal.Weighted>
-0.0000

> <Gold.Chemscore.Lipo.Weighted>
-7.8016

> <Gold.Chemscore.Internal_Hbond.Weighted>
0.0000

> <Gold.Chemscore.DEClash.Weighted>
0.3023

> <Gold.Chemscore.DEInternal.Weighted>
2.1054

> <Gold.Chemscore.Rot.Weighted>
4.7168

> <Gold.Chemscore.Internal.Correction.Weighted>
   9.000000E+99

> <Gold.Protein.RotatedTorsions>
[ 6907 6896 6895 6894 ] final    0.40 input  -60.11 | X-H torsion
[ 7974 7965 7964 7962 ] final   21.20 input  175.53 | X-H torsion
[ 8008 7997 7996 7995 ] final -120.33 input   59.86 | X-H torsion
[ 10167 10162 10161 10158 ] final -166.68 input  -65.29 | X-H torsion
[ 10718 10713 10712 10709 ] final  -56.03 input   66.30 | X-H torsion
[ 10763 10752 10751 10750 ] final   75.84 input  -60.55 | X-H torsion
[ 11005 11000 10999 10996 ] final  -36.16 input  -57.11 | X-H torsion

> <Gold.Protein.ActiveResidues>
 VAL166  LYS551  ARG553  GLY616  TRP617  ASP618  TYR619  PRO620  LYS621  CYS622 
 ASP623  PHE694  ASN695  SER759  ASP760  ASP761  ALA762  ILE779  LEU786  VAL792 
 PHE793  MET794  SER795  GLU796  ALA797  LYS798  CYS799  TRP800  GLU811  SER814 

> <Gold.Protein.RotatedAtoms>
  151.5759  135.1060  160.0005 H   0  0  0  0  0  0  0  0  0  0  0  0  # atno 6907 bound_to 6896
  152.4378  133.7388  159.6640 H   0  0  0  0  0  0  0  0  0  0  0  0  # atno 6908 bound_to 6896
  150.8278  133.8072  159.3134 H   0  0  0  0  0  0  0  0  0  0  0  0  # atno 6909 bound_to 6896
  146.2081  139.8061  142.8710 H   0  0  0  0  0  0  0  0  0  0  0  0  # atno 7974 bound_to 7965
  155.1300  140.0400  157.2772 H   0  0  0  0  0  0  0  0  0  0  0  0  # atno 8008 bound_to 7997
  154.6550  140.2578  155.7146 H   0  0  0  0  0  0  0  0  0  0  0  0  # atno 8009 bound_to 7997
  156.2594  140.2828  156.0999 H   0  0  0  0  0  0  0  0  0  0  0  0  # atno 8010 bound_to 7997
  139.6099  144.0836  152.1831 H   0  0  0  0  0  0  0  0  0  0  0  0  # atno 10167 bound_to 10162
  156.1321  130.4159  150.0250 H   0  0  0  0  0  0  0  0  0  0  0  0  # atno 10718 bound_to 10713
  153.0683  135.4973  154.8249 H   0  0  0  0  0  0  0  0  0  0  0  0  # atno 10763 bound_to 10752
  154.6986  135.2997  154.9377 H   0  0  0  0  0  0  0  0  0  0  0  0  # atno 10764 bound_to 10752
  154.0109  135.6754  153.4818 H   0  0  0  0  0  0  0  0  0  0  0  0  # atno 10765 bound_to 10752
  140.9853  133.7034  156.1755 H   0  0  0  0  0  0  0  0  0  0  0  0  # atno 11005 bound_to 11000
  145.3245  141.0252  143.3481 LP  0  0  0  0  0  0  0  0  0  0  0  0  # atno 17320 bound_to 7965
  144.8843  139.4861  143.6708 LP  0  0  0  0  0  0  0  0  0  0  0  0  # atno 17321 bound_to 7965
  140.0452  144.5976  150.7379 LP  0  0  0  0  0  0  0  0  0  0  0  0  # atno 17342 bound_to 10162
  140.7311  143.2691  151.3946 LP  0  0  0  0  0  0  0  0  0  0  0  0  # atno 17343 bound_to 10162
  156.8159  130.9341  151.3643 LP  0  0  0  0  0  0  0  0  0  0  0  0  # atno 17370 bound_to 10713
  157.6498  130.8874  149.9610 LP  0  0  0  0  0  0  0  0  0  0  0  0  # atno 17371 bound_to 10713
  140.7124  134.4447  157.5580 LP  0  0  0  0  0  0  0  0  0  0  0  0  # atno 17394 bound_to 11000
  139.8968  134.8652  156.2073 LP  0  0  0  0  0  0  0  0  0  0  0  0  # atno 17395 bound_to 11000

$$$$
