AV-unprocessed.smi:1703|AV-procd|sdf|6860|dock8
  -GOLD-   22720 8 53D 1   1.00000     0.00000
 Structure written by MMmdl.
 49 51  0  0  0  0  0  0  0  0  2 V2000
  149.9284  132.3995  156.2349 C   0  0  0  0  0  0  0  0  0  0  0  0
  149.6332  133.9031  156.2476 C   0  0  1  0  0  0  0  0  0  0  0  0
  149.6823  134.5150  154.8320 C   0  0  0  0  0  0  0  0  0  0  0  0
  149.3121  135.9508  154.8514 N   0  3  2  0  0  0  0  0  0  0  0  0
  150.4000  136.8385  155.3410 C   0  0  0  0  0  0  0  0  0  0  0  0
  150.2618  138.2851  154.8134 C   0  0  2  0  0  0  0  0  0  0  0  0
  150.2220  138.2563  153.4015 O   0  0  0  0  0  0  0  0  0  0  0  0
  151.4084  139.2202  155.2482 C   0  0  0  0  0  0  0  0  0  0  0  0
  150.9377  140.3217  156.0796 N   0  0  0  0  0  0  0  0  0  0  0  0
  149.8831  141.1514  155.8699 C   0  0  0  0  0  0  0  0  0  0  0  0
  148.9888  141.0295  154.6740 C   0  0  0  0  0  0  0  0  0  0  0  0
  149.7066  140.9629  153.4607 O   0  0  0  0  0  0  0  0  0  0  0  0
  149.6991  142.0984  156.7898 N   0  0  0  0  0  0  0  0  0  0  0  0
  150.7206  141.8559  157.6865 C   0  0  0  0  0  0  0  0  0  0  0  0
  151.0714  142.5241  158.8812 C   0  0  0  0  0  0  0  0  0  0  0  0
  152.1763  142.0914  159.6431 C   0  0  0  0  0  0  0  0  0  0  0  0
  152.9435  140.9856  159.2234 C   0  0  0  0  0  0  0  0  0  0  0  0
  152.6118  140.3066  158.0353 C   0  0  0  0  0  0  0  0  0  0  0  0
  151.5103  140.7449  157.2758 C   0  0  0  0  0  0  0  0  0  0  0  0
  148.0052  136.1374  155.5357 C   0  0  0  0  0  0  0  0  0  0  0  0
  147.9859  135.4685  156.9276 C   0  0  1  0  0  0  0  0  0  0  0  0
  146.6048  135.5550  157.5859 C   0  0  0  0  0  0  0  0  0  0  0  0
  148.3302  134.0941  156.7891 O   0  0  0  0  0  0  0  0  0  0  0  0
  150.9232  132.1982  155.8368 H   0  0  0  0  0  0  0  0  0  0  0  0
  149.2065  131.8598  155.6210 H   0  0  0  0  0  0  0  0  0  0  0  0
  149.8843  131.9850  157.2424 H   0  0  0  0  0  0  0  0  0  0  0  0
  150.3662  134.3904  156.8928 H   0  0  0  0  0  0  0  0  0  0  0  0
  150.6668  134.3812  154.3817 H   0  0  0  0  0  0  0  0  0  0  0  0
  148.9779  133.9909  154.1845 H   0  0  0  0  0  0  0  0  0  0  0  0
  150.4067  136.8126  156.4287 H   0  0  0  0  0  0  0  0  0  0  0  0
  151.3725  136.4491  155.0362 H   0  0  0  0  0  0  0  0  0  0  0  0
  149.3251  138.7245  155.1506 H   0  0  0  0  0  0  0  0  0  0  0  0
  149.7161  137.5068  153.1262 H   0  0  0  0  0  0  0  0  0  0  0  0
  152.1752  138.6569  155.7787 H   0  0  0  0  0  0  0  0  0  0  0  0
  151.8978  139.6458  154.3710 H   0  0  0  0  0  0  0  0  0  0  0  0
  148.3812  140.1286  154.7673 H   0  0  0  0  0  0  0  0  0  0  0  0
  148.2971  141.8717  154.6453 H   0  0  0  0  0  0  0  0  0  0  0  0
  149.2811  140.3389  152.8927 H   0  0  0  0  0  0  0  0  0  0  0  0
  150.4887  143.3709  159.2127 H   0  0  0  0  0  0  0  0  0  0  0  0
  152.4345  142.6085  160.5557 H   0  0  0  0  0  0  0  0  0  0  0  0
  153.7858  140.6580  159.8151 H   0  0  0  0  0  0  0  0  0  0  0  0
  153.1975  139.4581  157.7148 H   0  0  0  0  0  0  0  0  0  0  0  0
  147.7469  137.1923  155.6199 H   0  0  0  0  0  0  0  0  0  0  0  0
  147.2337  135.6876  154.9093 H   0  0  0  0  0  0  0  0  0  0  0  0
  148.7026  135.9513  157.5930 H   0  0  0  0  0  0  0  0  0  0  0  0
  146.3024  136.5932  157.7260 H   0  0  0  0  0  0  0  0  0  0  0  0
  146.6096  135.0766  158.5655 H   0  0  0  0  0  0  0  0  0  0  0  0
  145.8444  135.0633  156.9786 H   0  0  0  0  0  0  0  0  0  0  0  0
  149.1758  136.2147  153.8855 H   0  0  0  0  0  0  0  0  0  0  0  0
  1  2  1  0  0  0  0
  1 24  1  0  0  0  0
  1 25  1  0  0  0  0
  1 26  1  0  0  0  0
  2 23  1  0  0  0  0
  2  3  1  0  0  0  0
  2 27  1  0  0  0  0
  3  4  1  0  0  0  0
  3 28  1  0  0  0  0
  3 29  1  0  0  0  0
  4  5  1  0  0  0  0
  4 20  1  0  0  0  0
  4 49  1  0  0  0  0
  5  6  1  0  0  0  0
  5 30  1  0  0  0  0
  5 31  1  0  0  0  0
  6  7  1  0  0  0  0
  6  8  1  0  0  0  0
  6 32  1  0  0  0  0
  7 33  1  0  0  0  0
  8  9  1  0  0  0  0
  8 34  1  0  0  0  0
  8 35  1  0  0  0  0
  9 19  1  0  0  0  0
  9 10  1  0  0  0  0
 10 11  1  0  0  0  0
 10 13  2  0  0  0  0
 11 12  1  0  0  0  0
 11 36  1  0  0  0  0
 11 37  1  0  0  0  0
 12 38  1  0  0  0  0
 13 14  1  0  0  0  0
 14 19  2  0  0  0  0
 14 15  1  0  0  0  0
 15 16  2  0  0  0  0
 15 39  1  0  0  0  0
 16 17  1  0  0  0  0
 16 40  1  0  0  0  0
 17 18  2  0  0  0  0
 17 41  1  0  0  0  0
 18 19  1  0  0  0  0
 18 42  1  0  0  0  0
 20 21  1  0  0  0  0
 20 43  1  0  0  0  0
 20 44  1  0  0  0  0
 21 22  1  0  0  0  0
 21 23  1  0  0  0  0
 21 45  1  0  0  0  0
 22 46  1  0  0  0  0
 22 47  1  0  0  0  0
 22 48  1  0  0  0  0
M  CHG  1   4   1
M  END
> <s_m_source_file>
AV-unprocessed.smi

> <i_m_source_file_index>
1703

> <i_lp_mmshare_version>
43012

> <i_f3d_flags>
0

> <s_epik_input>
W0NIM11bQ0BASF0xW0NIMl1OKFtDSDJdW0NASF0oTzEpW0NIM10pW0NIMl1bQ0BIXShbT0hdKVtDSDJdbihjKG4yKVtDSDJdW09IXSljKGMyMylbY0hdW2NIXVtjSF1bY0hdMw==

> <s_epik_cmdline>
J2VwaWtfcHl0aG9uJywgJy1waCcsICc3LjAnLCAnLXRuJywgJzgnLCAnLW1hJywgJzIwMCcsICctbWV0YWxfYmluZGluZycsICctaW1hZScsICc8aW5maWxlLm1hZT4nLCAnLW9tYWUnLCAnPG91dGZpbGUubWFlPic=

> <r_epik_Ionization_Penalty>
0.655661

> <r_epik_Ionization_Penalty_Charging>
0.608065

> <r_epik_Ionization_Penalty_Neutral>
0.0475963

> <r_epik_State_Penalty>
0.695267

> <r_epik_Charging_Adjusted_Penalty>
1.30333

> <i_epik_Tot_Q>
1

> <i_epik_Tot_abs_Q>
1

> <r_epik_Metal_State_Penalty>
0.653591

> <b_epik_Metal_Only>
0

> <s_lp_Force_Field>
OPLS_2005

> <r_lp_Energy>
23.3655

> <b_lp_Chiralities_Consistent>
1

> <s_lp_Variant>
AV-unprocessed.smi:1703-8

> <Gold.Version>
5.8.1

> <Gold.Id.Protein>
6NUR|6NUR_protein|mol2

> <Gold.PLP.Fitness>
48.6691

> <Gold.PLP.PLP>
-36.3869

> <Gold.PLP.part.hbond>
-6.5836

> <Gold.PLP.part.metal>
0.0000

> <Gold.PLP.part.buried>
-1.6332

> <Gold.PLP.part.nonpolar>
-28.2914

> <Gold.PLP.part.repulsive>
0.7423

> <Gold.PLP.ligand.clash>
0.0000

> <Gold.PLP.ligand.torsion>
1.1747

> <Gold.PLP.Chemscore.Hbond>
4.8480

> <Gold.PLP.Chemscore.CHOScore>
0.0000

> <Gold.PLP.Chemscore.Metal>
0.0000

> <Gold.Chemscore.Hbonds>
donor molecule, donor type, donor heavy atom, donor atom, acceptor molecule, acceptor atom, score
      L1  H     4    49       P1  7948  2.00
      L1  H     7    33       P1  7948  1.00
      L1  H    12    38       P1  7957  0.54
      P1  H  7989  7998       L1    12  0.26
      P1  H  8011  8017       L1    12  1.00

> <Gold.PLP.Chemscore.Internal.Correction>
0.0875

> <Gold.Rescore>
     Score         DG    S(hbond)    S(metal)    S(lipo)     H(rot)  DE(clash)    DE(int)     intcor
     15.22     -18.28       3.04        0.00      87.26       2.96       1.22       1.84       ----

> <Gold.Chemscore.Fitness>
15.2198

> <Gold.Chemscore.DG>
-18.2786

> <Gold.Chemscore.ZeroCoef>
-5.4800

> <Gold.Chemscore.Hbond>
3.0449

> <Gold.Chemscore.Metal>
0.0000

> <Gold.Chemscore.Lipo>
87.2572

> <Gold.Chemscore.Internal_Hbond>
0.0000

> <Gold.Chemscore.DEClash>
1.2199

> <Gold.Chemscore.DEInternal>
1.8389

> <Gold.Chemscore.Rot>
2.9611

> <Gold.Chemscore.Internal.Correction>
   9.000000E+99

> <Gold.Chemscore.Hbonds>
donor molecule, donor type, donor heavy atom, donor atom, acceptor molecule, acceptor atom, score
      L1  H     4    49       P1  7948  0.89
      L1  H     7    33       P1  7948  0.64
      L1  H    12    38       P1  7957  0.54
      P1  H  7989  7998       L1    12  0.23
      P1  H  8011  8017       L1    12  0.25

> <Gold.Chemscore.Hbond.Weighted>
-10.1698

> <Gold.Chemscore.Metal.Weighted>
-0.0000

> <Gold.Chemscore.Lipo.Weighted>
-10.2091

> <Gold.Chemscore.Internal_Hbond.Weighted>
0.0000

> <Gold.Chemscore.DEClash.Weighted>
1.2199

> <Gold.Chemscore.DEInternal.Weighted>
1.8389

> <Gold.Chemscore.Rot.Weighted>
7.5803

> <Gold.Chemscore.Internal.Correction.Weighted>
   9.000000E+99

> <Gold.Protein.RotatedTorsions>
[ 6907 6896 6895 6894 ] final   -1.08 input  -60.11 | X-H torsion
[ 7974 7965 7964 7962 ] final   58.38 input  175.53 | X-H torsion
[ 8008 7997 7996 7995 ] final  -47.98 input   59.86 | X-H torsion
[ 10167 10162 10161 10158 ] final  -44.29 input  -65.29 | X-H torsion
[ 10718 10713 10712 10709 ] final   -7.86 input   66.30 | X-H torsion
[ 10763 10752 10751 10750 ] final   83.79 input  -60.55 | X-H torsion
[ 11005 11000 10999 10996 ] final -121.56 input  -57.11 | X-H torsion

> <Gold.Protein.ActiveResidues>
 VAL166  LYS551  ARG553  GLY616  TRP617  ASP618  TYR619  PRO620  LYS621  CYS622 
 ASP623  PHE694  ASN695  SER759  ASP760  ASP761  ALA762  ILE779  LEU786  VAL792 
 PHE793  MET794  SER795  GLU796  ALA797  LYS798  CYS799  TRP800  GLU811  SER814 

> <Gold.Protein.RotatedAtoms>
  151.5519  135.1067  159.9951 H   0  0  0  0  0  0  0  0  0  0  0  0  # atno 6907 bound_to 6896
  152.4487  133.7583  159.6743 H   0  0  0  0  0  0  0  0  0  0  0  0  # atno 6908 bound_to 6896
  150.8410  133.7869  159.3085 H   0  0  0  0  0  0  0  0  0  0  0  0  # atno 6909 bound_to 6896
  145.9188  139.3712  143.0491 H   0  0  0  0  0  0  0  0  0  0  0  0  # atno 7974 bound_to 7965
  154.4023  140.1333  156.4264 H   0  0  0  0  0  0  0  0  0  0  0  0  # atno 8008 bound_to 7997
  155.7593  140.3486  155.5169 H   0  0  0  0  0  0  0  0  0  0  0  0  # atno 8009 bound_to 7997
  155.8874  140.0997  157.1433 H   0  0  0  0  0  0  0  0  0  0  0  0  # atno 8010 bound_to 7997
  140.6902  143.2938  151.3474 H   0  0  0  0  0  0  0  0  0  0  0  0  # atno 10167 bound_to 10162
  156.7110  130.5122  149.5892 H   0  0  0  0  0  0  0  0  0  0  0  0  # atno 10718 bound_to 10713
  153.1323  135.4678  154.9367 H   0  0  0  0  0  0  0  0  0  0  0  0  # atno 10763 bound_to 10752
  154.7675  135.3149  154.8260 H   0  0  0  0  0  0  0  0  0  0  0  0  # atno 10764 bound_to 10752
  153.8799  135.6895  153.4821 H   0  0  0  0  0  0  0  0  0  0  0  0  # atno 10765 bound_to 10752
  141.0061  134.0332  157.3475 H   0  0  0  0  0  0  0  0  0  0  0  0  # atno 11005 bound_to 11000
  145.8577  140.9493  143.0716 LP  0  0  0  0  0  0  0  0  0  0  0  0  # atno 17320 bound_to 7965
  144.6750  140.0490  143.7479 LP  0  0  0  0  0  0  0  0  0  0  0  0  # atno 17321 bound_to 7965
  139.6298  144.0742  152.2466 LP  0  0  0  0  0  0  0  0  0  0  0  0  # atno 17342 bound_to 10162
  140.0214  144.6150  150.7564 LP  0  0  0  0  0  0  0  0  0  0  0  0  # atno 17343 bound_to 10162
  156.1661  130.6406  151.0779 LP  0  0  0  0  0  0  0  0  0  0  0  0  # atno 17370 bound_to 10713
  157.6936  131.0802  150.7036 LP  0  0  0  0  0  0  0  0  0  0  0  0  # atno 17371 bound_to 10713
  139.9064  135.0180  156.7504 LP  0  0  0  0  0  0  0  0  0  0  0  0  # atno 17394 bound_to 11000
  140.6810  133.9474  155.7910 LP  0  0  0  0  0  0  0  0  0  0  0  0  # atno 17395 bound_to 11000

$$$$
