AV-unprocessed.smi:1505|AV-procd|sdf|6075|dock4
  -GOLD-   22720 6193D 1   1.00000     0.00000
 Structure written by MMmdl.
 44 45  0  0  0  0  0  0  0  0  1 V2000
  152.5889  133.2664  165.2992 C   0  0  0  0  0  0  0  0  0  0  0  0
  153.3770  132.8395  164.0589 C   0  0  0  0  0  0  0  0  0  0  0  0
  153.0342  131.8068  163.4830 O   0  0  0  0  0  0  0  0  0  0  0  0
  154.4178  133.5997  163.6416 N   0  0  0  0  0  0  0  0  0  0  0  0
  155.2209  133.3523  162.4383 C   0  0  0  0  0  0  0  0  0  0  0  0
  154.8753  134.4195  161.3861 C   0  0  0  0  0  0  0  0  0  0  0  0
  155.0859  135.8496  161.9422 C   0  0  0  0  0  0  0  0  0  0  0  0
  154.5599  136.8420  161.0104 N   0  0  0  0  0  0  0  0  0  0  0  0
  154.4990  138.1586  161.2505 C   0  0  0  0  0  0  0  0  0  0  0  0
  154.7933  138.6760  162.3287 O   0  0  0  0  0  0  0  0  0  0  0  0
  154.1432  138.8480  160.1564 N   0  0  0  0  0  0  0  0  0  0  0  0
  154.2066  140.3024  160.0234 C   0  0  0  0  0  0  0  0  0  0  0  0
  153.4562  141.0198  161.1649 C   0  0  0  0  0  0  0  0  0  0  0  0
  152.9513  142.3841  160.7706 C   0  0  0  0  0  0  0  0  0  0  0  0
  152.2426  143.3186  161.5792 C   0  0  0  0  0  0  0  0  0  0  0  0
  151.8913  144.4095  160.9188 N   0  0  0  0  0  0  0  0  0  0  0  0
  152.3671  144.2137  159.6722 N   0  0  0  0  0  0  0  0  0  0  0  0
  152.1462  145.2227  158.6592 C   0  0  0  0  0  0  0  0  0  0  0  0
  153.0199  143.0054  159.5555 C   0  0  0  0  0  0  0  0  0  0  0  0
  154.4104  136.0238  163.3197 C   0  0  0  0  0  0  0  0  0  0  0  0
  154.7760  134.8736  164.2758 C   0  0  0  0  0  0  0  0  0  0  0  0
  153.2433  133.3385  166.1685 H   0  0  0  0  0  0  0  0  0  0  0  0
  151.8107  132.5378  165.5293 H   0  0  0  0  0  0  0  0  0  0  0  0
  152.1054  134.2299  165.1369 H   0  0  0  0  0  0  0  0  0  0  0  0
  156.2795  133.4136  162.6949 H   0  0  0  0  0  0  0  0  0  0  0  0
  155.0834  132.3577  162.0168 H   0  0  0  0  0  0  0  0  0  0  0  0
  155.4826  134.2647  160.4933 H   0  0  0  0  0  0  0  0  0  0  0  0
  153.8371  134.2914  161.0753 H   0  0  0  0  0  0  0  0  0  0  0  0
  156.1568  136.0167  162.0724 H   0  0  0  0  0  0  0  0  0  0  0  0
  154.2982  136.5118  160.0931 H   0  0  0  0  0  0  0  0  0  0  0  0
  153.9127  138.3271  159.3230 H   0  0  0  0  0  0  0  0  0  0  0  0
  155.2536  140.6057  160.0230 H   0  0  0  0  0  0  0  0  0  0  0  0
  153.8014  140.6159  159.0597 H   0  0  0  0  0  0  0  0  0  0  0  0
  152.6246  140.3909  161.4846 H   0  0  0  0  0  0  0  0  0  0  0  0
  154.1145  141.0911  162.0311 H   0  0  0  0  0  0  0  0  0  0  0  0
  151.9579  143.2272  162.6170 H   0  0  0  0  0  0  0  0  0  0  0  0
  152.5992  144.9125  157.7172 H   0  0  0  0  0  0  0  0  0  0  0  0
  152.5925  146.1664  158.9738 H   0  0  0  0  0  0  0  0  0  0  0  0
  151.0755  145.3637  158.5077 H   0  0  0  0  0  0  0  0  0  0  0  0
  153.4556  142.6801  158.6222 H   0  0  0  0  0  0  0  0  0  0  0  0
  154.6979  136.9794  163.7598 H   0  0  0  0  0  0  0  0  0  0  0  0
  153.3262  136.0530  163.1992 H   0  0  0  0  0  0  0  0  0  0  0  0
  154.2833  135.0198  165.2380 H   0  0  0  0  0  0  0  0  0  0  0  0
  155.8463  134.8858  164.4864 H   0  0  0  0  0  0  0  0  0  0  0  0
  1  2  1  0  0  0  0
  1 22  1  0  0  0  0
  1 23  1  0  0  0  0
  1 24  1  0  0  0  0
  2  3  2  0  0  0  0
  2  4  1  0  0  0  0
  4 21  1  0  0  0  0
  4  5  1  0  0  0  0
  5  6  1  0  0  0  0
  5 25  1  0  0  0  0
  5 26  1  0  0  0  0
  6  7  1  0  0  0  0
  6 27  1  0  0  0  0
  6 28  1  0  0  0  0
  7  8  1  0  0  0  0
  7 20  1  0  0  0  0
  7 29  1  0  0  0  0
  8  9  1  0  0  0  0
  8 30  1  0  0  0  0
  9 10  2  0  0  0  0
  9 11  1  0  0  0  0
 11 12  1  0  0  0  0
 11 31  1  0  0  0  0
 12 13  1  0  0  0  0
 12 32  1  0  0  0  0
 12 33  1  0  0  0  0
 13 14  1  0  0  0  0
 13 34  1  0  0  0  0
 13 35  1  0  0  0  0
 14 19  2  0  0  0  0
 14 15  1  0  0  0  0
 15 16  2  0  0  0  0
 15 36  1  0  0  0  0
 16 17  1  0  0  0  0
 17 18  1  0  0  0  0
 17 19  1  0  0  0  0
 18 37  1  0  0  0  0
 18 38  1  0  0  0  0
 18 39  1  0  0  0  0
 19 40  1  0  0  0  0
 20 21  1  0  0  0  0
 20 41  1  0  0  0  0
 20 42  1  0  0  0  0
 21 43  1  0  0  0  0
 21 44  1  0  0  0  0
M  END
> <s_m_source_file>
AV-unprocessed.smi

> <i_m_source_file_index>
1505

> <i_lp_mmshare_version>
43012

> <i_f3d_flags>
0

> <s_epik_input>
W0NIM11DKD1PKU4xW0NIMl1bQ0gyXVtDSF0oW0NIMl1bQ0gyXTEpW05IXUMoPU8pW05IXVtDSDJdW0NIMl1jMltjSF1ubihbQ0gzXSlbY0hdMg==

> <s_epik_cmdline>
J2VwaWtfcHl0aG9uJywgJy1waCcsICc3LjAnLCAnLXRuJywgJzgnLCAnLW1hJywgJzIwMCcsICctbWV0YWxfYmluZGluZycsICctaW1hZScsICc8aW5maWxlLm1hZT4nLCAnLW9tYWUnLCAnPG91dGZpbGUubWFlPic=

> <r_lp_tautomer_probability>
1

> <r_epik_Ionization_Penalty>
0.000559595

> <r_epik_Ionization_Penalty_Charging>
0

> <r_epik_Ionization_Penalty_Neutral>
0.000559595

> <r_epik_State_Penalty>
-0

> <r_epik_Charging_Adjusted_Penalty>
0

> <i_epik_Tot_Q>
0

> <i_epik_Tot_abs_Q>
0

> <r_epik_Metal_State_Penalty>
-0

> <b_epik_Metal_Only>
0

> <s_lp_Force_Field>
OPLS_2005

> <r_lp_Energy>
17.177

> <b_lp_Chiralities_Consistent>
1

> <s_lp_Variant>
AV-unprocessed.smi:1505-1

> <Gold.Version>
5.8.1

> <Gold.Id.Protein>
6NUR|6NUR_protein|mol2

> <Gold.PLP.Fitness>
42.9778

> <Gold.PLP.PLP>
-43.3992

> <Gold.PLP.part.hbond>
0.0000

> <Gold.PLP.part.metal>
0.0000

> <Gold.PLP.part.buried>
-5.8789

> <Gold.PLP.part.nonpolar>
-37.8250

> <Gold.PLP.part.repulsive>
0.2507

> <Gold.PLP.ligand.clash>
0.0000

> <Gold.PLP.ligand.torsion>
0.2340

> <Gold.PLP.Chemscore.Hbond>
0.0000

> <Gold.PLP.Chemscore.CHOScore>
0.0000

> <Gold.PLP.Chemscore.Metal>
0.0000

> <Gold.PLP.Chemscore.Internal.Correction>
0.0467

> <Gold.Rescore>
     Score         DG    S(hbond)    S(metal)    S(lipo)     H(rot)  DE(clash)    DE(int)     intcor
     12.17     -13.69       0.00        0.00     107.18       1.69       0.01       1.51       ----

> <Gold.Chemscore.Fitness>
12.1681

> <Gold.Chemscore.DG>
-13.6942

> <Gold.Chemscore.ZeroCoef>
-5.4800

> <Gold.Chemscore.Hbond>
0.0000

> <Gold.Chemscore.Metal>
0.0000

> <Gold.Chemscore.Lipo>
107.1772

> <Gold.Chemscore.Internal_Hbond>
0.0000

> <Gold.Chemscore.DEClash>
0.0126

> <Gold.Chemscore.DEInternal>
1.5135

> <Gold.Chemscore.Rot>
1.6896

> <Gold.Chemscore.Internal.Correction>
   9.000000E+99

> <Gold.Chemscore.Hbond.Weighted>
-0.0000

> <Gold.Chemscore.Metal.Weighted>
-0.0000

> <Gold.Chemscore.Lipo.Weighted>
-12.5397

> <Gold.Chemscore.Internal_Hbond.Weighted>
0.0000

> <Gold.Chemscore.DEClash.Weighted>
0.0126

> <Gold.Chemscore.DEInternal.Weighted>
1.5135

> <Gold.Chemscore.Rot.Weighted>
4.3255

> <Gold.Chemscore.Internal.Correction.Weighted>
   9.000000E+99

> <Gold.Protein.RotatedTorsions>
[ 6907 6896 6895 6894 ] final  121.07 input  -60.11 | X-H torsion
[ 7974 7965 7964 7962 ] final  110.59 input  175.53 | X-H torsion
[ 8008 7997 7996 7995 ] final  -30.54 input   59.86 | X-H torsion
[ 10167 10162 10161 10158 ] final    9.70 input  -65.29 | X-H torsion
[ 10718 10713 10712 10709 ] final   48.91 input   66.30 | X-H torsion
[ 10763 10752 10751 10750 ] final  106.24 input  -60.55 | X-H torsion
[ 11005 11000 10999 10996 ] final  -74.53 input  -57.11 | X-H torsion

> <Gold.Protein.ActiveResidues>
 VAL166  LYS551  ARG553  GLY616  TRP617  ASP618  TYR619  PRO620  LYS621  CYS622 
 ASP623  PHE694  ASN695  SER759  ASP760  ASP761  ALA762  ILE779  LEU786  VAL792 
 PHE793  MET794  SER795  GLU796  ALA797  LYS798  CYS799  TRP800  GLU811  SER814 

> <Gold.Protein.RotatedAtoms>
  152.4350  133.7345  159.6605 H   0  0  0  0  0  0  0  0  0  0  0  0  # atno 6907 bound_to 6896
  150.8233  133.8205  159.3135 H   0  0  0  0  0  0  0  0  0  0  0  0  # atno 6908 bound_to 6896
  151.5880  135.1057  160.0084 H   0  0  0  0  0  0  0  0  0  0  0  0  # atno 6909 bound_to 6896
  145.2530  139.2732  143.4057 H   0  0  0  0  0  0  0  0  0  0  0  0  # atno 7974 bound_to 7965
  154.4247  140.1788  156.1422 H   0  0  0  0  0  0  0  0  0  0  0  0  # atno 8008 bound_to 7997
  155.9982  140.3362  155.6795 H   0  0  0  0  0  0  0  0  0  0  0  0  # atno 8009 bound_to 7997
  155.6279  140.0666  157.2649 H   0  0  0  0  0  0  0  0  0  0  0  0  # atno 8010 bound_to 7997
  140.6239  143.8144  150.7209 H   0  0  0  0  0  0  0  0  0  0  0  0  # atno 10167 bound_to 10162
  157.4733  130.8269  149.8012 H   0  0  0  0  0  0  0  0  0  0  0  0  # atno 10718 bound_to 10713
  153.3903  135.3883  155.1919 H   0  0  0  0  0  0  0  0  0  0  0  0  # atno 10763 bound_to 10752
  154.8718  135.3747  154.4745 H   0  0  0  0  0  0  0  0  0  0  0  0  # atno 10764 bound_to 10752
  153.5231  135.7086  153.5782 H   0  0  0  0  0  0  0  0  0  0  0  0  # atno 10765 bound_to 10752
  141.1636  133.6915  156.7378 H   0  0  0  0  0  0  0  0  0  0  0  0  # atno 11005 bound_to 11000
  146.3297  140.2926  142.8616 LP  0  0  0  0  0  0  0  0  0  0  0  0  # atno 17320 bound_to 7965
  144.9486  140.8154  143.5586 LP  0  0  0  0  0  0  0  0  0  0  0  0  # atno 17321 bound_to 7965
  140.1740  143.4170  152.1980 LP  0  0  0  0  0  0  0  0  0  0  0  0  # atno 17342 bound_to 10162
  139.5462  144.7301  151.4575 LP  0  0  0  0  0  0  0  0  0  0  0  0  # atno 17343 bound_to 10162
  156.0084  130.3844  150.2349 LP  0  0  0  0  0  0  0  0  0  0  0  0  # atno 17370 bound_to 10713
  157.0532  131.0068  151.3247 LP  0  0  0  0  0  0  0  0  0  0  0  0  # atno 17371 bound_to 10713
  140.2697  134.8402  157.3835 LP  0  0  0  0  0  0  0  0  0  0  0  0  # atno 17394 bound_to 11000
  140.1533  134.4821  155.7945 LP  0  0  0  0  0  0  0  0  0  0  0  0  # atno 17395 bound_to 11000

$$$$
