#       Name:                AV-unprocessed.smi:3241
#       Creating user name   scv26
#       Creation time:       Fri Mar 27 18:26:03 2020


#       File generated by GOLD software.
#

@<TRIPOS>MOLECULE
AV-unprocessed.smi:3241
    47    48     1
SMALL
NO_CHARGES


@<TRIPOS>ATOM
      1 ****        -2.3185   0.5133   3.8078 C.3            1 S1                 0.0000
      2 ****        -2.6636   0.9885   2.3878 C.3            1 S1                 0.0000
      3 ****        -1.9934   2.3367   2.0542 C.3            1 S1                 0.0000
      4 ****        -2.3751   2.8236   0.6470 C.3            1 S1                 0.0000
      5 ****        -2.0497   1.7653  -0.4178 C.3            1 S1                 0.0000
      6 ****        -2.7172   0.4200  -0.0875 C.3            1 S1                 0.0000
      7 ****        -2.3301  -0.0788   1.3215 C.3            1 S1                 0.0000
      8 ****        -0.9348  -0.3537   1.3790 O.3            1 S1                 0.0000
      9 ****        -0.5643  -1.6379   0.9008 C.3            1 S1                 0.0000
     10 ****         0.9645  -1.7291   0.8928 C.3            1 S1                 0.0000
     11 ****         1.5206  -0.9502  -0.2073 N.3            1 S1                 0.0000
     12 ****         2.9797  -0.9532  -0.2509 C.3            1 S1                 0.0000
     13 ****         3.5152  -0.0847  -1.4011 C.3            1 S1                 0.0000
     14 ****         3.2006  -0.6394  -2.7058 N.pl3          1 S1                 0.0000
     15 ****         3.8670  -1.6291  -3.3969 C.2            1 S1                 0.0000
     16 ****         3.2022  -1.8211  -4.5741 C.2            1 S1                 0.0000
     17 ****         2.1284  -0.8898  -4.5114 C.2            1 S1                 0.0000
     18 ****         2.1317  -0.1817  -3.3937 N.2            1 S1                 0.0000
     19 ****        -1.2471   0.3478   3.9248 H              1 S1                 0.0000
     20 ****        -2.8271  -0.4220   4.0428 H              1 S1                 0.0000
     21 ****        -2.6230   1.2497   4.5518 H              1 S1                 0.0000
     22 ****        -3.7428   1.1470   2.3625 H              1 S1                 0.0000
     23 ****        -2.2826   3.0884   2.7894 H              1 S1                 0.0000
     24 ****        -0.9091   2.2400   2.1246 H              1 S1                 0.0000
     25 ****        -3.4404   3.0550   0.6177 H              1 S1                 0.0000
     26 ****        -1.8514   3.7525   0.4198 H              1 S1                 0.0000
     27 ****        -2.3783   2.1125  -1.3978 H              1 S1                 0.0000
     28 ****        -0.9692   1.6319  -0.4847 H              1 S1                 0.0000
     29 ****        -3.8003   0.5367  -0.1401 H              1 S1                 0.0000
     30 ****        -2.4602  -0.3166  -0.8479 H              1 S1                 0.0000
     31 ****        -2.8933  -0.9846   1.5539 H              1 S1                 0.0000
     32 ****        -0.9738  -2.3962   1.5695 H              1 S1                 0.0000
     33 ****        -0.9622  -1.8352  -0.0951 H              1 S1                 0.0000
     34 ****         1.3609  -1.3850   1.8487 H              1 S1                 0.0000
     35 ****         1.2627  -2.7725   0.7852 H              1 S1                 0.0000
     36 ****         1.1792   0.0047  -0.1560 H              1 S1                 0.0000
     37 ****         3.3731  -0.5696   0.6912 H              1 S1                 0.0000
     38 ****         3.3528  -1.9731  -0.3505 H              1 S1                 0.0000
     39 ****         3.1225   0.9314  -1.3346 H              1 S1                 0.0000
     40 ****         4.6000  -0.0039  -1.3242 H              1 S1                 0.0000
     41 ****         4.7472  -2.1100  -2.9962 H              1 S1                 0.0000
     42 ****         3.4448  -2.5211  -5.3596 H              1 S1                 0.0000
     43 ****         1.3524  -0.7082  -5.2401 H              1 S1                 0.0000
     44 ****        -0.6414  -0.2794   2.3321 LP             1 S1                 0.0000
     45 ****        -0.4589   0.3329   0.8293 LP             1 S1                 0.0000
     46 ****         1.2137  -1.3902  -1.0512 LP             1 S1                 0.0000
     47 ****         1.4874   0.5323  -3.1196 LP             1 S1                 0.0000
@<TRIPOS>BOND
    1    1    2 1     
    2    1   19 1     
    3    1   20 1     
    4    1   21 1     
    5    2    7 1     
    6    2    3 1     
    7    2   22 1     
    8    3    4 1     
    9    3   23 1     
   10    3   24 1     
   11    4    5 1     
   12    4   25 1     
   13    4   26 1     
   14    5    6 1     
   15    5   27 1     
   16    5   28 1     
   17    6    7 1     
   18    6   29 1     
   19    6   30 1     
   20    7    8 1     
   21    7   31 1     
   22    8    9 1     
   23    9   10 1     
   24    9   32 1     
   25    9   33 1     
   26   10   11 1     
   27   10   34 1     
   28   10   35 1     
   29   11   12 1     
   30   11   36 1     
   31   12   13 1     
   32   12   37 1     
   33   12   38 1     
   34   13   14 1     
   35   13   39 1     
   36   13   40 1     
   37   14   18 1     
   38   14   15 1     
   39   15   16 2     
   40   15   41 1     
   41   16   17 1     
   42   16   42 1     
   43   17   18 2     
   44   17   43 1     
   45    8   44 1     
   46    8   45 1     
   47   11   46 1     
   48   18   47 1     
@<TRIPOS>SUBSTRUCTURE
      1 S1             1
@<TRIPOS>SET
LONE_PAIRS      STATIC     ATOMS    <user>   **** ""
4 44 45 46 47
DONOR_HYDROGENS      STATIC     ATOMS    <user>   **** ""
1 36
ATOM$BLUE        STATIC     ATOMS    COLORGROUP SYSTEM
4 44 45 46 47
ATOM$RED        STATIC     ATOMS    COLORGROUP SYSTEM
1 36
