#       Name:                AV-unprocessed.smi:664
#       Creating user name   scv26
#       Creation time:       Fri Mar 27 00:20:18 2020


#       File generated by GOLD software.
#

@<TRIPOS>MOLECULE
AV-unprocessed.smi:664
    36    37     1
SMALL
NO_CHARGES


@<TRIPOS>ATOM
      1 ****        -0.7749   3.6357   2.3800 C.3            1 S1                 0.0000
      2 ****        -1.2297   2.9974   1.1007 C.2            1 S1                 0.0000
      3 ****        -1.9800   3.7135   0.0869 C.2            1 S1                 0.0000
      4 ****        -2.3521   3.0690  -1.0396 C.2            1 S1                 0.0000
      5 ****        -2.0180   1.6647  -1.2678 C.2            1 S1                 0.0000
      6 ****        -2.3426   1.0525  -2.2849 O.2            1 S1                 0.0000
      7 ****        -1.3108   1.0960  -0.2473 N.am           1 S1                 0.0000
      8 ****        -0.8759  -0.3048  -0.3105 C.3            1 S1                 0.0000
      9 ****         0.5818  -0.4396  -0.8016 C.3            1 S1                 0.0000
     10 ****         0.6189  -0.2568  -2.2038 O.3            1 S1                 0.0000
     11 ****         1.1645  -1.7879  -0.4051 C.ar           1 S1                 0.0000
     12 ****         2.0550  -1.8759   0.6865 C.ar           1 S1                 0.0000
     13 ****         2.5917  -3.1213   1.0670 C.ar           1 S1                 0.0000
     14 ****         2.2400  -4.2865   0.3591 C.ar           1 S1                 0.0000
     15 ****         1.3487  -4.2066  -0.7284 C.ar           1 S1                 0.0000
     16 ****         0.9139  -5.6340  -1.5946 Cl             1 S1                 0.0000
     17 ****         0.8108  -2.9612  -1.1083 C.ar           1 S1                 0.0000
     18 ****        -0.9284   1.7548   0.9103 N.2            1 S1                 0.0000
     19 ****        -1.2166   4.6245   2.5054 H              1 S1                 0.0000
     20 ****         0.3093   3.7496   2.3915 H              1 S1                 0.0000
     21 ****        -1.0612   3.0322   3.2422 H              1 S1                 0.0000
     22 ****        -2.2345   4.7520   0.2395 H              1 S1                 0.0000
     23 ****        -2.9106   3.6037  -1.7937 H              1 S1                 0.0000
     24 ****        -0.9451  -0.7088   0.7015 H              1 S1                 0.0000
     25 ****        -1.5496  -0.9258  -0.9042 H              1 S1                 0.0000
     26 ****         1.1963   0.3425  -0.3531 H              1 S1                 0.0000
     27 ****         1.5216  -0.2588  -2.4830 H              1 S1                 0.0000
     28 ****         2.3287  -0.9885   1.2385 H              1 S1                 0.0000
     29 ****         3.2727  -3.1829   1.9032 H              1 S1                 0.0000
     30 ****         2.6527  -5.2406   0.6527 H              1 S1                 0.0000
     31 ****         0.1237  -2.9086  -1.9405 H              1 S1                 0.0000
     32 ****        -2.8601   1.5164  -3.0039 LP             1 S1                 0.0000
     33 ****        -2.0889   0.0912  -2.3922 LP             1 S1                 0.0000
     34 ****         0.1944   0.6169  -2.4413 LP             1 S1                 0.0000
     35 ****         0.1250  -1.0007  -2.6540 LP             1 S1                 0.0000
     36 ****        -0.4112   1.2612   1.6095 LP             1 S1                 0.0000
@<TRIPOS>BOND
    1    1    2 1     
    2    1   19 1     
    3    1   20 1     
    4    1   21 1     
    5    2   18 2     
    6    2    3 1     
    7    3    4 2     
    8    3   22 1     
    9    4    5 1     
   10    4   23 1     
   11    5    6 2     
   12    5    7 am    
   13    7    8 1     
   14    7   18 1     
   15    8    9 1     
   16    8   24 1     
   17    8   25 1     
   18    9   10 1     
   19    9   11 1     
   20    9   26 1     
   21   10   27 1     
   22   11   17 ar    
   23   11   12 ar    
   24   12   13 ar    
   25   12   28 1     
   26   13   14 ar    
   27   13   29 1     
   28   14   15 ar    
   29   14   30 1     
   30   15   16 1     
   31   15   17 ar    
   32   17   31 1     
   33    6   32 1     
   34    6   33 1     
   35   10   34 1     
   36   10   35 1     
   37   18   36 1     
@<TRIPOS>SUBSTRUCTURE
      1 S1             1
@<TRIPOS>SET
LONE_PAIRS      STATIC     ATOMS    <user>   **** ""
5 32 33 34 35 36
DONOR_HYDROGENS      STATIC     ATOMS    <user>   **** ""
1 27
ATOM$BLUE        STATIC     ATOMS    COLORGROUP SYSTEM
5 32 33 34 35 36
ATOM$RED        STATIC     ATOMS    COLORGROUP SYSTEM
1 27
