AV-unprocessed.smi:2434|AV-procd|sdf|9591|dock1
  -GOLD-   2272013223D 1   1.00000     0.00000
 Structure written by MMmdl.
 36 37  0  0  0  0  0  0  0  0  1 V2000
  153.4008  144.8451  157.3335 C   0  0  0  0  0  0  0  0  0  0  0  0
  151.8721  144.7544  157.4597 C   0  0  0  0  0  0  0  0  0  0  0  0
  151.3689  144.2169  158.8147 C   0  0  0  0  0  0  0  0  0  0  0  0
  149.9990  143.5287  158.6306 C   0  0  0  0  0  0  0  0  0  0  0  0
  149.9441  142.7112  157.4207 N   0  0  0  0  0  0  0  0  0  0  0  0
  150.7132  141.6433  157.1645 C   0  0  0  0  0  0  0  0  0  0  0  0
  151.5885  141.2282  157.9247 O   0  0  0  0  0  0  0  0  0  0  0  0
  150.3843  141.0735  155.9939 N   0  0  0  0  0  0  0  0  0  0  0  0
  150.9627  139.9086  155.4288 C   0  0  0  0  0  0  0  0  0  0  0  0
  152.2934  139.5885  155.7677 C   0  0  0  0  0  0  0  0  0  0  0  0
  152.8675  138.4219  155.2238 C   0  0  0  0  0  0  0  0  0  0  0  0
  152.2028  137.5801  154.4041 N   0  0  0  0  0  0  0  0  0  0  0  0
  150.9204  137.8762  154.1024 C   0  0  0  0  0  0  0  0  0  0  0  0
  150.2504  139.0163  154.5908 C   0  0  0  0  0  0  0  0  0  0  0  0
  148.9480  139.2183  154.2773 F   0  0  0  0  0  0  0  0  0  0  0  0
  152.4016  143.3969  159.6215 C   0  0  0  0  0  0  0  0  0  0  0  0
  151.9531  144.1133  160.8939 C   0  0  0  0  0  0  0  0  0  0  0  0
  151.4282  145.2231  159.9854 C   0  0  0  0  0  0  0  0  0  0  0  0
  153.6835  145.1454  156.3244 H   0  0  0  0  0  0  0  0  0  0  0  0
  153.8750  143.8847  157.5361 H   0  0  0  0  0  0  0  0  0  0  0  0
  153.8226  145.5805  158.0179 H   0  0  0  0  0  0  0  0  0  0  0  0
  151.4343  145.7276  157.2368 H   0  0  0  0  0  0  0  0  0  0  0  0
  151.5170  144.1034  156.6600 H   0  0  0  0  0  0  0  0  0  0  0  0
  149.7940  142.8607  159.4674 H   0  0  0  0  0  0  0  0  0  0  0  0
  149.1922  144.2617  158.6574 H   0  0  0  0  0  0  0  0  0  0  0  0
  149.2506  142.9706  156.7343 H   0  0  0  0  0  0  0  0  0  0  0  0
  149.5636  141.4327  155.5292 H   0  0  0  0  0  0  0  0  0  0  0  0
  152.8700  140.2271  156.4210 H   0  0  0  0  0  0  0  0  0  0  0  0
  153.8884  138.1572  155.4557 H   0  0  0  0  0  0  0  0  0  0  0  0
  150.4066  137.1749  153.4615 H   0  0  0  0  0  0  0  0  0  0  0  0
  152.2326  142.3197  159.6287 H   0  0  0  0  0  0  0  0  0  0  0  0
  153.4355  143.6294  159.3605 H   0  0  0  0  0  0  0  0  0  0  0  0
  151.1605  143.5859  161.4267 H   0  0  0  0  0  0  0  0  0  0  0  0
  152.7625  144.4131  161.5603 H   0  0  0  0  0  0  0  0  0  0  0  0
  152.1636  146.0156  159.8338 H   0  0  0  0  0  0  0  0  0  0  0  0
  150.4637  145.6345  160.2855 H   0  0  0  0  0  0  0  0  0  0  0  0
  1  2  1  0  0  0  0
  1 19  1  0  0  0  0
  1 20  1  0  0  0  0
  1 21  1  0  0  0  0
  2  3  1  0  0  0  0
  2 22  1  0  0  0  0
  2 23  1  0  0  0  0
  3 18  1  0  0  0  0
  3  4  1  0  0  0  0
  3 16  1  0  0  0  0
  4  5  1  0  0  0  0
  4 24  1  0  0  0  0
  4 25  1  0  0  0  0
  5  6  1  0  0  0  0
  5 26  1  0  0  0  0
  6  7  2  0  0  0  0
  6  8  1  0  0  0  0
  8  9  1  0  0  0  0
  8 27  1  0  0  0  0
  9 14  1  0  0  0  0
  9 10  2  0  0  0  0
 10 11  1  0  0  0  0
 10 28  1  0  0  0  0
 11 12  2  0  0  0  0
 11 29  1  0  0  0  0
 12 13  1  0  0  0  0
 13 14  2  0  0  0  0
 13 30  1  0  0  0  0
 14 15  1  0  0  0  0
 16 17  1  0  0  0  0
 16 31  1  0  0  0  0
 16 32  1  0  0  0  0
 17 18  1  0  0  0  0
 17 33  1  0  0  0  0
 17 34  1  0  0  0  0
 18 35  1  0  0  0  0
 18 36  1  0  0  0  0
M  END
> <s_m_source_file>
AV-unprocessed.smi

> <i_m_source_file_index>
2434

> <i_lp_mmshare_version>
43012

> <i_f3d_flags>
0

> <s_epik_input>
W0NIMl0xW0NIMl1bQ0gyXUMxKFtDSDJdW0NIM10pW0NIMl1bTkhdQyg9TylbTkhdYzJbY0hdW2NIXW5bY0hdYzJG

> <s_epik_cmdline>
J2VwaWtfcHl0aG9uJywgJy1waCcsICc3LjAnLCAnLXRuJywgJzgnLCAnLW1hJywgJzIwMCcsICctbWV0YWxfYmluZGluZycsICctaW1hZScsICc8aW5maWxlLm1hZT4nLCAnLW9tYWUnLCAnPG91dGZpbGUubWFlPic=

> <r_epik_Ionization_Penalty>
0.00332283

> <r_epik_Ionization_Penalty_Charging>
0

> <r_epik_Ionization_Penalty_Neutral>
0.00332283

> <r_epik_State_Penalty>
0.00231995

> <r_epik_Charging_Adjusted_Penalty>
0.00231995

> <i_epik_Tot_Q>
0

> <i_epik_Tot_abs_Q>
0

> <r_epik_Metal_State_Penalty>
-0

> <b_epik_Metal_Only>
0

> <s_lp_Force_Field>
OPLS_2005

> <r_lp_Energy>
27.2745

> <b_lp_Chiralities_Consistent>
1

> <s_lp_Variant>
AV-unprocessed.smi:2434-1

> <Gold.Version>
5.8.1

> <Gold.Id.Protein>
6NUR|6NUR_protein|mol2

> <Gold.PLP.Fitness>
47.1516

> <Gold.PLP.PLP>
-41.0429

> <Gold.PLP.part.hbond>
-2.0000

> <Gold.PLP.part.metal>
0.0000

> <Gold.PLP.part.buried>
-5.8095

> <Gold.PLP.part.nonpolar>
-34.9118

> <Gold.PLP.part.repulsive>
0.2365

> <Gold.PLP.ligand.clash>
0.0000

> <Gold.PLP.ligand.torsion>
0.9581

> <Gold.PLP.Chemscore.Hbond>
1.4750

> <Gold.PLP.Chemscore.CHOScore>
1.0499

> <Gold.PLP.Chemscore.Metal>
0.0000

> <Gold.Chemscore.Hbonds>
donor molecule, donor type, donor heavy atom, donor atom, acceptor molecule, acceptor atom, score
      L1  H     5    26       P1  8028  0.59
      P1  H 10752 10765       L1    12  0.74
      L1  C    13    30       P1  7948  0.64
      L1  C    13    30       P1  7949  0.37

> <Gold.PLP.Chemscore.Internal.Correction>
0.4502

> <Gold.Rescore>
     Score         DG    S(hbond)    S(metal)    S(lipo)     H(rot)  DE(clash)    DE(int)     intcor
     15.72     -21.58       1.53        0.00     124.40       1.40       2.47       3.39       ----

> <Gold.Chemscore.Fitness>
15.7182

> <Gold.Chemscore.DG>
-21.5778

> <Gold.Chemscore.ZeroCoef>
-5.4800

> <Gold.Chemscore.Hbond>
1.5343

> <Gold.Chemscore.Metal>
0.0000

> <Gold.Chemscore.Lipo>
124.3993

> <Gold.Chemscore.Internal_Hbond>
0.0000

> <Gold.Chemscore.DEClash>
2.4654

> <Gold.Chemscore.DEInternal>
3.3942

> <Gold.Chemscore.Rot>
1.3990

> <Gold.Chemscore.Internal.Correction>
   9.000000E+99

> <Gold.Chemscore.Hbonds>
donor molecule, donor type, donor heavy atom, donor atom, acceptor molecule, acceptor atom, score
      L1  H     5    26       P1  8028  0.56
      P1  H 10752 10765       L1    12  0.61

> <Gold.Chemscore.Hbond.Weighted>
-5.1245

> <Gold.Chemscore.Metal.Weighted>
-0.0000

> <Gold.Chemscore.Lipo.Weighted>
-14.5547

> <Gold.Chemscore.Internal_Hbond.Weighted>
0.0000

> <Gold.Chemscore.DEClash.Weighted>
2.4654

> <Gold.Chemscore.DEInternal.Weighted>
3.3942

> <Gold.Chemscore.Rot.Weighted>
3.5814

> <Gold.Chemscore.Internal.Correction.Weighted>
   9.000000E+99

> <Gold.Protein.RotatedTorsions>
[ 6907 6896 6895 6894 ] final   80.65 input  -60.11 | X-H torsion
[ 7974 7965 7964 7962 ] final  -21.39 input  175.53 | X-H torsion
[ 8008 7997 7996 7995 ] final  161.75 input   59.86 | X-H torsion
[ 10167 10162 10161 10158 ] final  156.61 input  -65.29 | X-H torsion
[ 10718 10713 10712 10709 ] final  -51.72 input   66.30 | X-H torsion
[ 10763 10752 10751 10750 ] final  164.85 input  -60.55 | X-H torsion
[ 11005 11000 10999 10996 ] final  -84.85 input  -57.11 | X-H torsion

> <Gold.Protein.ActiveResidues>
 VAL166  LYS551  ARG553  GLY616  TRP617  ASP618  TYR619  PRO620  LYS621  CYS622 
 ASP623  PHE694  ASN695  SER759  ASP760  ASP761  ALA762  ILE779  LEU786  VAL792 
 PHE793  MET794  SER795  GLU796  ALA797  LYS798  CYS799  TRP800  GLU811  SER814 

> <Gold.Protein.RotatedAtoms>
  152.5242  134.3325  159.9187 H   0  0  0  0  0  0  0  0  0  0  0  0  # atno 6907 bound_to 6896
  151.3275  133.4008  159.2667 H   0  0  0  0  0  0  0  0  0  0  0  0  # atno 6908 bound_to 6896
  150.9908  134.9261  159.7956 H   0  0  0  0  0  0  0  0  0  0  0  0  # atno 6909 bound_to 6896
  146.1735  140.4335  142.8523 H   0  0  0  0  0  0  0  0  0  0  0  0  # atno 7974 bound_to 7965
  156.2081  140.1769  156.7755 H   0  0  0  0  0  0  0  0  0  0  0  0  # atno 8008 bound_to 7997
  154.5683  140.0687  156.8956 H   0  0  0  0  0  0  0  0  0  0  0  0  # atno 8009 bound_to 7997
  155.2719  140.3343  155.4267 H   0  0  0  0  0  0  0  0  0  0  0  0  # atno 8010 bound_to 7997
  139.4821  144.4993  151.8192 H   0  0  0  0  0  0  0  0  0  0  0  0  # atno 10167 bound_to 10162
  156.1685  130.4149  149.9683 H   0  0  0  0  0  0  0  0  0  0  0  0  # atno 10718 bound_to 10713
  154.3151  135.2756  155.2547 H   0  0  0  0  0  0  0  0  0  0  0  0  # atno 10763 bound_to 10752
  154.4925  135.5830  153.6473 H   0  0  0  0  0  0  0  0  0  0  0  0  # atno 10764 bound_to 10752
  152.9883  135.6138  154.3331 H   0  0  0  0  0  0  0  0  0  0  0  0  # atno 10765 bound_to 10752
  141.1647  133.7367  156.8928 H   0  0  0  0  0  0  0  0  0  0  0  0  # atno 11005 bound_to 11000
  144.8200  140.6533  143.6359 LP  0  0  0  0  0  0  0  0  0  0  0  0  # atno 17320 bound_to 7965
  145.4275  139.1554  143.4040 LP  0  0  0  0  0  0  0  0  0  0  0  0  # atno 17321 bound_to 7965
  140.4485  144.1888  150.5895 LP  0  0  0  0  0  0  0  0  0  0  0  0  # atno 17342 bound_to 10162
  140.4610  143.2449  151.9220 LP  0  0  0  0  0  0  0  0  0  0  0  0  # atno 17343 bound_to 10162
  156.7491  130.9108  151.3636 LP  0  0  0  0  0  0  0  0  0  0  0  0  # atno 17370 bound_to 10713
  157.6785  130.9118  150.0210 LP  0  0  0  0  0  0  0  0  0  0  0  0  # atno 17371 bound_to 10713
  140.1637  134.9148  157.2746 LP  0  0  0  0  0  0  0  0  0  0  0  0  # atno 17394 bound_to 11000
  140.2582  134.3602  155.7416 LP  0  0  0  0  0  0  0  0  0  0  0  0  # atno 17395 bound_to 11000

$$$$
