AV-unprocessed.smi:2171|AV-procd|sdf|8827|dock7
  -GOLD-   2272012 23D 1   1.00000     0.00000
 Structure written by MMmdl.
 39 41  0  0  0  0  0  0  0  0  2 V2000
  144.6424  135.5147  153.5559 O   0  0  0  0  0  0  0  0  0  0  0  0
  145.7989  135.5761  153.1397 C   0  0  0  0  0  0  0  0  0  0  0  0
  146.5259  134.3072  152.6970 C   0  0  0  0  0  0  0  0  0  0  0  0
  145.6960  133.5364  151.7880 N   0  0  0  0  0  0  0  0  0  0  0  0
  145.9892  132.3391  151.1691 C   0  0  0  0  0  0  0  0  0  0  0  0
  144.8984  131.9878  150.4268 C   0  0  0  0  0  0  0  0  0  0  0  0
  143.9755  133.0456  150.6592 C   0  0  0  0  0  0  0  0  0  0  0  0
  144.4542  133.9700  151.4761 N   0  0  0  0  0  0  0  0  0  0  0  0
  146.4791  136.7253  153.0123 N   0  0  0  0  0  0  0  0  0  0  0  0
  145.9235  138.0535  153.2482 C   0  0  1  0  0  0  0  0  0  0  0  0
  145.3920  138.2440  154.6754 C   0  0  0  0  0  0  0  0  0  0  0  0
  145.6415  139.7275  155.0025 C   0  0  0  0  0  0  0  0  0  0  0  0
  146.3022  140.3067  153.8115 N   0  3  1  0  0  0  0  0  0  0  0  0
  147.1460  141.5075  154.0400 C   0  0  0  0  0  0  0  0  0  0  0  0
  148.5267  141.1616  154.6223 C   0  0  0  0  0  0  0  0  0  0  0  0
  149.2331  140.1149  153.7548 C   0  0  0  0  0  0  0  0  0  0  0  0
  148.3573  138.8627  153.6428 C   0  0  0  0  0  0  0  0  0  0  0  0
  146.9472  139.1907  153.0848 C   0  0  1  0  0  0  0  0  0  0  0  0
  147.4679  134.5597  152.2074 H   0  0  0  0  0  0  0  0  0  0  0  0
  146.7672  133.6908  153.5640 H   0  0  0  0  0  0  0  0  0  0  0  0
  146.9377  131.8419  151.3103 H   0  0  0  0  0  0  0  0  0  0  0  0
  144.7779  131.1085  149.8115 H   0  0  0  0  0  0  0  0  0  0  0  0
  142.9783  133.1675  150.2624 H   0  0  0  0  0  0  0  0  0  0  0  0
  147.4255  136.6772  152.6618 H   0  0  0  0  0  0  0  0  0  0  0  0
  145.0959  138.2258  152.5568 H   0  0  0  0  0  0  0  0  0  0  0  0
  144.3367  137.9789  154.7488 H   0  0  0  0  0  0  0  0  0  0  0  0
  145.9368  137.6165  155.3824 H   0  0  0  0  0  0  0  0  0  0  0  0
  144.7142  140.2616  155.2113 H   0  0  0  0  0  0  0  0  0  0  0  0
  146.2795  139.8112  155.8828 H   0  0  0  0  0  0  0  0  0  0  0  0
  147.2794  142.0082  153.0803 H   0  0  0  0  0  0  0  0  0  0  0  0
  146.6196  142.2117  154.6852 H   0  0  0  0  0  0  0  0  0  0  0  0
  149.1368  142.0631  154.6865 H   0  0  0  0  0  0  0  0  0  0  0  0
  148.4241  140.7886  155.6419 H   0  0  0  0  0  0  0  0  0  0  0  0
  149.4313  140.5225  152.7626 H   0  0  0  0  0  0  0  0  0  0  0  0
  150.2005  139.8583  154.1877 H   0  0  0  0  0  0  0  0  0  0  0  0
  148.8547  138.1322  153.0038 H   0  0  0  0  0  0  0  0  0  0  0  0
  148.2756  138.3996  154.6271 H   0  0  0  0  0  0  0  0  0  0  0  0
  147.0434  139.4654  152.0333 H   0  0  0  0  0  0  0  0  0  0  0  0
  145.5419  140.6069  153.2180 H   0  0  0  0  0  0  0  0  0  0  0  0
  1  2  2  0  0  0  0
  2  3  1  0  0  0  0
  2  9  1  0  0  0  0
  3  4  1  0  0  0  0
  3 19  1  0  0  0  0
  3 20  1  0  0  0  0
  4  8  1  0  0  0  0
  4  5  1  0  0  0  0
  5  6  2  0  0  0  0
  5 21  1  0  0  0  0
  6  7  1  0  0  0  0
  6 22  1  0  0  0  0
  7  8  2  0  0  0  0
  7 23  1  0  0  0  0
  9 10  1  0  0  0  0
  9 24  1  0  0  0  0
 10 18  1  0  0  0  0
 10 11  1  0  0  0  0
 10 25  1  0  0  0  0
 11 12  1  0  0  0  0
 11 26  1  0  0  0  0
 11 27  1  0  0  0  0
 12 13  1  0  0  0  0
 12 28  1  0  0  0  0
 12 29  1  0  0  0  0
 13 18  1  0  0  0  0
 13 14  1  0  0  0  0
 13 39  1  0  0  0  0
 14 15  1  0  0  0  0
 14 30  1  0  0  0  0
 14 31  1  0  0  0  0
 15 16  1  0  0  0  0
 15 32  1  0  0  0  0
 15 33  1  0  0  0  0
 16 17  1  0  0  0  0
 16 34  1  0  0  0  0
 16 35  1  0  0  0  0
 17 18  1  0  0  0  0
 17 36  1  0  0  0  0
 17 37  1  0  0  0  0
 18 38  1  0  0  0  0
M  CHG  1  13   1
M  END
> <s_m_source_file>
AV-unprocessed.smi

> <i_m_source_file_index>
2171

> <i_lp_mmshare_version>
43012

> <i_f3d_flags>
0

> <s_epik_input>
bjFbY0hdW2NIXVtjSF1uMVtDSDJdQyg9TylbTkhdW0NASF0oW0NIMl1bQ0gyXTIpW0NAQEhdKE4yMylbQ0gyXVtDSDJdW0NIMl1bQ0gyXTM=

> <s_epik_cmdline>
J2VwaWtfcHl0aG9uJywgJy1waCcsICc3LjAnLCAnLXRuJywgJzgnLCAnLW1hJywgJzIwMCcsICctbWV0YWxfYmluZGluZycsICctaW1hZScsICc8aW5maWxlLm1hZT4nLCAnLW9tYWUnLCAnPG91dGZpbGUubWFlPic=

> <r_lp_tautomer_probability>
1

> <r_epik_Ionization_Penalty>
0.00204179

> <r_epik_Ionization_Penalty_Charging>
0.00203239

> <r_epik_Ionization_Penalty_Neutral>
9.40205e-06

> <r_epik_State_Penalty>
0.00138983

> <r_epik_Charging_Adjusted_Penalty>
0.00342221

> <i_epik_Tot_Q>
1

> <i_epik_Tot_abs_Q>
1

> <r_epik_Metal_State_Penalty>
-0

> <b_epik_Metal_Only>
0

> <s_lp_Force_Field>
OPLS_2005

> <r_lp_Energy>
35.3096

> <b_lp_Chiralities_Consistent>
1

> <s_lp_Variant>
AV-unprocessed.smi:2171-2

> <Gold.Version>
5.8.1

> <Gold.Id.Protein>
6NUR|6NUR_protein|mol2

> <Gold.PLP.Fitness>
40.9775

> <Gold.PLP.PLP>
-26.1681

> <Gold.PLP.part.hbond>
-2.0000

> <Gold.PLP.part.metal>
0.0000

> <Gold.PLP.part.buried>
-0.8619

> <Gold.PLP.part.nonpolar>
-23.7261

> <Gold.PLP.part.repulsive>
0.2218

> <Gold.PLP.ligand.clash>
0.0000

> <Gold.PLP.ligand.torsion>
0.0976

> <Gold.PLP.Chemscore.Hbond>
3.0000

> <Gold.PLP.Chemscore.CHOScore>
2.0000

> <Gold.PLP.Chemscore.Metal>
0.0000

> <Gold.Chemscore.Hbonds>
donor molecule, donor type, donor heavy atom, donor atom, acceptor molecule, acceptor atom, score
      L1  H     9    24       P1  7948  1.00
      L1  H    13    39       P1 10175  2.00
      L1  C     5    21       P1 10747  1.00
      L1  C     7    23       P1 10186  1.00

> <Gold.PLP.Chemscore.Internal.Correction>
0.0047

> <Gold.Rescore>
     Score         DG    S(hbond)    S(metal)    S(lipo)     H(rot)  DE(clash)    DE(int)     intcor
     14.00     -16.66       1.98        0.00      70.46       1.44       0.15       2.51       ----

> <Gold.Chemscore.Fitness>
13.9983

> <Gold.Chemscore.DG>
-16.6590

> <Gold.Chemscore.ZeroCoef>
-5.4800

> <Gold.Chemscore.Hbond>
1.9832

> <Gold.Chemscore.Metal>
0.0000

> <Gold.Chemscore.Lipo>
70.4624

> <Gold.Chemscore.Internal_Hbond>
0.0000

> <Gold.Chemscore.DEClash>
0.1465

> <Gold.Chemscore.DEInternal>
2.5142

> <Gold.Chemscore.Rot>
1.4410

> <Gold.Chemscore.Internal.Correction>
   9.000000E+99

> <Gold.Chemscore.Hbonds>
donor molecule, donor type, donor heavy atom, donor atom, acceptor molecule, acceptor atom, score
      L1  H     9    24       P1  7948  1.00
      L1  H    13    39       P1 10175  0.83

> <Gold.Chemscore.Hbond.Weighted>
-6.6238

> <Gold.Chemscore.Metal.Weighted>
-0.0000

> <Gold.Chemscore.Lipo.Weighted>
-8.2441

> <Gold.Chemscore.Internal_Hbond.Weighted>
0.0000

> <Gold.Chemscore.DEClash.Weighted>
0.1465

> <Gold.Chemscore.DEInternal.Weighted>
2.5142

> <Gold.Chemscore.Rot.Weighted>
3.6889

> <Gold.Chemscore.Internal.Correction.Weighted>
   9.000000E+99

> <Gold.Protein.RotatedTorsions>
[ 6907 6896 6895 6894 ] final  -80.48 input  -60.11 | X-H torsion
[ 7974 7965 7964 7962 ] final -105.24 input  175.53 | X-H torsion
[ 8008 7997 7996 7995 ] final   52.22 input   59.86 | X-H torsion
[ 10167 10162 10161 10158 ] final  -74.46 input  -65.29 | X-H torsion
[ 10718 10713 10712 10709 ] final  -47.20 input   66.30 | X-H torsion
[ 10763 10752 10751 10750 ] final -158.28 input  -60.55 | X-H torsion
[ 11005 11000 10999 10996 ] final -164.26 input  -57.11 | X-H torsion

> <Gold.Protein.ActiveResidues>
 VAL166  LYS551  ARG553  GLY616  TRP617  ASP618  TYR619  PRO620  LYS621  CYS622 
 ASP623  PHE694  ASN695  SER759  ASP760  ASP761  ALA762  ILE779  LEU786  VAL792 
 PHE793  MET794  SER795  GLU796  ALA797  LYS798  CYS799  TRP800  GLU811  SER814 

> <Gold.Protein.RotatedAtoms>
  150.6929  134.3962  159.5098 H   0  0  0  0  0  0  0  0  0  0  0  0  # atno 6907 bound_to 6896
  152.1743  134.8805  160.0541 H   0  0  0  0  0  0  0  0  0  0  0  0  # atno 6908 bound_to 6896
  151.9819  133.3726  159.4148 H   0  0  0  0  0  0  0  0  0  0  0  0  # atno 6909 bound_to 6896
  145.2329  140.9177  143.3194 H   0  0  0  0  0  0  0  0  0  0  0  0  # atno 7974 bound_to 7965
  155.4482  140.3457  155.4298 H   0  0  0  0  0  0  0  0  0  0  0  0  # atno 8008 bound_to 7997
  156.1236  140.1494  156.9198 H   0  0  0  0  0  0  0  0  0  0  0  0  # atno 8009 bound_to 7997
  154.4842  140.0860  156.7427 H   0  0  0  0  0  0  0  0  0  0  0  0  # atno 8010 bound_to 7997
  140.5025  143.2358  151.7729 H   0  0  0  0  0  0  0  0  0  0  0  0  # atno 10167 bound_to 10162
  156.2108  130.4160  149.9117 H   0  0  0  0  0  0  0  0  0  0  0  0  # atno 10718 bound_to 10713
  154.7569  135.3107  154.8452 H   0  0  0  0  0  0  0  0  0  0  0  0  # atno 10763 bound_to 10752
  153.9223  135.6794  153.4751 H   0  0  0  0  0  0  0  0  0  0  0  0  # atno 10764 bound_to 10752
  153.1167  135.4841  154.9058 H   0  0  0  0  0  0  0  0  0  0  0  0  # atno 10765 bound_to 10752
  140.5888  134.5066  157.5190 H   0  0  0  0  0  0  0  0  0  0  0  0  # atno 11005 bound_to 11000
  144.9659  139.3930  143.6333 LP  0  0  0  0  0  0  0  0  0  0  0  0  # atno 17320 bound_to 7965
  146.3348  139.8735  142.8836 LP  0  0  0  0  0  0  0  0  0  0  0  0  # atno 17321 bound_to 7965
  139.4875  144.4502  151.9662 LP  0  0  0  0  0  0  0  0  0  0  0  0  # atno 17342 bound_to 10162
  140.3592  144.2994  150.5936 LP  0  0  0  0  0  0  0  0  0  0  0  0  # atno 17343 bound_to 10162
  156.6796  130.8853  151.3574 LP  0  0  0  0  0  0  0  0  0  0  0  0  # atno 17370 bound_to 10713
  157.7037  130.9361  150.0865 LP  0  0  0  0  0  0  0  0  0  0  0  0  # atno 17371 bound_to 10713
  139.9283  134.8012  156.1003 LP  0  0  0  0  0  0  0  0  0  0  0  0  # atno 17394 bound_to 11000
  141.0948  133.6700  156.2621 LP  0  0  0  0  0  0  0  0  0  0  0  0  # atno 17395 bound_to 11000

$$$$
