#       Name:                AV-unprocessed.smi:2489
#       Creating user name   scv26
#       Creation time:       Fri Mar 27 13:43:19 2020


#       File generated by GOLD software.
#

@<TRIPOS>MOLECULE
AV-unprocessed.smi:2489
    40    41     1
SMALL
NO_CHARGES


@<TRIPOS>ATOM
      1 ****        -3.5871   3.3181  -0.2532 C.3            1 S1                 0.0000
      2 ****        -4.3769   2.1670   0.0064 O.3            1 S1                 0.0000
      3 ****        -3.7238   0.9886   0.2958 C.ar           1 S1                 0.0000
      4 ****        -4.5119  -0.1489   0.5516 C.ar           1 S1                 0.0000
      5 ****        -3.8711  -1.3651   0.8482 C.ar           1 S1                 0.0000
      6 ****        -2.5306  -1.4989   0.9014 N.ar           1 S1                 0.0000
      7 ****        -1.7512  -0.4169   0.6590 C.ar           1 S1                 0.0000
      8 ****        -0.3318  -0.4471   0.6884 N.am           1 S1                 0.0000
      9 ****         0.4809  -1.4915   0.9402 C.2            1 S1                 0.0000
     10 ****         0.0885  -2.6245   1.2200 O.2            1 S1                 0.0000
     11 ****         1.9908  -1.2107   0.8925 C.3            1 S1                 0.0000
     12 ****         2.8035  -2.2556   0.1036 C.3            1 S1                 0.0000
     13 ****         3.4432  -1.4540  -1.0156 C.3            1 S1                 0.0000
     14 ****         3.4856  -0.0466  -0.4314 C.3            1 S1                 0.0000
     15 ****         3.6078   1.0654  -1.4786 C.3            1 S1                 0.0000
     16 ****         2.2413   0.0367   0.2431 O.3            1 S1                 0.0000
     17 ****        -2.3151   0.8425   0.3529 C.ar           1 S1                 0.0000
     18 ****        -4.2416   4.1639  -0.4634 H              1 S1                 0.0000
     19 ****        -2.9459   3.1732  -1.1237 H              1 S1                 0.0000
     20 ****        -2.9727   3.5825   0.6086 H              1 S1                 0.0000
     21 ****        -5.5900  -0.0909   0.5209 H              1 S1                 0.0000
     22 ****        -4.4501  -2.2545   1.0481 H              1 S1                 0.0000
     23 ****         0.1278   0.4281   0.4829 H              1 S1                 0.0000
     24 ****         2.3669  -1.1499   1.9148 H              1 S1                 0.0000
     25 ****         3.5716  -2.6872   0.7464 H              1 S1                 0.0000
     26 ****         2.2083  -3.0795  -0.2927 H              1 S1                 0.0000
     27 ****         4.4276  -1.8277  -1.2993 H              1 S1                 0.0000
     28 ****         2.8021  -1.4781  -1.8982 H              1 S1                 0.0000
     29 ****         4.2913   0.0317   0.3008 H              1 S1                 0.0000
     30 ****         4.5458   0.9833  -2.0281 H              1 S1                 0.0000
     31 ****         3.5821   2.0481  -1.0071 H              1 S1                 0.0000
     32 ****         2.7913   1.0209  -2.1998 H              1 S1                 0.0000
     33 ****        -1.6566   1.6776   0.1659 H              1 S1                 0.0000
     34 ****        -4.9407   2.0039  -0.8033 LP             1 S1                 0.0000
     35 ****        -4.9664   2.3799   0.7856 LP             1 S1                 0.0000
     36 ****        -2.1173  -2.3837   1.1166 LP             1 S1                 0.0000
     37 ****        -0.8917  -2.8155   1.2719 LP             1 S1                 0.0000
     38 ****         0.7500  -3.3537   1.3953 LP             1 S1                 0.0000
     39 ****         2.2748   0.7696   0.9226 LP             1 S1                 0.0000
     40 ****         1.5130   0.2259  -0.4156 LP             1 S1                 0.0000
@<TRIPOS>BOND
    1    1    2 1     
    2    1   18 1     
    3    1   19 1     
    4    1   20 1     
    5    2    3 1     
    6    3   17 ar    
    7    3    4 ar    
    8    4    5 ar    
    9    4   21 1     
   10    5    6 ar    
   11    5   22 1     
   12    6    7 ar    
   13    7    8 1     
   14    7   17 ar    
   15    8    9 am    
   16    8   23 1     
   17    9   10 2     
   18    9   11 1     
   19   11   16 1     
   20   11   12 1     
   21   11   24 1     
   22   12   13 1     
   23   12   25 1     
   24   12   26 1     
   25   13   14 1     
   26   13   27 1     
   27   13   28 1     
   28   14   15 1     
   29   14   16 1     
   30   14   29 1     
   31   15   30 1     
   32   15   31 1     
   33   15   32 1     
   34   17   33 1     
   35    2   34 1     
   36    2   35 1     
   37    6   36 1     
   38   10   37 1     
   39   10   38 1     
   40   16   39 1     
   41   16   40 1     
@<TRIPOS>SUBSTRUCTURE
      1 S1             1
@<TRIPOS>SET
LONE_PAIRS      STATIC     ATOMS    <user>   **** ""
7 34 35 36 37 38 39 40
DONOR_HYDROGENS      STATIC     ATOMS    <user>   **** ""
1 23
ATOM$BLUE        STATIC     ATOMS    COLORGROUP SYSTEM
7 34 35 36 37 38 39 40
ATOM$RED        STATIC     ATOMS    COLORGROUP SYSTEM
1 23
