#       Name:                AV-unprocessed.smi:1815
#       Creating user name   scv26
#       Creation time:       Fri Mar 27 09:01:30 2020


#       File generated by GOLD software.
#

@<TRIPOS>MOLECULE
AV-unprocessed.smi:1815
    45    46     1
SMALL
NO_CHARGES


@<TRIPOS>ATOM
      1 ****        -3.8310  -1.4908   2.8478 C.3            1 S1                 0.0000
      2 ****        -3.3438  -0.6420   1.6681 C.3            1 S1                 0.0000
      3 ****        -1.8112  -0.5033   1.6524 C.3            1 S1                 0.0000
      4 ****        -1.3810   0.3945   0.5555 N.4            1 S1                 1.0000
      5 ****         0.0964   0.4710   0.4383 C.3            1 S1                 0.0000
      6 ****         0.5546   1.0077  -0.9318 C.3            1 S1                 0.0000
      7 ****         2.0080   0.9911  -1.0538 N.am           1 S1                 0.0000
      8 ****         2.7360  -0.0992  -1.3363 C.2            1 S1                 0.0000
      9 ****         2.2413  -1.2129  -1.5143 O.2            1 S1                 0.0000
     10 ****         4.0483   0.1875  -1.3931 N.am           1 S1                 0.0000
     11 ****         5.1266  -0.6951  -1.6661 C.2            1 S1                 0.0000
     12 ****         4.9865  -2.0016  -1.9204 N.2            1 S1                 0.0000
     13 ****         6.2146  -2.6252  -2.1543 C.2            1 S1                 0.0000
     14 ****         7.2872  -1.7725  -2.0731 C.2            1 S1                 0.0000
     15 ****         6.7946  -0.1427  -1.6982 S.3            1 S1                 0.0000
     16 ****        -2.0403   1.7174   0.6861 C.3            1 S1                 0.0000
     17 ****        -3.5733   1.5697   0.7539 C.3            1 S1                 0.0000
     18 ****        -4.2161   1.2149  -0.5988 C.3            1 S1                 0.0000
     19 ****        -3.9361   0.6492   1.7831 O.3            1 S1                 0.0000
     20 ****        -3.4134  -2.4971   2.8074 H              1 S1                 0.0000
     21 ****        -4.9174  -1.5820   2.8402 H              1 S1                 0.0000
     22 ****        -3.5417  -1.0466   3.8007 H              1 S1                 0.0000
     23 ****        -3.6782  -1.1205   0.7476 H              1 S1                 0.0000
     24 ****        -1.4542  -0.1096   2.6056 H              1 S1                 0.0000
     25 ****        -1.3588  -1.4874   1.5227 H              1 S1                 0.0000
     26 ****         0.5020   1.0800   1.2478 H              1 S1                 0.0000
     27 ****         0.5063  -0.5311   0.5717 H              1 S1                 0.0000
     28 ****         0.1069   0.4274  -1.7404 H              1 S1                 0.0000
     29 ****         0.2313   2.0383  -1.0729 H              1 S1                 0.0000
     30 ****         2.4898   1.8690  -0.9231 H              1 S1                 0.0000
     31 ****         4.3079   1.1480  -1.2237 H              1 S1                 0.0000
     32 ****         6.2334  -3.6827  -2.3724 H              1 S1                 0.0000
     33 ****         8.3329  -2.0042  -2.2109 H              1 S1                 0.0000
     34 ****        -1.6799   2.2057   1.5930 H              1 S1                 0.0000
     35 ****        -1.7765   2.3687  -0.1467 H              1 S1                 0.0000
     36 ****        -3.9857   2.5335   1.0539 H              1 S1                 0.0000
     37 ****        -4.0370   2.0038  -1.3297 H              1 S1                 0.0000
     38 ****        -5.2955   1.0997  -0.4980 H              1 S1                 0.0000
     39 ****        -3.8182   0.2912  -1.0180 H              1 S1                 0.0000
     40 ****        -1.7165  -0.0232  -0.3010 H              1 S1                 0.0000
     41 ****         1.2510  -1.3361  -1.4504 LP             1 S1                 0.0000
     42 ****         2.8300  -1.9939  -1.7226 LP             1 S1                 0.0000
     43 ****         4.1063  -2.4757  -1.9406 LP             1 S1                 0.0000
     44 ****        -3.6607   1.0404   2.6613 LP             1 S1                 0.0000
     45 ****        -4.9297   0.5382   1.7647 LP             1 S1                 0.0000
@<TRIPOS>BOND
    1    1    2 1     
    2    1   20 1     
    3    1   21 1     
    4    1   22 1     
    5    2   19 1     
    6    2    3 1     
    7    2   23 1     
    8    3    4 1     
    9    3   24 1     
   10    3   25 1     
   11    4    5 1     
   12    4   16 1     
   13    4   40 1     
   14    5    6 1     
   15    5   26 1     
   16    5   27 1     
   17    6    7 1     
   18    6   28 1     
   19    6   29 1     
   20    7    8 am    
   21    7   30 1     
   22    8    9 2     
   23    8   10 am    
   24   10   11 1     
   25   10   31 1     
   26   11   15 1     
   27   11   12 2     
   28   12   13 1     
   29   13   14 2     
   30   13   32 1     
   31   14   15 1     
   32   14   33 1     
   33   16   17 1     
   34   16   34 1     
   35   16   35 1     
   36   17   18 1     
   37   17   19 1     
   38   17   36 1     
   39   18   37 1     
   40   18   38 1     
   41   18   39 1     
   42    9   41 1     
   43    9   42 1     
   44   12   43 1     
   45   19   44 1     
   46   19   45 1     
@<TRIPOS>SUBSTRUCTURE
      1 S1             1
@<TRIPOS>SET
LONE_PAIRS      STATIC     ATOMS    <user>   **** ""
5 41 42 43 44 45
DONOR_HYDROGENS      STATIC     ATOMS    <user>   **** ""
3 40 30 31
ATOM$BLUE        STATIC     ATOMS    COLORGROUP SYSTEM
5 41 42 43 44 45
ATOM$RED        STATIC     ATOMS    COLORGROUP SYSTEM
3 40 30 31
