#       Name:                AV-unprocessed.smi:2246
#       Creating user name   scv26
#       Creation time:       Fri Mar 27 12:28:53 2020


#       File generated by GOLD software.
#

@<TRIPOS>MOLECULE
AV-unprocessed.smi:2246
    35    36     1
SMALL
NO_CHARGES


@<TRIPOS>ATOM
      1 ****         0.8515  -1.1602   1.7828 O.2            1 S1                 0.0000
      2 ****         0.4708  -0.1021   1.2831 C.2            1 S1                 0.0000
      3 ****        -1.0071   0.2396   1.1016 C.3            1 S1                 0.0000
      4 ****        -1.6585  -0.7095   0.1658 N.am           1 S1                 0.0000
      5 ****        -1.2767  -0.6999  -1.1934 C.2            1 S1                 0.0000
      6 ****        -1.7921  -1.5568  -2.0949 C.2            1 S1                 0.0000
      7 ****        -1.2954  -1.5134  -3.7491 Cl             1 S1                 0.0000
      8 ****        -2.7749  -2.5307  -1.6297 C.2            1 S1                 0.0000
      9 ****        -3.2816  -3.3154  -2.4303 O.2            1 S1                 0.0000
     10 ****        -3.0888  -2.5268  -0.3020 N.pl3          1 S1                -1.0000
     11 ****        -2.5450  -1.6565   0.6037 C.2            1 S1                 0.0000
     12 ****        -2.8363  -1.7007   1.7989 O.2            1 S1                 0.0000
     13 ****        -0.9552   1.6863   0.5625 C.3            1 S1                 0.0000
     14 ****         0.5232   2.0185   0.3196 C.3            1 S1                 0.0000
     15 ****         1.2615   0.8871   0.8517 N.am           1 S1                 0.0000
     16 ****         2.7232   0.8977   0.8692 C.3            1 S1                 0.0000
     17 ****         3.3317   0.1101  -0.3061 C.3            1 S1                 0.0000
     18 ****         4.6589   0.2171  -0.2567 F              1 S1                 0.0000
     19 ****         3.0106  -1.1819  -0.2431 F              1 S1                 0.0000
     20 ****         2.9094   0.6098  -1.4677 F              1 S1                 0.0000
     21 ****        -1.4748   0.2562   2.0869 H              1 S1                 0.0000
     22 ****        -0.5325   0.0348  -1.4607 H              1 S1                 0.0000
     23 ****        -1.5581   1.8408  -0.3330 H              1 S1                 0.0000
     24 ****        -1.3579   2.3640   1.3165 H              1 S1                 0.0000
     25 ****         0.7307   2.1253  -0.7457 H              1 S1                 0.0000
     26 ****         0.8123   2.9444   0.8182 H              1 S1                 0.0000
     27 ****         3.0705   1.9313   0.8346 H              1 S1                 0.0000
     28 ****         3.0798   0.4903   1.8166 H              1 S1                 0.0000
     29 ****         1.8294  -1.3369   1.8948 LP             1 S1                 0.0000
     30 ****         0.1830  -1.8433   2.0769 LP             1 S1                 0.0000
     31 ****        -3.0197  -3.2842  -3.3949 LP             1 S1                 0.0000
     32 ****        -3.9553  -3.9844  -2.1164 LP             1 S1                 0.0000
     33 ****        -3.7533  -3.1973   0.0279 LP             1 S1                 0.0000
     34 ****        -2.4267  -1.0495   2.4378 LP             1 S1                 0.0000
     35 ****        -3.4825  -2.3878   2.1310 LP             1 S1                 0.0000
@<TRIPOS>BOND
    1    1    2 2     
    2    2   15 am    
    3    2    3 1     
    4    3    4 1     
    5    3   13 1     
    6    3   21 1     
    7    4   11 am    
    8    4    5 1     
    9    5    6 2     
   10    5   22 1     
   11    6    7 1     
   12    6    8 1     
   13    8    9 2     
   14    8   10 1     
   15   10   11 1     
   16   11   12 2     
   17   13   14 1     
   18   13   23 1     
   19   13   24 1     
   20   14   15 1     
   21   14   25 1     
   22   14   26 1     
   23   15   16 1     
   24   16   17 1     
   25   16   27 1     
   26   16   28 1     
   27   17   18 1     
   28   17   19 1     
   29   17   20 1     
   30    1   29 1     
   31    1   30 1     
   32    9   31 1     
   33    9   32 1     
   34   10   33 1     
   35   12   34 1     
   36   12   35 1     
@<TRIPOS>SUBSTRUCTURE
      1 S1             1
@<TRIPOS>SET
LONE_PAIRS      STATIC     ATOMS    <user>   **** ""
7 29 30 31 32 33 34 35
ATOM$BLUE        STATIC     ATOMS    COLORGROUP SYSTEM
7 29 30 31 32 33 34 35
