AV-unprocessed.smi:3078|AV-procd|sdf|11734|dock7
  -GOLD-   2272017133D 1   1.00000     0.00000
 Structure written by MMmdl.
 23 23  0  0  0  0  0  0  0  0  2 V2000
  145.6805  136.7748  151.1906 C   0  0  0  0  0  0  0  0  0  0  0  0
  145.4099  135.3727  150.9555 N   0  0  0  0  0  0  0  0  0  0  0  0
  144.3939  134.8044  150.2183 C   0  0  0  0  0  0  0  0  0  0  0  0
  144.5518  133.4464  150.2755 C   0  0  0  0  0  0  0  0  0  0  0  0
  143.7205  132.3574  149.6435 C   0  0  1  0  0  0  0  0  0  0  0  0
  142.3295  132.4655  150.1126 N   0  3  0  0  0  0  0  0  0  0  0  0
  143.7682  132.3830  148.1038 C   0  0  0  0  0  0  0  0  0  0  0  0
  143.3912  133.6885  147.5960 N   0  0  0  0  0  0  0  0  0  0  0  0
  145.7119  133.2876  151.0874 C   0  0  0  0  0  0  0  0  0  0  0  0
  146.2206  134.4390  151.4930 N   0  0  0  0  0  0  0  0  0  0  0  0
  144.8331  137.3789  150.8652 H   0  0  0  0  0  0  0  0  0  0  0  0
  146.5668  137.0761  150.6318 H   0  0  0  0  0  0  0  0  0  0  0  0
  145.8503  136.9482  152.2539 H   0  0  0  0  0  0  0  0  0  0  0  0
  143.6526  135.4082  149.7155 H   0  0  0  0  0  0  0  0  0  0  0  0
  144.0738  131.3808  149.9780 H   0  0  0  0  0  0  0  0  0  0  0  0
  141.8488  131.5938  149.9421 H   0  0  0  0  0  0  0  0  0  0  0  0
  141.8627  133.2103  149.6152 H   0  0  0  0  0  0  0  0  0  0  0  0
  144.7785  132.1666  147.7553 H   0  0  0  0  0  0  0  0  0  0  0  0
  143.1121  131.6238  147.6770 H   0  0  0  0  0  0  0  0  0  0  0  0
  142.7900  133.5874  146.7904 H   0  0  0  0  0  0  0  0  0  0  0  0
  142.8562  134.1876  148.2928 H   0  0  0  0  0  0  0  0  0  0  0  0
  146.1976  132.3722  151.3920 H   0  0  0  0  0  0  0  0  0  0  0  0
  142.3225  132.6651  151.1024 H   0  0  0  0  0  0  0  0  0  0  0  0
  1  2  1  0  0  0  0
  1 11  1  0  0  0  0
  1 12  1  0  0  0  0
  1 13  1  0  0  0  0
  2 10  1  0  0  0  0
  2  3  1  0  0  0  0
  3  4  2  0  0  0  0
  3 14  1  0  0  0  0
  4  5  1  0  0  0  0
  4  9  1  0  0  0  0
  5  6  1  0  0  0  0
  5  7  1  0  0  0  0
  5 15  1  0  0  0  0
  6 16  1  0  0  0  0
  6 17  1  0  0  0  0
  6 23  1  0  0  0  0
  7  8  1  0  0  0  0
  7 18  1  0  0  0  0
  7 19  1  0  0  0  0
  8 20  1  0  0  0  0
  8 21  1  0  0  0  0
  9 10  2  0  0  0  0
  9 22  1  0  0  0  0
M  CHG  1   6   1
M  END
> <s_m_source_file>
AV-unprocessed.smi

> <i_m_source_file_index>
3078

> <i_lp_mmshare_version>
43012

> <i_f3d_flags>
0

> <s_epik_input>
W0NIM11uMVtjSF1jKFtjSF1uMSlbQ0BIXShbTkgyXSlbQ0gyXVtOSDJd

> <s_epik_cmdline>
J2VwaWtfcHl0aG9uJywgJy1waCcsICc3LjAnLCAnLXRuJywgJzgnLCAnLW1hJywgJzIwMCcsICctbWV0YWxfYmluZGluZycsICctaW1hZScsICc8aW5maWxlLm1hZT4nLCAnLW9tYWUnLCAnPG91dGZpbGUubWFlPic=

> <r_epik_Ionization_Penalty>
0.19937

> <r_epik_Ionization_Penalty_Charging>
0.0290541

> <r_epik_Ionization_Penalty_Neutral>
0.170316

> <r_epik_State_Penalty>
1.07715

> <r_epik_Charging_Adjusted_Penalty>
1.1062

> <i_epik_Tot_Q>
1

> <i_epik_Tot_abs_Q>
1

> <r_epik_Metal_State_Penalty>
1.07718

> <b_epik_Metal_Only>
0

> <s_lp_Force_Field>
OPLS_2005

> <r_lp_Energy>
0.880833

> <b_lp_Chiralities_Consistent>
1

> <s_lp_Variant>
AV-unprocessed.smi:3078-4

> <Gold.Version>
5.8.1

> <Gold.Id.Protein>
6NUR|6NUR_protein|mol2

> <Gold.PLP.Fitness>
42.0327

> <Gold.PLP.PLP>
-25.8033

> <Gold.PLP.part.hbond>
-5.9511

> <Gold.PLP.part.metal>
0.0000

> <Gold.PLP.part.buried>
-2.8105

> <Gold.PLP.part.nonpolar>
-18.1471

> <Gold.PLP.part.repulsive>
0.2618

> <Gold.PLP.ligand.clash>
0.0000

> <Gold.PLP.ligand.torsion>
0.0520

> <Gold.PLP.Chemscore.Hbond>
5.0000

> <Gold.PLP.Chemscore.CHOScore>
0.4399

> <Gold.PLP.Chemscore.Metal>
0.0000

> <Gold.Chemscore.Hbonds>
donor molecule, donor type, donor heavy atom, donor atom, acceptor molecule, acceptor atom, score
      L1  H     6    16       P1 10952  1.00
      L1  H     6    17       P1 10186  1.72
      L1  H     8    20       P1 10195  1.00
      L1  H     8    21       P1 10186  0.52
      P1  H  7918  7932       L1     8  0.01
      L1  C     3    14       P1 10186  0.24

> <Gold.PLP.Chemscore.Internal.Correction>
0.0135

> <Gold.Rescore>
     Score         DG    S(hbond)    S(metal)    S(lipo)     H(rot)  DE(clash)    DE(int)     intcor
     20.87     -20.91       3.88        0.00      51.77       1.40       0.00       0.04       ----

> <Gold.Chemscore.Fitness>
20.8695

> <Gold.Chemscore.DG>
-20.9086

> <Gold.Chemscore.ZeroCoef>
-5.4800

> <Gold.Chemscore.Hbond>
3.8825

> <Gold.Chemscore.Metal>
0.0000

> <Gold.Chemscore.Lipo>
51.7670

> <Gold.Chemscore.Internal_Hbond>
0.0000

> <Gold.Chemscore.DEClash>
0.0009

> <Gold.Chemscore.DEInternal>
0.0381

> <Gold.Chemscore.Rot>
1.4045

> <Gold.Chemscore.Internal.Correction>
   9.000000E+99

> <Gold.Chemscore.Hbonds>
donor molecule, donor type, donor heavy atom, donor atom, acceptor molecule, acceptor atom, score
      L1  H     6    16       P1 10952  0.90
      L1  H     6    17       P1 10186  0.81
      L1  H     8    20       P1 10195  0.99
      L1  H     8    21       P1 10186  0.50

> <Gold.Chemscore.Hbond.Weighted>
-12.9674

> <Gold.Chemscore.Metal.Weighted>
-0.0000

> <Gold.Chemscore.Lipo.Weighted>
-6.0567

> <Gold.Chemscore.Internal_Hbond.Weighted>
0.0000

> <Gold.Chemscore.DEClash.Weighted>
0.0009

> <Gold.Chemscore.DEInternal.Weighted>
0.0381

> <Gold.Chemscore.Rot.Weighted>
3.5956

> <Gold.Chemscore.Internal.Correction.Weighted>
   9.000000E+99

> <Gold.Protein.RotatedTorsions>
[ 6907 6896 6895 6894 ] final -137.60 input  -60.11 | X-H torsion
[ 7974 7965 7964 7962 ] final  -51.01 input  175.53 | X-H torsion
[ 8008 7997 7996 7995 ] final  149.74 input   59.86 | X-H torsion
[ 10167 10162 10161 10158 ] final  115.13 input  -65.29 | X-H torsion
[ 10718 10713 10712 10709 ] final   28.09 input   66.30 | X-H torsion
[ 10763 10752 10751 10750 ] final  175.42 input  -60.55 | X-H torsion
[ 11005 11000 10999 10996 ] final -169.52 input  -57.11 | X-H torsion

> <Gold.Protein.ActiveResidues>
 VAL166  LYS551  ARG553  GLY616  TRP617  ASP618  TYR619  PRO620  LYS621  CYS622 
 ASP623  PHE694  ASN695  SER759  ASP760  ASP761  ALA762  ILE779  LEU786  VAL792 
 PHE793  MET794  SER795  GLU796  ALA797  LYS798  CYS799  TRP800  GLU811  SER814 

> <Gold.Protein.RotatedAtoms>
  151.0245  133.5846  159.2667 H   0  0  0  0  0  0  0  0  0  0  0  0  # atno 6907 bound_to 6896
  151.2951  135.0752  159.9228 H   0  0  0  0  0  0  0  0  0  0  0  0  # atno 6908 bound_to 6896
  152.5331  133.9936  159.7916 H   0  0  0  0  0  0  0  0  0  0  0  0  # atno 6909 bound_to 6896
  145.9236  140.7812  142.9635 H   0  0  0  0  0  0  0  0  0  0  0  0  # atno 7974 bound_to 7965
  156.2743  140.2093  156.5907 H   0  0  0  0  0  0  0  0  0  0  0  0  # atno 8008 bound_to 7997
  154.6985  140.0523  157.0458 H   0  0  0  0  0  0  0  0  0  0  0  0  # atno 8009 bound_to 7997
  155.0768  140.3182  155.4616 H   0  0  0  0  0  0  0  0  0  0  0  0  # atno 8010 bound_to 7997
  139.6339  144.7118  151.2375 H   0  0  0  0  0  0  0  0  0  0  0  0  # atno 10167 bound_to 10162
  157.2289  130.7014  149.6304 H   0  0  0  0  0  0  0  0  0  0  0  0  # atno 10718 bound_to 10713
  154.4674  135.2770  155.1668 H   0  0  0  0  0  0  0  0  0  0  0  0  # atno 10763 bound_to 10752
  154.3431  135.6166  153.5610 H   0  0  0  0  0  0  0  0  0  0  0  0  # atno 10764 bound_to 10752
  152.9860  135.5793  154.5048 H   0  0  0  0  0  0  0  0  0  0  0  0  # atno 10765 bound_to 10752
  140.5298  134.5628  157.5071 H   0  0  0  0  0  0  0  0  0  0  0  0  # atno 11005 bound_to 11000
  144.6756  140.2014  143.7386 LP  0  0  0  0  0  0  0  0  0  0  0  0  # atno 17320 bound_to 7965
  145.8518  139.2179  143.1767 LP  0  0  0  0  0  0  0  0  0  0  0  0  # atno 17321 bound_to 7965
  140.7454  143.6431  150.8317 LP  0  0  0  0  0  0  0  0  0  0  0  0  # atno 17342 bound_to 10162
  140.0060  143.5694  152.2857 LP  0  0  0  0  0  0  0  0  0  0  0  0  # atno 17343 bound_to 10162
  155.9677  130.4495  150.5662 LP  0  0  0  0  0  0  0  0  0  0  0  0  # atno 17370 bound_to 10713
  157.3499  131.0731  151.1721 LP  0  0  0  0  0  0  0  0  0  0  0  0  # atno 17371 bound_to 10713
  139.9560  134.7533  156.0340 LP  0  0  0  0  0  0  0  0  0  0  0  0  # atno 17394 bound_to 11000
  141.1288  133.6592  156.3408 LP  0  0  0  0  0  0  0  0  0  0  0  0  # atno 17395 bound_to 11000

$$$$
