AV-unprocessed.smi:1326|AV-procd|sdf|5475|dock6
  -GOLD-   22720 5 43D 1   1.00000     0.00000
 Structure written by MMmdl.
 39 39  0  0  0  0  0  0  0  0  1 V2000
  151.0252  142.5196  156.5510 C   0  0  0  0  0  0  0  0  0  0  0  0
  150.1312  141.6534  155.6906 C   0  0  0  0  0  0  0  0  0  0  0  0
  148.8988  142.2239  155.4189 N   0  0  0  0  0  0  0  0  0  0  0  0
  148.0132  141.5087  154.6322 C   0  0  0  0  0  0  0  0  0  0  0  0
  146.6883  142.2068  154.3805 C   0  0  0  0  0  0  0  0  0  0  0  0
  148.3377  140.2845  154.1441 C   0  0  0  0  0  0  0  0  0  0  0  0
  147.3890  139.4650  153.2700 C   0  0  0  0  0  0  0  0  0  0  0  0
  146.7192  138.2702  153.9520 C   0  0  0  0  0  0  0  0  0  0  0  0
  145.9135  138.4551  154.8637 O   0  0  0  0  0  0  0  0  0  0  0  0
  147.0504  137.0531  153.4932 N   0  0  0  0  0  0  0  0  0  0  0  0
  146.5100  135.7933  153.9891 C   0  0  0  0  0  0  0  0  0  0  0  0
  146.0172  134.9050  152.8323 C   0  0  0  0  0  0  0  0  0  0  0  0
  145.0707  135.6198  151.8467 C   0  0  0  0  0  0  0  0  0  0  0  0
  143.8015  136.1545  152.5317 C   0  0  0  0  0  0  0  0  0  0  0  0
  144.6988  134.6890  150.6822 C   0  0  0  0  0  0  0  0  0  0  0  0
  149.6686  139.7223  154.4763 C   0  0  0  0  0  0  0  0  0  0  0  0
  150.0157  138.6106  154.0795 O   0  0  0  0  0  0  0  0  0  0  0  0
  150.5328  140.4918  155.2721 N   0  0  0  0  0  0  0  0  0  0  0  0
  148.6173  143.1318  155.7603 H   0  0  0  0  0  0  0  0  0  0  0  0
  151.9334  141.9848  156.8318 H   0  0  0  0  0  0  0  0  0  0  0  0
  150.5077  142.8130  157.4648 H   0  0  0  0  0  0  0  0  0  0  0  0
  151.3128  143.4214  156.0095 H   0  0  0  0  0  0  0  0  0  0  0  0
  145.8611  141.5987  154.7465 H   0  0  0  0  0  0  0  0  0  0  0  0
  146.5448  142.3791  153.3139 H   0  0  0  0  0  0  0  0  0  0  0  0
  146.6402  143.1728  154.8845 H   0  0  0  0  0  0  0  0  0  0  0  0
  147.8969  139.1083  152.3734 H   0  0  0  0  0  0  0  0  0  0  0  0
  146.6077  140.1272  152.8956 H   0  0  0  0  0  0  0  0  0  0  0  0
  147.7191  136.9967  152.7382 H   0  0  0  0  0  0  0  0  0  0  0  0
  147.3032  135.2936  154.5440 H   0  0  0  0  0  0  0  0  0  0  0  0
  145.7035  135.9815  154.6997 H   0  0  0  0  0  0  0  0  0  0  0  0
  146.8860  134.5429  152.2807 H   0  0  0  0  0  0  0  0  0  0  0  0
  145.5263  134.0177  153.2346 H   0  0  0  0  0  0  0  0  0  0  0  0
  145.6051  136.4702  151.4212 H   0  0  0  0  0  0  0  0  0  0  0  0
  143.2451  135.3523  153.0175 H   0  0  0  0  0  0  0  0  0  0  0  0
  143.1367  136.6278  151.8084 H   0  0  0  0  0  0  0  0  0  0  0  0
  144.0361  136.9038  153.2871 H   0  0  0  0  0  0  0  0  0  0  0  0
  144.1713  133.8028  151.0367 H   0  0  0  0  0  0  0  0  0  0  0  0
  145.5872  134.3545  150.1455 H   0  0  0  0  0  0  0  0  0  0  0  0
  144.0541  135.1946  149.9628 H   0  0  0  0  0  0  0  0  0  0  0  0
  1 20  1  0  0  0  0
  1 21  1  0  0  0  0
  1 22  1  0  0  0  0
  1  2  1  0  0  0  0
  2  3  1  0  0  0  0
  2 18  2  0  0  0  0
  3  4  1  0  0  0  0
  3 19  1  0  0  0  0
  4  6  2  0  0  0  0
  4  5  1  0  0  0  0
  5 23  1  0  0  0  0
  5 24  1  0  0  0  0
  5 25  1  0  0  0  0
  6 16  1  0  0  0  0
  6  7  1  0  0  0  0
  7  8  1  0  0  0  0
  7 26  1  0  0  0  0
  7 27  1  0  0  0  0
  8  9  2  0  0  0  0
  8 10  1  0  0  0  0
 10 11  1  0  0  0  0
 10 28  1  0  0  0  0
 11 12  1  0  0  0  0
 11 29  1  0  0  0  0
 11 30  1  0  0  0  0
 12 13  1  0  0  0  0
 12 31  1  0  0  0  0
 12 32  1  0  0  0  0
 13 14  1  0  0  0  0
 13 15  1  0  0  0  0
 13 33  1  0  0  0  0
 14 34  1  0  0  0  0
 14 35  1  0  0  0  0
 14 36  1  0  0  0  0
 15 37  1  0  0  0  0
 15 38  1  0  0  0  0
 15 39  1  0  0  0  0
 16 17  2  0  0  0  0
 16 18  1  0  0  0  0
M  END
> <s_m_source_file>
AV-unprocessed.smi

> <i_m_source_file_index>
1326

> <i_lp_mmshare_version>
43012

> <i_f3d_flags>
0

> <s_epik_input>
W0NIM11jMW5jKFtDSDNdKWMoYyg9TylbbkhdMSlbQ0gyXUMoPU8pW05IXVtDSDJdW0NIMl1bQ0hdKFtDSDNdKVtDSDNd

> <s_epik_cmdline>
J2VwaWtfcHl0aG9uJywgJy1waCcsICc3LjAnLCAnLXRuJywgJzgnLCAnLW1hJywgJzIwMCcsICctbWV0YWxfYmluZGluZycsICctaW1hZScsICc8aW5maWxlLm1hZT4nLCAnLW9tYWUnLCAnPG91dGZpbGUubWFlPic=

> <r_lp_tautomer_probability>
0.156392

> <r_epik_Ionization_Penalty>
0.0135605

> <r_epik_Ionization_Penalty_Charging>
0.013428

> <r_epik_Ionization_Penalty_Neutral>
0.000132491

> <r_epik_State_Penalty>
1.15342

> <r_epik_Charging_Adjusted_Penalty>
1.16684

> <i_epik_Tot_Q>
0

> <i_epik_Tot_abs_Q>
0

> <r_epik_Metal_State_Penalty>
1.31299

> <b_epik_Metal_Only>
0

> <s_lp_Force_Field>
OPLS_2005

> <r_lp_Energy>
9.03726

> <b_lp_Chiralities_Consistent>
1

> <s_lp_Variant>
AV-unprocessed.smi:1326-2

> <Gold.Version>
5.8.1

> <Gold.Id.Protein>
6NUR|6NUR_protein|mol2

> <Gold.PLP.Fitness>
38.0658

> <Gold.PLP.PLP>
-31.4756

> <Gold.PLP.part.hbond>
-2.7817

> <Gold.PLP.part.metal>
0.0000

> <Gold.PLP.part.buried>
-3.6177

> <Gold.PLP.part.nonpolar>
-25.6844

> <Gold.PLP.part.repulsive>
0.5747

> <Gold.PLP.ligand.clash>
0.0000

> <Gold.PLP.ligand.torsion>
0.2829

> <Gold.PLP.Chemscore.Hbond>
2.3738

> <Gold.PLP.Chemscore.CHOScore>
0.0000

> <Gold.PLP.Chemscore.Metal>
0.0000

> <Gold.Chemscore.Hbonds>
donor molecule, donor type, donor heavy atom, donor atom, acceptor molecule, acceptor atom, score
      L1  H     3    19       P1  8028  0.91
      L1  H    10    28       P1  7948  1.00
      P1  H  7989  7998       L1    18  0.27

> <Gold.PLP.Chemscore.Internal.Correction>
0.0347

> <Gold.Rescore>
     Score         DG    S(hbond)    S(metal)    S(lipo)     H(rot)  DE(clash)    DE(int)     intcor
     13.66     -13.86       2.00        0.00      56.05       1.89       0.02       0.18       ----

> <Gold.Chemscore.Fitness>
13.6604

> <Gold.Chemscore.DG>
-13.8643

> <Gold.Chemscore.ZeroCoef>
-5.4800

> <Gold.Chemscore.Hbond>
1.9965

> <Gold.Chemscore.Metal>
0.0000

> <Gold.Chemscore.Lipo>
56.0547

> <Gold.Chemscore.Internal_Hbond>
0.0000

> <Gold.Chemscore.DEClash>
0.0249

> <Gold.Chemscore.DEInternal>
0.1790

> <Gold.Chemscore.Rot>
1.8916

> <Gold.Chemscore.Internal.Correction>
   9.000000E+99

> <Gold.Chemscore.Hbonds>
donor molecule, donor type, donor heavy atom, donor atom, acceptor molecule, acceptor atom, score
      L1  H     3    19       P1  8028  0.87
      L1  H    10    28       P1  7948  0.98

> <Gold.Chemscore.Hbond.Weighted>
-6.6683

> <Gold.Chemscore.Metal.Weighted>
-0.0000

> <Gold.Chemscore.Lipo.Weighted>
-6.5584

> <Gold.Chemscore.Internal_Hbond.Weighted>
0.0000

> <Gold.Chemscore.DEClash.Weighted>
0.0249

> <Gold.Chemscore.DEInternal.Weighted>
0.1790

> <Gold.Chemscore.Rot.Weighted>
4.8424

> <Gold.Chemscore.Internal.Correction.Weighted>
   9.000000E+99

> <Gold.Protein.RotatedTorsions>
[ 6907 6896 6895 6894 ] final  170.50 input  -60.11 | X-H torsion
[ 7974 7965 7964 7962 ] final   30.10 input  175.53 | X-H torsion
[ 8008 7997 7996 7995 ] final -135.31 input   59.86 | X-H torsion
[ 10167 10162 10161 10158 ] final   75.95 input  -65.29 | X-H torsion
[ 10718 10713 10712 10709 ] final   58.97 input   66.30 | X-H torsion
[ 10763 10752 10751 10750 ] final   -2.12 input  -60.55 | X-H torsion
[ 11005 11000 10999 10996 ] final  173.59 input  -57.11 | X-H torsion

> <Gold.Protein.ActiveResidues>
 VAL166  LYS551  ARG553  GLY616  TRP617  ASP618  TYR619  PRO620  LYS621  CYS622 
 ASP623  PHE694  ASN695  SER759  ASP760  ASP761  ALA762  ILE779  LEU786  VAL792 
 PHE793  MET794  SER795  GLU796  ALA797  LYS798  CYS799  TRP800  GLU811  SER814 

> <Gold.Protein.RotatedAtoms>
  151.8151  133.3387  159.3566 H   0  0  0  0  0  0  0  0  0  0  0  0  # atno 6907 bound_to 6896
  150.7313  134.5626  159.5859 H   0  0  0  0  0  0  0  0  0  0  0  0  # atno 6908 bound_to 6896
  152.3046  134.7571  160.0401 H   0  0  0  0  0  0  0  0  0  0  0  0  # atno 6909 bound_to 6896
  146.1632  139.6833  142.9019 H   0  0  0  0  0  0  0  0  0  0  0  0  # atno 7974 bound_to 7965
  155.3765  140.0491  157.3044 H   0  0  0  0  0  0  0  0  0  0  0  0  # atno 8008 bound_to 7997
  154.5103  140.2189  155.9131 H   0  0  0  0  0  0  0  0  0  0  0  0  # atno 8009 bound_to 7997
  156.1575  140.3123  155.8756 H   0  0  0  0  0  0  0  0  0  0  0  0  # atno 8010 bound_to 7997
  139.9975  144.5711  150.7765 H   0  0  0  0  0  0  0  0  0  0  0  0  # atno 10167 bound_to 10162
  157.5639  130.8856  149.9155 H   0  0  0  0  0  0  0  0  0  0  0  0  # atno 10718 bound_to 10713
  153.3539  135.6987  153.6766 H   0  0  0  0  0  0  0  0  0  0  0  0  # atno 10763 bound_to 10752
  153.5482  135.3559  155.2748 H   0  0  0  0  0  0  0  0  0  0  0  0  # atno 10764 bound_to 10752
  154.8657  135.4220  154.2781 H   0  0  0  0  0  0  0  0  0  0  0  0  # atno 10765 bound_to 10752
  140.3421  134.7267  157.4210 H   0  0  0  0  0  0  0  0  0  0  0  0  # atno 11005 bound_to 11000
  145.4535  141.0429  143.2791 LP  0  0  0  0  0  0  0  0  0  0  0  0  # atno 17320 bound_to 7965
  144.8055  139.6059  143.7052 LP  0  0  0  0  0  0  0  0  0  0  0  0  # atno 17321 bound_to 7965
  140.7431  143.2842  151.3511 LP  0  0  0  0  0  0  0  0  0  0  0  0  # atno 17342 bound_to 10162
  139.6295  144.0748  152.2464 LP  0  0  0  0  0  0  0  0  0  0  0  0  # atno 17343 bound_to 10162
  156.0689  130.3688  150.0819 LP  0  0  0  0  0  0  0  0  0  0  0  0  # atno 17370 bound_to 10713
  156.8980  130.9611  151.3580 LP  0  0  0  0  0  0  0  0  0  0  0  0  # atno 17371 bound_to 10713
  140.0772  134.5781  155.8578 LP  0  0  0  0  0  0  0  0  0  0  0  0  # atno 17394 bound_to 11000
  141.2035  133.6632  156.6069 LP  0  0  0  0  0  0  0  0  0  0  0  0  # atno 17395 bound_to 11000

$$$$
