AV-unprocessed.smi:2128|AV-procd|sdf|8681|dock7
  -GOLD-   2272011433D 1   1.00000     0.00000
 Structure written by MMmdl.
 50 52  0  0  0  0  0  0  0  0  1 V2000
  151.9886  145.5918  159.1164 O   0  0  0  0  0  0  0  0  0  0  0  0
  152.1171  144.3748  159.0021 C   0  0  0  0  0  0  0  0  0  0  0  0
  151.5648  143.6698  157.7496 C   0  0  0  0  0  0  0  0  0  0  0  0
  151.6141  142.2001  157.7682 N   0  0  0  0  0  0  0  0  0  0  0  0
  150.9021  141.5215  156.7474 C   0  0  0  0  0  0  0  0  0  0  0  0
  149.5376  141.8078  156.4905 C   0  0  0  0  0  0  0  0  0  0  0  0
  148.8619  141.1105  155.4707 C   0  0  0  0  0  0  0  0  0  0  0  0
  149.5655  140.1419  154.7196 C   0  0  0  0  0  0  0  0  0  0  0  0
  148.9912  139.3596  153.6815 N   0  0  0  0  0  0  0  0  0  0  0  0
  147.6948  139.2361  153.3496 C   0  0  0  0  0  0  0  0  0  0  0  0
  146.7609  139.8123  153.9072 O   0  0  0  0  0  0  0  0  0  0  0  0
  147.5411  138.4169  152.2989 N   0  0  0  0  0  0  0  0  0  0  0  0
  146.2737  138.1070  151.6414 C   0  0  0  0  0  0  0  0  0  0  0  0
  145.2687  137.4454  152.6050 C   0  0  0  0  0  0  0  0  0  0  0  0
  144.6848  136.1383  152.0894 C   0  0  0  0  0  0  0  0  0  0  0  0
  144.9913  135.6547  150.8697 C   0  0  0  0  0  0  0  0  0  0  0  0
  144.4548  134.3500  150.3088 C   0  0  0  0  0  0  0  0  0  0  0  0
  143.8189  133.4640  151.3930 C   0  0  0  0  0  0  0  0  0  0  0  0
  142.9403  134.2912  152.3395 C   0  0  0  0  0  0  0  0  0  0  0  0
  143.7531  135.3945  153.0401 C   0  0  0  0  0  0  0  0  0  0  0  0
  150.9143  139.9145  155.0527 C   0  0  0  0  0  0  0  0  0  0  0  0
  151.5651  140.5824  156.0274 N   0  0  0  0  0  0  0  0  0  0  0  0
  151.8365  141.5139  159.0442 C   0  0  0  0  0  0  0  0  0  0  0  0
  152.9398  142.2050  159.8570 C   0  0  0  0  0  0  0  0  0  0  0  0
  152.7180  143.6410  159.9513 N   0  0  0  0  0  0  0  0  0  0  0  0
  150.5354  143.9990  157.5984 H   0  0  0  0  0  0  0  0  0  0  0  0
  152.1511  144.0354  156.9063 H   0  0  0  0  0  0  0  0  0  0  0  0
  148.9936  142.5512  157.0526 H   0  0  0  0  0  0  0  0  0  0  0  0
  147.8188  141.3242  155.2968 H   0  0  0  0  0  0  0  0  0  0  0  0
  149.6506  138.8911  153.0776 H   0  0  0  0  0  0  0  0  0  0  0  0
  148.3683  137.9907  151.9072 H   0  0  0  0  0  0  0  0  0  0  0  0
  145.8535  139.0431  151.2737 H   0  0  0  0  0  0  0  0  0  0  0  0
  146.4310  137.4863  150.7582 H   0  0  0  0  0  0  0  0  0  0  0  0
  145.7608  137.2650  153.5618 H   0  0  0  0  0  0  0  0  0  0  0  0
  144.4483  138.1328  152.8137 H   0  0  0  0  0  0  0  0  0  0  0  0
  145.6442  136.2171  150.2179 H   0  0  0  0  0  0  0  0  0  0  0  0
  143.7188  134.5926  149.5417 H   0  0  0  0  0  0  0  0  0  0  0  0
  145.2630  133.8100  149.8152 H   0  0  0  0  0  0  0  0  0  0  0  0
  143.2350  132.6683  150.9297 H   0  0  0  0  0  0  0  0  0  0  0  0
  144.6042  132.9748  151.9707 H   0  0  0  0  0  0  0  0  0  0  0  0
  142.1291  134.7460  151.7689 H   0  0  0  0  0  0  0  0  0  0  0  0
  142.4706  133.6463  153.0824 H   0  0  0  0  0  0  0  0  0  0  0  0
  144.3610  134.9618  153.8352 H   0  0  0  0  0  0  0  0  0  0  0  0
  143.0664  136.0931  153.5172 H   0  0  0  0  0  0  0  0  0  0  0  0
  151.4946  139.1763  154.5185 H   0  0  0  0  0  0  0  0  0  0  0  0
  150.9028  141.5053  159.6090 H   0  0  0  0  0  0  0  0  0  0  0  0
  152.1309  140.4750  158.8885 H   0  0  0  0  0  0  0  0  0  0  0  0
  152.9962  141.7808  160.8597 H   0  0  0  0  0  0  0  0  0  0  0  0
  153.9101  142.0397  159.3865 H   0  0  0  0  0  0  0  0  0  0  0  0
  153.0652  144.1121  160.7743 H   0  0  0  0  0  0  0  0  0  0  0  0
  1  2  2  0  0  0  0
  2 25  1  0  0  0  0
  2  3  1  0  0  0  0
  3  4  1  0  0  0  0
  3 26  1  0  0  0  0
  3 27  1  0  0  0  0
  4  5  1  0  0  0  0
  4 23  1  0  0  0  0
  5 22  1  0  0  0  0
  5  6  2  0  0  0  0
  6  7  1  0  0  0  0
  6 28  1  0  0  0  0
  7  8  2  0  0  0  0
  7 29  1  0  0  0  0
  8  9  1  0  0  0  0
  8 21  1  0  0  0  0
  9 10  1  0  0  0  0
  9 30  1  0  0  0  0
 10 11  2  0  0  0  0
 10 12  1  0  0  0  0
 12 13  1  0  0  0  0
 12 31  1  0  0  0  0
 13 14  1  0  0  0  0
 13 32  1  0  0  0  0
 13 33  1  0  0  0  0
 14 15  1  0  0  0  0
 14 34  1  0  0  0  0
 14 35  1  0  0  0  0
 15 20  1  0  0  0  0
 15 16  2  0  0  0  0
 16 17  1  0  0  0  0
 16 36  1  0  0  0  0
 17 18  1  0  0  0  0
 17 37  1  0  0  0  0
 17 38  1  0  0  0  0
 18 19  1  0  0  0  0
 18 39  1  0  0  0  0
 18 40  1  0  0  0  0
 19 20  1  0  0  0  0
 19 41  1  0  0  0  0
 19 42  1  0  0  0  0
 20 43  1  0  0  0  0
 20 44  1  0  0  0  0
 21 22  2  0  0  0  0
 21 45  1  0  0  0  0
 23 24  1  0  0  0  0
 23 46  1  0  0  0  0
 23 47  1  0  0  0  0
 24 25  1  0  0  0  0
 24 48  1  0  0  0  0
 24 49  1  0  0  0  0
 25 50  1  0  0  0  0
M  END
> <s_m_source_file>
AV-unprocessed.smi

> <i_m_source_file_index>
2128

> <i_lp_mmshare_version>
43012

> <i_f3d_flags>
0

> <s_epik_input>
Tz1DMVtDSDJdTihbQ0gyXVtDSDJdW05IXTEpYzJbY0hdW2NIXWMoW2NIXW4yKVtOSF1DKD1PKVtOSF1bQ0gyXVtDSDJdQzM9W0NIXVtDSDJdW0NIMl1bQ0gyXVtDSDJdMw==

> <s_epik_cmdline>
J2VwaWtfcHl0aG9uJywgJy1waCcsICc3LjAnLCAnLXRuJywgJzgnLCAnLW1hJywgJzIwMCcsICctbWV0YWxfYmluZGluZycsICctaW1hZScsICc8aW5maWxlLm1hZT4nLCAnLW9tYWUnLCAnPG91dGZpbGUubWFlPic=

> <r_lp_tautomer_probability>
1

> <r_epik_Ionization_Penalty>
0.0211825

> <r_epik_Ionization_Penalty_Charging>
0

> <r_epik_Ionization_Penalty_Neutral>
0.0211825

> <r_epik_State_Penalty>
0.0169697

> <r_epik_Charging_Adjusted_Penalty>
0.0169697

> <i_epik_Tot_Q>
0

> <i_epik_Tot_abs_Q>
0

> <r_epik_Metal_State_Penalty>
0.0163833

> <b_epik_Metal_Only>
0

> <s_lp_Force_Field>
OPLS_2005

> <r_lp_Energy>
24.085

> <b_lp_Chiralities_Consistent>
1

> <s_lp_Variant>
AV-unprocessed.smi:2128-1

> <Gold.Version>
5.8.1

> <Gold.Id.Protein>
6NUR|6NUR_protein|mol2

> <Gold.PLP.Fitness>
50.6214

> <Gold.PLP.PLP>
-51.3675

> <Gold.PLP.part.hbond>
-3.5306

> <Gold.PLP.part.metal>
0.0000

> <Gold.PLP.part.buried>
-3.3302

> <Gold.PLP.part.nonpolar>
-44.9783

> <Gold.PLP.part.repulsive>
0.4531

> <Gold.PLP.ligand.clash>
0.0000

> <Gold.PLP.ligand.torsion>
1.5818

> <Gold.PLP.Chemscore.Hbond>
0.7442

> <Gold.PLP.Chemscore.CHOScore>
0.0000

> <Gold.PLP.Chemscore.Metal>
0.0000

> <Gold.Chemscore.Hbonds>
donor molecule, donor type, donor heavy atom, donor atom, acceptor molecule, acceptor atom, score
      L1  H     9    30       P1  7957  0.07
      L1  H    12    31       P1  7948  0.67

> <Gold.PLP.Chemscore.Internal.Correction>
0.1849

> <Gold.Rescore>
     Score         DG    S(hbond)    S(metal)    S(lipo)     H(rot)  DE(clash)    DE(int)     intcor
     13.01     -16.11       0.86        0.00      97.10       1.41       0.14       2.95       ----

> <Gold.Chemscore.Fitness>
13.0135

> <Gold.Chemscore.DG>
-16.1115

> <Gold.Chemscore.ZeroCoef>
-5.4800

> <Gold.Chemscore.Hbond>
0.8614

> <Gold.Chemscore.Metal>
0.0000

> <Gold.Chemscore.Lipo>
97.0996

> <Gold.Chemscore.Internal_Hbond>
0.0000

> <Gold.Chemscore.DEClash>
0.1449

> <Gold.Chemscore.DEInternal>
2.9531

> <Gold.Chemscore.Rot>
1.4087

> <Gold.Chemscore.Internal.Correction>
   9.000000E+99

> <Gold.Chemscore.Hbonds>
donor molecule, donor type, donor heavy atom, donor atom, acceptor molecule, acceptor atom, score
      L1  H     9    30       P1  7957  0.07
      L1  H    12    31       P1  7948  0.68

> <Gold.Chemscore.Hbond.Weighted>
-2.8770

> <Gold.Chemscore.Metal.Weighted>
-0.0000

> <Gold.Chemscore.Lipo.Weighted>
-11.3607

> <Gold.Chemscore.Internal_Hbond.Weighted>
0.0000

> <Gold.Chemscore.DEClash.Weighted>
0.1449

> <Gold.Chemscore.DEInternal.Weighted>
2.9531

> <Gold.Chemscore.Rot.Weighted>
3.6061

> <Gold.Chemscore.Internal.Correction.Weighted>
   9.000000E+99

> <Gold.Protein.RotatedTorsions>
[ 6907 6896 6895 6894 ] final   85.15 input  -60.11 | X-H torsion
[ 7974 7965 7964 7962 ] final   10.14 input  175.53 | X-H torsion
[ 8008 7997 7996 7995 ] final   11.38 input   59.86 | X-H torsion
[ 10167 10162 10161 10158 ] final  -26.65 input  -65.29 | X-H torsion
[ 10718 10713 10712 10709 ] final   39.47 input   66.30 | X-H torsion
[ 10763 10752 10751 10750 ] final   -1.58 input  -60.55 | X-H torsion
[ 11005 11000 10999 10996 ] final   27.37 input  -57.11 | X-H torsion

> <Gold.Protein.ActiveResidues>
 VAL166  LYS551  ARG553  GLY616  TRP617  ASP618  TYR619  PRO620  LYS621  CYS622 
 ASP623  PHE694  ASN695  SER759  ASP760  ASP761  ALA762  ILE779  LEU786  VAL792 
 PHE793  MET794  SER795  GLU796  ALA797  LYS798  CYS799  TRP800  GLU811  SER814 

> <Gold.Protein.RotatedAtoms>
  152.5368  134.2631  159.8942 H   0  0  0  0  0  0  0  0  0  0  0  0  # atno 6907 bound_to 6896
  151.2590  133.4305  159.2623 H   0  0  0  0  0  0  0  0  0  0  0  0  # atno 6908 bound_to 6896
  151.0470  134.9661  159.8248 H   0  0  0  0  0  0  0  0  0  0  0  0  # atno 6909 bound_to 6896
  146.2393  139.9678  142.8450 H   0  0  0  0  0  0  0  0  0  0  0  0  # atno 7974 bound_to 7965
  154.8061  140.2860  155.5887 H   0  0  0  0  0  0  0  0  0  0  0  0  # atno 8008 bound_to 7997
  156.2983  140.2577  156.2869 H   0  0  0  0  0  0  0  0  0  0  0  0  # atno 8009 bound_to 7997
  154.9502  140.0379  157.2129 H   0  0  0  0  0  0  0  0  0  0  0  0  # atno 8010 bound_to 7997
  140.7281  143.4160  151.1028 H   0  0  0  0  0  0  0  0  0  0  0  0  # atno 10167 bound_to 10162
  157.3710  130.7701  149.7119 H   0  0  0  0  0  0  0  0  0  0  0  0  # atno 10718 bound_to 10713
  153.3467  135.6983  153.6822 H   0  0  0  0  0  0  0  0  0  0  0  0  # atno 10763 bound_to 10752
  153.5565  135.3543  155.2782 H   0  0  0  0  0  0  0  0  0  0  0  0  # atno 10764 bound_to 10752
  154.8646  135.4239  154.2693 H   0  0  0  0  0  0  0  0  0  0  0  0  # atno 10765 bound_to 10752
  140.3270  134.2480  155.7708 H   0  0  0  0  0  0  0  0  0  0  0  0  # atno 11005 bound_to 11000
  145.1709  140.9720  143.4322 LP  0  0  0  0  0  0  0  0  0  0  0  0  # atno 17320 bound_to 7965
  145.0029  139.3581  143.6158 LP  0  0  0  0  0  0  0  0  0  0  0  0  # atno 17321 bound_to 7965
  139.7799  143.8370  152.3136 LP  0  0  0  0  0  0  0  0  0  0  0  0  # atno 17342 bound_to 10162
  139.8318  144.7250  150.9441 LP  0  0  0  0  0  0  0  0  0  0  0  0  # atno 17343 bound_to 10162
  155.9755  130.4087  150.3842 LP  0  0  0  0  0  0  0  0  0  0  0  0  # atno 17370 bound_to 10713
  157.1933  131.0420  151.2689 LP  0  0  0  0  0  0  0  0  0  0  0  0  # atno 17371 bound_to 10713
  141.2073  133.7810  157.0129 LP  0  0  0  0  0  0  0  0  0  0  0  0  # atno 17394 bound_to 11000
  140.0893  134.9602  157.1750 LP  0  0  0  0  0  0  0  0  0  0  0  0  # atno 17395 bound_to 11000

$$$$
