AV-unprocessed.smi:2160|AV-procd|sdf|8799|dock3
  -GOLD-   2272011583D 1   1.00000     0.00000
 Structure written by MMmdl.
 44 46  0  0  0  0  0  0  0  0  2 V2000
  150.5483  129.9125  154.2082 C   0  0  0  0  0  0  0  0  0  0  0  0
  151.0329  130.7621  155.2378 O   0  0  0  0  0  0  0  0  0  0  0  0
  150.7127  132.1016  155.1780 C   0  0  0  0  0  0  0  0  0  0  0  0
  149.9316  132.6897  154.1515 C   0  0  0  0  0  0  0  0  0  0  0  0
  149.6538  134.0706  154.1689 C   0  0  0  0  0  0  0  0  0  0  0  0
  150.1426  134.8835  155.2111 C   0  0  0  0  0  0  0  0  0  0  0  0
  149.8523  136.3727  155.2098 C   0  0  0  0  0  0  0  0  0  0  0  0
  150.5720  137.0600  156.2206 O   0  0  0  0  0  0  0  0  0  0  0  0
  151.7494  137.6814  155.7329 C   0  0  0  0  0  0  0  0  0  0  0  0
  151.5434  139.2025  155.7302 C   0  0  2  0  0  0  0  0  0  0  0  0
  152.3354  139.7666  154.7041 O   0  0  0  0  0  0  0  0  0  0  0  0
  151.9104  139.8479  157.0813 C   0  0  0  0  0  0  0  0  0  0  0  0
  151.5088  141.2577  157.1636 N   0  0  0  0  0  0  0  0  0  0  0  0
  150.7782  142.0142  156.3004 C   0  0  0  0  0  0  0  0  0  0  0  0
  150.6779  143.2638  156.8332 N   0  3  0  0  0  0  0  0  0  0  0  0
  151.3541  143.3059  158.0544 C   0  0  0  0  0  0  0  0  0  0  0  0
  151.5326  144.3443  158.9633 C   0  0  0  0  0  0  0  0  0  0  0  0
  152.2800  144.0488  160.1227 C   0  0  0  0  0  0  0  0  0  0  0  0
  152.8170  142.7636  160.3436 C   0  0  0  0  0  0  0  0  0  0  0  0
  152.6305  141.7184  159.4148 C   0  0  0  0  0  0  0  0  0  0  0  0
  151.8905  142.0195  158.2722 C   0  0  0  0  0  0  0  0  0  0  0  0
  150.9286  134.3051  156.2289 C   0  0  0  0  0  0  0  0  0  0  0  0
  151.2058  132.9247  156.2109 C   0  0  0  0  0  0  0  0  0  0  0  0
  150.8819  128.8923  154.3976 H   0  0  0  0  0  0  0  0  0  0  0  0
  150.9335  130.2093  153.2317 H   0  0  0  0  0  0  0  0  0  0  0  0
  149.4579  129.9035  154.1799 H   0  0  0  0  0  0  0  0  0  0  0  0
  149.5349  132.1032  153.3369 H   0  0  0  0  0  0  0  0  0  0  0  0
  149.0612  134.5042  153.3766 H   0  0  0  0  0  0  0  0  0  0  0  0
  150.1142  136.7720  154.2290 H   0  0  0  0  0  0  0  0  0  0  0  0
  148.7820  136.5313  155.3516 H   0  0  0  0  0  0  0  0  0  0  0  0
  152.6090  137.4140  156.3498 H   0  0  0  0  0  0  0  0  0  0  0  0
  151.9486  137.3281  154.7197 H   0  0  0  0  0  0  0  0  0  0  0  0
  150.5011  139.4153  155.4905 H   0  0  0  0  0  0  0  0  0  0  0  0
  153.2422  139.5700  154.8829 H   0  0  0  0  0  0  0  0  0  0  0  0
  151.4484  139.3120  157.9116 H   0  0  0  0  0  0  0  0  0  0  0  0
  152.9881  139.8022  157.2454 H   0  0  0  0  0  0  0  0  0  0  0  0
  150.3516  141.6827  155.3648 H   0  0  0  0  0  0  0  0  0  0  0  0
  151.1221  145.3296  158.7966 H   0  0  0  0  0  0  0  0  0  0  0  0
  152.4442  144.8238  160.8573 H   0  0  0  0  0  0  0  0  0  0  0  0
  153.3836  142.5747  161.2439 H   0  0  0  0  0  0  0  0  0  0  0  0
  153.0439  140.7363  159.5923 H   0  0  0  0  0  0  0  0  0  0  0  0
  151.3234  134.9153  157.0279 H   0  0  0  0  0  0  0  0  0  0  0  0
  151.8064  132.4929  156.9979 H   0  0  0  0  0  0  0  0  0  0  0  0
  150.1819  144.0288  156.3944 H   0  0  0  0  0  0  0  0  0  0  0  0
  1  2  1  0  0  0  0
  1 24  1  0  0  0  0
  1 25  1  0  0  0  0
  1 26  1  0  0  0  0
  2  3  1  0  0  0  0
  3 23  1  0  0  0  0
  3  4  2  0  0  0  0
  4  5  1  0  0  0  0
  4 27  1  0  0  0  0
  5  6  2  0  0  0  0
  5 28  1  0  0  0  0
  6  7  1  0  0  0  0
  6 22  1  0  0  0  0
  7  8  1  0  0  0  0
  7 29  1  0  0  0  0
  7 30  1  0  0  0  0
  8  9  1  0  0  0  0
  9 10  1  0  0  0  0
  9 31  1  0  0  0  0
  9 32  1  0  0  0  0
 10 11  1  0  0  0  0
 10 12  1  0  0  0  0
 10 33  1  0  0  0  0
 11 34  1  0  0  0  0
 12 13  1  0  0  0  0
 12 35  1  0  0  0  0
 12 36  1  0  0  0  0
 13 21  1  0  0  0  0
 13 14  1  0  0  0  0
 14 15  2  0  0  0  0
 14 37  1  0  0  0  0
 15 16  1  0  0  0  0
 15 44  1  0  0  0  0
 16 21  2  0  0  0  0
 16 17  1  0  0  0  0
 17 18  2  0  0  0  0
 17 38  1  0  0  0  0
 18 19  1  0  0  0  0
 18 39  1  0  0  0  0
 19 20  2  0  0  0  0
 19 40  1  0  0  0  0
 20 21  1  0  0  0  0
 20 41  1  0  0  0  0
 22 23  2  0  0  0  0
 22 42  1  0  0  0  0
 23 43  1  0  0  0  0
M  CHG  1  15   1
M  END
> <s_m_source_file>
AV-unprocessed.smi

> <i_m_source_file_index>
2160

> <i_lp_mmshare_version>
43012

> <i_f3d_flags>
0

> <s_epik_input>
W0NIM11PYzFbY0hdW2NIXWMoW2NIXVtjSF0xKVtDSDJdT1tDSDJdW0NASF0oW09IXSlbQ0gyXW4oW2NIXW4yKWMoYzIzKVtjSF1bY0hdW2NIXVtjSF0z

> <s_epik_cmdline>
J2VwaWtfcHl0aG9uJywgJy1waCcsICc3LjAnLCAnLXRuJywgJzgnLCAnLW1hJywgJzIwMCcsICctbWV0YWxfYmluZGluZycsICctaW1hZScsICc8aW5maWxlLm1hZT4nLCAnLW9tYWUnLCAnPG91dGZpbGUubWFlPic=

> <r_lp_tautomer_probability>
1

> <r_epik_Ionization_Penalty>
1.28975

> <r_epik_Ionization_Penalty_Charging>
1.28975

> <r_epik_Ionization_Penalty_Neutral>
9.74819e-07

> <r_epik_State_Penalty>
1.36276

> <r_epik_Charging_Adjusted_Penalty>
2.65251

> <i_epik_Tot_Q>
1

> <i_epik_Tot_abs_Q>
1

> <r_epik_Metal_State_Penalty>
5.39298

> <b_epik_Metal_Only>
0

> <s_lp_Force_Field>
OPLS_2005

> <r_lp_Energy>
21.665

> <b_lp_Chiralities_Consistent>
1

> <s_lp_Variant>
AV-unprocessed.smi:2160-3

> <Gold.Version>
5.8.1

> <Gold.Id.Protein>
6NUR|6NUR_protein|mol2

> <Gold.PLP.Fitness>
55.2521

> <Gold.PLP.PLP>
-48.7888

> <Gold.PLP.part.hbond>
-2.0000

> <Gold.PLP.part.metal>
0.0000

> <Gold.PLP.part.buried>
-7.1658

> <Gold.PLP.part.nonpolar>
-39.6891

> <Gold.PLP.part.repulsive>
0.0416

> <Gold.PLP.ligand.clash>
0.0000

> <Gold.PLP.ligand.torsion>
1.0848

> <Gold.PLP.Chemscore.Hbond>
2.7680

> <Gold.PLP.Chemscore.CHOScore>
0.0000

> <Gold.PLP.Chemscore.Metal>
0.0000

> <Gold.Chemscore.Hbonds>
donor molecule, donor type, donor heavy atom, donor atom, acceptor molecule, acceptor atom, score
      L1  H    15    44       P1  8028  2.00
      P1  H  7989  7998       L1    11  0.69

> <Gold.PLP.Chemscore.Internal.Correction>
0.3289

> <Gold.Rescore>
     Score         DG    S(hbond)    S(metal)    S(lipo)     H(rot)  DE(clash)    DE(int)     intcor
     17.88     -19.03       1.76        0.00     125.37       2.74       0.10       1.06       ----

> <Gold.Chemscore.Fitness>
17.8801

> <Gold.Chemscore.DG>
-19.0318

> <Gold.Chemscore.ZeroCoef>
-5.4800

> <Gold.Chemscore.Hbond>
1.7650

> <Gold.Chemscore.Metal>
0.0000

> <Gold.Chemscore.Lipo>
125.3728

> <Gold.Chemscore.Internal_Hbond>
0.0000

> <Gold.Chemscore.DEClash>
0.0956

> <Gold.Chemscore.DEInternal>
1.0562

> <Gold.Chemscore.Rot>
2.7390

> <Gold.Chemscore.Internal.Correction>
   9.000000E+99

> <Gold.Chemscore.Hbonds>
donor molecule, donor type, donor heavy atom, donor atom, acceptor molecule, acceptor atom, score
      L1  H    15    44       P1  8028  0.98
      P1  H  7989  7998       L1    11  0.67

> <Gold.Chemscore.Hbond.Weighted>
-5.8950

> <Gold.Chemscore.Metal.Weighted>
-0.0000

> <Gold.Chemscore.Lipo.Weighted>
-14.6686

> <Gold.Chemscore.Internal_Hbond.Weighted>
0.0000

> <Gold.Chemscore.DEClash.Weighted>
0.0956

> <Gold.Chemscore.DEInternal.Weighted>
1.0562

> <Gold.Chemscore.Rot.Weighted>
7.0118

> <Gold.Chemscore.Internal.Correction.Weighted>
   9.000000E+99

> <Gold.Protein.RotatedTorsions>
[ 6907 6896 6895 6894 ] final  178.81 input  -60.11 | X-H torsion
[ 7974 7965 7964 7962 ] final  -89.76 input  175.53 | X-H torsion
[ 8008 7997 7996 7995 ] final -144.88 input   59.86 | X-H torsion
[ 10167 10162 10161 10158 ] final  131.64 input  -65.29 | X-H torsion
[ 10718 10713 10712 10709 ] final   78.71 input   66.30 | X-H torsion
[ 10763 10752 10751 10750 ] final  102.62 input  -60.55 | X-H torsion
[ 11005 11000 10999 10996 ] final -177.47 input  -57.11 | X-H torsion

> <Gold.Protein.ActiveResidues>
 VAL166  LYS551  ARG553  GLY616  TRP617  ASP618  TYR619  PRO620  LYS621  CYS622 
 ASP623  PHE694  ASN695  SER759  ASP760  ASP761  ALA762  ILE779  LEU786  VAL792 
 PHE793  MET794  SER795  GLU796  ALA797  LYS798  CYS799  TRP800  GLU811  SER814 

> <Gold.Protein.RotatedAtoms>
  151.6818  133.3312  159.3221 H   0  0  0  0  0  0  0  0  0  0  0  0  # atno 6907 bound_to 6896
  150.7819  134.6774  159.6434 H   0  0  0  0  0  0  0  0  0  0  0  0  # atno 6908 bound_to 6896
  152.3879  134.6491  160.0171 H   0  0  0  0  0  0  0  0  0  0  0  0  # atno 6909 bound_to 6896
  145.4355  140.9557  143.2104 H   0  0  0  0  0  0  0  0  0  0  0  0  # atno 7974 bound_to 7965
  155.5342  140.0602  157.2883 H   0  0  0  0  0  0  0  0  0  0  0  0  # atno 8008 bound_to 7997
  154.4474  140.1930  156.0569 H   0  0  0  0  0  0  0  0  0  0  0  0  # atno 8009 bound_to 7997
  156.0631  140.3270  155.7489 H   0  0  0  0  0  0  0  0  0  0  0  0  # atno 8010 bound_to 7997
  139.5375  144.6697  151.4737 H   0  0  0  0  0  0  0  0  0  0  0  0  # atno 10167 bound_to 10162
  157.6753  130.9880  150.1826 H   0  0  0  0  0  0  0  0  0  0  0  0  # atno 10718 bound_to 10713
  153.3419  135.4004  155.1579 H   0  0  0  0  0  0  0  0  0  0  0  0  # atno 10763 bound_to 10752
  154.8645  135.3635  154.5334 H   0  0  0  0  0  0  0  0  0  0  0  0  # atno 10764 bound_to 10752
  153.5779  135.7077  153.5535 H   0  0  0  0  0  0  0  0  0  0  0  0  # atno 10765 bound_to 10752
  140.4405  134.6435  157.4755 H   0  0  0  0  0  0  0  0  0  0  0  0  # atno 11005 bound_to 11000
  144.8155  139.5885  143.7010 LP  0  0  0  0  0  0  0  0  0  0  0  0  # atno 17320 bound_to 7965
  146.2584  139.6354  142.9379 LP  0  0  0  0  0  0  0  0  0  0  0  0  # atno 17321 bound_to 7965
  140.6588  143.8541  150.6865 LP  0  0  0  0  0  0  0  0  0  0  0  0  # atno 17342 bound_to 10162
  140.1930  143.4021  152.1849 LP  0  0  0  0  0  0  0  0  0  0  0  0  # atno 17343 bound_to 10162
  156.2555  130.3705  149.8186 LP  0  0  0  0  0  0  0  0  0  0  0  0  # atno 17370 bound_to 10713
  156.5947  130.8521  151.3417 LP  0  0  0  0  0  0  0  0  0  0  0  0  # atno 17371 bound_to 10713
  140.0073  134.6744  155.9435 LP  0  0  0  0  0  0  0  0  0  0  0  0  # atno 17394 bound_to 11000
  141.1707  133.6537  156.4642 LP  0  0  0  0  0  0  0  0  0  0  0  0  # atno 17395 bound_to 11000

$$$$
