AV-unprocessed.smi:2488|AV-procd|sdf|9794|dock6
  -GOLD-   2272013433D 1   1.00000     0.00000
 Structure written by MMmdl.
 33 34  0  0  0  0  0  0  0  0  1 V2000
  151.5749  144.7678  159.4165 C   0  0  0  0  0  0  0  0  0  0  0  0
  151.2375  143.9355  158.1742 C   0  0  0  0  0  0  0  0  0  0  0  0
  151.6260  142.4774  158.3350 C   0  0  0  0  0  0  0  0  0  0  0  0
  152.3450  142.1579  159.4340 N   0  0  0  0  0  0  0  0  0  0  0  0
  152.6958  140.8773  159.5719 C   0  0  0  0  0  0  0  0  0  0  0  0
  152.4118  139.8771  158.7344 N   0  0  0  0  0  0  0  0  0  0  0  0
  151.6889  140.1773  157.6276 C   0  0  0  0  0  0  0  0  0  0  0  0
  151.3785  139.1544  156.7076 N   0  0  0  0  0  0  0  0  0  0  0  0
  152.0842  139.3793  155.4477 C   0  0  0  0  0  0  0  0  0  0  0  0
  151.6387  138.3674  154.3839 C   0  0  0  0  0  0  0  0  0  0  0  0
  151.8490  137.0533  154.8803 O   0  0  0  0  0  0  0  0  0  0  0  0
  151.0573  136.7992  156.0340 C   0  0  0  0  0  0  0  0  0  0  0  0
  151.4372  137.7610  157.1858 C   0  0  2  0  0  0  0  0  0  0  0  0
  150.5452  137.4161  158.3973 C   0  0  0  0  0  0  0  0  0  0  0  0
  149.2219  137.5729  158.2833 N   0  0  0  0  0  0  0  0  0  0  0  0
  151.0580  137.0165  159.4403 O   0  0  0  0  0  0  0  0  0  0  0  0
  151.2673  141.5036  157.3778 C   0  0  0  0  0  0  0  0  0  0  0  0
  150.5486  141.8243  156.2741 F   0  0  0  0  0  0  0  0  0  0  0  0
  151.2901  145.8104  159.2748 H   0  0  0  0  0  0  0  0  0  0  0  0
  152.6442  144.7400  159.6285 H   0  0  0  0  0  0  0  0  0  0  0  0
  151.0485  144.3953  160.2957 H   0  0  0  0  0  0  0  0  0  0  0  0
  150.1682  143.9981  157.9679 H   0  0  0  0  0  0  0  0  0  0  0  0
  151.7400  144.3540  157.3017 H   0  0  0  0  0  0  0  0  0  0  0  0
  153.2708  140.6244  160.4503 H   0  0  0  0  0  0  0  0  0  0  0  0
  151.9031  140.3897  155.0782 H   0  0  0  0  0  0  0  0  0  0  0  0
  153.1594  139.2900  155.6142 H   0  0  0  0  0  0  0  0  0  0  0  0
  150.5902  138.5117  154.1179 H   0  0  0  0  0  0  0  0  0  0  0  0
  152.2208  138.4995  153.4719 H   0  0  0  0  0  0  0  0  0  0  0  0
  150.0000  136.8905  155.7767 H   0  0  0  0  0  0  0  0  0  0  0  0
  151.2182  135.7624  156.3326 H   0  0  0  0  0  0  0  0  0  0  0  0
  152.4698  137.5443  157.4665 H   0  0  0  0  0  0  0  0  0  0  0  0
  148.6208  137.3567  159.0653 H   0  0  0  0  0  0  0  0  0  0  0  0
  148.8302  137.9107  157.4164 H   0  0  0  0  0  0  0  0  0  0  0  0
  1  2  1  0  0  0  0
  1 19  1  0  0  0  0
  1 20  1  0  0  0  0
  1 21  1  0  0  0  0
  2  3  1  0  0  0  0
  2 22  1  0  0  0  0
  2 23  1  0  0  0  0
  3 17  1  0  0  0  0
  3  4  2  0  0  0  0
  4  5  1  0  0  0  0
  5  6  2  0  0  0  0
  5 24  1  0  0  0  0
  6  7  1  0  0  0  0
  7  8  1  0  0  0  0
  7 17  2  0  0  0  0
  8 13  1  0  0  0  0
  8  9  1  0  0  0  0
  9 10  1  0  0  0  0
  9 25  1  0  0  0  0
  9 26  1  0  0  0  0
 10 11  1  0  0  0  0
 10 27  1  0  0  0  0
 10 28  1  0  0  0  0
 11 12  1  0  0  0  0
 12 13  1  0  0  0  0
 12 29  1  0  0  0  0
 12 30  1  0  0  0  0
 13 14  1  0  0  0  0
 13 31  1  0  0  0  0
 14 15  1  0  0  0  0
 14 16  2  0  0  0  0
 15 32  1  0  0  0  0
 15 33  1  0  0  0  0
 17 18  1  0  0  0  0
M  END
> <s_m_source_file>
AV-unprocessed.smi

> <i_m_source_file_index>
2488

> <i_lp_mmshare_version>
43012

> <i_f3d_flags>
0

> <s_epik_input>
W0NIM11bQ0gyXWMxbltjSF1uYyhjMUYpTjJbQ0gyXVtDSDJdT1tDSDJdW0NASF0yQyg9TylbTkgyXQ==

> <s_epik_cmdline>
J2VwaWtfcHl0aG9uJywgJy1waCcsICc3LjAnLCAnLXRuJywgJzgnLCAnLW1hJywgJzIwMCcsICctbWV0YWxfYmluZGluZycsICctaW1hZScsICc8aW5maWxlLm1hZT4nLCAnLW9tYWUnLCAnPG91dGZpbGUubWFlPic=

> <r_lp_tautomer_probability>
1

> <r_epik_Ionization_Penalty>
2.73136e-05

> <r_epik_Ionization_Penalty_Charging>
0

> <r_epik_Ionization_Penalty_Neutral>
2.73136e-05

> <r_epik_State_Penalty>
-0

> <r_epik_Charging_Adjusted_Penalty>
0

> <i_epik_Tot_Q>
0

> <i_epik_Tot_abs_Q>
0

> <r_epik_Metal_State_Penalty>
-0

> <b_epik_Metal_Only>
0

> <s_lp_Force_Field>
OPLS_2005

> <r_lp_Energy>
13.0675

> <b_lp_Chiralities_Consistent>
1

> <s_lp_Variant>
AV-unprocessed.smi:2488-2

> <Gold.Version>
5.8.1

> <Gold.Id.Protein>
6NUR|6NUR_protein|mol2

> <Gold.PLP.Fitness>
38.4890

> <Gold.PLP.PLP>
-33.1068

> <Gold.PLP.part.hbond>
-2.0000

> <Gold.PLP.part.metal>
0.0000

> <Gold.PLP.part.buried>
-6.7722

> <Gold.PLP.part.nonpolar>
-24.2838

> <Gold.PLP.part.repulsive>
0.2539

> <Gold.PLP.ligand.clash>
0.0000

> <Gold.PLP.ligand.torsion>
0.3991

> <Gold.PLP.Chemscore.Hbond>
2.0000

> <Gold.PLP.Chemscore.CHOScore>
0.0000

> <Gold.PLP.Chemscore.Metal>
0.0000

> <Gold.Chemscore.Hbonds>
donor molecule, donor type, donor heavy atom, donor atom, acceptor molecule, acceptor atom, score
      P1  H  6896  6909       L1    16  1.00
      P1  H 10752 10765       L1    11  0.99

> <Gold.PLP.Chemscore.Internal.Correction>
0.1805

> <Gold.Rescore>
     Score         DG    S(hbond)    S(metal)    S(lipo)     H(rot)  DE(clash)    DE(int)     intcor
     14.08     -14.67       1.97        0.00      63.05       1.86       0.00       0.59       ----

> <Gold.Chemscore.Fitness>
14.0791

> <Gold.Chemscore.DG>
-14.6686

> <Gold.Chemscore.ZeroCoef>
-5.4800

> <Gold.Chemscore.Hbond>
1.9665

> <Gold.Chemscore.Metal>
0.0000

> <Gold.Chemscore.Lipo>
63.0546

> <Gold.Chemscore.Internal_Hbond>
0.0000

> <Gold.Chemscore.DEClash>
0.0000

> <Gold.Chemscore.DEInternal>
0.5895

> <Gold.Chemscore.Rot>
1.8582

> <Gold.Chemscore.Internal.Correction>
   9.000000E+99

> <Gold.Chemscore.Hbonds>
donor molecule, donor type, donor heavy atom, donor atom, acceptor molecule, acceptor atom, score
      P1  H  6896  6909       L1    16  0.99
      P1  H 10752 10765       L1    11  0.86

> <Gold.Chemscore.Hbond.Weighted>
-6.5682

> <Gold.Chemscore.Metal.Weighted>
-0.0000

> <Gold.Chemscore.Lipo.Weighted>
-7.3774

> <Gold.Chemscore.Internal_Hbond.Weighted>
0.0000

> <Gold.Chemscore.DEClash.Weighted>
0.0000

> <Gold.Chemscore.DEInternal.Weighted>
0.5895

> <Gold.Chemscore.Rot.Weighted>
4.7570

> <Gold.Chemscore.Internal.Correction.Weighted>
   9.000000E+99

> <Gold.Protein.RotatedTorsions>
[ 6907 6896 6895 6894 ] final  105.52 input  -60.11 | X-H torsion
[ 7974 7965 7964 7962 ] final  104.99 input  175.53 | X-H torsion
[ 8008 7997 7996 7995 ] final  -76.99 input   59.86 | X-H torsion
[ 10167 10162 10161 10158 ] final  169.22 input  -65.29 | X-H torsion
[ 10718 10713 10712 10709 ] final -156.26 input   66.30 | X-H torsion
[ 10763 10752 10751 10750 ] final  164.81 input  -60.55 | X-H torsion
[ 11005 11000 10999 10996 ] final    5.63 input  -57.11 | X-H torsion

> <Gold.Protein.ActiveResidues>
 VAL166  LYS551  ARG553  GLY616  TRP617  ASP618  TYR619  PRO620  LYS621  CYS622 
 ASP623  PHE694  ASN695  SER759  ASP760  ASP761  ALA762  ILE779  LEU786  VAL792 
 PHE793  MET794  SER795  GLU796  ALA797  LYS798  CYS799  TRP800  GLU811  SER814 

> <Gold.Protein.RotatedAtoms>
  152.5227  133.9517  159.7674 H   0  0  0  0  0  0  0  0  0  0  0  0  # atno 6907 bound_to 6896
  150.9825  133.6222  159.2727 H   0  0  0  0  0  0  0  0  0  0  0  0  # atno 6908 bound_to 6896
  151.3394  135.0866  159.9419 H   0  0  0  0  0  0  0  0  0  0  0  0  # atno 6909 bound_to 6896
  145.3256  139.2501  143.3688 H   0  0  0  0  0  0  0  0  0  0  0  0  # atno 7974 bound_to 7965
  154.5555  140.0718  156.8737 H   0  0  0  0  0  0  0  0  0  0  0  0  # atno 8008 bound_to 7997
  155.2910  140.3378  155.4234 H   0  0  0  0  0  0  0  0  0  0  0  0  # atno 8009 bound_to 7997
  156.1999  140.1717  156.7908 H   0  0  0  0  0  0  0  0  0  0  0  0  # atno 8010 bound_to 7997
  139.4987  144.3730  151.9704 H   0  0  0  0  0  0  0  0  0  0  0  0  # atno 10167 bound_to 10162
  156.5241  130.8491  151.2693 H   0  0  0  0  0  0  0  0  0  0  0  0  # atno 10718 bound_to 10713
  154.3146  135.2757  155.2549 H   0  0  0  0  0  0  0  0  0  0  0  0  # atno 10763 bound_to 10752
  154.4930  135.5828  153.6477 H   0  0  0  0  0  0  0  0  0  0  0  0  # atno 10764 bound_to 10752
  152.9884  135.6139  154.3325 H   0  0  0  0  0  0  0  0  0  0  0  0  # atno 10765 bound_to 10752
  140.5686  134.0124  155.7999 H   0  0  0  0  0  0  0  0  0  0  0  0  # atno 11005 bound_to 11000
  146.3066  140.3822  142.8685 LP  0  0  0  0  0  0  0  0  0  0  0  0  # atno 17320 bound_to 7965
  144.8905  140.7517  143.5930 LP  0  0  0  0  0  0  0  0  0  0  0  0  # atno 17321 bound_to 7965
  140.3166  144.3476  150.6020 LP  0  0  0  0  0  0  0  0  0  0  0  0  # atno 17342 bound_to 10162
  140.5756  143.2177  151.7521 LP  0  0  0  0  0  0  0  0  0  0  0  0  # atno 17343 bound_to 10162
  157.7432  130.9907  150.2575 LP  0  0  0  0  0  0  0  0  0  0  0  0  # atno 17370 bound_to 10713
  156.3121  130.3773  149.7651 LP  0  0  0  0  0  0  0  0  0  0  0  0  # atno 17371 bound_to 10713
  141.1070  133.9677  157.2979 LP  0  0  0  0  0  0  0  0  0  0  0  0  # atno 17394 bound_to 11000
  139.9373  135.0195  156.8596 LP  0  0  0  0  0  0  0  0  0  0  0  0  # atno 17395 bound_to 11000

$$$$
