AV-unprocessed.smi:1902|AV-procd|sdf|7721|dock1
  -GOLD-   22720 9463D 1   1.00000     0.00000
 Structure written by MMmdl.
 44 45  0  0  0  0  0  0  0  0  2 V2000
  144.0384  133.1954  151.1111 C   0  0  0  0  0  0  0  0  0  0  0  0
  145.3439  133.8667  150.6498 C   0  0  2  0  0  0  0  0  0  0  0  0
  146.5997  133.1661  151.1986 C   0  0  0  0  0  0  0  0  0  0  0  0
  146.8188  133.4518  152.6952 C   0  0  0  0  0  0  0  0  0  0  0  0
  146.8786  134.9120  152.9631 N   0  3  2  0  0  0  0  0  0  0  0  0
  147.2233  135.2096  154.3762 C   0  0  0  0  0  0  0  0  0  0  0  0
  148.5603  134.5705  154.7995 C   0  0  0  0  0  0  0  0  0  0  0  0
  149.6925  135.4367  154.4927 N   0  0  0  0  0  0  0  0  0  0  0  0
  150.0447  136.5205  155.2009 C   0  0  0  0  0  0  0  0  0  0  0  0
  149.4139  136.9150  156.1825 O   0  0  0  0  0  0  0  0  0  0  0  0
  151.2849  137.2780  154.7052 C   0  0  0  0  0  0  0  0  0  0  0  0
  151.1236  138.7415  154.7339 N   0  0  0  0  0  0  0  0  0  0  0  0
  150.0494  139.2848  154.0009 C   0  0  0  0  0  0  0  0  0  0  0  0
  149.8132  140.6056  153.9611 C   0  0  0  0  0  0  0  0  0  0  0  0
  150.6960  141.4796  154.6964 C   0  0  0  0  0  0  0  0  0  0  0  0
  151.7246  140.9705  155.4033 C   0  0  0  0  0  0  0  0  0  0  0  0
  151.9853  139.5273  155.4514 C   0  0  0  0  0  0  0  0  0  0  0  0
  152.9201  139.0527  156.0974 O   0  0  0  0  0  0  0  0  0  0  0  0
  145.6458  135.6039  152.5015 C   0  0  0  0  0  0  0  0  0  0  0  0
  145.4006  135.3645  151.0006 C   0  0  0  0  0  0  0  0  0  0  0  0
  143.9197  133.2247  152.1939 H   0  0  0  0  0  0  0  0  0  0  0  0
  144.0093  132.1493  150.8053 H   0  0  0  0  0  0  0  0  0  0  0  0
  143.1705  133.6876  150.6717 H   0  0  0  0  0  0  0  0  0  0  0  0
  145.3670  133.7811  149.5627 H   0  0  0  0  0  0  0  0  0  0  0  0
  146.5382  132.0909  151.0269 H   0  0  0  0  0  0  0  0  0  0  0  0
  147.4724  133.5105  150.6418 H   0  0  0  0  0  0  0  0  0  0  0  0
  146.0260  133.0004  153.2932 H   0  0  0  0  0  0  0  0  0  0  0  0
  147.7525  132.9832  153.0088 H   0  0  0  0  0  0  0  0  0  0  0  0
  147.2395  136.2889  154.5359 H   0  0  0  0  0  0  0  0  0  0  0  0
  146.4362  134.8166  155.0214 H   0  0  0  0  0  0  0  0  0  0  0  0
  148.5513  134.3365  155.8656 H   0  0  0  0  0  0  0  0  0  0  0  0
  148.7238  133.6287  154.2772 H   0  0  0  0  0  0  0  0  0  0  0  0
  150.2628  135.1831  153.6986 H   0  0  0  0  0  0  0  0  0  0  0  0
  152.1521  136.9885  155.3021 H   0  0  0  0  0  0  0  0  0  0  0  0
  151.5078  136.9357  153.6938 H   0  0  0  0  0  0  0  0  0  0  0  0
  149.4320  138.5644  153.4838 H   0  0  0  0  0  0  0  0  0  0  0  0
  148.9829  141.0042  153.3969 H   0  0  0  0  0  0  0  0  0  0  0  0
  150.5303  142.5467  154.6806 H   0  0  0  0  0  0  0  0  0  0  0  0
  152.3738  141.6397  155.9484 H   0  0  0  0  0  0  0  0  0  0  0  0
  144.7914  135.2612  153.0866 H   0  0  0  0  0  0  0  0  0  0  0  0
  145.7285  136.6763  152.6732 H   0  0  0  0  0  0  0  0  0  0  0  0
  146.2054  135.8331  150.4327 H   0  0  0  0  0  0  0  0  0  0  0  0
  144.4819  135.8611  150.6870 H   0  0  0  0  0  0  0  0  0  0  0  0
  147.6421  135.2658  152.4044 H   0  0  0  0  0  0  0  0  0  0  0  0
  1  2  1  0  0  0  0
  1 21  1  0  0  0  0
  1 22  1  0  0  0  0
  1 23  1  0  0  0  0
  2 20  1  0  0  0  0
  2  3  1  0  0  0  0
  2 24  1  0  0  0  0
  3  4  1  0  0  0  0
  3 25  1  0  0  0  0
  3 26  1  0  0  0  0
  4  5  1  0  0  0  0
  4 27  1  0  0  0  0
  4 28  1  0  0  0  0
  5  6  1  0  0  0  0
  5 19  1  0  0  0  0
  5 44  1  0  0  0  0
  6  7  1  0  0  0  0
  6 29  1  0  0  0  0
  6 30  1  0  0  0  0
  7  8  1  0  0  0  0
  7 31  1  0  0  0  0
  7 32  1  0  0  0  0
  8  9  1  0  0  0  0
  8 33  1  0  0  0  0
  9 10  2  0  0  0  0
  9 11  1  0  0  0  0
 11 12  1  0  0  0  0
 11 34  1  0  0  0  0
 11 35  1  0  0  0  0
 12 17  1  0  0  0  0
 12 13  1  0  0  0  0
 13 14  2  0  0  0  0
 13 36  1  0  0  0  0
 14 15  1  0  0  0  0
 14 37  1  0  0  0  0
 15 16  2  0  0  0  0
 15 38  1  0  0  0  0
 16 17  1  0  0  0  0
 16 39  1  0  0  0  0
 17 18  2  0  0  0  0
 19 20  1  0  0  0  0
 19 40  1  0  0  0  0
 19 41  1  0  0  0  0
 20 42  1  0  0  0  0
 20 43  1  0  0  0  0
M  CHG  1   5   1
M  END
> <s_m_source_file>
AV-unprocessed.smi

> <i_m_source_file_index>
1902

> <i_lp_mmshare_version>
43012

> <i_f3d_flags>
0

> <s_epik_input>
W0NIM11bQ0hdMVtDSDJdW0NIMl1OKFtDSDJdW0NIMl0xKVtDSDJdW0NIMl1bTkhdQyg9TylbQ0gyXW4yW2NIXVtjSF1bY0hdW2NIXWMyPU8=

> <s_epik_cmdline>
J2VwaWtfcHl0aG9uJywgJy1waCcsICc3LjAnLCAnLXRuJywgJzgnLCAnLW1hJywgJzIwMCcsICctbWV0YWxfYmluZGluZycsICctaW1hZScsICc8aW5maWxlLm1hZT4nLCAnLW9tYWUnLCAnPG91dGZpbGUubWFlPic=

> <r_lp_tautomer_probability>
1

> <r_epik_Ionization_Penalty>
0.00156146

> <r_epik_Ionization_Penalty_Charging>
0.00156137

> <r_epik_Ionization_Penalty_Neutral>
8.12891e-08

> <r_epik_State_Penalty>
0.00104868

> <r_epik_Charging_Adjusted_Penalty>
0.00261006

> <i_epik_Tot_Q>
1

> <i_epik_Tot_abs_Q>
1

> <r_epik_Metal_State_Penalty>
-0

> <b_epik_Metal_Only>
0

> <s_lp_Force_Field>
OPLS_2005

> <r_lp_Energy>
27.1486

> <b_lp_Chiralities_Consistent>
1

> <s_lp_Variant>
AV-unprocessed.smi:1902-2

> <Gold.Version>
5.8.1

> <Gold.Id.Protein>
6NUR|6NUR_protein|mol2

> <Gold.PLP.Fitness>
46.8517

> <Gold.PLP.PLP>
-38.8556

> <Gold.PLP.part.hbond>
-3.4555

> <Gold.PLP.part.metal>
0.0000

> <Gold.PLP.part.buried>
-2.1102

> <Gold.PLP.part.nonpolar>
-31.8503

> <Gold.PLP.part.repulsive>
0.0795

> <Gold.PLP.ligand.clash>
0.0000

> <Gold.PLP.ligand.torsion>
0.5339

> <Gold.PLP.Chemscore.Hbond>
3.0000

> <Gold.PLP.Chemscore.CHOScore>
0.0000

> <Gold.PLP.Chemscore.Metal>
0.0000

> <Gold.Chemscore.Hbonds>
donor molecule, donor type, donor heavy atom, donor atom, acceptor molecule, acceptor atom, score
      L1  H     5    44       P1  7948  2.00
      P1  H  7997  8010       L1    18  1.00
      L1  C    13    36       P1  7948  0.21
      L1  C    13    36       P1  7957  0.10

> <Gold.PLP.Chemscore.Internal.Correction>
0.0638

> <Gold.Rescore>
     Score         DG    S(hbond)    S(metal)    S(lipo)     H(rot)  DE(clash)    DE(int)     intcor
     15.85     -16.44       2.00        0.00      77.29       1.86       0.05       0.54       ----

> <Gold.Chemscore.Fitness>
15.8540

> <Gold.Chemscore.DG>
-16.4373

> <Gold.Chemscore.ZeroCoef>
-5.4800

> <Gold.Chemscore.Hbond>
1.9978

> <Gold.Chemscore.Metal>
0.0000

> <Gold.Chemscore.Lipo>
77.2889

> <Gold.Chemscore.Internal_Hbond>
0.0000

> <Gold.Chemscore.DEClash>
0.0456

> <Gold.Chemscore.DEInternal>
0.5376

> <Gold.Chemscore.Rot>
1.8586

> <Gold.Chemscore.Internal.Correction>
   9.000000E+99

> <Gold.Chemscore.Hbonds>
donor molecule, donor type, donor heavy atom, donor atom, acceptor molecule, acceptor atom, score
      L1  H     5    44       P1  7948  1.00
      P1  H  7997  8010       L1    18  0.93

> <Gold.Chemscore.Hbond.Weighted>
-6.6726

> <Gold.Chemscore.Metal.Weighted>
-0.0000

> <Gold.Chemscore.Lipo.Weighted>
-9.0428

> <Gold.Chemscore.Internal_Hbond.Weighted>
0.0000

> <Gold.Chemscore.DEClash.Weighted>
0.0456

> <Gold.Chemscore.DEInternal.Weighted>
0.5376

> <Gold.Chemscore.Rot.Weighted>
4.7581

> <Gold.Chemscore.Internal.Correction.Weighted>
   9.000000E+99

> <Gold.Protein.RotatedTorsions>
[ 6907 6896 6895 6894 ] final -152.72 input  -60.11 | X-H torsion
[ 7974 7965 7964 7962 ] final -127.68 input  175.53 | X-H torsion
[ 8008 7997 7996 7995 ] final   80.70 input   59.86 | X-H torsion
[ 10167 10162 10161 10158 ] final -113.76 input  -65.29 | X-H torsion
[ 10718 10713 10712 10709 ] final  -12.04 input   66.30 | X-H torsion
[ 10763 10752 10751 10750 ] final  -32.48 input  -60.55 | X-H torsion
[ 11005 11000 10999 10996 ] final  130.75 input  -57.11 | X-H torsion

> <Gold.Protein.ActiveResidues>
 VAL166  LYS551  ARG553  GLY616  TRP617  ASP618  TYR619  PRO620  LYS621  CYS622 
 ASP623  PHE694  ASN695  SER759  ASP760  ASP761  ALA762  ILE779  LEU786  VAL792 
 PHE793  MET794  SER795  GLU796  ALA797  LYS798  CYS799  TRP800  GLU811  SER814 

> <Gold.Protein.RotatedAtoms>
  151.2320  133.4445  159.2603 H   0  0  0  0  0  0  0  0  0  0  0  0  # atno 6907 bound_to 6896
  151.0786  134.9844  159.8355 H   0  0  0  0  0  0  0  0  0  0  0  0  # atno 6908 bound_to 6896
  152.5421  134.2261  159.8859 H   0  0  0  0  0  0  0  0  0  0  0  0  # atno 6909 bound_to 6896
  144.9747  140.7580  143.4649 H   0  0  0  0  0  0  0  0  0  0  0  0  # atno 7974 bound_to 7965
  155.8870  140.3441  155.5929 H   0  0  0  0  0  0  0  0  0  0  0  0  # atno 8008 bound_to 7997
  155.7654  140.0838  157.2153 H   0  0  0  0  0  0  0  0  0  0  0  0  # atno 8009 bound_to 7997
  154.4029  140.1528  156.2868 H   0  0  0  0  0  0  0  0  0  0  0  0  # atno 8010 bound_to 7997
  140.1084  143.4550  152.1768 H   0  0  0  0  0  0  0  0  0  0  0  0  # atno 10167 bound_to 10162
  156.6503  130.4953  149.6064 H   0  0  0  0  0  0  0  0  0  0  0  0  # atno 10718 bound_to 10713
  153.8145  135.6879  153.4836 H   0  0  0  0  0  0  0  0  0  0  0  0  # atno 10763 bound_to 10752
  153.1607  135.4581  154.9766 H   0  0  0  0  0  0  0  0  0  0  0  0  # atno 10764 bound_to 10752
  154.7953  135.3317  154.7623 H   0  0  0  0  0  0  0  0  0  0  0  0  # atno 10765 bound_to 10752
  139.9690  134.9582  156.9339 H   0  0  0  0  0  0  0  0  0  0  0  0  # atno 11005 bound_to 11000
  145.2508  139.2032  143.4943 LP  0  0  0  0  0  0  0  0  0  0  0  0  # atno 17320 bound_to 7965
  146.3392  140.2421  142.8596 LP  0  0  0  0  0  0  0  0  0  0  0  0  # atno 17321 bound_to 7965
  139.5633  144.7419  151.4094 LP  0  0  0  0  0  0  0  0  0  0  0  0  # atno 17342 bound_to 10162
  140.6939  143.7795  150.7297 LP  0  0  0  0  0  0  0  0  0  0  0  0  # atno 17343 bound_to 10162
  156.2089  130.6667  151.1248 LP  0  0  0  0  0  0  0  0  0  0  0  0  # atno 17370 bound_to 10713
  157.7143  131.0718  150.6386 LP  0  0  0  0  0  0  0  0  0  0  0  0  # atno 17371 bound_to 10713
  140.5334  134.0791  155.7322 LP  0  0  0  0  0  0  0  0  0  0  0  0  # atno 17394 bound_to 11000
  141.1370  133.9204  157.2411 LP  0  0  0  0  0  0  0  0  0  0  0  0  # atno 17395 bound_to 11000

$$$$
