AV-unprocessed.smi:2628|AV-procd|sdf|10243|dock4
  -GOLD-   2272014253D 1   1.00000     0.00000
 Structure written by MMmdl.
 38 38  0  0  0  0  0  0  0  0  1 V2000
  148.3625  140.3457  154.4348 C   0  0  0  0  0  0  0  0  0  0  0  0
  149.2211  141.4699  155.0240 C   0  0  0  0  0  0  0  0  0  0  0  0
  150.4468  140.9383  155.7846 C   0  0  0  0  0  0  0  0  0  0  0  0
  151.4263  140.1138  154.9239 C   0  0  0  0  0  0  0  0  0  0  0  0
  151.5250  138.7173  155.3122 N   0  0  0  0  0  0  0  0  0  0  0  0
  150.8880  137.6846  154.6183 C   0  0  0  0  0  0  0  0  0  0  0  0
  150.1230  138.0238  153.5113 N   0  0  0  0  0  0  0  0  0  0  0  0
  150.9885  136.3761  154.9960 C   0  0  0  0  0  0  0  0  0  0  0  0
  150.3308  135.3781  154.2749 N   0  0  0  0  0  0  0  0  0  0  0  0
  150.2796  133.9367  154.4685 C   0  0  0  0  0  0  0  0  0  0  0  0
  149.6230  133.2384  153.2728 C   0  0  0  0  0  0  0  0  0  0  0  0
  149.3019  131.9035  153.6286 O   0  0  0  0  0  0  0  0  0  0  0  0
  150.4526  131.1214  153.8955 C   0  0  0  0  0  0  0  0  0  0  0  0
  151.7878  136.0154  156.1802 C   0  0  0  0  0  0  0  0  0  0  0  0
  151.9621  134.8859  156.6349 O   0  0  0  0  0  0  0  0  0  0  0  0
  152.3897  137.0883  156.8329 N   0  0  0  0  0  0  0  0  0  0  0  0
  152.2954  138.4235  156.4622 C   0  0  0  0  0  0  0  0  0  0  0  0
  152.8672  139.2774  157.1407 O   0  0  0  0  0  0  0  0  0  0  0  0
  152.9396  136.8762  157.6525 H   0  0  0  0  0  0  0  0  0  0  0  0
  147.5025  140.7530  153.9029 H   0  0  0  0  0  0  0  0  0  0  0  0
  147.9873  139.6857  155.2174 H   0  0  0  0  0  0  0  0  0  0  0  0
  148.9340  139.7408  153.7304 H   0  0  0  0  0  0  0  0  0  0  0  0
  149.5475  142.1321  154.2214 H   0  0  0  0  0  0  0  0  0  0  0  0
  148.6021  142.0711  155.6902 H   0  0  0  0  0  0  0  0  0  0  0  0
  150.9750  141.7739  156.2448 H   0  0  0  0  0  0  0  0  0  0  0  0
  150.1049  140.3116  156.6088 H   0  0  0  0  0  0  0  0  0  0  0  0
  151.1140  140.1099  153.8793 H   0  0  0  0  0  0  0  0  0  0  0  0
  152.4235  140.5553  154.9123 H   0  0  0  0  0  0  0  0  0  0  0  0
  150.0223  138.9813  153.2074 H   0  0  0  0  0  0  0  0  0  0  0  0
  149.7089  137.3202  152.9170 H   0  0  0  0  0  0  0  0  0  0  0  0
  149.8037  135.6949  153.4745 H   0  0  0  0  0  0  0  0  0  0  0  0
  151.2967  133.5602  154.5793 H   0  0  0  0  0  0  0  0  0  0  0  0
  149.7404  133.7030  155.3871 H   0  0  0  0  0  0  0  0  0  0  0  0
  148.7306  133.7811  152.9566 H   0  0  0  0  0  0  0  0  0  0  0  0
  150.3161  133.2306  152.4302 H   0  0  0  0  0  0  0  0  0  0  0  0
  150.1535  130.1068  154.1585 H   0  0  0  0  0  0  0  0  0  0  0  0
  151.0230  131.5318  154.7298 H   0  0  0  0  0  0  0  0  0  0  0  0
  151.1020  131.0646  153.0210 H   0  0  0  0  0  0  0  0  0  0  0  0
  1  2  1  0  0  0  0
  1 20  1  0  0  0  0
  1 21  1  0  0  0  0
  1 22  1  0  0  0  0
  2  3  1  0  0  0  0
  2 23  1  0  0  0  0
  2 24  1  0  0  0  0
  3  4  1  0  0  0  0
  3 25  1  0  0  0  0
  3 26  1  0  0  0  0
  4  5  1  0  0  0  0
  4 27  1  0  0  0  0
  4 28  1  0  0  0  0
  5 17  1  0  0  0  0
  5  6  1  0  0  0  0
  6  7  1  0  0  0  0
  6  8  2  0  0  0  0
  7 29  1  0  0  0  0
  7 30  1  0  0  0  0
  8  9  1  0  0  0  0
  8 14  1  0  0  0  0
  9 10  1  0  0  0  0
  9 31  1  0  0  0  0
 10 11  1  0  0  0  0
 10 32  1  0  0  0  0
 10 33  1  0  0  0  0
 11 12  1  0  0  0  0
 11 34  1  0  0  0  0
 11 35  1  0  0  0  0
 12 13  1  0  0  0  0
 13 36  1  0  0  0  0
 13 37  1  0  0  0  0
 13 38  1  0  0  0  0
 14 15  2  0  0  0  0
 14 16  1  0  0  0  0
 16 19  1  0  0  0  0
 16 17  1  0  0  0  0
 17 18  2  0  0  0  0
M  END
> <s_m_source_file>
AV-unprocessed.smi

> <i_m_source_file_index>
2628

> <i_lp_mmshare_version>
43012

> <i_f3d_flags>
0

> <s_epik_input>
W0NIM11bQ0gyXVtDSDJdW0NIMl1uMWMoW05IMl0pYyhjKD1PKVtuSF1jMT1PKVtOSF1bQ0gyXVtDSDJdT1tDSDNd

> <s_epik_cmdline>
J2VwaWtfcHl0aG9uJywgJy1waCcsICc3LjAnLCAnLXRuJywgJzgnLCAnLW1hJywgJzIwMCcsICctbWV0YWxfYmluZGluZycsICctaW1hZScsICc8aW5maWxlLm1hZT4nLCAnLW9tYWUnLCAnPG91dGZpbGUubWFlPic=

> <r_lp_tautomer_probability>
1

> <r_epik_Ionization_Penalty>
1.09794e-05

> <r_epik_Ionization_Penalty_Charging>
2.75876e-06

> <r_epik_Ionization_Penalty_Neutral>
8.2206e-06

> <r_epik_State_Penalty>
-0

> <r_epik_Charging_Adjusted_Penalty>
2.75876e-06

> <i_epik_Tot_Q>
0

> <i_epik_Tot_abs_Q>
0

> <r_epik_Metal_State_Penalty>
-0

> <b_epik_Metal_Only>
0

> <s_epik_Chemistry_Notes>
This compound has an imine and may undergo hydrolysis.

> <s_lp_Force_Field>
OPLS_2005

> <r_lp_Energy>
18.1798

> <b_lp_Chiralities_Consistent>
1

> <s_lp_Variant>
AV-unprocessed.smi:2628-1

> <Gold.Version>
5.8.1

> <Gold.Id.Protein>
6NUR|6NUR_protein|mol2

> <Gold.PLP.Fitness>
38.7896

> <Gold.PLP.PLP>
-30.1646

> <Gold.PLP.part.hbond>
-5.9172

> <Gold.PLP.part.metal>
0.0000

> <Gold.PLP.part.buried>
3.0567

> <Gold.PLP.part.nonpolar>
-25.7684

> <Gold.PLP.part.repulsive>
0.3278

> <Gold.PLP.ligand.clash>
0.0000

> <Gold.PLP.ligand.torsion>
0.7035

> <Gold.PLP.Chemscore.Hbond>
3.3299

> <Gold.PLP.Chemscore.CHOScore>
0.0000

> <Gold.PLP.Chemscore.Metal>
0.0000

> <Gold.Chemscore.Hbonds>
donor molecule, donor type, donor heavy atom, donor atom, acceptor molecule, acceptor atom, score
      L1  H     7    29       P1  7957  0.17
      L1  H     7    30       P1  7948  1.00
      L1  H     9    31       P1  7948  0.55
      P1  H  7997  8009       L1    18  1.00

> <Gold.PLP.Chemscore.Internal.Correction>
0.0422

> <Gold.Rescore>
     Score         DG    S(hbond)    S(metal)    S(lipo)     H(rot)  DE(clash)    DE(int)     intcor
     12.40     -16.51       3.32        0.00      50.84       2.35       2.27       1.84       ----

> <Gold.Chemscore.Fitness>
12.4017

> <Gold.Chemscore.DG>
-16.5083

> <Gold.Chemscore.ZeroCoef>
-5.4800

> <Gold.Chemscore.Hbond>
3.3210

> <Gold.Chemscore.Metal>
0.0000

> <Gold.Chemscore.Lipo>
50.8378

> <Gold.Chemscore.Internal_Hbond>
0.0000

> <Gold.Chemscore.DEClash>
2.2676

> <Gold.Chemscore.DEInternal>
1.8390

> <Gold.Chemscore.Rot>
2.3484

> <Gold.Chemscore.Internal.Correction>
   9.000000E+99

> <Gold.Chemscore.Hbonds>
donor molecule, donor type, donor heavy atom, donor atom, acceptor molecule, acceptor atom, score
      L1  H     7    29       P1  7957  0.15
      L1  H     7    30       P1  7948  0.45
      L1  H     9    31       P1  7948  0.03
      P1  H  7997  8009       L1    18  1.00

> <Gold.Chemscore.Hbond.Weighted>
-11.0923

> <Gold.Chemscore.Metal.Weighted>
-0.0000

> <Gold.Chemscore.Lipo.Weighted>
-5.9480

> <Gold.Chemscore.Internal_Hbond.Weighted>
0.0000

> <Gold.Chemscore.DEClash.Weighted>
2.2676

> <Gold.Chemscore.DEInternal.Weighted>
1.8390

> <Gold.Chemscore.Rot.Weighted>
6.0120

> <Gold.Chemscore.Internal.Correction.Weighted>
   9.000000E+99

> <Gold.Protein.RotatedTorsions>
[ 6907 6896 6895 6894 ] final   34.57 input  -60.11 | X-H torsion
[ 7974 7965 7964 7962 ] final   68.91 input  175.53 | X-H torsion
[ 8008 7997 7996 7995 ] final  177.57 input   59.86 | X-H torsion
[ 10167 10162 10161 10158 ] final  -82.03 input  -65.29 | X-H torsion
[ 10718 10713 10712 10709 ] final  -14.76 input   66.30 | X-H torsion
[ 10763 10752 10751 10750 ] final -166.48 input  -60.55 | X-H torsion
[ 11005 11000 10999 10996 ] final  -29.08 input  -57.11 | X-H torsion

> <Gold.Protein.ActiveResidues>
 VAL166  LYS551  ARG553  GLY616  TRP617  ASP618  TYR619  PRO620  LYS621  CYS622 
 ASP623  PHE694  ASN695  SER759  ASP760  ASP761  ALA762  ILE779  LEU786  VAL792 
 PHE793  MET794  SER795  GLU796  ALA797  LYS798  CYS799  TRP800  GLU811  SER814 

> <Gold.Protein.RotatedAtoms>
  152.1042  134.9320  160.0568 H   0  0  0  0  0  0  0  0  0  0  0  0  # atno 6907 bound_to 6896
  152.0523  133.4020  159.4390 H   0  0  0  0  0  0  0  0  0  0  0  0  # atno 6908 bound_to 6896
  150.6840  134.3214  159.4832 H   0  0  0  0  0  0  0  0  0  0  0  0  # atno 6909 bound_to 6896
  145.7968  139.2962  143.1178 H   0  0  0  0  0  0  0  0  0  0  0  0  # atno 7974 bound_to 7965
  156.0642  140.1355  156.9905 H   0  0  0  0  0  0  0  0  0  0  0  0  # atno 8008 bound_to 7997
  154.4497  140.0985  156.6633 H   0  0  0  0  0  0  0  0  0  0  0  0  # atno 8009 bound_to 7997
  155.5330  140.3459  155.4432 H   0  0  0  0  0  0  0  0  0  0  0  0  # atno 8010 bound_to 7997
  140.4357  143.2532  151.8696 H   0  0  0  0  0  0  0  0  0  0  0  0  # atno 10167 bound_to 10162
  156.6113  130.4850  149.6200 H   0  0  0  0  0  0  0  0  0  0  0  0  # atno 10718 bound_to 10713
  154.6828  135.2957  154.9589 H   0  0  0  0  0  0  0  0  0  0  0  0  # atno 10763 bound_to 10752
  154.0578  135.6635  153.4812 H   0  0  0  0  0  0  0  0  0  0  0  0  # atno 10764 bound_to 10752
  153.0559  135.5145  154.7880 H   0  0  0  0  0  0  0  0  0  0  0  0  # atno 10765 bound_to 10752
  140.9264  133.7366  156.0874 H   0  0  0  0  0  0  0  0  0  0  0  0  # atno 11005 bound_to 11000
  145.9919  140.8595  143.0062 LP  0  0  0  0  0  0  0  0  0  0  0  0  # atno 17320 bound_to 7965
  144.6774  140.2228  143.7364 LP  0  0  0  0  0  0  0  0  0  0  0  0  # atno 17321 bound_to 7965
  139.4787  144.5285  151.8701 LP  0  0  0  0  0  0  0  0  0  0  0  0  # atno 17342 bound_to 10162
  140.4376  144.2031  150.5890 LP  0  0  0  0  0  0  0  0  0  0  0  0  # atno 17343 bound_to 10162
  156.2387  130.6838  151.1535 LP  0  0  0  0  0  0  0  0  0  0  0  0  # atno 17370 bound_to 10713
  157.7253  131.0654  150.5958 LP  0  0  0  0  0  0  0  0  0  0  0  0  # atno 17371 bound_to 10713
  140.7920  134.3607  157.5462 LP  0  0  0  0  0  0  0  0  0  0  0  0  # atno 17394 bound_to 11000
  139.8786  134.9146  156.3110 LP  0  0  0  0  0  0  0  0  0  0  0  0  # atno 17395 bound_to 11000

$$$$
