AV-unprocessed.smi:775|AV-procd|sdf|3695|dock4
  -GOLD-   22720 1113D 1   1.00000     0.00000
 Structure written by MMmdl.
 39 40  0  0  0  0  0  0  0  0  2 V2000
  151.8765  144.6358  157.8683 C   0  0  0  0  0  0  0  0  0  0  0  0
  151.1890  143.2723  158.0417 C   0  0  2  0  0  0  0  0  0  0  0  0
  152.1669  142.1642  158.5039 C   0  0  0  0  0  0  0  0  0  0  0  0
  152.6055  142.3090  159.8827 N   0  0  0  0  0  0  0  0  0  0  0  0
  153.5335  141.5543  160.5709 C   0  0  0  0  0  0  0  0  0  0  0  0
  153.6120  142.0607  161.8363 C   0  0  0  0  0  0  0  0  0  0  0  0
  152.6769  143.1330  161.8301 C   0  0  0  0  0  0  0  0  0  0  0  0
  152.0754  143.2774  160.6604 N   0  0  0  0  0  0  0  0  0  0  0  0
  150.4872  142.9132  156.7881 N   0  3  0  0  0  0  0  0  0  0  0  0
  149.8534  141.5758  156.7680 C   0  0  0  0  0  0  0  0  0  0  0  0
  149.7109  141.0171  155.3435 C   0  0  0  0  0  0  0  0  0  0  0  0
  150.5662  140.2313  154.9317 O   0  0  0  0  0  0  0  0  0  0  0  0
  148.6535  141.4017  154.5858 N   0  0  0  0  0  0  0  0  0  0  0  0
  147.5885  142.3034  155.0374 C   0  0  0  0  0  0  0  0  0  0  0  0
  146.2941  141.4853  155.1871 C   0  0  0  0  0  0  0  0  0  0  0  0
  146.0523  140.6190  154.0318 N   0  0  0  0  0  0  0  0  0  0  0  0
  146.9704  140.2831  153.1065 C   0  0  0  0  0  0  0  0  0  0  0  0
  146.6929  139.5547  152.1569 O   0  0  0  0  0  0  0  0  0  0  0  0
  148.4037  140.8308  153.2521 C   0  0  0  0  0  0  0  0  0  0  0  0
  152.4101  144.9247  158.7742 H   0  0  0  0  0  0  0  0  0  0  0  0
  151.1462  145.4174  157.6556 H   0  0  0  0  0  0  0  0  0  0  0  0
  152.5941  144.6271  157.0474 H   0  0  0  0  0  0  0  0  0  0  0  0
  150.4325  143.3950  158.8179 H   0  0  0  0  0  0  0  0  0  0  0  0
  151.6920  141.1879  158.3945 H   0  0  0  0  0  0  0  0  0  0  0  0
  153.0499  142.1305  157.8656 H   0  0  0  0  0  0  0  0  0  0  0  0
  154.0563  140.7294  160.1092 H   0  0  0  0  0  0  0  0  0  0  0  0
  154.2387  141.7153  162.6453 H   0  0  0  0  0  0  0  0  0  0  0  0
  152.4183  143.8053  162.6350 H   0  0  0  0  0  0  0  0  0  0  0  0
  149.7546  143.5924  156.6382 H   0  0  0  0  0  0  0  0  0  0  0  0
  150.4544  140.8827  157.3560 H   0  0  0  0  0  0  0  0  0  0  0  0
  148.8661  141.6454  157.2266 H   0  0  0  0  0  0  0  0  0  0  0  0
  147.8039  142.8425  155.9585 H   0  0  0  0  0  0  0  0  0  0  0  0
  147.4488  143.0742  154.2776 H   0  0  0  0  0  0  0  0  0  0  0  0
  146.3521  140.8562  156.0762 H   0  0  0  0  0  0  0  0  0  0  0  0
  145.4401  142.1491  155.3238 H   0  0  0  0  0  0  0  0  0  0  0  0
  145.1173  140.2529  153.9221 H   0  0  0  0  0  0  0  0  0  0  0  0
  148.5514  141.6124  152.5063 H   0  0  0  0  0  0  0  0  0  0  0  0
  149.0951  140.0276  152.9933 H   0  0  0  0  0  0  0  0  0  0  0  0
  151.1388  142.9797  156.0188 H   0  0  0  0  0  0  0  0  0  0  0  0
  1  2  1  0  0  0  0
  1 20  1  0  0  0  0
  1 21  1  0  0  0  0
  1 22  1  0  0  0  0
  2  3  1  0  0  0  0
  2  9  1  0  0  0  0
  2 23  1  0  0  0  0
  3  4  1  0  0  0  0
  3 24  1  0  0  0  0
  3 25  1  0  0  0  0
  4  8  1  0  0  0  0
  4  5  1  0  0  0  0
  5  6  2  0  0  0  0
  5 26  1  0  0  0  0
  6  7  1  0  0  0  0
  6 27  1  0  0  0  0
  7  8  2  0  0  0  0
  7 28  1  0  0  0  0
  9 10  1  0  0  0  0
  9 29  1  0  0  0  0
  9 39  1  0  0  0  0
 10 11  1  0  0  0  0
 10 30  1  0  0  0  0
 10 31  1  0  0  0  0
 11 12  2  0  0  0  0
 11 13  1  0  0  0  0
 13 19  1  0  0  0  0
 13 14  1  0  0  0  0
 14 15  1  0  0  0  0
 14 32  1  0  0  0  0
 14 33  1  0  0  0  0
 15 16  1  0  0  0  0
 15 34  1  0  0  0  0
 15 35  1  0  0  0  0
 16 17  1  0  0  0  0
 16 36  1  0  0  0  0
 17 18  2  0  0  0  0
 17 19  1  0  0  0  0
 19 37  1  0  0  0  0
 19 38  1  0  0  0  0
M  CHG  1   9   1
M  END
> <s_m_source_file>
AV-unprocessed.smi

> <i_m_source_file_index>
775

> <i_lp_mmshare_version>
43012

> <i_f3d_flags>
0

> <s_epik_input>
bjFbY0hdW2NIXVtjSF1uMVtDSDJdW0NAQEhdKFtDSDNdKVtOSF1bQ0gyXUMoPU8pTjJbQ0gyXVtDSDJdW05IXUMoPU8pW0NIMl0y

> <s_epik_cmdline>
J2VwaWtfcHl0aG9uJywgJy1waCcsICc3LjAnLCAnLXRuJywgJzgnLCAnLW1hJywgJzIwMCcsICctbWV0YWxfYmluZGluZycsICctaW1hZScsICc8aW5maWxlLm1hZT4nLCAnLW9tYWUnLCAnPG91dGZpbGUubWFlPic=

> <r_lp_tautomer_probability>
1

> <r_epik_Ionization_Penalty>
0.165651

> <r_epik_Ionization_Penalty_Charging>
0.165647

> <r_epik_Ionization_Penalty_Neutral>
3.4358e-06

> <r_epik_State_Penalty>
0.15499

> <r_epik_Charging_Adjusted_Penalty>
0.320637

> <i_epik_Tot_Q>
1

> <i_epik_Tot_abs_Q>
1

> <r_epik_Metal_State_Penalty>
0.155003

> <b_epik_Metal_Only>
0

> <s_lp_Force_Field>
OPLS_2005

> <r_lp_Energy>
21.6432

> <b_lp_Chiralities_Consistent>
1

> <s_lp_Variant>
AV-unprocessed.smi:775-1

> <Gold.Version>
5.8.1

> <Gold.Id.Protein>
6NUR|6NUR_protein|mol2

> <Gold.PLP.Fitness>
52.0211

> <Gold.PLP.PLP>
-41.9481

> <Gold.PLP.part.hbond>
-3.0000

> <Gold.PLP.part.metal>
0.0000

> <Gold.PLP.part.buried>
1.1407

> <Gold.PLP.part.nonpolar>
-39.9185

> <Gold.PLP.part.repulsive>
1.6632

> <Gold.PLP.ligand.clash>
0.0000

> <Gold.PLP.ligand.torsion>
0.6162

> <Gold.PLP.Chemscore.Hbond>
3.7520

> <Gold.PLP.Chemscore.CHOScore>
0.0000

> <Gold.PLP.Chemscore.Metal>
0.0000

> <Gold.Chemscore.Hbonds>
donor molecule, donor type, donor heavy atom, donor atom, acceptor molecule, acceptor atom, score
      L1  H     9    29       P1  8028  2.00
      L1  H    16    36       P1 10175  0.64
      P1  H  7989  7998       L1    12  1.00

> <Gold.PLP.Chemscore.Internal.Correction>
0.0494

> <Gold.Rescore>
     Score         DG    S(hbond)    S(metal)    S(lipo)     H(rot)  DE(clash)    DE(int)     intcor
     15.48     -18.75       2.53        0.00      88.96       2.18       2.61       0.67       ----

> <Gold.Chemscore.Fitness>
15.4777

> <Gold.Chemscore.DG>
-18.7547

> <Gold.Chemscore.ZeroCoef>
-5.4800

> <Gold.Chemscore.Hbond>
2.5314

> <Gold.Chemscore.Metal>
0.0000

> <Gold.Chemscore.Lipo>
88.9570

> <Gold.Chemscore.Internal_Hbond>
0.0000

> <Gold.Chemscore.DEClash>
2.6099

> <Gold.Chemscore.DEInternal>
0.6671

> <Gold.Chemscore.Rot>
2.1828

> <Gold.Chemscore.Internal.Correction>
   9.000000E+99

> <Gold.Chemscore.Hbonds>
donor molecule, donor type, donor heavy atom, donor atom, acceptor molecule, acceptor atom, score
      L1  H     9    29       P1  8028  0.97
      L1  H    16    36       P1 10175  0.60
      P1  H  7989  7998       L1    12  0.90

> <Gold.Chemscore.Hbond.Weighted>
-8.4547

> <Gold.Chemscore.Metal.Weighted>
-0.0000

> <Gold.Chemscore.Lipo.Weighted>
-10.4080

> <Gold.Chemscore.Internal_Hbond.Weighted>
0.0000

> <Gold.Chemscore.DEClash.Weighted>
2.6099

> <Gold.Chemscore.DEInternal.Weighted>
0.6671

> <Gold.Chemscore.Rot.Weighted>
5.5880

> <Gold.Chemscore.Internal.Correction.Weighted>
   9.000000E+99

> <Gold.Protein.RotatedTorsions>
[ 6907 6896 6895 6894 ] final  -82.54 input  -60.11 | X-H torsion
[ 7974 7965 7964 7962 ] final  112.70 input  175.53 | X-H torsion
[ 8008 7997 7996 7995 ] final   25.07 input   59.86 | X-H torsion
[ 10167 10162 10161 10158 ] final   77.06 input  -65.29 | X-H torsion
[ 10718 10713 10712 10709 ] final  127.50 input   66.30 | X-H torsion
[ 10763 10752 10751 10750 ] final   70.44 input  -60.55 | X-H torsion
[ 11005 11000 10999 10996 ] final   27.54 input  -57.11 | X-H torsion

> <Gold.Protein.ActiveResidues>
 VAL166  LYS551  ARG553  GLY616  TRP617  ASP618  TYR619  PRO620  LYS621  CYS622 
 ASP623  PHE694  ASN695  SER759  ASP760  ASP761  ALA762  ILE779  LEU786  VAL792 
 PHE793  MET794  SER795  GLU796  ALA797  LYS798  CYS799  TRP800  GLU811  SER814 

> <Gold.Protein.RotatedAtoms>
  150.6896  134.3649  159.4966 H   0  0  0  0  0  0  0  0  0  0  0  0  # atno 6907 bound_to 6896
  152.1473  134.9013  160.0559 H   0  0  0  0  0  0  0  0  0  0  0  0  # atno 6908 bound_to 6896
  152.0124  133.3832  159.4262 H   0  0  0  0  0  0  0  0  0  0  0  0  # atno 6909 bound_to 6896
  145.2262  139.2839  143.4192 H   0  0  0  0  0  0  0  0  0  0  0  0  # atno 7974 bound_to 7965
  155.0061  140.3131  155.4848 H   0  0  0  0  0  0  0  0  0  0  0  0  # atno 8008 bound_to 7997
  156.2917  140.2223  156.5114 H   0  0  0  0  0  0  0  0  0  0  0  0  # atno 8009 bound_to 7997
  154.7575  140.0461  157.0934 H   0  0  0  0  0  0  0  0  0  0  0  0  # atno 8010 bound_to 7997
  139.9856  144.5794  150.7862 H   0  0  0  0  0  0  0  0  0  0  0  0  # atno 10167 bound_to 10162
  157.5328  131.1098  150.8983 H   0  0  0  0  0  0  0  0  0  0  0  0  # atno 10718 bound_to 10713
  153.0342  135.5174  154.7441 H   0  0  0  0  0  0  0  0  0  0  0  0  # atno 10763 bound_to 10752
  154.6431  135.2915  155.0081 H   0  0  0  0  0  0  0  0  0  0  0  0  # atno 10764 bound_to 10752
  154.0992  135.6639  153.4918 H   0  0  0  0  0  0  0  0  0  0  0  0  # atno 10765 bound_to 10752
  140.3252  134.2499  155.7710 H   0  0  0  0  0  0  0  0  0  0  0  0  # atno 11005 bound_to 11000
  146.3364  140.2583  142.8601 LP  0  0  0  0  0  0  0  0  0  0  0  0  # atno 17320 bound_to 7965
  144.9719  140.8377  143.5450 LP  0  0  0  0  0  0  0  0  0  0  0  0  # atno 17321 bound_to 7965
  140.7473  143.2905  151.3345 LP  0  0  0  0  0  0  0  0  0  0  0  0  # atno 17342 bound_to 10162
  139.6377  144.0598  152.2529 LP  0  0  0  0  0  0  0  0  0  0  0  0  # atno 17343 bound_to 10162
  156.9559  130.5437  149.5284 LP  0  0  0  0  0  0  0  0  0  0  0  0  # atno 17370 bound_to 10713
  156.0435  130.5515  150.8827 LP  0  0  0  0  0  0  0  0  0  0  0  0  # atno 17371 bound_to 10713
  141.2077  133.7799  157.0104 LP  0  0  0  0  0  0  0  0  0  0  0  0  # atno 17394 bound_to 11000
  140.0907  134.9594  157.1772 LP  0  0  0  0  0  0  0  0  0  0  0  0  # atno 17395 bound_to 11000

$$$$
