AV-unprocessed.smi:72|AV-procd|sdf|709|dock8
  -GOLD-   2262017 33D 1   1.00000     0.00000
 Structure written by MMmdl.
 30 31  0  0  0  0  0  0  0  0  2 V2000
  146.1272  136.9391  151.0039 N   0  0  0  0  0  0  0  0  0  0  0  0
  145.8051  135.6313  151.3015 C   0  0  0  0  0  0  0  0  0  0  0  0
  146.8243  134.8006  151.7313 N   0  3  0  0  0  0  0  0  0  0  0  0
  146.6790  133.5108  152.0644 C   0  0  0  0  0  0  0  0  0  0  0  0
  145.4840  132.9612  151.9869 N   0  0  0  0  0  0  0  0  0  0  0  0
  145.2548  131.5105  152.3336 C   0  0  2  0  0  0  0  0  0  0  0  0
  146.0357  131.1945  153.4483 O   0  0  0  0  0  0  0  0  0  0  0  0
  147.1213  130.3524  153.0676 C   0  0  1  0  0  0  0  0  0  0  0  0
  147.5927  129.5320  154.2777 C   0  0  0  0  0  0  0  0  0  0  0  0
  148.0118  130.3986  155.3100 O   0  0  0  0  0  0  0  0  0  0  0  0
  146.4838  129.5126  151.9619 C   0  0  2  0  0  0  0  0  0  0  0  0
  147.4296  128.8350  151.1559 O   0  0  0  0  0  0  0  0  0  0  0  0
  145.6679  130.5483  151.1961 C   0  0  2  0  0  0  0  0  0  0  0  0
  146.4338  131.1755  150.1769 O   0  0  0  0  0  0  0  0  0  0  0  0
  144.3777  133.7311  151.5447 C   0  0  0  0  0  0  0  0  0  0  0  0
  143.2619  133.2207  151.4499 O   0  0  0  0  0  0  0  0  0  0  0  0
  144.6285  135.0734  151.2247 N   0  0  0  0  0  0  0  0  0  0  0  0
  144.2059  131.4270  152.6231 H   0  0  0  0  0  0  0  0  0  0  0  0
  147.9369  130.9467  152.6514 H   0  0  0  0  0  0  0  0  0  0  0  0
  145.8089  128.7793  152.4066 H   0  0  0  0  0  0  0  0  0  0  0  0
  144.7787  130.1072  150.7439 H   0  0  0  0  0  0  0  0  0  0  0  0
  145.4489  137.6162  150.6840 H   0  0  0  0  0  0  0  0  0  0  0  0
  147.0587  137.3218  151.0796 H   0  0  0  0  0  0  0  0  0  0  0  0
  147.5443  132.9488  152.3887 H   0  0  0  0  0  0  0  0  0  0  0  0
  146.8097  128.8629  154.6359 H   0  0  0  0  0  0  0  0  0  0  0  0
  148.4476  128.9134  154.0029 H   0  0  0  0  0  0  0  0  0  0  0  0
  147.2478  130.8078  155.6873 H   0  0  0  0  0  0  0  0  0  0  0  0
  148.1884  129.3888  151.0511 H   0  0  0  0  0  0  0  0  0  0  0  0
  147.3053  130.8089  150.1892 H   0  0  0  0  0  0  0  0  0  0  0  0
  147.7496  135.2000  151.7980 H   0  0  0  0  0  0  0  0  0  0  0  0
  1  2  1  0  0  0  0
  1 22  1  0  0  0  0
  1 23  1  0  0  0  0
  2 17  2  0  0  0  0
  2  3  1  0  0  0  0
  3  4  2  0  0  0  0
  3 30  1  0  0  0  0
  4  5  1  0  0  0  0
  4 24  1  0  0  0  0
  5  6  1  0  0  0  0
  5 15  1  0  0  0  0
  6 18  1  0  0  0  0
  6 13  1  0  0  0  0
  6  7  1  0  0  0  0
  7  8  1  0  0  0  0
  8 19  1  0  0  0  0
  8  9  1  0  0  0  0
  8 11  1  0  0  0  0
  9 10  1  0  0  0  0
  9 25  1  0  0  0  0
  9 26  1  0  0  0  0
 10 27  1  0  0  0  0
 11 20  1  0  0  0  0
 11 12  1  0  0  0  0
 11 13  1  0  0  0  0
 12 28  1  0  0  0  0
 13 21  1  0  0  0  0
 13 14  1  0  0  0  0
 14 29  1  0  0  0  0
 15 16  2  0  0  0  0
 15 17  1  0  0  0  0
M  CHG  1   3   1
M  END
> <s_m_source_file>
AV-unprocessed.smi

> <i_m_source_file_index>
72

> <i_lp_mmshare_version>
43012

> <i_f3d_flags>
0

> <s_epik_input>
W05IMl1jMW5bY0hdbihjKD1PKW4xKVtDQEBIXTJPW0NASF0oW0NIMl1bT0hdKVtDQEBIXShbT0hdKVtDQEhdMltPSF0=

> <s_epik_cmdline>
J2VwaWtfcHl0aG9uJywgJy1waCcsICc3LjAnLCAnLXRuJywgJzgnLCAnLW1hJywgJzIwMCcsICctbWV0YWxfYmluZGluZycsICctaW1hZScsICc8aW5maWxlLm1hZT4nLCAnLW9tYWUnLCAnPG91dGZpbGUubWFlPic=

> <r_lp_tautomer_probability>
4.77166e-05

> <r_epik_Ionization_Penalty>
0.104979

> <r_epik_Ionization_Penalty_Charging>
0.0999619

> <r_epik_Ionization_Penalty_Neutral>
0.00501745

> <r_epik_State_Penalty>
2.51541

> <r_epik_Charging_Adjusted_Penalty>
2.61537

> <i_epik_Tot_Q>
1

> <i_epik_Tot_abs_Q>
1

> <r_epik_Metal_State_Penalty>
3.53763

> <b_epik_Metal_Only>
0

> <s_epik_Chemistry_Notes>
This compound contains an acetal/aminal-like group ( X-CH(R)-Y where X, Y are N, S, or O) that may be acid/base labile, releasing an aldehyde.

> <s_lp_Force_Field>
OPLS_2005

> <r_lp_Energy>
36.649

> <b_lp_Chiralities_Consistent>
1

> <s_lp_Variant>
AV-unprocessed.smi:72-47

> <Gold.Version>
5.8.1

> <Gold.Id.Protein>
6NUR|6NUR_protein|mol2

> <Gold.PLP.Fitness>
38.7999

> <Gold.PLP.PLP>
-24.3660

> <Gold.PLP.part.hbond>
-5.0000

> <Gold.PLP.part.metal>
0.0000

> <Gold.PLP.part.buried>
-5.2755

> <Gold.PLP.part.nonpolar>
-15.1211

> <Gold.PLP.part.repulsive>
0.8005

> <Gold.PLP.ligand.clash>
0.0000

> <Gold.PLP.ligand.torsion>
0.5947

> <Gold.PLP.Chemscore.Hbond>
5.1680

> <Gold.PLP.Chemscore.CHOScore>
0.0000

> <Gold.PLP.Chemscore.Metal>
0.0000

> <Gold.Chemscore.Hbonds>
donor molecule, donor type, donor heavy atom, donor atom, acceptor molecule, acceptor atom, score
      L1  H     1    22       P1 10171  0.98
      L1  H     1    23       P1  7948  0.21
      L1  H     3    30       P1  7948  2.00
      L1  H    12    28       P1 10747  1.00
      L1  H    14    29       P1 10747  1.00

> <Gold.PLP.Chemscore.Internal.Correction>
0.1194

> <Gold.Rescore>
     Score         DG    S(hbond)    S(metal)    S(lipo)     H(rot)  DE(clash)    DE(int)     intcor
     10.00     -10.89       3.68        0.00      30.50       4.08       0.12       0.76       ----

> <Gold.Chemscore.Fitness>
10.0039

> <Gold.Chemscore.DG>
-10.8861

> <Gold.Chemscore.ZeroCoef>
-5.4800

> <Gold.Chemscore.Hbond>
3.6762

> <Gold.Chemscore.Metal>
0.0000

> <Gold.Chemscore.Lipo>
30.4956

> <Gold.Chemscore.Internal_Hbond>
0.0000

> <Gold.Chemscore.DEClash>
0.1227

> <Gold.Chemscore.DEInternal>
0.7595

> <Gold.Chemscore.Rot>
4.0783

> <Gold.Chemscore.Internal.Correction>
   9.000000E+99

> <Gold.Chemscore.Hbonds>
donor molecule, donor type, donor heavy atom, donor atom, acceptor molecule, acceptor atom, score
      L1  H     1    22       P1 10171  0.91
      L1  H     1    23       P1  7948  0.21
      L1  H     3    30       P1  7948  0.74
      L1  H    12    28       P1 10747  0.33
      L1  H    14    29       P1 10747  0.98

> <Gold.Chemscore.Hbond.Weighted>
-12.2785

> <Gold.Chemscore.Metal.Weighted>
-0.0000

> <Gold.Chemscore.Lipo.Weighted>
-3.5680

> <Gold.Chemscore.Internal_Hbond.Weighted>
0.0000

> <Gold.Chemscore.DEClash.Weighted>
0.1227

> <Gold.Chemscore.DEInternal.Weighted>
0.7595

> <Gold.Chemscore.Rot.Weighted>
10.4404

> <Gold.Chemscore.Internal.Correction.Weighted>
   9.000000E+99

> <Gold.Protein.RotatedTorsions>
[ 6907 6896 6895 6894 ] final  -25.04 input  -60.11 | X-H torsion
[ 7974 7965 7964 7962 ] final -171.92 input  175.53 | X-H torsion
[ 8008 7997 7996 7995 ] final  -74.86 input   59.86 | X-H torsion
[ 10167 10162 10161 10158 ] final    0.89 input  -65.29 | X-H torsion
[ 10718 10713 10712 10709 ] final  -78.10 input   66.30 | X-H torsion
[ 10763 10752 10751 10750 ] final   22.05 input  -60.55 | X-H torsion
[ 11005 11000 10999 10996 ] final  116.16 input  -57.11 | X-H torsion

> <Gold.Protein.ActiveResidues>
 VAL166  LYS551  ARG553  GLY616  TRP617  ASP618  TYR619  PRO620  LYS621  CYS622 
 ASP623  PHE694  ASN695  SER759  ASP760  ASP761  ALA762  ILE779  LEU786  VAL792 
 PHE793  MET794  SER795  GLU796  ALA797  LYS798  CYS799  TRP800  GLU811  SER814 

> <Gold.Protein.RotatedAtoms>
  151.1808  135.0360  159.8791 H   0  0  0  0  0  0  0  0  0  0  0  0  # atno 6907 bound_to 6896
  152.5445  134.1065  159.8350 H   0  0  0  0  0  0  0  0  0  0  0  0  # atno 6908 bound_to 6896
  151.1181  133.5077  159.2635 H   0  0  0  0  0  0  0  0  0  0  0  0  # atno 6909 bound_to 6896
  144.7151  140.1850  143.6354 H   0  0  0  0  0  0  0  0  0  0  0  0  # atno 7974 bound_to 7965
  154.5367  140.0754  156.8439 H   0  0  0  0  0  0  0  0  0  0  0  0  # atno 8008 bound_to 7997
  155.3264  140.3399  155.4222 H   0  0  0  0  0  0  0  0  0  0  0  0  # atno 8009 bound_to 7997
  156.1835  140.1660  156.8217 H   0  0  0  0  0  0  0  0  0  0  0  0  # atno 8010 bound_to 7997
  140.6708  143.7054  150.7919 H   0  0  0  0  0  0  0  0  0  0  0  0  # atno 10167 bound_to 10162
  156.0126  130.4509  150.3446 H   0  0  0  0  0  0  0  0  0  0  0  0  # atno 10718 bound_to 10713
  153.0946  135.6656  153.9788 H   0  0  0  0  0  0  0  0  0  0  0  0  # atno 10763 bound_to 10752
  153.9376  135.2997  155.3445 H   0  0  0  0  0  0  0  0  0  0  0  0  # atno 10764 bound_to 10752
  154.7363  135.5100  153.9122 H   0  0  0  0  0  0  0  0  0  0  0  0  # atno 10765 bound_to 10752
  139.9032  134.9594  156.7156 H   0  0  0  0  0  0  0  0  0  0  0  0  # atno 11005 bound_to 11000
  145.8821  139.2329  143.1599 LP  0  0  0  0  0  0  0  0  0  0  0  0  # atno 17320 bound_to 7965
  145.9984  140.8541  143.0031 LP  0  0  0  0  0  0  0  0  0  0  0  0  # atno 17321 bound_to 7965
  140.0739  143.5034  152.2566 LP  0  0  0  0  0  0  0  0  0  0  0  0  # atno 17342 bound_to 10162
  139.5976  144.7572  151.3249 LP  0  0  0  0  0  0  0  0  0  0  0  0  # atno 17343 bound_to 10162
  157.1540  131.0328  151.2872 LP  0  0  0  0  0  0  0  0  0  0  0  0  # atno 17370 bound_to 10713
  157.4368  130.7521  149.7035 LP  0  0  0  0  0  0  0  0  0  0  0  0  # atno 17371 bound_to 10713
  140.7041  133.9280  155.8043 LP  0  0  0  0  0  0  0  0  0  0  0  0  # atno 17394 bound_to 11000
  141.0349  134.0703  157.3970 LP  0  0  0  0  0  0  0  0  0  0  0  0  # atno 17395 bound_to 11000

$$$$
