#       Name:                AV-unprocessed.smi:66
#       Creating user name   scv26
#       Creation time:       Thu Mar 26 16:51:11 2020


#       File generated by GOLD software.
#

@<TRIPOS>MOLECULE
AV-unprocessed.smi:66
    37    39     1
SMALL
NO_CHARGES


@<TRIPOS>ATOM
      1 ****        -1.7236   2.0353   2.8330 O.co2          1 S1                 0.0000
      2 ****        -1.5636   0.9060   2.3213 C.2            1 S1                 0.0000
      3 ****        -2.4699   0.0681   2.1148 O.co2          1 S1                -1.0000
      4 ****        -0.1307   0.5237   1.9221 C.3            1 S1                 0.0000
      5 ****         0.4533  -0.5585   2.8458 C.3            1 S1                 0.0000
      6 ****         1.4634  -1.2699   1.9512 C.3            1 S1                 0.0000
      7 ****         1.7673  -2.5737   2.3998 O.3            1 S1                 0.0000
      8 ****         0.7782  -1.2666   0.5854 C.3            1 S1                 0.0000
      9 ****        -0.0561  -0.0716   0.5838 N.pl3          1 S1                 0.0000
     10 ****        -0.1881   0.6616  -0.5534 C.ar           1 S1                 0.0000
     11 ****        -0.2369   2.0182  -0.4713 N.ar           1 S1                 0.0000
     12 ****        -0.3660   2.7629  -1.5730 C.ar           1 S1                 0.0000
     13 ****        -0.4621   2.3654  -2.8433 N.ar           1 S1                 0.0000
     14 ****        -0.4193   1.0073  -2.9323 C.ar           1 S1                 0.0000
     15 ****        -0.4963   0.2293  -4.0675 N.pl3          1 S1                 0.0000
     16 ****        -0.4157  -1.0729  -3.6406 C.2            1 S1                 0.0000
     17 ****        -0.2947  -1.2165  -2.3486 N.2            1 S1                 0.0000
     18 ****        -0.2858   0.0861  -1.8542 C.ar           1 S1                 0.0000
     19 ****        -0.5956   0.6027  -5.0002 H              1 S1                 0.0000
     20 ****         0.5108   1.4056   1.9565 H              1 S1                 0.0000
     21 ****         0.9116  -0.1392   3.7419 H              1 S1                 0.0000
     22 ****        -0.3199  -1.2609   3.1638 H              1 S1                 0.0000
     23 ****         2.3804  -0.6810   1.9018 H              1 S1                 0.0000
     24 ****         0.9624  -3.0668   2.4464 H              1 S1                 0.0000
     25 ****         1.5167  -1.2765  -0.2173 H              1 S1                 0.0000
     26 ****         0.1291  -2.1349   0.4649 H              1 S1                 0.0000
     27 ****        -0.3966   3.8303  -1.4119 H              1 S1                 0.0000
     28 ****        -0.4517  -1.9131  -4.3185 H              1 S1                 0.0000
     29 ****        -2.6362   2.3319   3.1145 LP             1 S1                 0.0000
     30 ****        -0.9391   2.6420   2.9608 LP             1 S1                 0.0000
     31 ****        -3.4143   0.2809   2.3657 LP             1 S1                 0.0000
     32 ****        -2.2498  -0.8143   1.6989 LP             1 S1                 0.0000
     33 ****         2.1898  -2.5299   3.3051 LP             1 S1                 0.0000
     34 ****         2.3966  -3.0136   1.7591 LP             1 S1                 0.0000
     35 ****        -0.1756   2.4627   0.4224 LP             1 S1                 0.0000
     36 ****        -0.5533   2.9822  -3.6251 LP             1 S1                 0.0000
     37 ****        -0.2243  -2.0691  -1.8307 LP             1 S1                 0.0000
@<TRIPOS>BOND
    1    1    2 ar    
    2    2    3 ar    
    3    2    4 1     
    4    4    5 1     
    5    4   20 1     
    6    4    9 1     
    7    5    6 1     
    8    5   21 1     
    9    5   22 1     
   10    6    7 1     
   11    6    8 1     
   12    6   23 1     
   13    7   24 1     
   14    8   25 1     
   15    8   26 1     
   16    8    9 1     
   17    9   10 1     
   18   10   11 ar    
   19   10   18 ar    
   20   11   12 ar    
   21   12   27 1     
   22   12   13 ar    
   23   13   14 ar    
   24   14   15 1     
   25   14   18 ar    
   26   15   16 1     
   27   15   19 1     
   28   16   17 2     
   29   16   28 1     
   30   17   18 1     
   31    1   29 1     
   32    1   30 1     
   33    3   31 1     
   34    3   32 1     
   35    7   33 1     
   36    7   34 1     
   37   11   35 1     
   38   13   36 1     
   39   17   37 1     
@<TRIPOS>SUBSTRUCTURE
      1 S1             1
@<TRIPOS>SET
LONE_PAIRS      STATIC     ATOMS    <user>   **** ""
9 29 30 31 32 33 34 35 36 37
DONOR_HYDROGENS      STATIC     ATOMS    <user>   **** ""
2 24 19
ATOM$BLUE        STATIC     ATOMS    COLORGROUP SYSTEM
9 29 30 31 32 33 34 35 36 37
ATOM$RED        STATIC     ATOMS    COLORGROUP SYSTEM
2 24 19
