AV-unprocessed.smi:2226|AV-procd|sdf|9015|dock2
  -GOLD-   2272012223D 1   1.00000     0.00000
 Structure written by MMmdl.
 40 42  0  0  0  0  0  0  0  0  2 V2000
  146.5727  138.8503  152.0712 C   0  0  0  0  0  0  0  0  0  0  0  0
  146.4042  139.8294  153.1715 N   0  3  1  0  0  0  0  0  0  0  0  0
  146.2061  139.2310  154.5132 C   0  0  2  0  0  0  0  0  0  0  0  0
  145.6308  140.3048  155.4662 C   0  0  0  0  0  0  0  0  0  0  0  0
  146.4459  141.6123  155.5051 C   0  0  0  0  0  0  0  0  0  0  0  0
  146.9322  142.0478  154.1098 C   0  0  0  0  0  0  0  0  0  0  0  0
  147.4454  140.8824  153.2329 C   0  0  1  0  0  0  0  0  0  0  0  0
  148.8197  140.2991  153.6485 C   0  0  0  0  0  0  0  0  0  0  0  0
  148.8073  139.3222  154.8552 C   0  0  1  0  0  0  0  0  0  0  0  0
  149.1957  139.9612  156.1104 N   0  0  0  0  0  0  0  0  0  0  0  0
  150.3003  140.6925  156.3232 C   0  0  0  0  0  0  0  0  0  0  0  0
  151.1266  140.8934  155.4274 O   0  0  0  0  0  0  0  0  0  0  0  0
  150.3129  141.1583  157.6297 N   0  0  0  0  0  0  0  0  0  0  0  0
  150.8128  142.3256  157.8988 C   0  0  0  0  0  0  0  0  0  0  0  0
  151.3886  143.3176  157.1091 N   0  0  0  0  0  0  0  0  0  0  0  0
  151.7397  144.3590  157.9217 C   0  0  0  0  0  0  0  0  0  0  0  0
  151.4016  144.0414  159.1676 C   0  0  0  0  0  0  0  0  0  0  0  0
  150.8335  142.8029  159.1850 O   0  0  0  0  0  0  0  0  0  0  0  0
  147.4904  138.5233  155.0134 C   0  0  0  0  0  0  0  0  0  0  0  0
  147.4857  138.2642  152.1749 H   0  0  0  0  0  0  0  0  0  0  0  0
  146.6082  139.3631  151.1097 H   0  0  0  0  0  0  0  0  0  0  0  0
  145.7294  138.1598  152.0449 H   0  0  0  0  0  0  0  0  0  0  0  0
  145.4349  138.4649  154.4213 H   0  0  0  0  0  0  0  0  0  0  0  0
  144.6209  140.5472  155.1324 H   0  0  0  0  0  0  0  0  0  0  0  0
  145.5215  139.9016  156.4735 H   0  0  0  0  0  0  0  0  0  0  0  0
  145.8377  142.4055  155.9413 H   0  0  0  0  0  0  0  0  0  0  0  0
  147.2866  141.5152  156.1833 H   0  0  0  0  0  0  0  0  0  0  0  0
  146.0953  142.5186  153.5921 H   0  0  0  0  0  0  0  0  0  0  0  0
  147.6961  142.8202  154.2039 H   0  0  0  0  0  0  0  0  0  0  0  0
  147.5621  141.2902  152.2277 H   0  0  0  0  0  0  0  0  0  0  0  0
  149.2119  139.7489  152.7926 H   0  0  0  0  0  0  0  0  0  0  0  0
  149.5364  141.1066  153.8025 H   0  0  0  0  0  0  0  0  0  0  0  0
  149.5852  138.5788  154.6682 H   0  0  0  0  0  0  0  0  0  0  0  0
  148.5657  139.8410  156.8906 H   0  0  0  0  0  0  0  0  0  0  0  0
  151.5447  143.3119  156.1114 H   0  0  0  0  0  0  0  0  0  0  0  0
  152.2073  145.2409  157.5091 H   0  0  0  0  0  0  0  0  0  0  0  0
  151.4946  144.5629  160.1086 H   0  0  0  0  0  0  0  0  0  0  0  0
  147.3611  138.1918  156.0449 H   0  0  0  0  0  0  0  0  0  0  0  0
  147.5982  137.6004  154.4427 H   0  0  0  0  0  0  0  0  0  0  0  0
  145.5423  140.3109  152.9584 H   0  0  0  0  0  0  0  0  0  0  0  0
  1  2  1  0  0  0  0
  1 20  1  0  0  0  0
  1 21  1  0  0  0  0
  1 22  1  0  0  0  0
  2  7  1  0  0  0  0
  2  3  1  0  0  0  0
  2 40  1  0  0  0  0
  3 19  1  0  0  0  0
  3  4  1  0  0  0  0
  3 23  1  0  0  0  0
  4  5  1  0  0  0  0
  4 24  1  0  0  0  0
  4 25  1  0  0  0  0
  5  6  1  0  0  0  0
  5 26  1  0  0  0  0
  5 27  1  0  0  0  0
  6  7  1  0  0  0  0
  6 28  1  0  0  0  0
  6 29  1  0  0  0  0
  7  8  1  0  0  0  0
  7 30  1  0  0  0  0
  8  9  1  0  0  0  0
  8 31  1  0  0  0  0
  8 32  1  0  0  0  0
  9 10  1  0  0  0  0
  9 19  1  0  0  0  0
  9 33  1  0  0  0  0
 10 34  1  0  0  0  0
 10 11  1  0  0  0  0
 11 13  1  0  0  0  0
 11 12  2  0  0  0  0
 13 14  2  0  0  0  0
 14 18  1  0  0  0  0
 14 15  1  0  0  0  0
 15 35  1  0  0  0  0
 15 16  1  0  0  0  0
 16 36  1  0  0  0  0
 16 17  2  0  0  0  0
 17 37  1  0  0  0  0
 17 18  1  0  0  0  0
 19 38  1  0  0  0  0
 19 39  1  0  0  0  0
M  CHG  1   2   1
M  END
> <s_m_source_file>
AV-unprocessed.smi

> <i_m_source_file_index>
2226

> <i_lp_mmshare_version>
43012

> <i_f3d_flags>
0

> <s_epik_input>
W0NIMl0xW0NIMl1bQ0gyXVtDQEhdKE4oW0NIM10pW0NIXTEyKVtDSDJdW0NASF0oW0NIMl0yKVtOSF1DKD1PKVtOSF1jM25bY0hdW2NIXW8z

> <s_epik_cmdline>
J2VwaWtfcHl0aG9uJywgJy1waCcsICc3LjAnLCAnLXRuJywgJzgnLCAnLW1hJywgJzIwMCcsICctbWV0YWxfYmluZGluZycsICctaW1hZScsICc8aW5maWxlLm1hZT4nLCAnLW9tYWUnLCAnPG91dGZpbGUubWFlPic=

> <r_lp_tautomer_probability>
0.107061

> <r_epik_Ionization_Penalty>
1.08307

> <r_epik_Ionization_Penalty_Charging>
1.08272

> <r_epik_Ionization_Penalty_Neutral>
0.000345913

> <r_epik_State_Penalty>
2.5744

> <r_epik_Charging_Adjusted_Penalty>
3.65713

> <i_epik_Tot_Q>
1

> <i_epik_Tot_abs_Q>
1

> <r_epik_Metal_State_Penalty>
3.72133

> <b_epik_Metal_Only>
0

> <s_lp_Force_Field>
OPLS_2005

> <r_lp_Energy>
59.8055

> <b_lp_Chiralities_Consistent>
1

> <s_lp_Variant>
AV-unprocessed.smi:2226-15

> <Gold.Version>
5.8.1

> <Gold.Id.Protein>
6NUR|6NUR_protein|mol2

> <Gold.PLP.Fitness>
36.8684

> <Gold.PLP.PLP>
-29.2412

> <Gold.PLP.part.hbond>
-2.9530

> <Gold.PLP.part.metal>
0.0000

> <Gold.PLP.part.buried>
0.1071

> <Gold.PLP.part.nonpolar>
-26.3556

> <Gold.PLP.part.repulsive>
0.1691

> <Gold.PLP.ligand.clash>
0.0000

> <Gold.PLP.ligand.torsion>
0.2684

> <Gold.PLP.Chemscore.Hbond>
2.7040

> <Gold.PLP.Chemscore.CHOScore>
0.0000

> <Gold.PLP.Chemscore.Metal>
0.0000

> <Gold.Chemscore.Hbonds>
donor molecule, donor type, donor heavy atom, donor atom, acceptor molecule, acceptor atom, score
      L1  H     2    40       P1 10175  2.00
      P1  H  7989  7998       L1    12  0.72

> <Gold.PLP.Chemscore.Internal.Correction>
0.0520

> <Gold.Rescore>
     Score         DG    S(hbond)    S(metal)    S(lipo)     H(rot)  DE(clash)    DE(int)     intcor
     13.88     -16.79       1.73        0.00      69.03       1.00       2.65       0.26       ----

> <Gold.Chemscore.Fitness>
13.8799

> <Gold.Chemscore.DG>
-16.7860

> <Gold.Chemscore.ZeroCoef>
-5.4800

> <Gold.Chemscore.Hbond>
1.7335

> <Gold.Chemscore.Metal>
0.0000

> <Gold.Chemscore.Lipo>
69.0266

> <Gold.Chemscore.Internal_Hbond>
0.0000

> <Gold.Chemscore.DEClash>
2.6482

> <Gold.Chemscore.DEInternal>
0.2579

> <Gold.Chemscore.Rot>
1.0000

> <Gold.Chemscore.Internal.Correction>
   9.000000E+99

> <Gold.Chemscore.Hbonds>
donor molecule, donor type, donor heavy atom, donor atom, acceptor molecule, acceptor atom, score
      L1  H     2    40       P1 10175  0.93
      P1  H  7989  7998       L1    12  0.70

> <Gold.Chemscore.Hbond.Weighted>
-5.7899

> <Gold.Chemscore.Metal.Weighted>
-0.0000

> <Gold.Chemscore.Lipo.Weighted>
-8.0761

> <Gold.Chemscore.Internal_Hbond.Weighted>
0.0000

> <Gold.Chemscore.DEClash.Weighted>
2.6482

> <Gold.Chemscore.DEInternal.Weighted>
0.2579

> <Gold.Chemscore.Rot.Weighted>
2.5600

> <Gold.Chemscore.Internal.Correction.Weighted>
   9.000000E+99

> <Gold.Protein.RotatedTorsions>
[ 6907 6896 6895 6894 ] final  -82.09 input  -60.11 | X-H torsion
[ 7974 7965 7964 7962 ] final   -4.03 input  175.53 | X-H torsion
[ 8008 7997 7996 7995 ] final  152.19 input   59.86 | X-H torsion
[ 10167 10162 10161 10158 ] final  110.98 input  -65.29 | X-H torsion
[ 10718 10713 10712 10709 ] final   90.65 input   66.30 | X-H torsion
[ 10763 10752 10751 10750 ] final   43.96 input  -60.55 | X-H torsion
[ 11005 11000 10999 10996 ] final  -79.80 input  -57.11 | X-H torsion

> <Gold.Protein.ActiveResidues>
 VAL166  LYS551  ARG553  GLY616  TRP617  ASP618  TYR619  PRO620  LYS621  CYS622 
 ASP623  PHE694  ASN695  SER759  ASP760  ASP761  ALA762  ILE779  LEU786  VAL792 
 PHE793  MET794  SER795  GLU796  ALA797  LYS798  CYS799  TRP800  GLU811  SER814 

> <Gold.Protein.RotatedAtoms>
  150.6902  134.3717  159.4994 H   0  0  0  0  0  0  0  0  0  0  0  0  # atno 6907 bound_to 6896
  152.1532  134.8969  160.0556 H   0  0  0  0  0  0  0  0  0  0  0  0  # atno 6908 bound_to 6896
  152.0058  133.3808  159.4237 H   0  0  0  0  0  0  0  0  0  0  0  0  # atno 6909 bound_to 6896
  146.2379  140.1810  142.8332 H   0  0  0  0  0  0  0  0  0  0  0  0  # atno 7974 bound_to 7965
  156.2640  140.2027  156.6294 H   0  0  0  0  0  0  0  0  0  0  0  0  # atno 8008 bound_to 7997
  154.6695  140.0552  157.0174 H   0  0  0  0  0  0  0  0  0  0  0  0  # atno 8009 bound_to 7997
  155.1158  140.3220  155.4513 H   0  0  0  0  0  0  0  0  0  0  0  0  # atno 8010 bound_to 7997
  139.6647  144.7128  151.1800 H   0  0  0  0  0  0  0  0  0  0  0  0  # atno 10167 bound_to 10162
  157.6959  131.0378  150.3610 H   0  0  0  0  0  0  0  0  0  0  0  0  # atno 10718 bound_to 10713
  152.9850  135.6085  154.3197 H   0  0  0  0  0  0  0  0  0  0  0  0  # atno 10763 bound_to 10752
  154.2907  135.2775  155.2657 H   0  0  0  0  0  0  0  0  0  0  0  0  # atno 10764 bound_to 10752
  154.4954  135.5881  153.6547 H   0  0  0  0  0  0  0  0  0  0  0  0  # atno 10765 bound_to 10752
  141.1667  133.7122  156.8177 H   0  0  0  0  0  0  0  0  0  0  0  0  # atno 11005 bound_to 11000
  144.9934  140.8567  143.5325 LP  0  0  0  0  0  0  0  0  0  0  0  0  # atno 17320 bound_to 7965
  145.1819  139.2347  143.5288 LP  0  0  0  0  0  0  0  0  0  0  0  0  # atno 17321 bound_to 7965
  140.7594  143.5939  150.8768 LP  0  0  0  0  0  0  0  0  0  0  0  0  # atno 17342 bound_to 10162
  139.9599  143.6175  152.3005 LP  0  0  0  0  0  0  0  0  0  0  0  0  # atno 17343 bound_to 10162
  156.4046  130.3922  149.6935 LP  0  0  0  0  0  0  0  0  0  0  0  0  # atno 17370 bound_to 10713
  156.4240  130.7783  151.2801 LP  0  0  0  0  0  0  0  0  0  0  0  0  # atno 17371 bound_to 10713
  140.2142  134.8805  157.3307 LP  0  0  0  0  0  0  0  0  0  0  0  0  # atno 17394 bound_to 11000
  140.2055  134.4202  155.7640 LP  0  0  0  0  0  0  0  0  0  0  0  0  # atno 17395 bound_to 11000

$$$$
