AV-unprocessed.smi:62|AV-procd|sdf|601|dock3
  -GOLD-   2262016493D 1   1.00000     0.00000
 Structure written by MMmdl.
 31 32  0  0  0  0  0  0  0  0  3 V2000
  151.8429  142.6742  159.2946 C   0  0  0  0  0  0  0  0  0  0  0  0
  151.4659  142.0117  158.0646 N   0  0  0  0  0  0  0  0  0  0  0  0
  150.3535  142.2172  157.2813 C   0  0  0  0  0  0  0  0  0  0  0  0
  150.4241  141.3629  156.2155 C   0  0  0  0  0  0  0  0  0  0  0  0
  149.4138  141.2486  155.0982 C   0  0  0  0  0  0  0  0  0  0  0  0
  148.2463  142.1293  155.3329 N   0  3  1  0  0  0  0  0  0  0  0  0
  147.3264  142.2996  154.1816 C   0  0  0  0  0  0  0  0  0  0  0  0
  145.8999  142.1842  154.7345 C   0  0  0  0  0  0  0  0  0  0  0  0
  146.0644  142.3821  156.2394 C   0  0  1  0  0  0  0  0  0  0  0  0
  145.0374  141.7508  156.9748 O   0  0  0  0  0  0  0  0  0  0  0  0
  147.4341  141.7656  156.5105 C   0  0  0  0  0  0  0  0  0  0  0  0
  151.6522  140.6548  156.4480 C   0  0  0  0  0  0  0  0  0  0  0  0
  152.1510  139.5767  155.5220 C   0  0  0  0  0  0  0  0  0  0  0  0
  151.5008  139.2848  154.4941 O   0  0  0  0  0  0  0  0  0  0  0  0
  153.2135  138.9913  155.8245 O   0  5  0  0  0  0  0  0  0  0  0  0
  152.2627  141.0541  157.5555 N   0  0  0  0  0  0  0  0  0  0  0  0
  151.0867  143.4094  159.5710 H   0  0  0  0  0  0  0  0  0  0  0  0
  152.7991  143.1814  159.1621 H   0  0  0  0  0  0  0  0  0  0  0  0
  151.9344  141.9405  160.0961 H   0  0  0  0  0  0  0  0  0  0  0  0
  149.6063  142.9520  157.5426 H   0  0  0  0  0  0  0  0  0  0  0  0
  149.8608  141.5052  154.1366 H   0  0  0  0  0  0  0  0  0  0  0  0
  149.0669  140.2197  154.9961 H   0  0  0  0  0  0  0  0  0  0  0  0
  147.4998  143.2828  153.7430 H   0  0  0  0  0  0  0  0  0  0  0  0
  147.4953  141.5547  153.4027 H   0  0  0  0  0  0  0  0  0  0  0  0
  145.2123  142.9017  154.2859 H   0  0  0  0  0  0  0  0  0  0  0  0
  145.5167  141.1834  154.5276 H   0  0  0  0  0  0  0  0  0  0  0  0
  146.0841  143.4471  156.4751 H   0  0  0  0  0  0  0  0  0  0  0  0
  144.2033  142.0680  156.6630 H   0  0  0  0  0  0  0  0  0  0  0  0
  147.3508  140.6787  156.5723 H   0  0  0  0  0  0  0  0  0  0  0  0
  147.8838  142.1248  157.4367 H   0  0  0  0  0  0  0  0  0  0  0  0
  148.6193  143.0476  155.5328 H   0  0  0  0  0  0  0  0  0  0  0  0
  1  2  1  0  0  0  0
  1 17  1  0  0  0  0
  1 18  1  0  0  0  0
  1 19  1  0  0  0  0
  2 16  1  0  0  0  0
  2  3  1  0  0  0  0
  3  4  2  0  0  0  0
  3 20  1  0  0  0  0
  4  5  1  0  0  0  0
  4 12  1  0  0  0  0
  5  6  1  0  0  0  0
  5 21  1  0  0  0  0
  5 22  1  0  0  0  0
  6 11  1  0  0  0  0
  6  7  1  0  0  0  0
  6 31  1  0  0  0  0
  7  8  1  0  0  0  0
  7 23  1  0  0  0  0
  7 24  1  0  0  0  0
  8  9  1  0  0  0  0
  8 25  1  0  0  0  0
  8 26  1  0  0  0  0
  9 10  1  0  0  0  0
  9 11  1  0  0  0  0
  9 27  1  0  0  0  0
 10 28  1  0  0  0  0
 11 29  1  0  0  0  0
 11 30  1  0  0  0  0
 12 13  1  0  0  0  0
 12 16  2  0  0  0  0
 13 14  2  0  0  0  0
 13 15  1  0  0  0  0
M  CHG  1   6   1
M  CHG  1  15  -1
M  END
> <s_m_source_file>
AV-unprocessed.smi

> <i_m_source_file_index>
62

> <i_lp_mmshare_version>
43012

> <i_f3d_flags>
0

> <s_epik_input>
W0NIM11uMVtjSF1jKGMobjEpQyg9TylbT0hdKVtDSDJdTjJbQ0gyXVtDSDJdW0NAQEhdKFtPSF0pW0NIMl0y

> <s_epik_cmdline>
J2VwaWtfcHl0aG9uJywgJy1waCcsICc3LjAnLCAnLXRuJywgJzgnLCAnLW1hJywgJzIwMCcsICctbWV0YWxfYmluZGluZycsICctaW1hZScsICc8aW5maWxlLm1hZT4nLCAnLW9tYWUnLCAnPG91dGZpbGUubWFlPic=

> <r_epik_Ionization_Penalty>
0.0522993

> <r_epik_Ionization_Penalty_Charging>
0.0522915

> <r_epik_Ionization_Penalty_Neutral>
7.84975e-06

> <r_epik_State_Penalty>
0.0448084

> <r_epik_Charging_Adjusted_Penalty>
0.0970998

> <i_epik_Tot_Q>
0

> <i_epik_Tot_abs_Q>
2

> <r_epik_Metal_State_Penalty>
0.0448097

> <b_epik_Metal_Only>
0

> <s_lp_Force_Field>
OPLS_2005

> <r_lp_Energy>
17.2463

> <b_lp_Chiralities_Consistent>
1

> <s_lp_Variant>
AV-unprocessed.smi:62-1

> <Gold.Version>
5.8.1

> <Gold.Id.Protein>
6NUR|6NUR_protein|mol2

> <Gold.PLP.Fitness>
46.2015

> <Gold.PLP.PLP>
-28.6476

> <Gold.PLP.part.hbond>
-3.0525

> <Gold.PLP.part.metal>
0.0000

> <Gold.PLP.part.buried>
-1.7859

> <Gold.PLP.part.nonpolar>
-22.8923

> <Gold.PLP.part.repulsive>
0.2520

> <Gold.PLP.ligand.clash>
0.0000

> <Gold.PLP.ligand.torsion>
0.0570

> <Gold.PLP.Chemscore.Hbond>
5.0000

> <Gold.PLP.Chemscore.CHOScore>
0.8855

> <Gold.PLP.Chemscore.Metal>
0.0000

> <Gold.Chemscore.Hbonds>
donor molecule, donor type, donor heavy atom, donor atom, acceptor molecule, acceptor atom, score
      L1  H     6    31       P1  8028  2.00
      P1  H  7989  7998       L1    14  1.00
      P1  H  7997  8009       L1    15  2.00
      L1  C     3    20       P1  8028  0.49

> <Gold.PLP.Chemscore.Internal.Correction>
0.0116

> <Gold.Rescore>
     Score         DG    S(hbond)    S(metal)    S(lipo)     H(rot)  DE(clash)    DE(int)     intcor
     14.76     -16.27       2.75        0.00      53.42       1.81       0.18       1.33       ----

> <Gold.Chemscore.Fitness>
14.7634

> <Gold.Chemscore.DG>
-16.2732

> <Gold.Chemscore.ZeroCoef>
-5.4800

> <Gold.Chemscore.Hbond>
2.7469

> <Gold.Chemscore.Metal>
0.0000

> <Gold.Chemscore.Lipo>
53.4184

> <Gold.Chemscore.Internal_Hbond>
0.0000

> <Gold.Chemscore.DEClash>
0.1822

> <Gold.Chemscore.DEInternal>
1.3276

> <Gold.Chemscore.Rot>
1.8091

> <Gold.Chemscore.Internal.Correction>
   9.000000E+99

> <Gold.Chemscore.Hbonds>
donor molecule, donor type, donor heavy atom, donor atom, acceptor molecule, acceptor atom, score
      L1  H     6    31       P1  8028  1.00
      P1  H  7989  7998       L1    14  0.34
      P1  H  7997  8009       L1    15  0.63

> <Gold.Chemscore.Hbond.Weighted>
-9.1746

> <Gold.Chemscore.Metal.Weighted>
-0.0000

> <Gold.Chemscore.Lipo.Weighted>
-6.2500

> <Gold.Chemscore.Internal_Hbond.Weighted>
0.0000

> <Gold.Chemscore.DEClash.Weighted>
0.1822

> <Gold.Chemscore.DEInternal.Weighted>
1.3276

> <Gold.Chemscore.Rot.Weighted>
4.6314

> <Gold.Chemscore.Internal.Correction.Weighted>
   9.000000E+99

> <Gold.Protein.RotatedTorsions>
[ 6907 6896 6895 6894 ] final   18.09 input  -60.11 | X-H torsion
[ 7974 7965 7964 7962 ] final   68.56 input  175.53 | X-H torsion
[ 8008 7997 7996 7995 ] final -144.46 input   59.86 | X-H torsion
[ 10167 10162 10161 10158 ] final -107.19 input  -65.29 | X-H torsion
[ 10718 10713 10712 10709 ] final  111.48 input   66.30 | X-H torsion
[ 10763 10752 10751 10750 ] final  178.91 input  -60.55 | X-H torsion
[ 11005 11000 10999 10996 ] final -172.77 input  -57.11 | X-H torsion

> <Gold.Protein.ActiveResidues>
 VAL166  LYS551  ARG553  GLY616  TRP617  ASP618  TYR619  PRO620  LYS621  CYS622 
 ASP623  PHE694  ASN695  SER759  ASP760  ASP761  ALA762  ILE779  LEU786  VAL792 
 PHE793  MET794  SER795  GLU796  ALA797  LYS798  CYS799  TRP800  GLU811  SER814 

> <Gold.Protein.RotatedAtoms>
  151.8598  135.0528  160.0467 H   0  0  0  0  0  0  0  0  0  0  0  0  # atno 6907 bound_to 6896
  152.2672  133.5345  159.5425 H   0  0  0  0  0  0  0  0  0  0  0  0  # atno 6908 bound_to 6896
  150.7138  134.0665  159.3891 H   0  0  0  0  0  0  0  0  0  0  0  0  # atno 6909 bound_to 6896
  145.8011  139.2983  143.1154 H   0  0  0  0  0  0  0  0  0  0  0  0  # atno 7974 bound_to 7965
  155.5272  140.0596  157.2896 H   0  0  0  0  0  0  0  0  0  0  0  0  # atno 8008 bound_to 7997
  154.4497  140.1942  156.0503 H   0  0  0  0  0  0  0  0  0  0  0  0  # atno 8009 bound_to 7997
  156.0677  140.3264  155.7542 H   0  0  0  0  0  0  0  0  0  0  0  0  # atno 8010 bound_to 7997
  140.1796  143.3977  152.1291 H   0  0  0  0  0  0  0  0  0  0  0  0  # atno 10167 bound_to 10162
  157.6442  131.0951  150.6754 H   0  0  0  0  0  0  0  0  0  0  0  0  # atno 10718 bound_to 10713
  154.5138  135.2790  155.1320 H   0  0  0  0  0  0  0  0  0  0  0  0  # atno 10763 bound_to 10752
  154.2905  135.6268  153.5387 H   0  0  0  0  0  0  0  0  0  0  0  0  # atno 10764 bound_to 10752
  152.9923  135.5673  154.5610 H   0  0  0  0  0  0  0  0  0  0  0  0  # atno 10765 bound_to 10752
  140.4932  134.5964  157.4962 H   0  0  0  0  0  0  0  0  0  0  0  0  # atno 11005 bound_to 11000
  145.9877  140.8629  143.0082 LP  0  0  0  0  0  0  0  0  0  0  0  0  # atno 17320 bound_to 7965
  144.6768  140.2170  143.7370 LP  0  0  0  0  0  0  0  0  0  0  0  0  # atno 17321 bound_to 7965
  139.5302  144.7150  151.5084 LP  0  0  0  0  0  0  0  0  0  0  0  0  # atno 17342 bound_to 10162
  140.6528  143.8661  150.6803 LP  0  0  0  0  0  0  0  0  0  0  0  0  # atno 17343 bound_to 10162
  156.7074  130.4641  149.5556 LP  0  0  0  0  0  0  0  0  0  0  0  0  # atno 17370 bound_to 10713
  156.1754  130.6464  151.0887 LP  0  0  0  0  0  0  0  0  0  0  0  0  # atno 17371 bound_to 10713
  139.9757  134.7220  155.9955 LP  0  0  0  0  0  0  0  0  0  0  0  0  # atno 17394 bound_to 11000
  141.1473  133.6554  156.3907 LP  0  0  0  0  0  0  0  0  0  0  0  0  # atno 17395 bound_to 11000

$$$$
