#       Name:                AV-unprocessed.smi:1033
#       Creating user name   scv26
#       Creation time:       Fri Mar 27 02:49:49 2020


#       File generated by GOLD software.
#

@<TRIPOS>MOLECULE
AV-unprocessed.smi:1033
    62    64     1
SMALL
NO_CHARGES


@<TRIPOS>ATOM
      1 ****        -5.5662   1.9540   1.8680 C.3            1 S1                 0.0000
      2 ****        -4.2960   2.2376   1.0840 C.ar           1 S1                 0.0000
      3 ****        -3.2884   3.0196   1.6929 C.ar           1 S1                 0.0000
      4 ****        -2.1379   3.2606   0.9514 C.ar           1 S1                 0.0000
      5 ****        -0.9845   3.9851   1.2598 N.pl3          1 S1                 1.0000
      6 ****        -0.1241   3.9410   0.2051 C.2            1 S1                 0.0000
      7 ****        -0.7066   3.1878  -0.7679 N.pl3          1 S1                 0.0000
      8 ****        -0.2183   2.8253  -2.1047 C.3            1 S1                 0.0000
      9 ****         0.2972   1.3738  -2.1939 C.3            1 S1                 0.0000
     10 ****         0.7197   1.1632  -3.5259 O.3            1 S1                 0.0000
     11 ****         1.4743   1.0845  -1.2357 C.3            1 S1                 0.0000
     12 ****         1.8958  -0.3398  -1.2445 N.4            1 S1                 1.0000
     13 ****         0.9762  -1.2385  -0.4954 C.3            1 S1                 0.0000
     14 ****         1.4594  -2.7003  -0.5907 C.3            1 S1                 0.0000
     15 ****         2.8318  -2.8916  -0.1143 N.3            1 S1                 0.0000
     16 ****         3.0010  -2.7639   1.3380 C.3            1 S1                 0.0000
     17 ****         2.3088  -3.8501   2.1850 C.3            1 S1                 0.0000
     18 ****         2.8780  -5.2550   1.9405 C.3            1 S1                 0.0000
     19 ****         2.4980  -3.5307   3.5470 O.3            1 S1                 0.0000
     20 ****         3.7116  -1.9982  -0.8666 C.3            1 S1                 0.0000
     21 ****         3.2952  -0.5159  -0.7768 C.3            1 S1                 0.0000
     22 ****        -1.9689   2.7523  -0.3510 C.ar           1 S1                 0.0000
     23 ****        -2.9535   1.9846  -0.9681 C.ar           1 S1                 0.0000
     24 ****        -4.1314   1.7284  -0.2304 C.ar           1 S1                 0.0000
     25 ****        -5.2235   0.8931  -0.8767 C.3            1 S1                 0.0000
     26 ****        -5.5216   2.3836   2.8694 H              1 S1                 0.0000
     27 ****        -5.7200   0.8799   1.9740 H              1 S1                 0.0000
     28 ****        -6.4319   2.3803   1.3608 H              1 S1                 0.0000
     29 ****        -3.4096   3.4143   2.6913 H              1 S1                 0.0000
     30 ****         0.8458   4.4149   0.1527 H              1 S1                 0.0000
     31 ****        -1.0244   2.9991  -2.8192 H              1 S1                 0.0000
     32 ****         0.5780   3.5262  -2.3605 H              1 S1                 0.0000
     33 ****        -0.5332   0.6978  -1.9959 H              1 S1                 0.0000
     34 ****         0.8741   0.2407  -3.6599 H              1 S1                 0.0000
     35 ****         2.3149   1.7181  -1.5234 H              1 S1                 0.0000
     36 ****         1.2237   1.3636  -0.2118 H              1 S1                 0.0000
     37 ****         0.9055  -0.9204   0.5455 H              1 S1                 0.0000
     38 ****        -0.0303  -1.1758  -0.9071 H              1 S1                 0.0000
     39 ****         0.7725  -3.3556  -0.0569 H              1 S1                 0.0000
     40 ****         1.4034  -3.0167  -1.6333 H              1 S1                 0.0000
     41 ****         4.0665  -2.7898   1.5709 H              1 S1                 0.0000
     42 ****         2.6552  -1.7850   1.6690 H              1 S1                 0.0000
     43 ****         1.2342  -3.8527   2.0071 H              1 S1                 0.0000
     44 ****         2.7277  -5.5651   0.9062 H              1 S1                 0.0000
     45 ****         2.3896  -5.9934   2.5770 H              1 S1                 0.0000
     46 ****         3.9482  -5.2934   2.1462 H              1 S1                 0.0000
     47 ****         3.4217  -3.5755   3.7426 H              1 S1                 0.0000
     48 ****         4.7402  -2.1159  -0.5239 H              1 S1                 0.0000
     49 ****         3.7133  -2.3015  -1.9145 H              1 S1                 0.0000
     50 ****         3.9647   0.0811  -1.3974 H              1 S1                 0.0000
     51 ****         3.3972  -0.1425   0.2430 H              1 S1                 0.0000
     52 ****        -2.8297   1.6003  -1.9699 H              1 S1                 0.0000
     53 ****        -4.9596   0.6095  -1.8960 H              1 S1                 0.0000
     54 ****        -6.1588   1.4517  -0.9192 H              1 S1                 0.0000
     55 ****        -5.3911  -0.0226  -0.3091 H              1 S1                 0.0000
     56 ****         1.8859  -0.6410  -2.2084 H              1 S1                 0.0000
     57 ****        -0.7987   4.4793   2.1235 H              1 S1                 0.0000
     58 ****         1.5643   1.6717  -3.6935 LP             1 S1                 0.0000
     59 ****         0.0101   1.4787  -4.1560 LP             1 S1                 0.0000
     60 ****         3.0842  -3.8438  -0.2866 LP             1 S1                 0.0000
     61 ****         2.0008  -4.1838   4.1182 LP             1 S1                 0.0000
     62 ****         2.1603  -2.6066   3.7261 LP             1 S1                 0.0000
@<TRIPOS>BOND
    1    1    2 1     
    2    1   26 1     
    3    1   27 1     
    4    1   28 1     
    5    2   24 ar    
    6    2    3 ar    
    7    3    4 ar    
    8    3   29 1     
    9    4   22 ar    
   10    4    5 1     
   11    5    6 2     
   12    5   57 1     
   13    6    7 1     
   14    6   30 1     
   15    7    8 1     
   16    7   22 1     
   17    8    9 1     
   18    8   31 1     
   19    8   32 1     
   20    9   10 1     
   21    9   11 1     
   22    9   33 1     
   23   10   34 1     
   24   11   12 1     
   25   11   35 1     
   26   11   36 1     
   27   12   21 1     
   28   12   13 1     
   29   12   56 1     
   30   13   14 1     
   31   13   37 1     
   32   13   38 1     
   33   14   15 1     
   34   14   39 1     
   35   14   40 1     
   36   15   16 1     
   37   15   20 1     
   38   16   17 1     
   39   16   41 1     
   40   16   42 1     
   41   17   18 1     
   42   17   19 1     
   43   17   43 1     
   44   18   44 1     
   45   18   45 1     
   46   18   46 1     
   47   19   47 1     
   48   20   21 1     
   49   20   48 1     
   50   20   49 1     
   51   21   50 1     
   52   21   51 1     
   53   22   23 ar    
   54   23   24 ar    
   55   23   52 1     
   56   24   25 1     
   57   25   53 1     
   58   25   54 1     
   59   25   55 1     
   60   10   58 1     
   61   10   59 1     
   62   15   60 1     
   63   19   61 1     
   64   19   62 1     
@<TRIPOS>SUBSTRUCTURE
      1 S1             1
@<TRIPOS>SET
LONE_PAIRS      STATIC     ATOMS    <user>   **** ""
5 58 59 60 61 62
DONOR_HYDROGENS      STATIC     ATOMS    <user>   **** ""
4 57 34 56 47
ATOM$BLUE        STATIC     ATOMS    COLORGROUP SYSTEM
5 58 59 60 61 62
ATOM$RED        STATIC     ATOMS    COLORGROUP SYSTEM
4 57 34 56 47
