AV-unprocessed.smi:2855|AV-procd|sdf|10989|dock8
  -GOLD-   2272015443D 1   1.00000     0.00000
 Structure written by MMmdl.
 46 47  0  0  0  0  0  0  0  0  2 V2000
  152.7399  140.3116  158.5736 C   0  0  0  0  0  0  0  0  0  0  0  0
  151.9623  140.4334  157.2554 C   0  0  2  0  0  0  0  0  0  0  0  0
  150.9361  141.5771  157.3094 C   0  0  0  0  0  0  0  0  0  0  0  0
  150.1656  141.7021  155.9867 C   0  0  0  0  0  0  0  0  0  0  0  0
  149.4532  140.3832  155.6017 C   0  0  1  0  0  0  0  0  0  0  0  0
  148.5891  140.5087  154.3104 C   0  0  0  0  0  0  0  0  0  0  0  0
  148.0265  141.9210  154.0656 C   0  0  0  0  0  0  0  0  0  0  0  0
  147.4649  139.4601  154.2507 C   0  0  0  0  0  0  0  0  0  0  0  0
  150.4800  139.2155  155.5668 C   0  0  2  0  0  0  0  0  0  0  0  0
  149.8153  137.9353  155.3259 N   0  0  0  0  0  0  0  0  0  0  0  0
  150.4203  136.7524  155.1362 C   0  0  0  0  0  0  0  0  0  0  0  0
  151.6437  136.6079  155.1430 O   0  0  0  0  0  0  0  0  0  0  0  0
  149.4814  135.5656  154.8771 C   0  0  0  0  0  0  0  0  0  0  0  0
  149.8734  134.3370  155.5870 N   0  0  0  0  0  0  0  0  0  0  0  0
  150.0028  133.1612  154.8270 C   0  0  0  0  0  0  0  0  0  0  0  0
  150.3595  131.9892  155.3860 C   0  0  0  0  0  0  0  0  0  0  0  0
  150.6140  131.9585  156.8209 C   0  0  0  0  0  0  0  0  0  0  0  0
  150.9337  130.8956  157.3498 O   0  0  0  0  0  0  0  0  0  0  0  0
  150.4825  133.1275  157.5140 N   0  5  0  0  0  0  0  0  0  0  0  0
  150.1230  134.3134  156.9310 C   0  0  0  0  0  0  0  0  0  0  0  0
  150.0148  135.3578  157.5744 O   0  0  0  0  0  0  0  0  0  0  0  0
  151.2613  139.1131  156.8917 C   0  0  0  0  0  0  0  0  0  0  0  0
  152.0750  140.0810  159.4068 H   0  0  0  0  0  0  0  0  0  0  0  0
  153.2606  141.2399  158.8098 H   0  0  0  0  0  0  0  0  0  0  0  0
  153.4877  139.5202  158.5153 H   0  0  0  0  0  0  0  0  0  0  0  0
  152.6826  140.6615  156.4683 H   0  0  0  0  0  0  0  0  0  0  0  0
  150.2334  141.4082  158.1266 H   0  0  0  0  0  0  0  0  0  0  0  0
  151.4401  142.5197  157.5262 H   0  0  0  0  0  0  0  0  0  0  0  0
  149.4458  142.5144  156.0801 H   0  0  0  0  0  0  0  0  0  0  0  0
  150.8619  141.9959  155.2009 H   0  0  0  0  0  0  0  0  0  0  0  0
  148.7588  140.1558  156.4126 H   0  0  0  0  0  0  0  0  0  0  0  0
  149.2325  140.2804  153.4608 H   0  0  0  0  0  0  0  0  0  0  0  0
  147.3125  142.2118  154.8358 H   0  0  0  0  0  0  0  0  0  0  0  0
  147.5073  141.9691  153.1082 H   0  0  0  0  0  0  0  0  0  0  0  0
  148.8144  142.6727  154.0372 H   0  0  0  0  0  0  0  0  0  0  0  0
  146.6946  139.6447  154.9992 H   0  0  0  0  0  0  0  0  0  0  0  0
  147.8529  138.4535  154.4088 H   0  0  0  0  0  0  0  0  0  0  0  0
  146.9765  139.4704  153.2758 H   0  0  0  0  0  0  0  0  0  0  0  0
  151.2085  139.4161  154.7800 H   0  0  0  0  0  0  0  0  0  0  0  0
  148.8062  137.9506  155.3003 H   0  0  0  0  0  0  0  0  0  0  0  0
  148.4626  135.8526  155.1433 H   0  0  0  0  0  0  0  0  0  0  0  0
  149.4536  135.3809  153.8023 H   0  0  0  0  0  0  0  0  0  0  0  0
  149.8028  133.2726  153.7715 H   0  0  0  0  0  0  0  0  0  0  0  0
  150.4576  131.0956  154.7874 H   0  0  0  0  0  0  0  0  0  0  0  0
  152.0018  138.3150  156.8174 H   0  0  0  0  0  0  0  0  0  0  0  0
  150.5834  138.8278  157.6978 H   0  0  0  0  0  0  0  0  0  0  0  0
  1  2  1  0  0  0  0
  1 23  1  0  0  0  0
  1 24  1  0  0  0  0
  1 25  1  0  0  0  0
  2 22  1  0  0  0  0
  2  3  1  0  0  0  0
  2 26  1  0  0  0  0
  3  4  1  0  0  0  0
  3 27  1  0  0  0  0
  3 28  1  0  0  0  0
  4  5  1  0  0  0  0
  4 29  1  0  0  0  0
  4 30  1  0  0  0  0
  5  6  1  0  0  0  0
  5  9  1  0  0  0  0
  5 31  1  0  0  0  0
  6  7  1  0  0  0  0
  6  8  1  0  0  0  0
  6 32  1  0  0  0  0
  7 33  1  0  0  0  0
  7 34  1  0  0  0  0
  7 35  1  0  0  0  0
  8 36  1  0  0  0  0
  8 37  1  0  0  0  0
  8 38  1  0  0  0  0
  9 10  1  0  0  0  0
  9 22  1  0  0  0  0
  9 39  1  0  0  0  0
 10 11  1  0  0  0  0
 10 40  1  0  0  0  0
 11 12  2  0  0  0  0
 11 13  1  0  0  0  0
 13 14  1  0  0  0  0
 13 41  1  0  0  0  0
 13 42  1  0  0  0  0
 14 20  1  0  0  0  0
 14 15  1  0  0  0  0
 15 16  2  0  0  0  0
 15 43  1  0  0  0  0
 16 17  1  0  0  0  0
 16 44  1  0  0  0  0
 17 18  2  0  0  0  0
 17 19  1  0  0  0  0
 19 20  1  0  0  0  0
 20 21  2  0  0  0  0
 22 45  1  0  0  0  0
 22 46  1  0  0  0  0
M  CHG  1  19  -1
M  END
> <s_m_source_file>
AV-unprocessed.smi

> <i_m_source_file_index>
2855

> <i_lp_mmshare_version>
43012

> <i_f3d_flags>
0

> <s_epik_input>
W0NIM11bQ0BASF0xW0NIMl1bQ0gyXVtDQEBIXShbQ0hdKFtDSDNdKVtDSDNdKVtDQEhdKFtDSDJdMSlbTkhdQyg9TylbQ0gyXW4yW2NIXVtjSF1jKD1PKVtuSF1jMj1P

> <s_epik_cmdline>
J2VwaWtfcHl0aG9uJywgJy1waCcsICc3LjAnLCAnLXRuJywgJzgnLCAnLW1hJywgJzIwMCcsICctbWV0YWxfYmluZGluZycsICctaW1hZScsICc8aW5maWxlLm1hZT4nLCAnLW9tYWUnLCAnPG91dGZpbGUubWFlPic=

> <r_lp_tautomer_probability>
0.999537

> <r_epik_Ionization_Penalty>
3.12102

> <r_epik_Ionization_Penalty_Charging>
2.9581e-08

> <r_epik_Ionization_Penalty_Neutral>
3.12102

> <r_epik_State_Penalty>
3.12011

> <r_epik_Charging_Adjusted_Penalty>
3.12011

> <i_epik_Tot_Q>
-1

> <i_epik_Tot_abs_Q>
1

> <r_epik_Metal_State_Penalty>
0.463583

> <b_epik_Metal_Only>
1

> <s_lp_Force_Field>
OPLS_2005

> <r_lp_Energy>
24.0282

> <b_lp_Chiralities_Consistent>
1

> <s_lp_Variant>
AV-unprocessed.smi:2855-13

> <Gold.Version>
5.8.1

> <Gold.Id.Protein>
6NUR|6NUR_protein|mol2

> <Gold.PLP.Fitness>
39.0504

> <Gold.PLP.PLP>
-31.6801

> <Gold.PLP.part.hbond>
-2.8624

> <Gold.PLP.part.metal>
0.0000

> <Gold.PLP.part.buried>
-2.3066

> <Gold.PLP.part.nonpolar>
-26.2959

> <Gold.PLP.part.repulsive>
0.1176

> <Gold.PLP.ligand.clash>
0.0000

> <Gold.PLP.ligand.torsion>
0.8451

> <Gold.PLP.Chemscore.Hbond>
3.0000

> <Gold.PLP.Chemscore.CHOScore>
0.0000

> <Gold.PLP.Chemscore.Metal>
0.0000

> <Gold.Chemscore.Hbonds>
donor molecule, donor type, donor heavy atom, donor atom, acceptor molecule, acceptor atom, score
      P1  H  6896  6907       L1    19  2.00
      P1  H 10752 10763       L1    12  1.00

> <Gold.PLP.Chemscore.Internal.Correction>
0.0605

> <Gold.Rescore>
     Score         DG    S(hbond)    S(metal)    S(lipo)     H(rot)  DE(clash)    DE(int)     intcor
     11.96     -15.81       1.80        0.00      76.52       1.81       0.21       3.64       ----

> <Gold.Chemscore.Fitness>
11.9615

> <Gold.Chemscore.DG>
-15.8067

> <Gold.Chemscore.ZeroCoef>
-5.4800

> <Gold.Chemscore.Hbond>
1.7985

> <Gold.Chemscore.Metal>
0.0000

> <Gold.Chemscore.Lipo>
76.5232

> <Gold.Chemscore.Internal_Hbond>
0.0000

> <Gold.Chemscore.DEClash>
0.2066

> <Gold.Chemscore.DEInternal>
3.6385

> <Gold.Chemscore.Rot>
1.8100

> <Gold.Chemscore.Internal.Correction>
   9.000000E+99

> <Gold.Chemscore.Hbonds>
donor molecule, donor type, donor heavy atom, donor atom, acceptor molecule, acceptor atom, score
      P1  H  6896  6907       L1    19  0.59
      P1  H 10752 10763       L1    12  1.00

> <Gold.Chemscore.Hbond.Weighted>
-6.0069

> <Gold.Chemscore.Metal.Weighted>
-0.0000

> <Gold.Chemscore.Lipo.Weighted>
-8.9532

> <Gold.Chemscore.Internal_Hbond.Weighted>
0.0000

> <Gold.Chemscore.DEClash.Weighted>
0.2066

> <Gold.Chemscore.DEInternal.Weighted>
3.6385

> <Gold.Chemscore.Rot.Weighted>
4.6335

> <Gold.Chemscore.Internal.Correction.Weighted>
   9.000000E+99

> <Gold.Protein.RotatedTorsions>
[ 6907 6896 6895 6894 ] final -142.46 input  -60.11 | X-H torsion
[ 7974 7965 7964 7962 ] final  -55.62 input  175.53 | X-H torsion
[ 8008 7997 7996 7995 ] final -101.88 input   59.86 | X-H torsion
[ 10167 10162 10161 10158 ] final  105.93 input  -65.29 | X-H torsion
[ 10718 10713 10712 10709 ] final   99.05 input   66.30 | X-H torsion
[ 10763 10752 10751 10750 ] final   54.85 input  -60.55 | X-H torsion
[ 11005 11000 10999 10996 ] final  -37.63 input  -57.11 | X-H torsion

> <Gold.Protein.ActiveResidues>
 VAL166  LYS551  ARG553  GLY616  TRP617  ASP618  TYR619  PRO620  LYS621  CYS622 
 ASP623  PHE694  ASN695  SER759  ASP760  ASP761  ALA762  ILE779  LEU786  VAL792 
 PHE793  MET794  SER795  GLU796  ALA797  LYS798  CYS799  TRP800  GLU811  SER814 

> <Gold.Protein.RotatedAtoms>
  151.0873  133.5343  159.2616 H   0  0  0  0  0  0  0  0  0  0  0  0  # atno 6907 bound_to 6896
  151.2223  135.0522  159.8964 H   0  0  0  0  0  0  0  0  0  0  0  0  # atno 6908 bound_to 6896
  152.5430  134.0674  159.8232 H   0  0  0  0  0  0  0  0  0  0  0  0  # atno 6909 bound_to 6896
  145.8720  140.8209  142.9883 H   0  0  0  0  0  0  0  0  0  0  0  0  # atno 7974 bound_to 7965
  154.8488  140.0431  157.1590 H   0  0  0  0  0  0  0  0  0  0  0  0  # atno 8008 bound_to 7997
  154.8965  140.2994  155.5321 H   0  0  0  0  0  0  0  0  0  0  0  0  # atno 8009 bound_to 7997
  156.2995  140.2384  156.3987 H   0  0  0  0  0  0  0  0  0  0  0  0  # atno 8010 bound_to 7997
  139.7051  144.7087  151.1120 H   0  0  0  0  0  0  0  0  0  0  0  0  # atno 10167 bound_to 10162
  157.6884  131.0658  150.4889 H   0  0  0  0  0  0  0  0  0  0  0  0  # atno 10718 bound_to 10713
  152.9809  135.5731  154.4971 H   0  0  0  0  0  0  0  0  0  0  0  0  # atno 10763 bound_to 10752
  154.4496  135.2778  155.1792 H   0  0  0  0  0  0  0  0  0  0  0  0  # atno 10764 bound_to 10752
  154.3425  135.6226  153.5657 H   0  0  0  0  0  0  0  0  0  0  0  0  # atno 10765 bound_to 10752
  140.9967  133.6976  156.1947 H   0  0  0  0  0  0  0  0  0  0  0  0  # atno 11005 bound_to 11000
  144.6726  140.1254  143.7447 LP  0  0  0  0  0  0  0  0  0  0  0  0  # atno 17320 bound_to 7965
  145.9125  139.2496  143.1429 LP  0  0  0  0  0  0  0  0  0  0  0  0  # atno 17321 bound_to 7965
  140.7719  143.5370  150.9357 LP  0  0  0  0  0  0  0  0  0  0  0  0  # atno 17342 bound_to 10162
  139.9053  143.6786  152.3124 LP  0  0  0  0  0  0  0  0  0  0  0  0  # atno 17343 bound_to 10162
  156.5217  130.4163  149.6247 LP  0  0  0  0  0  0  0  0  0  0  0  0  # atno 17370 bound_to 10713
  156.3148  130.7249  151.2149 LP  0  0  0  0  0  0  0  0  0  0  0  0  # atno 17371 bound_to 10713
  140.6955  134.4620  157.5588 LP  0  0  0  0  0  0  0  0  0  0  0  0  # atno 17394 bound_to 11000
  139.9018  134.8538  156.1865 LP  0  0  0  0  0  0  0  0  0  0  0  0  # atno 17395 bound_to 11000

$$$$
