AV-unprocessed.smi:1746|AV-procd|sdf|7034|dock1
  -GOLD-   22720 8253D 1   1.00000     0.00000
 Structure written by MMmdl.
 35 36  0  0  0  0  0  0  0  0  1 V2000
  145.5353  130.7986  151.3952 C   0  0  0  0  0  0  0  0  0  0  0  0
  144.5363  131.6545  150.6072 C   0  0  0  0  0  0  0  0  0  0  0  0
  144.8072  133.0709  150.7569 N   0  0  0  0  0  0  0  0  0  0  0  0
  145.8173  133.6740  151.4795 C   0  0  0  0  0  0  0  0  0  0  0  0
  145.6467  135.0179  151.3021 C   0  0  0  0  0  0  0  0  0  0  0  0
  146.4064  136.0969  151.8208 N   0  0  0  0  0  0  0  0  0  0  0  0
  145.9428  137.1985  152.4335 C   0  0  0  0  0  0  0  0  0  0  0  0
  144.7552  137.4427  152.6481 O   0  0  0  0  0  0  0  0  0  0  0  0
  146.9427  138.0165  152.7898 N   0  0  0  0  0  0  0  0  0  0  0  0
  146.7722  139.2993  153.4627 C   0  0  0  0  0  0  0  0  0  0  0  0
  148.1062  140.0532  153.5928 C   0  0  1  0  0  0  0  0  0  0  0  0
  148.0264  141.2957  154.4759 C   0  0  0  0  0  0  0  0  0  0  0  0
  149.4723  141.4684  154.8815 C   0  0  0  0  0  0  0  0  0  0  0  0
  149.9260  140.0219  155.0631 C   0  0  0  0  0  0  0  0  0  0  0  0
  149.0897  139.2333  154.2187 O   0  0  0  0  0  0  0  0  0  0  0  0
  144.5123  135.1564  150.4609 C   0  0  0  0  0  0  0  0  0  0  0  0
  144.0101  133.9749  150.1352 N   0  0  0  0  0  0  0  0  0  0  0  0
  145.3088  129.7382  151.2852 H   0  0  0  0  0  0  0  0  0  0  0  0
  145.5043  131.0372  152.4588 H   0  0  0  0  0  0  0  0  0  0  0  0
  146.5556  130.9586  151.0451 H   0  0  0  0  0  0  0  0  0  0  0  0
  144.5688  131.3998  149.5470 H   0  0  0  0  0  0  0  0  0  0  0  0
  143.5202  131.4559  150.9499 H   0  0  0  0  0  0  0  0  0  0  0  0
  146.5443  133.1014  152.0364 H   0  0  0  0  0  0  0  0  0  0  0  0
  147.4073  136.0231  151.7121 H   0  0  0  0  0  0  0  0  0  0  0  0
  147.8885  137.7399  152.5710 H   0  0  0  0  0  0  0  0  0  0  0  0
  146.0466  139.9063  152.9187 H   0  0  0  0  0  0  0  0  0  0  0  0
  146.3457  139.1179  154.4495 H   0  0  0  0  0  0  0  0  0  0  0  0
  148.4829  140.3441  152.6106 H   0  0  0  0  0  0  0  0  0  0  0  0
  147.6220  142.1632  153.9534 H   0  0  0  0  0  0  0  0  0  0  0  0
  147.4111  141.1062  155.3565 H   0  0  0  0  0  0  0  0  0  0  0  0
  150.0322  141.9392  154.0721 H   0  0  0  0  0  0  0  0  0  0  0  0
  149.5987  142.0721  155.7806 H   0  0  0  0  0  0  0  0  0  0  0  0
  150.9793  139.8869  154.8161 H   0  0  0  0  0  0  0  0  0  0  0  0
  149.7764  139.7001  156.0942 H   0  0  0  0  0  0  0  0  0  0  0  0
  144.0463  136.0545  150.0830 H   0  0  0  0  0  0  0  0  0  0  0  0
  1  2  1  0  0  0  0
  1 18  1  0  0  0  0
  1 19  1  0  0  0  0
  1 20  1  0  0  0  0
  2  3  1  0  0  0  0
  2 21  1  0  0  0  0
  2 22  1  0  0  0  0
  3 17  1  0  0  0  0
  3  4  1  0  0  0  0
  4  5  2  0  0  0  0
  4 23  1  0  0  0  0
  5  6  1  0  0  0  0
  5 16  1  0  0  0  0
  6  7  1  0  0  0  0
  6 24  1  0  0  0  0
  7  8  2  0  0  0  0
  7  9  1  0  0  0  0
  9 10  1  0  0  0  0
  9 25  1  0  0  0  0
 10 11  1  0  0  0  0
 10 26  1  0  0  0  0
 10 27  1  0  0  0  0
 11 15  1  0  0  0  0
 11 12  1  0  0  0  0
 11 28  1  0  0  0  0
 12 13  1  0  0  0  0
 12 29  1  0  0  0  0
 12 30  1  0  0  0  0
 13 14  1  0  0  0  0
 13 31  1  0  0  0  0
 13 32  1  0  0  0  0
 14 15  1  0  0  0  0
 14 33  1  0  0  0  0
 14 34  1  0  0  0  0
 16 17  2  0  0  0  0
 16 35  1  0  0  0  0
M  END
> <s_m_source_file>
AV-unprocessed.smi

> <i_m_source_file_index>
1746

> <i_lp_mmshare_version>
43012

> <i_f3d_flags>
0

> <s_epik_input>
W0NIM11bQ0gyXW4xW2NIXWMoW2NIXW4xKVtOSF1DKD1PKVtOSF1bQ0gyXVtDQEBIXTJbQ0gyXVtDSDJdW0NIMl1PMg==

> <s_epik_cmdline>
J2VwaWtfcHl0aG9uJywgJy1waCcsICc3LjAnLCAnLXRuJywgJzgnLCAnLW1hJywgJzIwMCcsICctbWV0YWxfYmluZGluZycsICctaW1hZScsICc8aW5maWxlLm1hZT4nLCAnLW9tYWUnLCAnPG91dGZpbGUubWFlPic=

> <r_lp_tautomer_probability>
1

> <r_epik_Ionization_Penalty>
0.000176839

> <r_epik_Ionization_Penalty_Charging>
0

> <r_epik_Ionization_Penalty_Neutral>
0.000176839

> <r_epik_State_Penalty>
-0

> <r_epik_Charging_Adjusted_Penalty>
0

> <i_epik_Tot_Q>
0

> <i_epik_Tot_abs_Q>
0

> <r_epik_Metal_State_Penalty>
-0

> <b_epik_Metal_Only>
0

> <s_lp_Force_Field>
OPLS_2005

> <r_lp_Energy>
20.4125

> <b_lp_Chiralities_Consistent>
1

> <s_lp_Variant>
AV-unprocessed.smi:1746-2

> <Gold.Version>
5.8.1

> <Gold.Id.Protein>
6NUR|6NUR_protein|mol2

> <Gold.PLP.Fitness>
38.0909

> <Gold.PLP.PLP>
-30.3673

> <Gold.PLP.part.hbond>
-2.0000

> <Gold.PLP.part.metal>
0.0000

> <Gold.PLP.part.buried>
-2.9141

> <Gold.PLP.part.nonpolar>
-27.2236

> <Gold.PLP.part.repulsive>
1.2289

> <Gold.PLP.ligand.clash>
0.0000

> <Gold.PLP.ligand.torsion>
0.4719

> <Gold.PLP.Chemscore.Hbond>
1.8800

> <Gold.PLP.Chemscore.CHOScore>
1.0000

> <Gold.PLP.Chemscore.Metal>
0.0000

> <Gold.Chemscore.Hbonds>
donor molecule, donor type, donor heavy atom, donor atom, acceptor molecule, acceptor atom, score
      L1  H     6    24       P1  7948  1.00
      L1  H     9    25       P1  7948  0.86
      L1  C    16    35       P1 10171  1.00

> <Gold.PLP.Chemscore.Internal.Correction>
0.0275

> <Gold.Rescore>
     Score         DG    S(hbond)    S(metal)    S(lipo)     H(rot)  DE(clash)    DE(int)     intcor
     14.89     -15.79       1.74        0.00      69.20       1.41       0.31       0.59       ----

> <Gold.Chemscore.Fitness>
14.8917

> <Gold.Chemscore.DG>
-15.7867

> <Gold.Chemscore.ZeroCoef>
-5.4800

> <Gold.Chemscore.Hbond>
1.7397

> <Gold.Chemscore.Metal>
0.0000

> <Gold.Chemscore.Lipo>
69.2008

> <Gold.Chemscore.Internal_Hbond>
0.0000

> <Gold.Chemscore.DEClash>
0.3096

> <Gold.Chemscore.DEInternal>
0.5854

> <Gold.Chemscore.Rot>
1.4064

> <Gold.Chemscore.Internal.Correction>
   9.000000E+99

> <Gold.Chemscore.Hbonds>
donor molecule, donor type, donor heavy atom, donor atom, acceptor molecule, acceptor atom, score
      L1  H     6    24       P1  7948  0.93
      L1  H     9    25       P1  7948  0.84

> <Gold.Chemscore.Hbond.Weighted>
-5.8106

> <Gold.Chemscore.Metal.Weighted>
-0.0000

> <Gold.Chemscore.Lipo.Weighted>
-8.0965

> <Gold.Chemscore.Internal_Hbond.Weighted>
0.0000

> <Gold.Chemscore.DEClash.Weighted>
0.3096

> <Gold.Chemscore.DEInternal.Weighted>
0.5854

> <Gold.Chemscore.Rot.Weighted>
3.6004

> <Gold.Chemscore.Internal.Correction.Weighted>
   9.000000E+99

> <Gold.Protein.RotatedTorsions>
[ 6907 6896 6895 6894 ] final  -37.59 input  -60.11 | X-H torsion
[ 7974 7965 7964 7962 ] final  178.57 input  175.53 | X-H torsion
[ 8008 7997 7996 7995 ] final  -96.04 input   59.86 | X-H torsion
[ 10167 10162 10161 10158 ] final  124.53 input  -65.29 | X-H torsion
[ 10718 10713 10712 10709 ] final  127.56 input   66.30 | X-H torsion
[ 10763 10752 10751 10750 ] final  -80.14 input  -60.55 | X-H torsion
[ 11005 11000 10999 10996 ] final  -10.14 input  -57.11 | X-H torsion

> <Gold.Protein.ActiveResidues>
 VAL166  LYS551  ARG553  GLY616  TRP617  ASP618  TYR619  PRO620  LYS621  CYS622 
 ASP623  PHE694  ASN695  SER759  ASP760  ASP761  ALA762  ILE779  LEU786  VAL792 
 PHE793  MET794  SER795  GLU796  ALA797  LYS798  CYS799  TRP800  GLU811  SER814 

> <Gold.Protein.RotatedAtoms>
  151.0129  134.9410  159.8016 H   0  0  0  0  0  0  0  0  0  0  0  0  # atno 6907 bound_to 6896
  152.5307  134.3005  159.9086 H   0  0  0  0  0  0  0  0  0  0  0  0  # atno 6908 bound_to 6896
  151.3011  133.4080  159.2674 H   0  0  0  0  0  0  0  0  0  0  0  0  # atno 6909 bound_to 6896
  144.7155  140.0418  143.6437 H   0  0  0  0  0  0  0  0  0  0  0  0  # atno 7974 bound_to 7965
  154.7692  140.0475  157.1037 H   0  0  0  0  0  0  0  0  0  0  0  0  # atno 8008 bound_to 7997
  154.9841  140.3105  155.4914 H   0  0  0  0  0  0  0  0  0  0  0  0  # atno 8009 bound_to 7997
  156.2918  140.2230  156.4942 H   0  0  0  0  0  0  0  0  0  0  0  0  # atno 8010 bound_to 7997
  139.5737  144.6952  151.3711 H   0  0  0  0  0  0  0  0  0  0  0  0  # atno 10167 bound_to 10162
  157.5322  131.1098  150.8992 H   0  0  0  0  0  0  0  0  0  0  0  0  # atno 10718 bound_to 10713
  154.5474  135.5671  153.6892 H   0  0  0  0  0  0  0  0  0  0  0  0  # atno 10763 bound_to 10752
  152.9980  135.6242  154.2420 H   0  0  0  0  0  0  0  0  0  0  0  0  # atno 10764 bound_to 10752
  154.2353  135.2864  155.2854 H   0  0  0  0  0  0  0  0  0  0  0  0  # atno 10765 bound_to 10752
  140.7416  133.8666  155.8972 H   0  0  0  0  0  0  0  0  0  0  0  0  # atno 11005 bound_to 11000
  146.0017  139.3097  143.0923 LP  0  0  0  0  0  0  0  0  0  0  0  0  # atno 17320 bound_to 7965
  145.8785  140.9377  143.0613 LP  0  0  0  0  0  0  0  0  0  0  0  0  # atno 17321 bound_to 7965
  140.7020  143.7607  150.7419 LP  0  0  0  0  0  0  0  0  0  0  0  0  # atno 17342 bound_to 10162
  140.1121  143.4690  152.2364 LP  0  0  0  0  0  0  0  0  0  0  0  0  # atno 17343 bound_to 10162
  156.9570  130.5441  149.5284 LP  0  0  0  0  0  0  0  0  0  0  0  0  # atno 17370 bound_to 10713
  156.0431  130.5511  150.8817 LP  0  0  0  0  0  0  0  0  0  0  0  0  # atno 17371 bound_to 10713
  140.9832  134.1378  157.4476 LP  0  0  0  0  0  0  0  0  0  0  0  0  # atno 17394 bound_to 11000
  139.8805  135.0017  156.6083 LP  0  0  0  0  0  0  0  0  0  0  0  0  # atno 17395 bound_to 11000

$$$$
