AV-unprocessed.smi:3285|AV-procd|sdf|12587|dock1
  -GOLD-   2272018513D 1   1.00000     0.00000
 Structure written by MMmdl.
 45 46  0  0  0  0  0  0  0  0  2 V2000
  152.9317  138.7325  154.7696 C   0  0  0  0  0  0  0  0  0  0  0  0
  151.5538  138.1673  154.9625 C   0  0  0  0  0  0  0  0  0  0  0  0
  151.4091  136.8986  155.3055 N   0  0  0  0  0  0  0  0  0  0  0  0
  150.0313  136.6834  155.4060 O   0  0  0  0  0  0  0  0  0  0  0  0
  149.3929  137.8459  155.1181 C   0  0  0  0  0  0  0  0  0  0  0  0
  147.9027  137.8221  155.1719 C   0  0  0  0  0  0  0  0  0  0  0  0
  150.2994  138.8285  154.8285 C   0  0  0  0  0  0  0  0  0  0  0  0
  150.0436  140.2646  154.4595 C   0  0  0  0  0  0  0  0  0  0  0  0
  149.5119  141.0655  155.6551 C   0  0  0  0  0  0  0  0  0  0  0  0
  150.3708  142.2356  155.9319 N   0  3  0  0  0  0  0  0  0  0  0  0
  150.7518  142.4182  157.3500 C   0  0  1  0  0  0  0  0  0  0  0  0
  151.3494  141.1103  157.8984 C   0  0  0  0  0  0  0  0  0  0  0  0
  151.8021  141.2589  159.3594 C   0  0  0  0  0  0  0  0  0  0  0  0
  152.8056  142.4173  159.5211 C   0  0  2  0  0  0  0  0  0  0  0  0
  153.3341  142.5198  160.9613 C   0  0  0  0  0  0  0  0  0  0  0  0
  152.2276  143.7505  158.9810 C   0  0  2  0  0  0  0  0  0  0  0  0
  151.1213  144.3636  159.8637 C   0  0  0  0  0  0  0  0  0  0  0  0
  151.7595  143.5776  157.5201 C   0  0  0  0  0  0  0  0  0  0  0  0
  153.1398  139.5086  155.5058 H   0  0  0  0  0  0  0  0  0  0  0  0
  153.0357  139.1768  153.7797 H   0  0  0  0  0  0  0  0  0  0  0  0
  153.7018  137.9664  154.8685 H   0  0  0  0  0  0  0  0  0  0  0  0
  147.5147  138.7381  155.6169 H   0  0  0  0  0  0  0  0  0  0  0  0
  147.5456  136.9824  155.7685 H   0  0  0  0  0  0  0  0  0  0  0  0
  147.4835  137.7283  154.1705 H   0  0  0  0  0  0  0  0  0  0  0  0
  150.9554  140.7337  154.0884 H   0  0  0  0  0  0  0  0  0  0  0  0
  149.3278  140.3234  153.6386 H   0  0  0  0  0  0  0  0  0  0  0  0
  148.4929  141.3937  155.4511 H   0  0  0  0  0  0  0  0  0  0  0  0
  149.4749  140.4296  156.5409 H   0  0  0  0  0  0  0  0  0  0  0  0
  151.2208  142.1140  155.4001 H   0  0  0  0  0  0  0  0  0  0  0  0
  149.8448  142.6366  157.9151 H   0  0  0  0  0  0  0  0  0  0  0  0
  150.6181  140.3047  157.8246 H   0  0  0  0  0  0  0  0  0  0  0  0
  152.2017  140.8089  157.2877 H   0  0  0  0  0  0  0  0  0  0  0  0
  150.9346  141.4181  160.0007 H   0  0  0  0  0  0  0  0  0  0  0  0
  152.2573  140.3253  159.6922 H   0  0  0  0  0  0  0  0  0  0  0  0
  153.6693  142.1759  158.8993 H   0  0  0  0  0  0  0  0  0  0  0  0
  152.5278  142.6719  161.6791 H   0  0  0  0  0  0  0  0  0  0  0  0
  154.0369  143.3468  161.0650 H   0  0  0  0  0  0  0  0  0  0  0  0
  153.8570  141.6073  161.2490 H   0  0  0  0  0  0  0  0  0  0  0  0
  153.0424  144.4759  158.9670 H   0  0  0  0  0  0  0  0  0  0  0  0
  150.2780  143.6872  159.9988 H   0  0  0  0  0  0  0  0  0  0  0  0
  150.7359  145.2827  159.4217 H   0  0  0  0  0  0  0  0  0  0  0  0
  151.4980  144.6239  160.8528 H   0  0  0  0  0  0  0  0  0  0  0  0
  152.6304  143.3889  156.8905 H   0  0  0  0  0  0  0  0  0  0  0  0
  151.3337  144.5165  157.1665 H   0  0  0  0  0  0  0  0  0  0  0  0
  149.9085  143.0734  155.6084 H   0  0  0  0  0  0  0  0  0  0  0  0
  1  2  1  0  0  0  0
  1 19  1  0  0  0  0
  1 20  1  0  0  0  0
  1 21  1  0  0  0  0
  2  7  1  0  0  0  0
  2  3  2  0  0  0  0
  3  4  1  0  0  0  0
  4  5  1  0  0  0  0
  5  6  1  0  0  0  0
  5  7  2  0  0  0  0
  6 22  1  0  0  0  0
  6 23  1  0  0  0  0
  6 24  1  0  0  0  0
  7  8  1  0  0  0  0
  8  9  1  0  0  0  0
  8 25  1  0  0  0  0
  8 26  1  0  0  0  0
  9 10  1  0  0  0  0
  9 27  1  0  0  0  0
  9 28  1  0  0  0  0
 10 11  1  0  0  0  0
 10 29  1  0  0  0  0
 10 45  1  0  0  0  0
 11 18  1  0  0  0  0
 11 12  1  0  0  0  0
 11 30  1  0  0  0  0
 12 13  1  0  0  0  0
 12 31  1  0  0  0  0
 12 32  1  0  0  0  0
 13 14  1  0  0  0  0
 13 33  1  0  0  0  0
 13 34  1  0  0  0  0
 14 15  1  0  0  0  0
 14 16  1  0  0  0  0
 14 35  1  0  0  0  0
 15 36  1  0  0  0  0
 15 37  1  0  0  0  0
 15 38  1  0  0  0  0
 16 17  1  0  0  0  0
 16 18  1  0  0  0  0
 16 39  1  0  0  0  0
 17 40  1  0  0  0  0
 17 41  1  0  0  0  0
 17 42  1  0  0  0  0
 18 43  1  0  0  0  0
 18 44  1  0  0  0  0
M  CHG  1  10   1
M  END
> <s_m_source_file>
AV-unprocessed.smi

> <i_m_source_file_index>
3285

> <i_lp_mmshare_version>
43012

> <i_f3d_flags>
0

> <s_epik_input>
W0NIM11jMW5vYyhbQ0gzXSljMVtDSDJdW0NIMl1bTkhdW0NAQEhdMltDSDJdW0NIMl1bQ0BASF0oW0NIM10pW0NAQEhdKFtDSDNdKVtDSDJdMg==

> <s_epik_cmdline>
J2VwaWtfcHl0aG9uJywgJy1waCcsICc3LjAnLCAnLXRuJywgJzgnLCAnLW1hJywgJzIwMCcsICctbWV0YWxfYmluZGluZycsICctaW1hZScsICc8aW5maWxlLm1hZT4nLCAnLW9tYWUnLCAnPG91dGZpbGUubWFlPic=

> <r_lp_tautomer_probability>
1

> <r_epik_Ionization_Penalty>
0.000204615

> <r_epik_Ionization_Penalty_Charging>
0.000204615

> <r_epik_Ionization_Penalty_Neutral>
9.28663e-11

> <r_epik_State_Penalty>
-0

> <r_epik_Charging_Adjusted_Penalty>
0.000204615

> <i_epik_Tot_Q>
1

> <i_epik_Tot_abs_Q>
1

> <r_epik_Metal_State_Penalty>
-0

> <b_epik_Metal_Only>
0

> <s_lp_Force_Field>
OPLS_2005

> <r_lp_Energy>
12.1842

> <b_lp_Chiralities_Consistent>
1

> <s_lp_Variant>
AV-unprocessed.smi:3285-8

> <Gold.Version>
5.8.1

> <Gold.Id.Protein>
6NUR|6NUR_protein|mol2

> <Gold.PLP.Fitness>
46.8869

> <Gold.PLP.PLP>
-39.4951

> <Gold.PLP.part.hbond>
-2.0000

> <Gold.PLP.part.metal>
0.0000

> <Gold.PLP.part.buried>
-2.5111

> <Gold.PLP.part.nonpolar>
-35.4961

> <Gold.PLP.part.repulsive>
0.3469

> <Gold.PLP.ligand.clash>
0.0000

> <Gold.PLP.ligand.torsion>
0.8296

> <Gold.PLP.Chemscore.Hbond>
3.0000

> <Gold.PLP.Chemscore.CHOScore>
0.0000

> <Gold.PLP.Chemscore.Metal>
0.0000

> <Gold.Chemscore.Hbonds>
donor molecule, donor type, donor heavy atom, donor atom, acceptor molecule, acceptor atom, score
      L1  H    10    45       P1  8028  2.00
      P1  H 10752 10763       L1     3  0.75

> <Gold.PLP.Chemscore.Internal.Correction>
0.0511

> <Gold.Rescore>
     Score         DG    S(hbond)    S(metal)    S(lipo)     H(rot)  DE(clash)    DE(int)     intcor
     21.53     -22.36       1.93        0.00     118.61       1.35       0.05       0.77       ----

> <Gold.Chemscore.Fitness>
21.5318

> <Gold.Chemscore.DG>
-22.3574

> <Gold.Chemscore.ZeroCoef>
-5.4800

> <Gold.Chemscore.Hbond>
1.9303

> <Gold.Chemscore.Metal>
0.0000

> <Gold.Chemscore.Lipo>
118.6078

> <Gold.Chemscore.Internal_Hbond>
0.0000

> <Gold.Chemscore.DEClash>
0.0517

> <Gold.Chemscore.DEInternal>
0.7739

> <Gold.Chemscore.Rot>
1.3465

> <Gold.Chemscore.Internal.Correction>
   9.000000E+99

> <Gold.Chemscore.Hbonds>
donor molecule, donor type, donor heavy atom, donor atom, acceptor molecule, acceptor atom, score
      L1  H    10    45       P1  8028  0.99
      P1  H 10752 10763       L1     3  0.70

> <Gold.Chemscore.Hbond.Weighted>
-6.4473

> <Gold.Chemscore.Metal.Weighted>
-0.0000

> <Gold.Chemscore.Lipo.Weighted>
-13.8771

> <Gold.Chemscore.Internal_Hbond.Weighted>
0.0000

> <Gold.Chemscore.DEClash.Weighted>
0.0517

> <Gold.Chemscore.DEInternal.Weighted>
0.7739

> <Gold.Chemscore.Rot.Weighted>
3.4470

> <Gold.Chemscore.Internal.Correction.Weighted>
   9.000000E+99

> <Gold.Protein.RotatedTorsions>
[ 6907 6896 6895 6894 ] final  -27.55 input  -60.11 | X-H torsion
[ 7974 7965 7964 7962 ] final  175.11 input  175.53 | X-H torsion
[ 8008 7997 7996 7995 ] final  -33.76 input   59.86 | X-H torsion
[ 10167 10162 10161 10158 ] final  -29.33 input  -65.29 | X-H torsion
[ 10718 10713 10712 10709 ] final   39.87 input   66.30 | X-H torsion
[ 10763 10752 10751 10750 ] final   68.62 input  -60.55 | X-H torsion
[ 11005 11000 10999 10996 ] final   72.69 input  -57.11 | X-H torsion

> <Gold.Protein.ActiveResidues>
 VAL166  LYS551  ARG553  GLY616  TRP617  ASP618  TYR619  PRO620  LYS621  CYS622 
 ASP623  PHE694  ASN695  SER759  ASP760  ASP761  ALA762  ILE779  LEU786  VAL792 
 PHE793  MET794  SER795  GLU796  ALA797  LYS798  CYS799  TRP800  GLU811  SER814 

> <Gold.Protein.RotatedAtoms>
  151.1453  135.0200  159.8643 H   0  0  0  0  0  0  0  0  0  0  0  0  # atno 6907 bound_to 6896
  152.5453  134.1451  159.8505 H   0  0  0  0  0  0  0  0  0  0  0  0  # atno 6908 bound_to 6896
  151.1531  133.4848  159.2628 H   0  0  0  0  0  0  0  0  0  0  0  0  # atno 6909 bound_to 6896
  144.7208  139.9897  143.6440 H   0  0  0  0  0  0  0  0  0  0  0  0  # atno 7974 bound_to 7965
  154.4140  140.1702  156.1939 H   0  0  0  0  0  0  0  0  0  0  0  0  # atno 8008 bound_to 7997
  155.9580  140.3396  155.6442 H   0  0  0  0  0  0  0  0  0  0  0  0  # atno 8009 bound_to 7997
  155.6785  140.0720  157.2484 H   0  0  0  0  0  0  0  0  0  0  0  0  # atno 8010 bound_to 7997
  140.7261  143.3937  151.1385 H   0  0  0  0  0  0  0  0  0  0  0  0  # atno 10167 bound_to 10162
  157.3756  130.7725  149.7152 H   0  0  0  0  0  0  0  0  0  0  0  0  # atno 10718 bound_to 10713
  153.0245  135.5240  154.7162 H   0  0  0  0  0  0  0  0  0  0  0  0  # atno 10763 bound_to 10752
  154.6231  135.2891  155.0306 H   0  0  0  0  0  0  0  0  0  0  0  0  # atno 10764 bound_to 10752
  154.1285  135.6596  153.4970 H   0  0  0  0  0  0  0  0  0  0  0  0  # atno 10765 bound_to 10752
  139.9478  134.7282  156.0937 H   0  0  0  0  0  0  0  0  0  0  0  0  # atno 11005 bound_to 11000
  146.0422  139.3432  143.0691 LP  0  0  0  0  0  0  0  0  0  0  0  0  # atno 17320 bound_to 7965
  145.8321  140.9625  143.0843 LP  0  0  0  0  0  0  0  0  0  0  0  0  # atno 17321 bound_to 7965
  139.7546  143.8727  152.3085 LP  0  0  0  0  0  0  0  0  0  0  0  0  # atno 17342 bound_to 10162
  139.8592  144.7126  150.9120 LP  0  0  0  0  0  0  0  0  0  0  0  0  # atno 17343 bound_to 10162
  155.9764  130.4075  150.3779 LP  0  0  0  0  0  0  0  0  0  0  0  0  # atno 17370 bound_to 10713
  157.1876  131.0407  151.2717 LP  0  0  0  0  0  0  0  0  0  0  0  0  # atno 17371 bound_to 10713
  141.1133  133.6636  156.3031 LP  0  0  0  0  0  0  0  0  0  0  0  0  # atno 17394 bound_to 11000
  140.5793  134.5762  157.5476 LP  0  0  0  0  0  0  0  0  0  0  0  0  # atno 17395 bound_to 11000

$$$$
