#       Name:                AV-unprocessed.smi:34
#       Creating user name   scv26
#       Creation time:       Thu Mar 26 15:56:52 2020


#       File generated by GOLD software.
#

@<TRIPOS>MOLECULE
AV-unprocessed.smi:34
    66    70     1
SMALL
NO_CHARGES


@<TRIPOS>ATOM
      1 ****        -3.7688  -0.0793   1.6386 O.2            1 S1                 0.0000
      2 ****        -4.1815  -0.5531   0.5779 C.2            1 S1                 0.0000
      3 ****        -3.4714  -0.8210  -0.5473 N.pl3          1 S1                -1.0000
      4 ****        -2.1448  -0.6211  -0.5675 C.ar           1 S1                 0.0000
      5 ****        -1.6304   0.5098  -1.1140 N.ar           1 S1                 0.0000
      6 ****        -0.3070   0.7023  -1.1470 C.ar           1 S1                 0.0000
      7 ****         0.6678  -0.0973  -0.7051 N.ar           1 S1                 0.0000
      8 ****         0.1671  -1.2414  -0.1568 C.ar           1 S1                 0.0000
      9 ****        -1.2168  -1.5701  -0.0564 C.ar           1 S1                 0.0000
     10 ****        -1.3868  -2.8063   0.5485 N.2            1 S1                 0.0000
     11 ****        -0.1273  -3.1638   0.7862 C.2            1 S1                 0.0000
     12 ****         0.8458  -2.3134   0.4037 N.pl3          1 S1                 0.0000
     13 ****         2.3188  -2.5203   0.5574 C.3            1 S1                 0.0000
     14 ****         2.9264  -1.2892   0.8203 O.3            1 S1                 0.0000
     15 ****         4.1238  -1.1371   0.0492 C.3            1 S1                 0.0000
     16 ****         3.9331  -0.0351  -1.0023 C.3            1 S1                 0.0000
     17 ****         3.7671   1.2164  -0.3559 O.3            1 S1                 0.0000
     18 ****         3.3435   2.2852  -1.0590 C.2            1 S1                 0.0000
     19 ****         3.1107   2.2574  -2.2694 O.2            1 S1                 0.0000
     20 ****         3.1837   3.5072  -0.2198 C.ar           1 S1                 0.0000
     21 ****         2.7649   4.7139  -0.8274 C.ar           1 S1                 0.0000
     22 ****         2.6031   5.8846  -0.0613 C.ar           1 S1                 0.0000
     23 ****         2.8578   5.8627   1.3222 C.ar           1 S1                 0.0000
     24 ****         3.2740   4.6683   1.9388 C.ar           1 S1                 0.0000
     25 ****         3.4360   3.4962   1.1744 C.ar           1 S1                 0.0000
     26 ****         4.3518  -2.5073  -0.5934 C.3            1 S1                 0.0000
     27 ****         5.0601  -3.2470   0.2649 F              1 S1                 0.0000
     28 ****         2.9369  -3.0440  -0.7353 C.3            1 S1                 0.0000
     29 ****         2.9470  -4.4539  -0.8345 O.3            1 S1                 0.0000
     30 ****        -5.6538  -0.8315   0.4317 C.ar           1 S1                 0.0000
     31 ****        -6.5929   0.0158   1.0631 C.ar           1 S1                 0.0000
     32 ****        -7.9739  -0.2422   0.9599 C.ar           1 S1                 0.0000
     33 ****        -8.4307  -1.3560   0.2309 C.ar           1 S1                 0.0000
     34 ****        -7.5050  -2.2145  -0.3910 C.ar           1 S1                 0.0000
     35 ****        -6.1239  -1.9577  -0.2876 C.ar           1 S1                 0.0000
     36 ****         0.0190   1.6295  -1.5945 H              1 S1                 0.0000
     37 ****         0.1029  -4.1057   1.2621 H              1 S1                 0.0000
     38 ****         2.4410  -3.1896   1.4108 H              1 S1                 0.0000
     39 ****         4.9565  -0.8722   0.7023 H              1 S1                 0.0000
     40 ****         4.8107   0.0191  -1.6474 H              1 S1                 0.0000
     41 ****         3.0805  -0.2617  -1.6422 H              1 S1                 0.0000
     42 ****         2.5624   4.7551  -1.8880 H              1 S1                 0.0000
     43 ****         2.2818   6.7999  -0.5366 H              1 S1                 0.0000
     44 ****         2.7326   6.7603   1.9096 H              1 S1                 0.0000
     45 ****         3.4691   4.6500   3.0010 H              1 S1                 0.0000
     46 ****         3.7543   2.5958   1.6793 H              1 S1                 0.0000
     47 ****         4.9047  -2.4707  -1.5327 H              1 S1                 0.0000
     48 ****         2.4393  -2.5948  -1.5964 H              1 S1                 0.0000
     49 ****         2.0529  -4.7574  -0.8782 H              1 S1                 0.0000
     50 ****        -6.2588   0.8742   1.6278 H              1 S1                 0.0000
     51 ****        -8.6824   0.4149   1.4420 H              1 S1                 0.0000
     52 ****        -9.4893  -1.5542   0.1524 H              1 S1                 0.0000
     53 ****        -7.8531  -3.0733  -0.9455 H              1 S1                 0.0000
     54 ****        -5.4299  -2.6359  -0.7630 H              1 S1                 0.0000
     55 ****        -2.8018   0.1552   1.7388 LP             1 S1                 0.0000
     56 ****        -4.4010   0.0705   2.3988 LP             1 S1                 0.0000
     57 ****        -3.9371  -1.1675  -1.3616 LP             1 S1                 0.0000
     58 ****        -2.2436   1.2024  -1.4938 LP             1 S1                 0.0000
     59 ****         1.6427   0.1163  -0.7684 LP             1 S1                 0.0000
     60 ****        -2.2327  -3.2991   0.7523 LP             1 S1                 0.0000
     61 ****         3.1540  -1.2371   1.7927 LP             1 S1                 0.0000
     62 ****         2.2906  -0.5535   0.5869 LP             1 S1                 0.0000
     63 ****         3.2345   1.4083  -2.7830 LP             1 S1                 0.0000
     64 ****         2.7981   3.0839  -2.7375 LP             1 S1                 0.0000
     65 ****         3.3975  -4.8454  -0.0321 LP             1 S1                 0.0000
     66 ****         3.4381  -4.7306  -1.6605 LP             1 S1                 0.0000
@<TRIPOS>BOND
    1    1    2 2     
    2    2    3 1     
    3    2   30 1     
    4    3    4 1     
    5    4    9 ar    
    6    4    5 ar    
    7    5    6 ar    
    8    6    7 ar    
    9    6   36 1     
   10    7    8 ar    
   11    8   12 1     
   12    8    9 ar    
   13    9   10 1     
   14   10   11 2     
   15   11   12 1     
   16   11   37 1     
   17   12   13 1     
   18   13   28 1     
   19   13   14 1     
   20   13   38 1     
   21   14   15 1     
   22   15   16 1     
   23   15   26 1     
   24   15   39 1     
   25   16   17 1     
   26   16   40 1     
   27   16   41 1     
   28   17   18 1     
   29   18   19 2     
   30   18   20 1     
   31   20   25 ar    
   32   20   21 ar    
   33   21   22 ar    
   34   21   42 1     
   35   22   23 ar    
   36   22   43 1     
   37   23   24 ar    
   38   23   44 1     
   39   24   25 ar    
   40   24   45 1     
   41   25   46 1     
   42   26   27 1     
   43   26   28 1     
   44   26   47 1     
   45   28   29 1     
   46   28   48 1     
   47   29   49 1     
   48   30   35 ar    
   49   30   31 ar    
   50   31   32 ar    
   51   31   50 1     
   52   32   33 ar    
   53   32   51 1     
   54   33   34 ar    
   55   33   52 1     
   56   34   35 ar    
   57   34   53 1     
   58   35   54 1     
   59    1   55 1     
   60    1   56 1     
   61    3   57 1     
   62    5   58 1     
   63    7   59 1     
   64   10   60 1     
   65   14   61 1     
   66   14   62 1     
   67   19   63 1     
   68   19   64 1     
   69   29   65 1     
   70   29   66 1     
@<TRIPOS>SUBSTRUCTURE
      1 S1             1
@<TRIPOS>SET
LONE_PAIRS      STATIC     ATOMS    <user>   **** ""
12 55 56 57 58 59 60 61 62 63 64 65 66
DONOR_HYDROGENS      STATIC     ATOMS    <user>   **** ""
1 49
ATOM$BLUE        STATIC     ATOMS    COLORGROUP SYSTEM
12 55 56 57 58 59 60 61 62 63 64 65 66
ATOM$RED        STATIC     ATOMS    COLORGROUP SYSTEM
1 49
