AV-unprocessed.smi:356|AV-procd|sdf|2413|dock5
  -GOLD-   2262022343D 1   1.00000     0.00000
 Structure written by MMmdl.
 42 44  0  0  0  0  0  0  0  0  2 V2000
  149.5811  141.2045  154.9886 C   0  0  0  0  0  0  0  0  0  0  0  0
  150.3369  141.6208  156.2056 C   0  0  0  0  0  0  0  0  0  0  0  0
  150.2361  142.8233  156.8395 N   0  3  0  0  0  0  0  0  0  0  0  0
  151.0953  142.8509  157.9392 C   0  0  0  0  0  0  0  0  0  0  0  0
  151.3421  143.8467  158.8795 C   0  0  0  0  0  0  0  0  0  0  0  0
  152.2876  143.5489  159.8830 C   0  0  0  0  0  0  0  0  0  0  0  0
  152.9462  142.3027  159.9254 C   0  0  0  0  0  0  0  0  0  0  0  0
  152.6880  141.3011  158.9663 C   0  0  0  0  0  0  0  0  0  0  0  0
  151.7518  141.6038  157.9783 C   0  0  0  0  0  0  0  0  0  0  0  0
  151.2518  140.8781  156.8923 N   0  0  0  0  0  0  0  0  0  0  0  0
  151.7405  139.5111  156.6549 C   0  0  0  0  0  0  0  0  0  0  0  0
  152.0262  139.2248  155.1675 C   0  0  1  0  0  0  0  0  0  0  0  0
  153.3768  138.8334  155.0210 O   0  0  0  0  0  0  0  0  0  0  0  0
  151.1274  138.0943  154.6293 C   0  0  0  0  0  0  0  0  0  0  0  0
  151.0600  136.8901  155.4597 N   0  0  0  0  0  0  0  0  0  0  0  0
  150.8148  135.6757  154.6829 C   0  0  0  0  0  0  0  0  0  0  0  0
  150.7143  134.4296  155.5803 C   0  0  0  0  0  0  0  0  0  0  0  0
  149.6963  134.6217  156.5566 O   0  0  0  0  0  0  0  0  0  0  0  0
  149.9247  135.7695  157.3672 C   0  0  0  0  0  0  0  0  0  0  0  0
  150.0184  137.0184  156.4742 C   0  0  0  0  0  0  0  0  0  0  0  0
  148.9008  141.9947  154.6703 H   0  0  0  0  0  0  0  0  0  0  0  0
  148.9974  140.3075  155.1955 H   0  0  0  0  0  0  0  0  0  0  0  0
  150.2710  140.9906  154.1721 H   0  0  0  0  0  0  0  0  0  0  0  0
  150.8390  144.8020  158.8491 H   0  0  0  0  0  0  0  0  0  0  0  0
  152.5123  144.2911  160.6353 H   0  0  0  0  0  0  0  0  0  0  0  0
  153.6643  142.1109  160.7096 H   0  0  0  0  0  0  0  0  0  0  0  0
  153.1970  140.3493  159.0069 H   0  0  0  0  0  0  0  0  0  0  0  0
  152.6460  139.3749  157.2475 H   0  0  0  0  0  0  0  0  0  0  0  0
  151.0066  138.8092  157.0532 H   0  0  0  0  0  0  0  0  0  0  0  0
  151.8720  140.1425  154.6019 H   0  0  0  0  0  0  0  0  0  0  0  0
  153.4340  138.2351  154.2911 H   0  0  0  0  0  0  0  0  0  0  0  0
  150.1219  138.4983  154.5009 H   0  0  0  0  0  0  0  0  0  0  0  0
  151.4629  137.8174  153.6286 H   0  0  0  0  0  0  0  0  0  0  0  0
  149.8921  135.7822  154.1104 H   0  0  0  0  0  0  0  0  0  0  0  0
  151.6145  135.5154  153.9615 H   0  0  0  0  0  0  0  0  0  0  0  0
  150.4736  133.5503  154.9827 H   0  0  0  0  0  0  0  0  0  0  0  0
  151.6673  134.2306  156.0732 H   0  0  0  0  0  0  0  0  0  0  0  0
  149.1053  135.8723  158.0788 H   0  0  0  0  0  0  0  0  0  0  0  0
  150.8396  135.6391  157.9473 H   0  0  0  0  0  0  0  0  0  0  0  0
  150.2152  137.8904  157.0987 H   0  0  0  0  0  0  0  0  0  0  0  0
  149.0536  137.1902  155.9943 H   0  0  0  0  0  0  0  0  0  0  0  0
  149.6218  143.5694  156.5395 H   0  0  0  0  0  0  0  0  0  0  0  0
  1  2  1  0  0  0  0
  1 21  1  0  0  0  0
  1 22  1  0  0  0  0
  1 23  1  0  0  0  0
  2 10  1  0  0  0  0
  2  3  2  0  0  0  0
  3  4  1  0  0  0  0
  3 42  1  0  0  0  0
  4  9  2  0  0  0  0
  4  5  1  0  0  0  0
  5  6  2  0  0  0  0
  5 24  1  0  0  0  0
  6  7  1  0  0  0  0
  6 25  1  0  0  0  0
  7  8  2  0  0  0  0
  7 26  1  0  0  0  0
  8  9  1  0  0  0  0
  8 27  1  0  0  0  0
  9 10  1  0  0  0  0
 10 11  1  0  0  0  0
 11 12  1  0  0  0  0
 11 28  1  0  0  0  0
 11 29  1  0  0  0  0
 12 13  1  0  0  0  0
 12 14  1  0  0  0  0
 12 30  1  0  0  0  0
 13 31  1  0  0  0  0
 14 15  1  0  0  0  0
 14 32  1  0  0  0  0
 14 33  1  0  0  0  0
 15 20  1  0  0  0  0
 15 16  1  0  0  0  0
 16 17  1  0  0  0  0
 16 34  1  0  0  0  0
 16 35  1  0  0  0  0
 17 18  1  0  0  0  0
 17 36  1  0  0  0  0
 17 37  1  0  0  0  0
 18 19  1  0  0  0  0
 19 20  1  0  0  0  0
 19 38  1  0  0  0  0
 19 39  1  0  0  0  0
 20 40  1  0  0  0  0
 20 41  1  0  0  0  0
M  CHG  1   3   1
M  END
> <s_m_source_file>
AV-unprocessed.smi

> <i_m_source_file_index>
356

> <i_lp_mmshare_version>
43012

> <i_f3d_flags>
0

> <s_epik_input>
W2NIXTFbY0hdW2NIXVtjSF1jKGMxMiluKGMobjIpW0NIM10pW0NIMl1bQ0BIXShbT0hdKVtDSDJdTjNbQ0gyXVtDSDJdT1tDSDJdW0NIMl0z

> <s_epik_cmdline>
J2VwaWtfcHl0aG9uJywgJy1waCcsICc3LjAnLCAnLXRuJywgJzgnLCAnLW1hJywgJzIwMCcsICctbWV0YWxfYmluZGluZycsICctaW1hZScsICc8aW5maWxlLm1hZT4nLCAnLW9tYWUnLCAnPG91dGZpbGUubWFlPic=

> <r_epik_Ionization_Penalty>
1.35865

> <r_epik_Ionization_Penalty_Charging>
1.14429

> <r_epik_Ionization_Penalty_Neutral>
0.214359

> <r_epik_State_Penalty>
1.39809

> <r_epik_Charging_Adjusted_Penalty>
2.54238

> <i_epik_Tot_Q>
1

> <i_epik_Tot_abs_Q>
1

> <r_epik_Metal_State_Penalty>
5.40564

> <b_epik_Metal_Only>
0

> <s_lp_Force_Field>
OPLS_2005

> <r_lp_Energy>
32.3817

> <b_lp_Chiralities_Consistent>
1

> <s_lp_Variant>
AV-unprocessed.smi:356-6

> <Gold.Version>
5.8.1

> <Gold.Id.Protein>
6NUR|6NUR_protein|mol2

> <Gold.PLP.Fitness>
46.9971

> <Gold.PLP.PLP>
-40.7498

> <Gold.PLP.part.hbond>
-2.0000

> <Gold.PLP.part.metal>
0.0000

> <Gold.PLP.part.buried>
-4.1242

> <Gold.PLP.part.nonpolar>
-33.8886

> <Gold.PLP.part.repulsive>
0.1196

> <Gold.PLP.ligand.clash>
0.0000

> <Gold.PLP.ligand.torsion>
1.3830

> <Gold.PLP.Chemscore.Hbond>
3.0000

> <Gold.PLP.Chemscore.CHOScore>
0.0000

> <Gold.PLP.Chemscore.Metal>
0.0000

> <Gold.Chemscore.Hbonds>
donor molecule, donor type, donor heavy atom, donor atom, acceptor molecule, acceptor atom, score
      L1  H     3    42       P1  8028  2.00
      P1  H  7997  8008       L1    13  1.00

> <Gold.PLP.Chemscore.Internal.Correction>
0.0132

> <Gold.Rescore>
     Score         DG    S(hbond)    S(metal)    S(lipo)     H(rot)  DE(clash)    DE(int)     intcor
     17.03     -18.60       1.69        0.00     108.76       2.05       0.05       1.52       ----

> <Gold.Chemscore.Fitness>
17.0299

> <Gold.Chemscore.DG>
-18.6009

> <Gold.Chemscore.ZeroCoef>
-5.4800

> <Gold.Chemscore.Hbond>
1.6926

> <Gold.Chemscore.Metal>
0.0000

> <Gold.Chemscore.Lipo>
108.7649

> <Gold.Chemscore.Internal_Hbond>
0.0000

> <Gold.Chemscore.DEClash>
0.0496

> <Gold.Chemscore.DEInternal>
1.5215

> <Gold.Chemscore.Rot>
2.0539

> <Gold.Chemscore.Internal.Correction>
   9.000000E+99

> <Gold.Chemscore.Hbonds>
donor molecule, donor type, donor heavy atom, donor atom, acceptor molecule, acceptor atom, score
      L1  H     3    42       P1  8028  0.99
      P1  H  7997  8008       L1    13  0.67

> <Gold.Chemscore.Hbond.Weighted>
-5.6533

> <Gold.Chemscore.Metal.Weighted>
-0.0000

> <Gold.Chemscore.Lipo.Weighted>
-12.7255

> <Gold.Chemscore.Internal_Hbond.Weighted>
0.0000

> <Gold.Chemscore.DEClash.Weighted>
0.0496

> <Gold.Chemscore.DEInternal.Weighted>
1.5215

> <Gold.Chemscore.Rot.Weighted>
5.2579

> <Gold.Chemscore.Internal.Correction.Weighted>
   9.000000E+99

> <Gold.Protein.RotatedTorsions>
[ 6907 6896 6895 6894 ] final  -35.69 input  -60.11 | X-H torsion
[ 7974 7965 7964 7962 ] final  -41.23 input  175.53 | X-H torsion
[ 8008 7997 7996 7995 ] final  -11.28 input   59.86 | X-H torsion
[ 10167 10162 10161 10158 ] final   10.17 input  -65.29 | X-H torsion
[ 10718 10713 10712 10709 ] final -143.85 input   66.30 | X-H torsion
[ 10763 10752 10751 10750 ] final   63.78 input  -60.55 | X-H torsion
[ 11005 11000 10999 10996 ] final -106.26 input  -57.11 | X-H torsion

> <Gold.Protein.ActiveResidues>
 VAL166  LYS551  ARG553  GLY616  TRP617  ASP618  TYR619  PRO620  LYS621  CYS622 
 ASP623  PHE694  ASN695  SER759  ASP760  ASP761  ALA762  ILE779  LEU786  VAL792 
 PHE793  MET794  SER795  GLU796  ALA797  LYS798  CYS799  TRP800  GLU811  SER814 

> <Gold.Protein.RotatedAtoms>
  151.0367  134.9578  159.8139 H   0  0  0  0  0  0  0  0  0  0  0  0  # atno 6907 bound_to 6896
  152.5356  134.2711  159.8982 H   0  0  0  0  0  0  0  0  0  0  0  0  # atno 6908 bound_to 6896
  151.2722  133.4207  159.2656 H   0  0  0  0  0  0  0  0  0  0  0  0  # atno 6909 bound_to 6896
  146.0231  140.6826  142.9169 H   0  0  0  0  0  0  0  0  0  0  0  0  # atno 7974 bound_to 7965
  154.5478  140.2306  155.8533 H   0  0  0  0  0  0  0  0  0  0  0  0  # atno 8008 bound_to 7997
  156.1919  140.3075  155.9311 H   0  0  0  0  0  0  0  0  0  0  0  0  # atno 8009 bound_to 7997
  155.3129  140.0436  157.3026 H   0  0  0  0  0  0  0  0  0  0  0  0  # atno 8010 bound_to 7997
  140.6210  143.8203  150.7175 H   0  0  0  0  0  0  0  0  0  0  0  0  # atno 10167 bound_to 10162
  156.3630  130.7748  151.1918 H   0  0  0  0  0  0  0  0  0  0  0  0  # atno 10718 bound_to 10713
  153.0031  135.5416  154.6407 H   0  0  0  0  0  0  0  0  0  0  0  0  # atno 10763 bound_to 10752
  154.5662  135.2838  155.0873 H   0  0  0  0  0  0  0  0  0  0  0  0  # atno 10764 bound_to 10752
  154.2057  135.6476  153.5152 H   0  0  0  0  0  0  0  0  0  0  0  0  # atno 10765 bound_to 10752
  141.1013  133.8878  157.1834 H   0  0  0  0  0  0  0  0  0  0  0  0  # atno 11005 bound_to 11000
  144.6998  140.3601  143.7165 LP  0  0  0  0  0  0  0  0  0  0  0  0  # atno 17320 bound_to 7965
  145.7162  139.1697  143.2511 LP  0  0  0  0  0  0  0  0  0  0  0  0  # atno 17321 bound_to 7965
  140.1794  143.4128  152.1944 LP  0  0  0  0  0  0  0  0  0  0  0  0  # atno 17342 bound_to 10162
  139.5439  144.7281  151.4645 LP  0  0  0  0  0  0  0  0  0  0  0  0  # atno 17343 bound_to 10162
  157.7475  131.0394  150.4551 LP  0  0  0  0  0  0  0  0  0  0  0  0  # atno 17370 bound_to 10713
  156.4765  130.4064  149.6487 LP  0  0  0  0  0  0  0  0  0  0  0  0  # atno 17371 bound_to 10713
  139.9866  135.0079  156.9877 LP  0  0  0  0  0  0  0  0  0  0  0  0  # atno 17394 bound_to 11000
  140.5014  134.1094  155.7251 LP  0  0  0  0  0  0  0  0  0  0  0  0  # atno 17395 bound_to 11000

$$$$
