AV-unprocessed.smi:4|AV-procd|sdf|33|dock3
  -GOLD-   2262015143D 1   1.00000     0.00000
 Structure written by MMmdl.
 44 45  0  0  0  0  0  0  0  0  2 V2000
  149.8833  133.3139  153.2598 C   0  0  0  0  0  0  0  0  0  0  0  0
  149.8494  133.2696  154.8098 C   0  0  0  0  0  0  0  0  0  0  0  0
  148.4704  132.6602  155.1733 C   0  0  0  0  0  0  0  0  0  0  0  0
  150.9999  132.3144  155.2208 C   0  0  0  0  0  0  0  0  0  0  0  0
  150.0197  134.6052  155.4205 N   0  0  0  0  0  0  0  0  0  0  0  0
  150.1779  135.7841  154.6877 C   0  0  0  0  0  0  0  0  0  0  0  0
  150.3215  137.0199  155.2311 C   0  0  0  0  0  0  0  0  0  0  0  0
  150.5160  138.2588  154.3636 C   0  0  0  0  0  0  0  0  0  0  0  0
  149.3287  138.5426  153.5278 N   0  3  0  0  0  0  0  0  0  0  0  0
  148.1240  138.9875  154.2619 C   0  0  0  0  0  0  0  0  0  0  0  0
  147.9607  140.5101  154.2034 C   0  0  0  0  0  0  0  0  0  0  0  0
  149.2043  141.0297  153.7785 O   0  0  0  0  0  0  0  0  0  0  0  0
  146.7585  141.0422  153.4018 C   0  0  0  0  0  0  0  0  0  0  0  0
  145.9897  141.2016  154.7136 C   0  0  0  0  0  0  0  0  0  0  0  0
  147.3425  141.2157  155.4259 C   0  0  0  0  0  0  0  0  0  0  0  0
  150.3432  137.1658  156.6867 C   0  0  0  0  0  0  0  0  0  0  0  0
  150.4745  138.2251  157.2972 O   0  0  0  0  0  0  0  0  0  0  0  0
  150.1881  135.9769  157.3951 N   0  0  0  0  0  0  0  0  0  0  0  0
  150.0246  134.7093  156.8412 C   0  0  0  0  0  0  0  0  0  0  0  0
  149.8954  133.7567  157.6078 O   0  0  0  0  0  0  0  0  0  0  0  0
  150.1935  136.0378  158.4033 H   0  0  0  0  0  0  0  0  0  0  0  0
  149.7537  132.3187  152.8320 H   0  0  0  0  0  0  0  0  0  0  0  0
  150.8356  133.6883  152.8816 H   0  0  0  0  0  0  0  0  0  0  0  0
  149.0814  133.9300  152.8506 H   0  0  0  0  0  0  0  0  0  0  0  0
  147.6605  133.3509  154.9360 H   0  0  0  0  0  0  0  0  0  0  0  0
  148.3760  132.3909  156.2236 H   0  0  0  0  0  0  0  0  0  0  0  0
  148.2864  131.7424  154.6138 H   0  0  0  0  0  0  0  0  0  0  0  0
  150.9521  131.3787  154.6627 H   0  0  0  0  0  0  0  0  0  0  0  0
  150.9787  132.0339  156.2722 H   0  0  0  0  0  0  0  0  0  0  0  0
  151.9740  132.7611  155.0188 H   0  0  0  0  0  0  0  0  0  0  0  0
  150.1888  135.7641  153.6104 H   0  0  0  0  0  0  0  0  0  0  0  0
  150.7759  139.1330  154.9621 H   0  0  0  0  0  0  0  0  0  0  0  0
  151.3612  138.0886  153.6961 H   0  0  0  0  0  0  0  0  0  0  0  0
  149.5753  139.2746  152.8770 H   0  0  0  0  0  0  0  0  0  0  0  0
  147.2403  138.5009  153.8483 H   0  0  0  0  0  0  0  0  0  0  0  0
  148.2056  138.6530  155.2969 H   0  0  0  0  0  0  0  0  0  0  0  0
  149.8211  140.3131  153.7842 H   0  0  0  0  0  0  0  0  0  0  0  0
  146.9563  141.9974  152.9116 H   0  0  0  0  0  0  0  0  0  0  0  0
  146.3163  140.3255  152.7089 H   0  0  0  0  0  0  0  0  0  0  0  0
  145.4186  142.1265  154.7990 H   0  0  0  0  0  0  0  0  0  0  0  0
  145.3874  140.3264  154.9616 H   0  0  0  0  0  0  0  0  0  0  0  0
  147.3637  140.6405  156.3519 H   0  0  0  0  0  0  0  0  0  0  0  0
  147.7270  142.2259  155.5779 H   0  0  0  0  0  0  0  0  0  0  0  0
  149.0929  137.7144  152.9997 H   0  0  0  0  0  0  0  0  0  0  0  0
  1  2  1  0  0  0  0
  1 22  1  0  0  0  0
  1 23  1  0  0  0  0
  1 24  1  0  0  0  0
  2  3  1  0  0  0  0
  2  4  1  0  0  0  0
  2  5  1  0  0  0  0
  3 25  1  0  0  0  0
  3 26  1  0  0  0  0
  3 27  1  0  0  0  0
  4 28  1  0  0  0  0
  4 29  1  0  0  0  0
  4 30  1  0  0  0  0
  5 19  1  0  0  0  0
  5  6  1  0  0  0  0
  6  7  2  0  0  0  0
  6 31  1  0  0  0  0
  7  8  1  0  0  0  0
  7 16  1  0  0  0  0
  8  9  1  0  0  0  0
  8 32  1  0  0  0  0
  8 33  1  0  0  0  0
  9 10  1  0  0  0  0
  9 34  1  0  0  0  0
  9 44  1  0  0  0  0
 10 11  1  0  0  0  0
 10 35  1  0  0  0  0
 10 36  1  0  0  0  0
 11 15  1  0  0  0  0
 11 12  1  0  0  0  0
 11 13  1  0  0  0  0
 12 37  1  0  0  0  0
 13 14  1  0  0  0  0
 13 38  1  0  0  0  0
 13 39  1  0  0  0  0
 14 15  1  0  0  0  0
 14 40  1  0  0  0  0
 14 41  1  0  0  0  0
 15 42  1  0  0  0  0
 15 43  1  0  0  0  0
 16 17  2  0  0  0  0
 16 18  1  0  0  0  0
 18 21  1  0  0  0  0
 18 19  1  0  0  0  0
 19 20  2  0  0  0  0
M  CHG  1   9   1
M  END
> <s_m_source_file>
AV-unprocessed.smi

> <i_m_source_file_index>
4

> <i_lp_mmshare_version>
43012

> <i_f3d_flags>
0

> <s_epik_input>
W0NIM11DKFtDSDNdKShbQ0gzXSluMVtjSF1jKGMoPU8pW25IXWMxPU8pW0NIMl1bTkhdW0NIMl1DMihbT0hdKVtDSDJdW0NIMl1bQ0gyXTI=

> <s_epik_cmdline>
J2VwaWtfcHl0aG9uJywgJy1waCcsICc3LjAnLCAnLXRuJywgJzgnLCAnLW1hJywgJzIwMCcsICctbWV0YWxfYmluZGluZycsICctaW1hZScsICc8aW5maWxlLm1hZT4nLCAnLW9tYWUnLCAnPG91dGZpbGUubWFlPic=

> <r_lp_tautomer_probability>
0.999537

> <r_epik_Ionization_Penalty>
0.0188443

> <r_epik_Ionization_Penalty_Charging>
0.0188443

> <r_epik_Ionization_Penalty_Neutral>
1.97485e-08

> <r_epik_State_Penalty>
0.0134361

> <r_epik_Charging_Adjusted_Penalty>
0.0322804

> <i_epik_Tot_Q>
1

> <i_epik_Tot_abs_Q>
1

> <r_epik_Metal_State_Penalty>
0.855907

> <b_epik_Metal_Only>
0

> <s_lp_Force_Field>
OPLS_2005

> <r_lp_Energy>
23.9463

> <b_lp_Chiralities_Consistent>
1

> <s_lp_Variant>
AV-unprocessed.smi:4-1

> <Gold.Version>
5.8.1

> <Gold.Id.Protein>
6NUR|6NUR_protein|mol2

> <Gold.PLP.Fitness>
46.6470

> <Gold.PLP.PLP>
-31.5520

> <Gold.PLP.part.hbond>
-6.0000

> <Gold.PLP.part.metal>
0.0000

> <Gold.PLP.part.buried>
-3.6692

> <Gold.PLP.part.nonpolar>
-22.5793

> <Gold.PLP.part.repulsive>
0.1590

> <Gold.PLP.ligand.clash>
0.0000

> <Gold.PLP.ligand.torsion>
1.2176

> <Gold.PLP.Chemscore.Hbond>
5.0000

> <Gold.PLP.Chemscore.CHOScore>
0.7911

> <Gold.PLP.Chemscore.Metal>
0.0000

> <Gold.Chemscore.Hbonds>
donor molecule, donor type, donor heavy atom, donor atom, acceptor molecule, acceptor atom, score
      L1  H     9    34       P1  7957  1.00
      L1  H     9    44       P1  7948  2.00
      P1  H  6896  6907       L1    20  1.00
      P1  H  8011  8017       L1    12  0.83
      L1  C     6    31       P1  7948  0.30

> <Gold.PLP.Chemscore.Internal.Correction>
0.1569

> <Gold.Rescore>
     Score         DG    S(hbond)    S(metal)    S(lipo)     H(rot)  DE(clash)    DE(int)     intcor
     16.97     -19.61       3.91        0.00      64.41       2.53       0.06       2.58       ----

> <Gold.Chemscore.Fitness>
16.9663

> <Gold.Chemscore.DG>
-19.6057

> <Gold.Chemscore.ZeroCoef>
-5.4800

> <Gold.Chemscore.Hbond>
3.9120

> <Gold.Chemscore.Metal>
0.0000

> <Gold.Chemscore.Lipo>
64.4133

> <Gold.Chemscore.Internal_Hbond>
0.0000

> <Gold.Chemscore.DEClash>
0.0580

> <Gold.Chemscore.DEInternal>
2.5814

> <Gold.Chemscore.Rot>
2.5300

> <Gold.Chemscore.Internal.Correction>
   9.000000E+99

> <Gold.Chemscore.Hbonds>
donor molecule, donor type, donor heavy atom, donor atom, acceptor molecule, acceptor atom, score
      L1  H     9    34       P1  7957  0.96
      L1  H     9    44       P1  7948  1.00
      P1  H  6896  6907       L1    20  0.93
      P1  H  8011  8017       L1    12  0.54

> <Gold.Chemscore.Hbond.Weighted>
-13.0661

> <Gold.Chemscore.Metal.Weighted>
-0.0000

> <Gold.Chemscore.Lipo.Weighted>
-7.5364

> <Gold.Chemscore.Internal_Hbond.Weighted>
0.0000

> <Gold.Chemscore.DEClash.Weighted>
0.0580

> <Gold.Chemscore.DEInternal.Weighted>
2.5814

> <Gold.Chemscore.Rot.Weighted>
6.4768

> <Gold.Chemscore.Internal.Correction.Weighted>
   9.000000E+99

> <Gold.Protein.RotatedTorsions>
[ 6907 6896 6895 6894 ] final -112.89 input  -60.11 | X-H torsion
[ 7974 7965 7964 7962 ] final  121.66 input  175.53 | X-H torsion
[ 8008 7997 7996 7995 ] final   50.55 input   59.86 | X-H torsion
[ 10167 10162 10161 10158 ] final  125.89 input  -65.29 | X-H torsion
[ 10718 10713 10712 10709 ] final -175.24 input   66.30 | X-H torsion
[ 10763 10752 10751 10750 ] final -144.75 input  -60.55 | X-H torsion
[ 11005 11000 10999 10996 ] final  113.34 input  -57.11 | X-H torsion

> <Gold.Protein.ActiveResidues>
 VAL166  LYS551  ARG553  GLY616  TRP617  ASP618  TYR619  PRO620  LYS621  CYS622 
 ASP623  PHE694  ASN695  SER759  ASP760  ASP761  ALA762  ILE779  LEU786  VAL792 
 PHE793  MET794  SER795  GLU796  ALA797  LYS798  CYS799  TRP800  GLU811  SER814 

> <Gold.Protein.RotatedAtoms>
  150.7790  133.9023  159.3344 H   0  0  0  0  0  0  0  0  0  0  0  0  # atno 6907 bound_to 6896
  151.6891  135.0947  160.0240 H   0  0  0  0  0  0  0  0  0  0  0  0  # atno 6908 bound_to 6896
  152.3836  133.6541  159.6216 H   0  0  0  0  0  0  0  0  0  0  0  0  # atno 6909 bound_to 6896
  145.1167  139.3416  143.4735 H   0  0  0  0  0  0  0  0  0  0  0  0  # atno 7974 bound_to 7965
  155.4206  140.3446  155.4271 H   0  0  0  0  0  0  0  0  0  0  0  0  # atno 8008 bound_to 7997
  156.1395  140.1538  156.8973 H   0  0  0  0  0  0  0  0  0  0  0  0  # atno 8009 bound_to 7997
  154.4959  140.0828  156.7677 H   0  0  0  0  0  0  0  0  0  0  0  0  # atno 8010 bound_to 7997
  139.5660  144.6912  151.3908 H   0  0  0  0  0  0  0  0  0  0  0  0  # atno 10167 bound_to 10162
  156.7970  130.9538  151.3119 H   0  0  0  0  0  0  0  0  0  0  0  0  # atno 10718 bound_to 10713
  154.8414  135.3432  154.6396 H   0  0  0  0  0  0  0  0  0  0  0  0  # atno 10763 bound_to 10752
  153.7006  135.6970  153.5068 H   0  0  0  0  0  0  0  0  0  0  0  0  # atno 10764 bound_to 10752
  153.2525  135.4349  155.0767 H   0  0  0  0  0  0  0  0  0  0  0  0  # atno 10765 bound_to 10752
  139.8950  134.9548  156.6724 H   0  0  0  0  0  0  0  0  0  0  0  0  # atno 11005 bound_to 11000
  146.3523  140.1109  142.8604 LP  0  0  0  0  0  0  0  0  0  0  0  0  # atno 17320 bound_to 7965
  145.0786  140.9205  143.4839 LP  0  0  0  0  0  0  0  0  0  0  0  0  # atno 17321 bound_to 7965
  140.6944  143.7785  150.7304 LP  0  0  0  0  0  0  0  0  0  0  0  0  # atno 17342 bound_to 10162
  140.1277  143.4554  152.2274 LP  0  0  0  0  0  0  0  0  0  0  0  0  # atno 17343 bound_to 10162
  157.6573  130.8935  149.9755 LP  0  0  0  0  0  0  0  0  0  0  0  0  # atno 17370 bound_to 10713
  156.1124  130.3649  150.0026 LP  0  0  0  0  0  0  0  0  0  0  0  0  # atno 17371 bound_to 10713
  140.7363  133.9016  155.8246 LP  0  0  0  0  0  0  0  0  0  0  0  0  # atno 17394 bound_to 11000
  141.0113  134.1016  157.4218 LP  0  0  0  0  0  0  0  0  0  0  0  0  # atno 17395 bound_to 11000

$$$$
