AV-unprocessed.smi:326|AV-procd|sdf|2345|dock9
  -GOLD-   2262022253D 1   1.00000     0.00000
 Structure written by MMmdl.
 44 45  0  0  0  0  0  0  0  0  1 V2000
  147.4523  141.7637  154.6453 C   0  0  0  0  0  0  0  0  0  0  0  0
  148.7621  141.3660  154.2811 O   0  0  0  0  0  0  0  0  0  0  0  0
  149.4824  140.8056  155.3673 C   0  0  0  0  0  0  0  0  0  0  0  0
  148.7803  139.5217  155.8377 C   0  0  0  0  0  0  0  0  0  0  0  0
  149.4900  138.8908  156.9559 N   0  0  0  0  0  0  0  0  0  0  0  0
  150.6250  139.5740  157.3577 N   0  0  0  0  0  0  0  0  0  0  0  0
  151.3462  139.1220  158.3322 C   0  0  0  0  0  0  0  0  0  0  0  0
  152.5725  139.8292  158.7926 C   0  0  0  0  0  0  0  0  0  0  0  0
  153.7023  139.4240  158.5144 O   0  0  0  0  0  0  0  0  0  0  0  0
  152.3517  140.9277  159.5364 N   0  0  0  0  0  0  0  0  0  0  0  0
  153.3768  141.7678  160.1511 C   0  0  2  0  0  0  0  0  0  0  0  0
  152.9386  142.2305  161.5558 C   0  0  0  0  0  0  0  0  0  0  0  0
  151.7698  143.2309  161.4987 C   0  0  0  0  0  0  0  0  0  0  0  0
  152.1007  144.4421  160.6054 C   0  0  2  0  0  0  0  0  0  0  0  0
  150.9306  145.4341  160.5463 C   0  0  0  0  0  0  0  0  0  0  0  0
  152.5137  143.9767  159.1960 C   0  0  0  0  0  0  0  0  0  0  0  0
  153.6834  142.9774  159.2479 C   0  0  0  0  0  0  0  0  0  0  0  0
  150.9798  137.8973  159.0231 C   0  0  0  0  0  0  0  0  0  0  0  0
  149.8734  137.2377  158.6153 C   0  0  0  0  0  0  0  0  0  0  0  0
  149.0449  137.7232  157.5104 C   0  0  0  0  0  0  0  0  0  0  0  0
  148.0398  137.1343  157.1132 O   0  0  0  0  0  0  0  0  0  0  0  0
  146.9439  142.1860  153.7784 H   0  0  0  0  0  0  0  0  0  0  0  0
  147.4742  142.5241  155.4269 H   0  0  0  0  0  0  0  0  0  0  0  0
  146.8658  140.9144  154.9987 H   0  0  0  0  0  0  0  0  0  0  0  0
  150.4972  140.5677  155.0456 H   0  0  0  0  0  0  0  0  0  0  0  0
  149.5622  141.5234  156.1855 H   0  0  0  0  0  0  0  0  0  0  0  0
  147.7513  139.7501  156.1216 H   0  0  0  0  0  0  0  0  0  0  0  0
  148.6994  138.8212  155.0049 H   0  0  0  0  0  0  0  0  0  0  0  0
  151.3915  141.1884  159.7101 H   0  0  0  0  0  0  0  0  0  0  0  0
  154.2936  141.1832  160.2461 H   0  0  0  0  0  0  0  0  0  0  0  0
  152.6656  141.3719  162.1707 H   0  0  0  0  0  0  0  0  0  0  0  0
  153.7854  142.7017  162.0562 H   0  0  0  0  0  0  0  0  0  0  0  0
  150.8760  142.7291  161.1252 H   0  0  0  0  0  0  0  0  0  0  0  0
  151.5312  143.5674  162.5083 H   0  0  0  0  0  0  0  0  0  0  0  0
  152.9503  144.9635  161.0490 H   0  0  0  0  0  0  0  0  0  0  0  0
  150.0433  144.9753  160.1093 H   0  0  0  0  0  0  0  0  0  0  0  0
  151.1859  146.3060  159.9435 H   0  0  0  0  0  0  0  0  0  0  0  0
  150.6659  145.7893  161.5426 H   0  0  0  0  0  0  0  0  0  0  0  0
  151.6607  143.5184  158.6934 H   0  0  0  0  0  0  0  0  0  0  0  0
  152.7987  144.8369  158.5894 H   0  0  0  0  0  0  0  0  0  0  0  0
  154.5698  143.4886  159.6253 H   0  0  0  0  0  0  0  0  0  0  0  0
  153.9337  142.6424  158.2405 H   0  0  0  0  0  0  0  0  0  0  0  0
  151.5737  137.5159  159.8412 H   0  0  0  0  0  0  0  0  0  0  0  0
  149.5903  136.3248  159.1183 H   0  0  0  0  0  0  0  0  0  0  0  0
  1  2  1  0  0  0  0
  1 22  1  0  0  0  0
  1 23  1  0  0  0  0
  1 24  1  0  0  0  0
  2  3  1  0  0  0  0
  3  4  1  0  0  0  0
  3 25  1  0  0  0  0
  3 26  1  0  0  0  0
  4  5  1  0  0  0  0
  4 27  1  0  0  0  0
  4 28  1  0  0  0  0
  5 20  1  0  0  0  0
  5  6  1  0  0  0  0
  6  7  2  0  0  0  0
  7  8  1  0  0  0  0
  7 18  1  0  0  0  0
  8  9  2  0  0  0  0
  8 10  1  0  0  0  0
 10 11  1  0  0  0  0
 10 29  1  0  0  0  0
 11 17  1  0  0  0  0
 11 12  1  0  0  0  0
 11 30  1  0  0  0  0
 12 13  1  0  0  0  0
 12 31  1  0  0  0  0
 12 32  1  0  0  0  0
 13 14  1  0  0  0  0
 13 33  1  0  0  0  0
 13 34  1  0  0  0  0
 14 15  1  0  0  0  0
 14 16  1  0  0  0  0
 14 35  1  0  0  0  0
 15 36  1  0  0  0  0
 15 37  1  0  0  0  0
 15 38  1  0  0  0  0
 16 17  1  0  0  0  0
 16 39  1  0  0  0  0
 16 40  1  0  0  0  0
 17 41  1  0  0  0  0
 17 42  1  0  0  0  0
 18 19  2  0  0  0  0
 18 43  1  0  0  0  0
 19 20  1  0  0  0  0
 19 44  1  0  0  0  0
 20 21  2  0  0  0  0
M  END
> <s_m_source_file>
AV-unprocessed.smi

> <i_m_source_file_index>
326

> <i_lp_mmshare_version>
43012

> <i_f3d_flags>
0

> <s_epik_input>
W0NIM11PW0NIMl1bQ0gyXW4xbmMoW2NIXVtjSF1jMT1PKUMoPU8pW05IXVtDQEBIXTJbQ0gyXVtDSDJdW0NAQEhdKFtDSDNdKVtDSDJdW0NIMl0y

> <s_epik_cmdline>
J2VwaWtfcHl0aG9uJywgJy1waCcsICc3LjAnLCAnLXRuJywgJzgnLCAnLW1hJywgJzIwMCcsICctbWV0YWxfYmluZGluZycsICctaW1hZScsICc8aW5maWxlLm1hZT4nLCAnLW9tYWUnLCAnPG91dGZpbGUubWFlPic=

> <r_lp_tautomer_probability>
1

> <r_epik_Ionization_Penalty>
6.47102e-07

> <r_epik_Ionization_Penalty_Charging>
6.8576e-09

> <r_epik_Ionization_Penalty_Neutral>
6.40245e-07

> <r_epik_State_Penalty>
-0

> <r_epik_Charging_Adjusted_Penalty>
6.8576e-09

> <i_epik_Tot_Q>
0

> <i_epik_Tot_abs_Q>
0

> <r_epik_Metal_State_Penalty>
-0

> <b_epik_Metal_Only>
0

> <s_lp_Force_Field>
OPLS_2005

> <r_lp_Energy>
28.5252

> <b_lp_Chiralities_Consistent>
1

> <s_lp_Variant>
AV-unprocessed.smi:326-2

> <Gold.Version>
5.8.1

> <Gold.Id.Protein>
6NUR|6NUR_protein|mol2

> <Gold.PLP.Fitness>
41.0771

> <Gold.PLP.PLP>
-39.1272

> <Gold.PLP.part.hbond>
-3.0000

> <Gold.PLP.part.metal>
0.0000

> <Gold.PLP.part.buried>
-4.1543

> <Gold.PLP.part.nonpolar>
-32.2255

> <Gold.PLP.part.repulsive>
0.9915

> <Gold.PLP.ligand.clash>
0.0000

> <Gold.PLP.ligand.torsion>
1.7329

> <Gold.PLP.Chemscore.Hbond>
1.8000

> <Gold.PLP.Chemscore.CHOScore>
0.0000

> <Gold.PLP.Chemscore.Metal>
0.0000

> <Gold.Chemscore.Hbonds>
donor molecule, donor type, donor heavy atom, donor atom, acceptor molecule, acceptor atom, score
      P1  H  7997  8010       L1     9  1.00

> <Gold.PLP.Chemscore.Internal.Correction>
0.0157

> <Gold.Rescore>
     Score         DG    S(hbond)    S(metal)    S(lipo)     H(rot)  DE(clash)    DE(int)     intcor
     17.96     -20.30       1.66        0.00     113.19       1.55       0.71       1.63       ----

> <Gold.Chemscore.Fitness>
17.9590

> <Gold.Chemscore.DG>
-20.3001

> <Gold.Chemscore.ZeroCoef>
-5.4800

> <Gold.Chemscore.Hbond>
1.6585

> <Gold.Chemscore.Metal>
0.0000

> <Gold.Chemscore.Lipo>
113.1879

> <Gold.Chemscore.Internal_Hbond>
0.0000

> <Gold.Chemscore.DEClash>
0.7130

> <Gold.Chemscore.DEInternal>
1.6281

> <Gold.Chemscore.Rot>
1.5478

> <Gold.Chemscore.Internal.Correction>
   9.000000E+99

> <Gold.Chemscore.Hbonds>
donor molecule, donor type, donor heavy atom, donor atom, acceptor molecule, acceptor atom, score
      P1  H  7997  8010       L1     9  1.00
      P1  H  8011  8017       L1     2  0.04

> <Gold.Chemscore.Hbond.Weighted>
-5.5394

> <Gold.Chemscore.Metal.Weighted>
-0.0000

> <Gold.Chemscore.Lipo.Weighted>
-13.2430

> <Gold.Chemscore.Internal_Hbond.Weighted>
0.0000

> <Gold.Chemscore.DEClash.Weighted>
0.7130

> <Gold.Chemscore.DEInternal.Weighted>
1.6281

> <Gold.Chemscore.Rot.Weighted>
3.9623

> <Gold.Chemscore.Internal.Correction.Weighted>
   9.000000E+99

> <Gold.Protein.RotatedTorsions>
[ 6907 6896 6895 6894 ] final  174.15 input  -60.11 | X-H torsion
[ 7974 7965 7964 7962 ] final  -39.89 input  175.53 | X-H torsion
[ 8008 7997 7996 7995 ] final   22.07 input   59.86 | X-H torsion
[ 10167 10162 10161 10158 ] final -137.49 input  -65.29 | X-H torsion
[ 10718 10713 10712 10709 ] final   71.89 input   66.30 | X-H torsion
[ 10763 10752 10751 10750 ] final  115.60 input  -60.55 | X-H torsion
[ 11005 11000 10999 10996 ] final   71.62 input  -57.11 | X-H torsion

> <Gold.Protein.ActiveResidues>
 VAL166  LYS551  ARG553  GLY616  TRP617  ASP618  TYR619  PRO620  LYS621  CYS622 
 ASP623  PHE694  ASN695  SER759  ASP760  ASP761  ALA762  ILE779  LEU786  VAL792 
 PHE793  MET794  SER795  GLU796  ALA797  LYS798  CYS799  TRP800  GLU811  SER814 

> <Gold.Protein.RotatedAtoms>
  151.7569  133.3331  159.3406 H   0  0  0  0  0  0  0  0  0  0  0  0  # atno 6907 bound_to 6896
  150.7513  134.6141  159.6111 H   0  0  0  0  0  0  0  0  0  0  0  0  # atno 6908 bound_to 6896
  152.3431  134.7110  160.0309 H   0  0  0  0  0  0  0  0  0  0  0  0  # atno 6909 bound_to 6896
  146.0355  140.6677  142.9112 H   0  0  0  0  0  0  0  0  0  0  0  0  # atno 7974 bound_to 7965
  154.9602  140.3077  155.5034 H   0  0  0  0  0  0  0  0  0  0  0  0  # atno 8008 bound_to 7997
  156.2978  140.2303  156.4625 H   0  0  0  0  0  0  0  0  0  0  0  0  # atno 8009 bound_to 7997
  154.7972  140.0436  157.1234 H   0  0  0  0  0  0  0  0  0  0  0  0  # atno 8010 bound_to 7997
  139.8573  143.7122  152.2653 H   0  0  0  0  0  0  0  0  0  0  0  0  # atno 10167 bound_to 10162
  157.6474  130.9551  150.0852 H   0  0  0  0  0  0  0  0  0  0  0  0  # atno 10718 bound_to 10713
  153.5247  135.3590  155.2648 H   0  0  0  0  0  0  0  0  0  0  0  0  # atno 10763 bound_to 10752
  154.8732  135.4054  154.3220 H   0  0  0  0  0  0  0  0  0  0  0  0  # atno 10764 bound_to 10752
  153.3897  135.7071  153.6571 H   0  0  0  0  0  0  0  0  0  0  0  0  # atno 10765 bound_to 10752
  139.9534  134.7187  156.0810 H   0  0  0  0  0  0  0  0  0  0  0  0  # atno 11005 bound_to 11000
  144.7050  140.3813  143.7126 LP  0  0  0  0  0  0  0  0  0  0  0  0  # atno 17320 bound_to 7965
  145.6971  139.1652  143.2614 LP  0  0  0  0  0  0  0  0  0  0  0  0  # atno 17321 bound_to 7965
  139.7408  144.7560  151.0656 LP  0  0  0  0  0  0  0  0  0  0  0  0  # atno 17342 bound_to 10162
  140.7780  143.4975  150.9813 LP  0  0  0  0  0  0  0  0  0  0  0  0  # atno 17343 bound_to 10162
  156.1817  130.3650  149.9026 LP  0  0  0  0  0  0  0  0  0  0  0  0  # atno 17370 bound_to 10713
  156.6977  130.8921  151.3596 LP  0  0  0  0  0  0  0  0  0  0  0  0  # atno 17371 bound_to 10713
  141.1201  133.6615  156.3193 LP  0  0  0  0  0  0  0  0  0  0  0  0  # atno 17394 bound_to 11000
  140.5666  134.5881  157.5447 LP  0  0  0  0  0  0  0  0  0  0  0  0  # atno 17395 bound_to 11000

$$$$
