AV-unprocessed.smi:2714|AV-procd|sdf|10481|dock4
  -GOLD-   2272014523D 1   1.00000     0.00000
 Structure written by MMmdl.
 46 47  0  0  0  0  0  0  0  0  1 V2000
  151.9661  143.9922  161.2528 C   0  0  0  0  0  0  0  0  0  0  0  0
  151.9892  145.3207  160.4893 C   0  0  0  0  0  0  0  0  0  0  0  0
  151.2323  145.2429  159.1506 C   0  0  0  0  0  0  0  0  0  0  0  0
  151.6329  144.0439  158.2625 C   0  0  1  0  0  0  0  0  0  0  0  0
  153.1155  143.6838  158.4601 C   0  0  0  0  0  0  0  0  0  0  0  0
  150.7560  142.8115  158.5281 C   0  0  0  0  0  0  0  0  0  0  0  0
  151.0329  142.0433  159.4494 O   0  0  0  0  0  0  0  0  0  0  0  0
  149.7069  142.6384  157.7090 N   0  0  0  0  0  0  0  0  0  0  0  0
  148.7800  141.5117  157.7326 C   0  0  0  0  0  0  0  0  0  0  0  0
  148.8021  140.7274  156.4274 C   0  0  0  0  0  0  0  0  0  0  0  0
  148.4933  141.3870  155.2184 C   0  0  0  0  0  0  0  0  0  0  0  0
  148.5391  140.6673  154.0106 C   0  0  0  0  0  0  0  0  0  0  0  0
  148.8967  139.3078  154.0585 C   0  0  0  0  0  0  0  0  0  0  0  0
  149.1942  138.6626  155.2051 N   0  0  0  0  0  0  0  0  0  0  0  0
  149.1510  139.3519  156.3716 C   0  0  0  0  0  0  0  0  0  0  0  0
  149.4416  138.6440  157.5502 N   0  0  0  0  0  0  0  0  0  0  0  0
  150.8320  138.2412  157.7271 C   0  0  0  0  0  0  0  0  0  0  0  0
  151.0249  137.6339  159.1269 C   0  0  0  0  0  0  0  0  0  0  0  0
  150.1218  136.5454  159.3010 O   0  0  0  0  0  0  0  0  0  0  0  0
  148.7612  136.9572  159.2000 C   0  0  0  0  0  0  0  0  0  0  0  0
  148.5019  137.5611  157.8086 C   0  0  0  0  0  0  0  0  0  0  0  0
  152.5056  144.0767  162.1963 H   0  0  0  0  0  0  0  0  0  0  0  0
  152.4331  143.1957  160.6728 H   0  0  0  0  0  0  0  0  0  0  0  0
  150.9444  143.6871  161.4804 H   0  0  0  0  0  0  0  0  0  0  0  0
  151.5580  146.0969  161.1220 H   0  0  0  0  0  0  0  0  0  0  0  0
  153.0246  145.6108  160.3071 H   0  0  0  0  0  0  0  0  0  0  0  0
  150.1641  145.1788  159.3614 H   0  0  0  0  0  0  0  0  0  0  0  0
  151.3698  146.1752  158.6001 H   0  0  0  0  0  0  0  0  0  0  0  0
  151.5051  144.3391  157.2196 H   0  0  0  0  0  0  0  0  0  0  0  0
  153.4009  142.8241  157.8522 H   0  0  0  0  0  0  0  0  0  0  0  0
  153.3350  143.4432  159.5011 H   0  0  0  0  0  0  0  0  0  0  0  0
  153.7600  144.5143  158.1714 H   0  0  0  0  0  0  0  0  0  0  0  0
  149.5593  143.3274  156.9859 H   0  0  0  0  0  0  0  0  0  0  0  0
  148.9763  140.8374  158.5670 H   0  0  0  0  0  0  0  0  0  0  0  0
  147.7784  141.9072  157.9036 H   0  0  0  0  0  0  0  0  0  0  0  0
  148.2288  142.4344  155.2124 H   0  0  0  0  0  0  0  0  0  0  0  0
  148.3090  141.1465  153.0706 H   0  0  0  0  0  0  0  0  0  0  0  0
  148.9446  138.7220  153.1525 H   0  0  0  0  0  0  0  0  0  0  0  0
  151.1080  137.5080  156.9677 H   0  0  0  0  0  0  0  0  0  0  0  0
  151.4851  139.1054  157.5990 H   0  0  0  0  0  0  0  0  0  0  0  0
  152.0463  137.2714  159.2422 H   0  0  0  0  0  0  0  0  0  0  0  0
  150.8627  138.3827  159.9033 H   0  0  0  0  0  0  0  0  0  0  0  0
  148.1162  136.0932  159.3597 H   0  0  0  0  0  0  0  0  0  0  0  0
  148.5292  137.6763  159.9867 H   0  0  0  0  0  0  0  0  0  0  0  0
  147.4769  137.9280  157.7462 H   0  0  0  0  0  0  0  0  0  0  0  0
  148.6160  136.7937  157.0417 H   0  0  0  0  0  0  0  0  0  0  0  0
  1  2  1  0  0  0  0
  1 22  1  0  0  0  0
  1 23  1  0  0  0  0
  1 24  1  0  0  0  0
  2  3  1  0  0  0  0
  2 25  1  0  0  0  0
  2 26  1  0  0  0  0
  3  4  1  0  0  0  0
  3 27  1  0  0  0  0
  3 28  1  0  0  0  0
  4  5  1  0  0  0  0
  4  6  1  0  0  0  0
  4 29  1  0  0  0  0
  5 30  1  0  0  0  0
  5 31  1  0  0  0  0
  5 32  1  0  0  0  0
  6  7  2  0  0  0  0
  6  8  1  0  0  0  0
  8  9  1  0  0  0  0
  8 33  1  0  0  0  0
  9 10  1  0  0  0  0
  9 34  1  0  0  0  0
  9 35  1  0  0  0  0
 10 15  1  0  0  0  0
 10 11  2  0  0  0  0
 11 12  1  0  0  0  0
 11 36  1  0  0  0  0
 12 13  2  0  0  0  0
 12 37  1  0  0  0  0
 13 14  1  0  0  0  0
 13 38  1  0  0  0  0
 14 15  2  0  0  0  0
 15 16  1  0  0  0  0
 16 21  1  0  0  0  0
 16 17  1  0  0  0  0
 17 18  1  0  0  0  0
 17 39  1  0  0  0  0
 17 40  1  0  0  0  0
 18 19  1  0  0  0  0
 18 41  1  0  0  0  0
 18 42  1  0  0  0  0
 19 20  1  0  0  0  0
 20 21  1  0  0  0  0
 20 43  1  0  0  0  0
 20 44  1  0  0  0  0
 21 45  1  0  0  0  0
 21 46  1  0  0  0  0
M  END
> <s_m_source_file>
AV-unprocessed.smi

> <i_m_source_file_index>
2714

> <i_lp_mmshare_version>
43012

> <i_f3d_flags>
0

> <s_epik_input>
W0NIM11bQ0gyXVtDSDJdW0NASF0oW0NIM10pQyg9TylbTkhdW0NIMl1jMVtjSF1bY0hdW2NIXW5jMU4yW0NIMl1bQ0gyXU9bQ0gyXVtDSDJdMg==

> <s_epik_cmdline>
J2VwaWtfcHl0aG9uJywgJy1waCcsICc3LjAnLCAnLXRuJywgJzgnLCAnLW1hJywgJzIwMCcsICctbWV0YWxfYmluZGluZycsICctaW1hZScsICc8aW5maWxlLm1hZT4nLCAnLW9tYWUnLCAnPG91dGZpbGUubWFlPic=

> <r_lp_tautomer_probability>
1

> <r_epik_Ionization_Penalty>
0.00517355

> <r_epik_Ionization_Penalty_Charging>
0

> <r_epik_Ionization_Penalty_Neutral>
0.00517355

> <r_epik_State_Penalty>
0.00376978

> <r_epik_Charging_Adjusted_Penalty>
0.00376978

> <i_epik_Tot_Q>
0

> <i_epik_Tot_abs_Q>
0

> <r_epik_Metal_State_Penalty>
-0

> <b_epik_Metal_Only>
0

> <s_lp_Force_Field>
OPLS_2005

> <r_lp_Energy>
17.5243

> <b_lp_Chiralities_Consistent>
1

> <s_lp_Variant>
AV-unprocessed.smi:2714-2

> <Gold.Version>
5.8.1

> <Gold.Id.Protein>
6NUR|6NUR_protein|mol2

> <Gold.PLP.Fitness>
44.3590

> <Gold.PLP.PLP>
-37.1092

> <Gold.PLP.part.hbond>
-3.0000

> <Gold.PLP.part.metal>
0.0000

> <Gold.PLP.part.buried>
-3.8598

> <Gold.PLP.part.nonpolar>
-30.6225

> <Gold.PLP.part.repulsive>
0.1285

> <Gold.PLP.ligand.clash>
0.0000

> <Gold.PLP.ligand.torsion>
1.1247

> <Gold.PLP.Chemscore.Hbond>
2.0000

> <Gold.PLP.Chemscore.CHOScore>
1.0775

> <Gold.PLP.Chemscore.Metal>
0.0000

> <Gold.Chemscore.Hbonds>
donor molecule, donor type, donor heavy atom, donor atom, acceptor molecule, acceptor atom, score
      L1  H     8    33       P1  8028  1.00
      P1  H  6896  6909       L1    19  1.00
      L1  C    13    38       P1  7948  0.39
      L1  C    13    38       P1  7957  0.69

> <Gold.PLP.Chemscore.Internal.Correction>
0.2668

> <Gold.Rescore>
     Score         DG    S(hbond)    S(metal)    S(lipo)     H(rot)  DE(clash)    DE(int)     intcor
     16.95     -19.61       1.97        0.00     102.30       1.72       0.15       2.51       ----

> <Gold.Chemscore.Fitness>
16.9528

> <Gold.Chemscore.DG>
-19.6144

> <Gold.Chemscore.ZeroCoef>
-5.4800

> <Gold.Chemscore.Hbond>
1.9659

> <Gold.Chemscore.Metal>
0.0000

> <Gold.Chemscore.Lipo>
102.3021

> <Gold.Chemscore.Internal_Hbond>
0.0000

> <Gold.Chemscore.DEClash>
0.1540

> <Gold.Chemscore.DEInternal>
2.5076

> <Gold.Chemscore.Rot>
1.7192

> <Gold.Chemscore.Internal.Correction>
   9.000000E+99

> <Gold.Chemscore.Hbonds>
donor molecule, donor type, donor heavy atom, donor atom, acceptor molecule, acceptor atom, score
      L1  H     8    33       P1  8028  0.91
      P1  H  6896  6909       L1    19  0.74

> <Gold.Chemscore.Hbond.Weighted>
-6.5662

> <Gold.Chemscore.Metal.Weighted>
-0.0000

> <Gold.Chemscore.Lipo.Weighted>
-11.9693

> <Gold.Chemscore.Internal_Hbond.Weighted>
0.0000

> <Gold.Chemscore.DEClash.Weighted>
0.1540

> <Gold.Chemscore.DEInternal.Weighted>
2.5076

> <Gold.Chemscore.Rot.Weighted>
4.4011

> <Gold.Chemscore.Internal.Correction.Weighted>
   9.000000E+99

> <Gold.Protein.RotatedTorsions>
[ 6907 6896 6895 6894 ] final   86.97 input  -60.11 | X-H torsion
[ 7974 7965 7964 7962 ] final  163.73 input  175.53 | X-H torsion
[ 8008 7997 7996 7995 ] final  170.50 input   59.86 | X-H torsion
[ 10167 10162 10161 10158 ] final  154.08 input  -65.29 | X-H torsion
[ 10718 10713 10712 10709 ] final  -78.26 input   66.30 | X-H torsion
[ 10763 10752 10751 10750 ] final -153.37 input  -60.55 | X-H torsion
[ 11005 11000 10999 10996 ] final  -52.05 input  -57.11 | X-H torsion

> <Gold.Protein.ActiveResidues>
 VAL166  LYS551  ARG553  GLY616  TRP617  ASP618  TYR619  PRO620  LYS621  CYS622 
 ASP623  PHE694  ASN695  SER759  ASP760  ASP761  ALA762  ILE779  LEU786  VAL792 
 PHE793  MET794  SER795  GLU796  ALA797  LYS798  CYS799  TRP800  GLU811  SER814 

> <Gold.Protein.RotatedAtoms>
  152.5403  134.2348  159.8838 H   0  0  0  0  0  0  0  0  0  0  0  0  # atno 6907 bound_to 6896
  151.2319  133.4439  159.2611 H   0  0  0  0  0  0  0  0  0  0  0  0  # atno 6908 bound_to 6896
  151.0708  134.9810  159.8363 H   0  0  0  0  0  0  0  0  0  0  0  0  # atno 6909 bound_to 6896
  144.7576  139.8224  143.6344 H   0  0  0  0  0  0  0  0  0  0  0  0  # atno 7974 bound_to 7965
  156.1359  140.1536  156.8995 H   0  0  0  0  0  0  0  0  0  0  0  0  # atno 8008 bound_to 7997
  154.4947  140.0841  156.7710 H   0  0  0  0  0  0  0  0  0  0  0  0  # atno 8009 bound_to 7997
  155.4169  140.3421  155.4270 H   0  0  0  0  0  0  0  0  0  0  0  0  # atno 8010 bound_to 7997
  139.4824  144.5217  151.7865 H   0  0  0  0  0  0  0  0  0  0  0  0  # atno 10167 bound_to 10162
  156.0122  130.4513  150.3470 H   0  0  0  0  0  0  0  0  0  0  0  0  # atno 10718 bound_to 10713
  154.7932  135.3214  154.7728 H   0  0  0  0  0  0  0  0  0  0  0  0  # atno 10763 bound_to 10752
  153.8412  135.6871  153.4807 H   0  0  0  0  0  0  0  0  0  0  0  0  # atno 10764 bound_to 10752
  153.1612  135.4660  154.9715 H   0  0  0  0  0  0  0  0  0  0  0  0  # atno 10765 bound_to 10752
  141.0904  133.6634  156.3968 H   0  0  0  0  0  0  0  0  0  0  0  0  # atno 11005 bound_to 11000
  146.1605  139.4717  142.9991 LP  0  0  0  0  0  0  0  0  0  0  0  0  # atno 17320 bound_to 7965
  145.6725  141.0213  143.1650 LP  0  0  0  0  0  0  0  0  0  0  0  0  # atno 17321 bound_to 7965
  140.4732  144.1557  150.5921 LP  0  0  0  0  0  0  0  0  0  0  0  0  # atno 17342 bound_to 10162
  140.4359  143.2547  151.9535 LP  0  0  0  0  0  0  0  0  0  0  0  0  # atno 17343 bound_to 10162
  157.1563  131.0334  151.2861 LP  0  0  0  0  0  0  0  0  0  0  0  0  # atno 17370 bound_to 10713
  157.4349  130.7511  149.7020 LP  0  0  0  0  0  0  0  0  0  0  0  0  # atno 17371 bound_to 10713
  140.5265  134.6253  157.5336 LP  0  0  0  0  0  0  0  0  0  0  0  0  # atno 17394 bound_to 11000
  139.9729  134.7263  156.0006 LP  0  0  0  0  0  0  0  0  0  0  0  0  # atno 17395 bound_to 11000

$$$$
