AV-unprocessed.smi:2244|AV-procd|sdf|9074|dock4
  -GOLD-   2272012283D 1   1.00000     0.00000
 Structure written by MMmdl.
 49 51  0  0  0  0  0  0  0  0  1 V2000
  150.0481  131.4038  154.8370 C   0  0  0  0  0  0  0  0  0  0  0  0
  149.0786  132.5976  154.6823 C   0  0  0  0  0  0  0  0  0  0  0  0
  149.0677  132.9942  153.1912 C   0  0  0  0  0  0  0  0  0  0  0  0
  147.6766  132.1148  155.1082 C   0  0  0  0  0  0  0  0  0  0  0  0
  149.4934  133.8065  155.5402 C   0  0  0  0  0  0  0  0  0  0  0  0
  149.8766  135.0505  154.9908 C   0  0  0  0  0  0  0  0  0  0  0  0
  150.2412  136.0744  155.8811 C   0  0  0  0  0  0  0  0  0  0  0  0
  150.2036  135.8117  157.2653 C   0  0  0  0  0  0  0  0  0  0  0  0
  150.6023  136.9018  158.0927 N   0  0  0  0  0  0  0  0  0  0  0  0
  151.4147  137.9532  157.8534 C   0  0  0  0  0  0  0  0  0  0  0  0
  151.9565  138.0976  156.7588 O   0  0  0  0  0  0  0  0  0  0  0  0
  151.5835  138.8181  158.8674 N   0  0  0  0  0  0  0  0  0  0  0  0
  152.4216  140.0124  158.8368 C   0  0  2  0  0  0  0  0  0  0  0  0
  153.4042  140.0136  160.0190 C   0  0  0  0  0  0  0  0  0  0  0  0
  154.1656  141.3467  160.0905 C   0  0  0  0  0  0  0  0  0  0  0  0
  153.2463  142.4313  160.1666 O   0  0  0  0  0  0  0  0  0  0  0  0
  152.4073  142.5354  159.0201 C   0  0  2  0  0  0  0  0  0  0  0  0
  151.5630  143.7863  159.1622 C   0  0  0  0  0  0  0  0  0  0  0  0
  151.3410  144.7051  157.9835 C   0  0  0  0  0  0  0  0  0  0  0  0
  152.2003  145.1558  159.1401 C   0  0  0  0  0  0  0  0  0  0  0  0
  151.5406  141.2682  158.9043 C   0  0  0  0  0  0  0  0  0  0  0  0
  149.8253  134.5901  157.7208 N   0  0  0  0  0  0  0  0  0  0  0  0
  149.4776  133.6112  156.8811 N   0  0  0  0  0  0  0  0  0  0  0  0
  149.7372  130.5600  154.2198 H   0  0  0  0  0  0  0  0  0  0  0  0
  150.0875  131.0465  155.8669 H   0  0  0  0  0  0  0  0  0  0  0  0
  151.0620  131.6650  154.5311 H   0  0  0  0  0  0  0  0  0  0  0  0
  150.0494  133.3425  152.8684 H   0  0  0  0  0  0  0  0  0  0  0  0
  148.3528  133.7921  152.9877 H   0  0  0  0  0  0  0  0  0  0  0  0
  148.7941  132.1496  152.5578 H   0  0  0  0  0  0  0  0  0  0  0  0
  147.3625  131.2457  154.5289 H   0  0  0  0  0  0  0  0  0  0  0  0
  146.9199  132.8869  154.9643 H   0  0  0  0  0  0  0  0  0  0  0  0
  147.6599  131.8311  156.1611 H   0  0  0  0  0  0  0  0  0  0  0  0
  149.9021  135.2388  153.9287 H   0  0  0  0  0  0  0  0  0  0  0  0
  150.5443  137.0406  155.5040 H   0  0  0  0  0  0  0  0  0  0  0  0
  150.1669  136.9121  159.0034 H   0  0  0  0  0  0  0  0  0  0  0  0
  151.1017  138.6242  159.7340 H   0  0  0  0  0  0  0  0  0  0  0  0
  152.9868  140.0427  157.9034 H   0  0  0  0  0  0  0  0  0  0  0  0
  152.8608  139.8618  160.9529 H   0  0  0  0  0  0  0  0  0  0  0  0
  154.1088  139.1862  159.9294 H   0  0  0  0  0  0  0  0  0  0  0  0
  154.8048  141.3653  160.9733 H   0  0  0  0  0  0  0  0  0  0  0  0
  154.8173  141.4687  159.2241 H   0  0  0  0  0  0  0  0  0  0  0  0
  153.0301  142.6383  158.1292 H   0  0  0  0  0  0  0  0  0  0  0  0
  150.7173  143.6692  159.8374 H   0  0  0  0  0  0  0  0  0  0  0  0
  151.8439  144.4621  157.0494 H   0  0  0  0  0  0  0  0  0  0  0  0
  150.3576  145.1589  157.8796 H   0  0  0  0  0  0  0  0  0  0  0  0
  151.7901  145.9107  159.8077 H   0  0  0  0  0  0  0  0  0  0  0  0
  153.2748  145.2122  158.9764 H   0  0  0  0  0  0  0  0  0  0  0  0
  150.9049  141.3277  158.0199 H   0  0  0  0  0  0  0  0  0  0  0  0
  150.8727  141.2058  159.7651 H   0  0  0  0  0  0  0  0  0  0  0  0
  1  2  1  0  0  0  0
  1 24  1  0  0  0  0
  1 25  1  0  0  0  0
  1 26  1  0  0  0  0
  2  3  1  0  0  0  0
  2  4  1  0  0  0  0
  2  5  1  0  0  0  0
  3 27  1  0  0  0  0
  3 28  1  0  0  0  0
  3 29  1  0  0  0  0
  4 30  1  0  0  0  0
  4 31  1  0  0  0  0
  4 32  1  0  0  0  0
  5 23  1  0  0  0  0
  5  6  2  0  0  0  0
  6  7  1  0  0  0  0
  6 33  1  0  0  0  0
  7  8  2  0  0  0  0
  7 34  1  0  0  0  0
  8  9  1  0  0  0  0
  8 22  1  0  0  0  0
  9 10  1  0  0  0  0
  9 35  1  0  0  0  0
 10 11  2  0  0  0  0
 10 12  1  0  0  0  0
 12 13  1  0  0  0  0
 12 36  1  0  0  0  0
 13 21  1  0  0  0  0
 13 14  1  0  0  0  0
 13 37  1  0  0  0  0
 14 15  1  0  0  0  0
 14 38  1  0  0  0  0
 14 39  1  0  0  0  0
 15 16  1  0  0  0  0
 15 40  1  0  0  0  0
 15 41  1  0  0  0  0
 16 17  1  0  0  0  0
 17 18  1  0  0  0  0
 17 21  1  0  0  0  0
 17 42  1  0  0  0  0
 18 20  1  0  0  0  0
 18 19  1  0  0  0  0
 18 43  1  0  0  0  0
 19 20  1  0  0  0  0
 19 44  1  0  0  0  0
 19 45  1  0  0  0  0
 20 46  1  0  0  0  0
 20 47  1  0  0  0  0
 21 48  1  0  0  0  0
 21 49  1  0  0  0  0
 22 23  2  0  0  0  0
M  END
> <s_m_source_file>
AV-unprocessed.smi

> <i_m_source_file_index>
2244

> <i_lp_mmshare_version>
43012

> <i_f3d_flags>
0

> <s_epik_input>
W0NIM11DKFtDSDNdKShbQ0gzXSljMVtjSF1bY0hdYyhubjEpW05IXUMoPU8pW05IXVtDQEBIXTJbQ0gyXVtDSDJdT1tDQEhdKFtDSDJdMilbQ0hdM1tDSDJdW0NIMl0z

> <s_epik_cmdline>
J2VwaWtfcHl0aG9uJywgJy1waCcsICc3LjAnLCAnLXRuJywgJzgnLCAnLW1hJywgJzIwMCcsICctbWV0YWxfYmluZGluZycsICctaW1hZScsICc8aW5maWxlLm1hZT4nLCAnLW9tYWUnLCAnPG91dGZpbGUubWFlPic=

> <r_lp_tautomer_probability>
1

> <r_epik_Ionization_Penalty>
0.011369

> <r_epik_Ionization_Penalty_Charging>
0

> <r_epik_Ionization_Penalty_Neutral>
0.011369

> <r_epik_State_Penalty>
0.00456331

> <r_epik_Charging_Adjusted_Penalty>
0.00456331

> <i_epik_Tot_Q>
0

> <i_epik_Tot_abs_Q>
0

> <r_epik_Metal_State_Penalty>
-0

> <b_epik_Metal_Only>
0

> <s_lp_Force_Field>
OPLS_2005

> <r_lp_Energy>
27.8211

> <b_lp_Chiralities_Consistent>
1

> <s_lp_Variant>
AV-unprocessed.smi:2244-3

> <Gold.Version>
5.8.1

> <Gold.Id.Protein>
6NUR|6NUR_protein|mol2

> <Gold.PLP.Fitness>
42.2912

> <Gold.PLP.PLP>
-40.0620

> <Gold.PLP.part.hbond>
-1.0000

> <Gold.PLP.part.metal>
0.0000

> <Gold.PLP.part.buried>
-6.5759

> <Gold.PLP.part.nonpolar>
-33.3898

> <Gold.PLP.part.repulsive>
0.2150

> <Gold.PLP.ligand.clash>
0.0000

> <Gold.PLP.ligand.torsion>
0.8664

> <Gold.PLP.Chemscore.Hbond>
0.9600

> <Gold.PLP.Chemscore.CHOScore>
0.0000

> <Gold.PLP.Chemscore.Metal>
0.0000

> <Gold.Chemscore.Hbonds>
donor molecule, donor type, donor heavy atom, donor atom, acceptor molecule, acceptor atom, score
      P1  H  6896  6908       L1    22  0.94

> <Gold.PLP.Chemscore.Internal.Correction>
1.0819

> <Gold.Rescore>
     Score         DG    S(hbond)    S(metal)    S(lipo)     H(rot)  DE(clash)    DE(int)     intcor
     15.49     -17.76       0.79        0.00     110.82       1.30       0.00       2.27       ----

> <Gold.Chemscore.Fitness>
15.4902

> <Gold.Chemscore.DG>
-17.7627

> <Gold.Chemscore.ZeroCoef>
-5.4800

> <Gold.Chemscore.Hbond>
0.7919

> <Gold.Chemscore.Metal>
0.0000

> <Gold.Chemscore.Lipo>
110.8234

> <Gold.Chemscore.Internal_Hbond>
0.0000

> <Gold.Chemscore.DEClash>
0.0000

> <Gold.Chemscore.DEInternal>
2.2726

> <Gold.Chemscore.Rot>
1.3002

> <Gold.Chemscore.Internal.Correction>
   9.000000E+99

> <Gold.Chemscore.Hbonds>
donor molecule, donor type, donor heavy atom, donor atom, acceptor molecule, acceptor atom, score
      P1  H  6896  6908       L1    22  0.75

> <Gold.Chemscore.Hbond.Weighted>
-2.6448

> <Gold.Chemscore.Metal.Weighted>
-0.0000

> <Gold.Chemscore.Lipo.Weighted>
-12.9663

> <Gold.Chemscore.Internal_Hbond.Weighted>
0.0000

> <Gold.Chemscore.DEClash.Weighted>
0.0000

> <Gold.Chemscore.DEInternal.Weighted>
2.2726

> <Gold.Chemscore.Rot.Weighted>
3.3284

> <Gold.Chemscore.Internal.Correction.Weighted>
   9.000000E+99

> <Gold.Protein.RotatedTorsions>
[ 6907 6896 6895 6894 ] final  133.65 input  -60.11 | X-H torsion
[ 7974 7965 7964 7962 ] final -116.19 input  175.53 | X-H torsion
[ 8008 7997 7996 7995 ] final  -41.00 input   59.86 | X-H torsion
[ 10167 10162 10161 10158 ] final   20.80 input  -65.29 | X-H torsion
[ 10718 10713 10712 10709 ] final -129.18 input   66.30 | X-H torsion
[ 10763 10752 10751 10750 ] final    1.34 input  -60.55 | X-H torsion
[ 11005 11000 10999 10996 ] final  -51.64 input  -57.11 | X-H torsion

> <Gold.Protein.ActiveResidues>
 VAL166  LYS551  ARG553  GLY616  TRP617  ASP618  TYR619  PRO620  LYS621  CYS622 
 ASP623  PHE694  ASN695  SER759  ASP760  ASP761  ALA762  ILE779  LEU786  VAL792 
 PHE793  MET794  SER795  GLU796  ALA797  LYS798  CYS799  TRP800  GLU811  SER814 

> <Gold.Protein.RotatedAtoms>
  152.3197  133.5840  159.5735 H   0  0  0  0  0  0  0  0  0  0  0  0  # atno 6907 bound_to 6896
  150.7365  134.0030  159.3653 H   0  0  0  0  0  0  0  0  0  0  0  0  # atno 6908 bound_to 6896
  151.7915  135.0735  160.0439 H   0  0  0  0  0  0  0  0  0  0  0  0  # atno 6909 bound_to 6896
  145.0997  140.8543  143.3934 H   0  0  0  0  0  0  0  0  0  0  0  0  # atno 7974 bound_to 7965
  154.4007  140.1511  156.3119 H   0  0  0  0  0  0  0  0  0  0  0  0  # atno 8008 bound_to 7997
  155.8607  140.3453  155.5733 H   0  0  0  0  0  0  0  0  0  0  0  0  # atno 8009 bound_to 7997
  155.7883  140.0853  157.2013 H   0  0  0  0  0  0  0  0  0  0  0  0  # atno 8010 bound_to 7997
  140.5476  143.9567  150.6557 H   0  0  0  0  0  0  0  0  0  0  0  0  # atno 10167 bound_to 10162
  156.2022  130.6864  151.0552 H   0  0  0  0  0  0  0  0  0  0  0  0  # atno 10718 bound_to 10713
  153.3092  135.6961  153.7131 H   0  0  0  0  0  0  0  0  0  0  0  0  # atno 10763 bound_to 10752
  153.6015  135.3461  155.2947 H   0  0  0  0  0  0  0  0  0  0  0  0  # atno 10764 bound_to 10752
  154.8571  135.4341  154.2226 H   0  0  0  0  0  0  0  0  0  0  0  0  # atno 10765 bound_to 10752
  141.0882  133.6638  156.3908 H   0  0  0  0  0  0  0  0  0  0  0  0  # atno 11005 bound_to 11000
  145.0970  139.2849  143.5706 LP  0  0  0  0  0  0  0  0  0  0  0  0  # atno 17320 bound_to 7965
  146.3530  140.0525  142.8635 LP  0  0  0  0  0  0  0  0  0  0  0  0  # atno 17321 bound_to 7965
  140.2984  143.3277  152.0995 LP  0  0  0  0  0  0  0  0  0  0  0  0  # atno 17342 bound_to 10162
  139.5014  144.6712  151.6238 LP  0  0  0  0  0  0  0  0  0  0  0  0  # atno 17343 bound_to 10162
  157.6992  131.0782  150.6874 LP  0  0  0  0  0  0  0  0  0  0  0  0  # atno 17370 bound_to 10713
  156.6932  130.4601  149.5594 LP  0  0  0  0  0  0  0  0  0  0  0  0  # atno 17371 bound_to 10713
  140.5314  134.6209  157.5351 LP  0  0  0  0  0  0  0  0  0  0  0  0  # atno 17394 bound_to 11000
  139.9703  134.7303  156.0054 LP  0  0  0  0  0  0  0  0  0  0  0  0  # atno 17395 bound_to 11000

$$$$
