AV-unprocessed.smi:1982|AV-procd|sdf|8020|dock2
  -GOLD-   2272010213D 1   1.00000     0.00000
 Structure written by MMmdl.
 36 37  0  0  0  0  0  0  0  0  1 V2000
  146.0538  141.9463  156.3419 C   0  0  0  0  0  0  0  0  0  0  0  0
  147.4818  141.3850  156.2209 C   0  0  2  0  0  0  0  0  0  0  0  0
  148.3723  141.9820  157.3305 C   0  0  0  0  0  0  0  0  0  0  0  0
  149.8090  141.4459  157.2715 C   0  0  0  0  0  0  0  0  0  0  0  0
  150.4339  141.7015  155.8927 C   0  0  0  0  0  0  0  0  0  0  0  0
  149.5744  141.1141  154.7572 C   0  0  1  0  0  0  0  0  0  0  0  0
  149.6123  139.6528  154.7830 N   0  0  0  0  0  0  0  0  0  0  0  0
  150.7149  138.8887  154.7519 C   0  0  0  0  0  0  0  0  0  0  0  0
  151.8587  139.3419  154.7619 O   0  0  0  0  0  0  0  0  0  0  0  0
  150.4898  137.3768  154.6946 C   0  0  0  0  0  0  0  0  0  0  0  0
  150.8431  136.7491  155.9552 N   0  0  0  0  0  0  0  0  0  0  0  0
  150.3125  136.8705  157.1738 C   0  0  0  0  0  0  0  0  0  0  0  0
  150.9597  136.1340  158.0640 N   0  0  0  0  0  0  0  0  0  0  0  0
  151.9517  135.5282  157.3106 N   0  0  0  0  0  0  0  0  0  0  0  0
  151.8873  135.8887  156.0583 N   0  0  0  0  0  0  0  0  0  0  0  0
  148.1118  141.6268  154.8203 C   0  0  1  0  0  0  0  0  0  0  0  0
  147.2663  141.0404  153.6703 C   0  0  0  0  0  0  0  0  0  0  0  0
  146.0254  143.0126  156.1153 H   0  0  0  0  0  0  0  0  0  0  0  0
  145.6659  141.8127  157.3522 H   0  0  0  0  0  0  0  0  0  0  0  0
  145.3616  141.4406  155.6692 H   0  0  0  0  0  0  0  0  0  0  0  0
  147.4207  140.3087  156.3884 H   0  0  0  0  0  0  0  0  0  0  0  0
  148.3895  143.0693  157.2431 H   0  0  0  0  0  0  0  0  0  0  0  0
  147.9464  141.7603  158.3097 H   0  0  0  0  0  0  0  0  0  0  0  0
  150.4133  141.9203  158.0451 H   0  0  0  0  0  0  0  0  0  0  0  0
  149.8131  140.3775  157.4904 H   0  0  0  0  0  0  0  0  0  0  0  0
  150.5393  142.7766  155.7425 H   0  0  0  0  0  0  0  0  0  0  0  0
  151.4439  141.2911  155.8572 H   0  0  0  0  0  0  0  0  0  0  0  0
  149.9986  141.4522  153.8100 H   0  0  0  0  0  0  0  0  0  0  0  0
  148.7184  139.1826  154.7793 H   0  0  0  0  0  0  0  0  0  0  0  0
  149.4432  137.1595  154.4777 H   0  0  0  0  0  0  0  0  0  0  0  0
  151.0859  136.9432  153.8902 H   0  0  0  0  0  0  0  0  0  0  0  0
  149.4653  137.4988  157.4073 H   0  0  0  0  0  0  0  0  0  0  0  0
  148.1500  142.7059  154.6629 H   0  0  0  0  0  0  0  0  0  0  0  0
  147.0644  139.9788  153.8174 H   0  0  0  0  0  0  0  0  0  0  0  0
  147.7786  141.1500  152.7139 H   0  0  0  0  0  0  0  0  0  0  0  0
  146.3081  141.5503  153.5749 H   0  0  0  0  0  0  0  0  0  0  0  0
  1  2  1  0  0  0  0
  1 18  1  0  0  0  0
  1 19  1  0  0  0  0
  1 20  1  0  0  0  0
  2 16  1  0  0  0  0
  2  3  1  0  0  0  0
  2 21  1  0  0  0  0
  3  4  1  0  0  0  0
  3 22  1  0  0  0  0
  3 23  1  0  0  0  0
  4  5  1  0  0  0  0
  4 24  1  0  0  0  0
  4 25  1  0  0  0  0
  5  6  1  0  0  0  0
  5 26  1  0  0  0  0
  5 27  1  0  0  0  0
  6  7  1  0  0  0  0
  6 16  1  0  0  0  0
  6 28  1  0  0  0  0
  7  8  1  0  0  0  0
  7 29  1  0  0  0  0
  8  9  2  0  0  0  0
  8 10  1  0  0  0  0
 10 11  1  0  0  0  0
 10 30  1  0  0  0  0
 10 31  1  0  0  0  0
 11 15  1  0  0  0  0
 11 12  1  0  0  0  0
 12 13  2  0  0  0  0
 12 32  1  0  0  0  0
 13 14  1  0  0  0  0
 14 15  2  0  0  0  0
 16 17  1  0  0  0  0
 16 33  1  0  0  0  0
 17 34  1  0  0  0  0
 17 35  1  0  0  0  0
 17 36  1  0  0  0  0
M  END
> <s_m_source_file>
AV-unprocessed.smi

> <i_m_source_file_index>
1982

> <i_lp_mmshare_version>
43012

> <i_f3d_flags>
0

> <s_epik_input>
W0NIM11bQ0BASF0xW0NIMl1bQ0gyXVtDSDJdW0NASF0oW0NASF0xW0NIM10pW05IXUMoPU8pW0NIMl1uMltjSF1ubm4y

> <s_epik_cmdline>
J2VwaWtfcHl0aG9uJywgJy1waCcsICc3LjAnLCAnLXRuJywgJzgnLCAnLW1hJywgJzIwMCcsICctbWV0YWxfYmluZGluZycsICctaW1hZScsICc8aW5maWxlLm1hZT4nLCAnLW9tYWUnLCAnPG91dGZpbGUubWFlPic=

> <r_lp_tautomer_probability>
1

> <r_epik_Ionization_Penalty>
5.03816e-07

> <r_epik_Ionization_Penalty_Charging>
0

> <r_epik_Ionization_Penalty_Neutral>
5.03816e-07

> <r_epik_State_Penalty>
-0

> <r_epik_Charging_Adjusted_Penalty>
0

> <i_epik_Tot_Q>
0

> <i_epik_Tot_abs_Q>
0

> <r_epik_Metal_State_Penalty>
-0

> <b_epik_Metal_Only>
0

> <s_lp_Force_Field>
OPLS_2005

> <r_lp_Energy>
12.4205

> <b_lp_Chiralities_Consistent>
1

> <s_lp_Variant>
AV-unprocessed.smi:1982-1

> <Gold.Version>
5.8.1

> <Gold.Id.Protein>
6NUR|6NUR_protein|mol2

> <Gold.PLP.Fitness>
34.4620

> <Gold.PLP.PLP>
-27.0421

> <Gold.PLP.part.hbond>
-4.0000

> <Gold.PLP.part.metal>
0.0000

> <Gold.PLP.part.buried>
-4.4874

> <Gold.PLP.part.nonpolar>
-19.2823

> <Gold.PLP.part.repulsive>
0.1609

> <Gold.PLP.ligand.clash>
0.0000

> <Gold.PLP.ligand.torsion>
0.1606

> <Gold.PLP.Chemscore.Hbond>
2.5760

> <Gold.PLP.Chemscore.CHOScore>
0.0000

> <Gold.PLP.Chemscore.Metal>
0.0000

> <Gold.Chemscore.Hbonds>
donor molecule, donor type, donor heavy atom, donor atom, acceptor molecule, acceptor atom, score
      P1  H  6896  6909       L1    13  0.55
      P1  H  7989  7998       L1     9  1.00
      P1  H 10752 10763       L1    15  1.00

> <Gold.PLP.Chemscore.Internal.Correction>
0.0131

> <Gold.Rescore>
     Score         DG    S(hbond)    S(metal)    S(lipo)     H(rot)  DE(clash)    DE(int)     intcor
     12.76     -13.15       2.31        0.00      41.39       1.91       0.02       0.38       ----

> <Gold.Chemscore.Fitness>
12.7555

> <Gold.Chemscore.DG>
-13.1537

> <Gold.Chemscore.ZeroCoef>
-5.4800

> <Gold.Chemscore.Hbond>
2.3085

> <Gold.Chemscore.Metal>
0.0000

> <Gold.Chemscore.Lipo>
41.3860

> <Gold.Chemscore.Internal_Hbond>
0.0000

> <Gold.Chemscore.DEClash>
0.0202

> <Gold.Chemscore.DEInternal>
0.3779

> <Gold.Chemscore.Rot>
1.9058

> <Gold.Chemscore.Internal.Correction>
   9.000000E+99

> <Gold.Chemscore.Hbonds>
donor molecule, donor type, donor heavy atom, donor atom, acceptor molecule, acceptor atom, score
      P1  H  6896  6909       L1    13  0.15
      P1  H  7989  7998       L1     9  0.28
      P1  H 10752 10763       L1    15  0.93

> <Gold.Chemscore.Hbond.Weighted>
-7.7104

> <Gold.Chemscore.Metal.Weighted>
-0.0000

> <Gold.Chemscore.Lipo.Weighted>
-4.8422

> <Gold.Chemscore.Internal_Hbond.Weighted>
0.0000

> <Gold.Chemscore.DEClash.Weighted>
0.0202

> <Gold.Chemscore.DEInternal.Weighted>
0.3779

> <Gold.Chemscore.Rot.Weighted>
4.8788

> <Gold.Chemscore.Internal.Correction.Weighted>
   9.000000E+99

> <Gold.Protein.RotatedTorsions>
[ 6907 6896 6895 6894 ] final   80.40 input  -60.11 | X-H torsion
[ 7974 7965 7964 7962 ] final  -75.64 input  175.53 | X-H torsion
[ 8008 7997 7996 7995 ] final    6.06 input   59.86 | X-H torsion
[ 10167 10162 10161 10158 ] final  -47.06 input  -65.29 | X-H torsion
[ 10718 10713 10712 10709 ] final   45.63 input   66.30 | X-H torsion
[ 10763 10752 10751 10750 ] final   93.64 input  -60.55 | X-H torsion
[ 11005 11000 10999 10996 ] final  171.89 input  -57.11 | X-H torsion

> <Gold.Protein.ActiveResidues>
 VAL166  LYS551  ARG553  GLY616  TRP617  ASP618  TYR619  PRO620  LYS621  CYS622 
 ASP623  PHE694  ASN695  SER759  ASP760  ASP761  ALA762  ILE779  LEU786  VAL792 
 PHE793  MET794  SER795  GLU796  ALA797  LYS798  CYS799  TRP800  GLU811  SER814 

> <Gold.Protein.RotatedAtoms>
  152.5233  134.3364  159.9201 H   0  0  0  0  0  0  0  0  0  0  0  0  # atno 6907 bound_to 6896
  151.3313  133.3993  159.2670 H   0  0  0  0  0  0  0  0  0  0  0  0  # atno 6908 bound_to 6896
  150.9878  134.9237  159.7939 H   0  0  0  0  0  0  0  0  0  0  0  0  # atno 6909 bound_to 6896
  145.6233  140.9357  143.1126 H   0  0  0  0  0  0  0  0  0  0  0  0  # atno 7974 bound_to 7965
  154.7362  140.2740  155.6413 H   0  0  0  0  0  0  0  0  0  0  0  0  # atno 8008 bound_to 7997
  156.2862  140.2706  156.2002 H   0  0  0  0  0  0  0  0  0  0  0  0  # atno 8009 bound_to 7997
  155.0318  140.0371  157.2466 H   0  0  0  0  0  0  0  0  0  0  0  0  # atno 8010 bound_to 7997
  140.6791  143.2802  151.3872 H   0  0  0  0  0  0  0  0  0  0  0  0  # atno 10167 bound_to 10162
  157.4396  130.8073  149.7682 H   0  0  0  0  0  0  0  0  0  0  0  0  # atno 10718 bound_to 10713
  153.2325  135.4318  155.0611 H   0  0  0  0  0  0  0  0  0  0  0  0  # atno 10763 bound_to 10752
  154.8303  135.3383  154.6766 H   0  0  0  0  0  0  0  0  0  0  0  0  # atno 10764 bound_to 10752
  153.7193  135.7018  153.5073 H   0  0  0  0  0  0  0  0  0  0  0  0  # atno 10765 bound_to 10752
  140.3238  134.7415  157.4084 H   0  0  0  0  0  0  0  0  0  0  0  0  # atno 11005 bound_to 11000
  144.7222  139.7992  143.7378 LP  0  0  0  0  0  0  0  0  0  0  0  0  # atno 17320 bound_to 7965
  146.1414  139.4472  143.0106 LP  0  0  0  0  0  0  0  0  0  0  0  0  # atno 17321 bound_to 7965
  139.6102  144.1114  152.2291 LP  0  0  0  0  0  0  0  0  0  0  0  0  # atno 17342 bound_to 10162
  140.0526  144.5921  150.7324 LP  0  0  0  0  0  0  0  0  0  0  0  0  # atno 17343 bound_to 10162
  155.9944  130.3918  150.2862 LP  0  0  0  0  0  0  0  0  0  0  0  0  # atno 17370 bound_to 10713
  157.1025  131.0199  151.3080 LP  0  0  0  0  0  0  0  0  0  0  0  0  # atno 17371 bound_to 10713
  140.0919  134.5589  155.8436 LP  0  0  0  0  0  0  0  0  0  0  0  0  # atno 17394 bound_to 11000
  141.2080  133.6669  156.6343 LP  0  0  0  0  0  0  0  0  0  0  0  0  # atno 17395 bound_to 11000

$$$$
