AV-unprocessed.smi:72|AV-procd|sdf|722|dock3
  -GOLD-   2262017 43D 1   1.00000     0.00000
 Structure written by MMmdl.
 28 29  0  0  0  0  0  0  0  0  2 V2000
  152.6373  135.7675  157.1716 N   0  0  0  0  0  0  0  0  0  0  0  0
  152.1488  136.8635  156.7851 C   0  0  0  0  0  0  0  0  0  0  0  0
  150.8483  137.2853  157.2546 N   0  0  0  0  0  0  0  0  0  0  0  0
  150.4214  138.4523  156.8814 C   0  0  0  0  0  0  0  0  0  0  0  0
  151.2292  139.3470  156.0566 N   0  0  0  0  0  0  0  0  0  0  0  0
  150.7074  140.7065  155.6032 C   0  0  1  0  0  0  0  0  0  0  0  0
  150.2967  140.6337  154.2634 O   0  0  0  0  0  0  0  0  0  0  0  0
  148.8747  140.6264  154.1428 C   0  0  1  0  0  0  0  0  0  0  0  0
  148.3206  139.1841  154.2067 C   0  0  0  0  0  0  0  0  0  0  0  0
  148.5760  138.5172  152.9889 O   0  0  0  0  0  0  0  0  0  0  0  0
  148.4708  141.5307  155.3112 C   0  0  1  0  0  0  0  0  0  0  0  0
  147.1353  141.3366  155.7344 O   0  0  0  0  0  0  0  0  0  0  0  0
  149.4673  141.1718  156.4053 C   0  0  2  0  0  0  0  0  0  0  0  0
  149.7400  142.3233  157.1788 O   0  0  0  0  0  0  0  0  0  0  0  0
  152.4477  138.8488  155.5154 C   0  0  0  0  0  0  0  0  0  0  0  0
  153.0529  139.5431  154.6992 O   0  0  0  0  0  0  0  0  0  0  0  0
  152.8902  137.6215  155.9078 N   0  5  0  0  0  0  0  0  0  0  0  0
  151.5699  141.3697  155.6873 H   0  0  0  0  0  0  0  0  0  0  0  0
  148.5780  141.0853  153.1986 H   0  0  0  0  0  0  0  0  0  0  0  0
  148.6018  142.5705  155.0062 H   0  0  0  0  0  0  0  0  0  0  0  0
  149.0873  140.3572  157.0243 H   0  0  0  0  0  0  0  0  0  0  0  0
  152.0271  135.2799  157.8113 H   0  0  0  0  0  0  0  0  0  0  0  0
  149.4384  138.8271  157.1655 H   0  0  0  0  0  0  0  0  0  0  0  0
  148.7191  138.6186  155.0474 H   0  0  0  0  0  0  0  0  0  0  0  0
  147.2375  139.1951  154.3264 H   0  0  0  0  0  0  0  0  0  0  0  0
  149.1092  139.0781  152.4464 H   0  0  0  0  0  0  0  0  0  0  0  0
  147.0941  140.5260  156.2190 H   0  0  0  0  0  0  0  0  0  0  0  0
  149.4933  143.0826  156.6716 H   0  0  0  0  0  0  0  0  0  0  0  0
  1  2  2  0  0  0  0
  1 22  1  0  0  0  0
  2 17  1  0  0  0  0
  2  3  1  0  0  0  0
  3  4  2  0  0  0  0
  4  5  1  0  0  0  0
  4 23  1  0  0  0  0
  5  6  1  0  0  0  0
  5 15  1  0  0  0  0
  6 18  1  0  0  0  0
  6 13  1  0  0  0  0
  6  7  1  0  0  0  0
  7  8  1  0  0  0  0
  8 19  1  0  0  0  0
  8  9  1  0  0  0  0
  8 11  1  0  0  0  0
  9 10  1  0  0  0  0
  9 24  1  0  0  0  0
  9 25  1  0  0  0  0
 10 26  1  0  0  0  0
 11 20  1  0  0  0  0
 11 12  1  0  0  0  0
 11 13  1  0  0  0  0
 12 27  1  0  0  0  0
 13 21  1  0  0  0  0
 13 14  1  0  0  0  0
 14 28  1  0  0  0  0
 15 16  2  0  0  0  0
 15 17  1  0  0  0  0
M  CHG  1  17  -1
M  END
> <s_m_source_file>
AV-unprocessed.smi

> <i_m_source_file_index>
72

> <i_lp_mmshare_version>
43012

> <i_f3d_flags>
0

> <s_epik_input>
W05IMl1jMW5bY0hdbihjKD1PKW4xKVtDQEBIXTJPW0NASF0oW0NIMl1bT0hdKVtDQEBIXShbT0hdKVtDQEhdMltPSF0=

> <s_epik_cmdline>
J2VwaWtfcHl0aG9uJywgJy1waCcsICc3LjAnLCAnLXRuJywgJzgnLCAnLW1hJywgJzIwMCcsICctbWV0YWxfYmluZGluZycsICctaW1hZScsICc8aW5maWxlLm1hZT4nLCAnLW9tYWUnLCAnPG91dGZpbGUubWFlPic=

> <r_lp_tautomer_probability>
7.17554e-07

> <r_epik_Ionization_Penalty>
12.8705

> <r_epik_Ionization_Penalty_Charging>
5.64144

> <r_epik_Ionization_Penalty_Neutral>
7.22905

> <r_epik_State_Penalty>
3.30104

> <r_epik_Charging_Adjusted_Penalty>
8.94249

> <i_epik_Tot_Q>
-1

> <i_epik_Tot_abs_Q>
1

> <r_epik_Metal_State_Penalty>
0.529074

> <b_epik_Metal_Only>
1

> <s_epik_Chemistry_Notes>
This compound contains an acetal/aminal-like group ( X-CH(R)-Y where X, Y are N, S, or O) that may be acid/base labile, releasing an aldehyde.

> <s_lp_Force_Field>
OPLS_2005

> <r_lp_Energy>
34.2272

> <b_lp_Chiralities_Consistent>
1

> <s_lp_Variant>
AV-unprocessed.smi:72-60

> <Gold.Version>
5.8.1

> <Gold.Id.Protein>
6NUR|6NUR_protein|mol2

> <Gold.PLP.Fitness>
37.7159

> <Gold.PLP.PLP>
-24.4157

> <Gold.PLP.part.hbond>
-7.6186

> <Gold.PLP.part.metal>
0.0000

> <Gold.PLP.part.buried>
-1.4601

> <Gold.PLP.part.nonpolar>
-15.4034

> <Gold.PLP.part.repulsive>
0.1677

> <Gold.PLP.ligand.clash>
0.0000

> <Gold.PLP.ligand.torsion>
0.3617

> <Gold.PLP.Chemscore.Hbond>
4.6426

> <Gold.PLP.Chemscore.CHOScore>
0.0000

> <Gold.PLP.Chemscore.Metal>
0.0000

> <Gold.Chemscore.Hbonds>
donor molecule, donor type, donor heavy atom, donor atom, acceptor molecule, acceptor atom, score
      L1  H    10    26       P1  7957  1.00
      L1  H    14    28       P1  8028  1.00
      P1  H  7989  7998       L1     7  0.82
      P1  H  7997  8009       L1    16  1.00
      P1  H 10752 10765       L1     1  0.62

> <Gold.PLP.Chemscore.Internal.Correction>
0.0958

> <Gold.Rescore>
     Score         DG    S(hbond)    S(metal)    S(lipo)     H(rot)  DE(clash)    DE(int)     intcor
      9.88     -10.58       3.76        0.00      24.78       4.04       0.08       0.62       ----

> <Gold.Chemscore.Fitness>
9.8757

> <Gold.Chemscore.DG>
-10.5804

> <Gold.Chemscore.ZeroCoef>
-5.4800

> <Gold.Chemscore.Hbond>
3.7559

> <Gold.Chemscore.Metal>
0.0000

> <Gold.Chemscore.Lipo>
24.7759

> <Gold.Chemscore.Internal_Hbond>
0.0000

> <Gold.Chemscore.DEClash>
0.0845

> <Gold.Chemscore.DEInternal>
0.6202

> <Gold.Chemscore.Rot>
4.0403

> <Gold.Chemscore.Internal.Correction>
   9.000000E+99

> <Gold.Chemscore.Hbonds>
donor molecule, donor type, donor heavy atom, donor atom, acceptor molecule, acceptor atom, score
      L1  H    10    26       P1  7957  0.98
      L1  H    14    28       P1  8028  0.94
      P1  H  7989  7998       L1     7  0.30
      P1  H  7997  8009       L1    16  0.44
      P1  H 10752 10765       L1     1  0.08

> <Gold.Chemscore.Hbond.Weighted>
-12.5447

> <Gold.Chemscore.Metal.Weighted>
-0.0000

> <Gold.Chemscore.Lipo.Weighted>
-2.8988

> <Gold.Chemscore.Internal_Hbond.Weighted>
0.0000

> <Gold.Chemscore.DEClash.Weighted>
0.0845

> <Gold.Chemscore.DEInternal.Weighted>
0.6202

> <Gold.Chemscore.Rot.Weighted>
10.3431

> <Gold.Chemscore.Internal.Correction.Weighted>
   9.000000E+99

> <Gold.Protein.RotatedTorsions>
[ 6907 6896 6895 6894 ] final -103.87 input  -60.11 | X-H torsion
[ 7974 7965 7964 7962 ] final   41.23 input  175.53 | X-H torsion
[ 8008 7997 7996 7995 ] final -122.17 input   59.86 | X-H torsion
[ 10167 10162 10161 10158 ] final   55.45 input  -65.29 | X-H torsion
[ 10718 10713 10712 10709 ] final -105.64 input   66.30 | X-H torsion
[ 10763 10752 10751 10750 ] final -115.07 input  -60.55 | X-H torsion
[ 11005 11000 10999 10996 ] final -161.89 input  -57.11 | X-H torsion

> <Gold.Protein.ActiveResidues>
 VAL166  LYS551  ARG553  GLY616  TRP617  ASP618  TYR619  PRO620  LYS621  CYS622 
 ASP623  PHE694  ASN695  SER759  ASP760  ASP761  ALA762  ILE779  LEU786  VAL792 
 PHE793  MET794  SER795  GLU796  ALA797  LYS798  CYS799  TRP800  GLU811  SER814 

> <Gold.Protein.RotatedAtoms>
  150.7260  134.0364  159.3750 H   0  0  0  0  0  0  0  0  0  0  0  0  # atno 6907 bound_to 6896
  151.8336  135.0611  160.0449 H   0  0  0  0  0  0  0  0  0  0  0  0  # atno 6908 bound_to 6896
  152.2915  133.5530  159.5597 H   0  0  0  0  0  0  0  0  0  0  0  0  # atno 6909 bound_to 6896
  146.0840  139.5439  142.9518 H   0  0  0  0  0  0  0  0  0  0  0  0  # atno 7974 bound_to 7965
  155.1599  140.0405  157.2840 H   0  0  0  0  0  0  0  0  0  0  0  0  # atno 8008 bound_to 7997
  154.6344  140.2532  155.7369 H   0  0  0  0  0  0  0  0  0  0  0  0  # atno 8009 bound_to 7997
  156.2501  140.2868  156.0710 H   0  0  0  0  0  0  0  0  0  0  0  0  # atno 8010 bound_to 7997
  140.2193  144.3806  150.6457 H   0  0  0  0  0  0  0  0  0  0  0  0  # atno 10167 bound_to 10162
  156.0355  130.5573  150.7567 H   0  0  0  0  0  0  0  0  0  0  0  0  # atno 10718 bound_to 10713
  154.8466  135.4395  154.1605 H   0  0  0  0  0  0  0  0  0  0  0  0  # atno 10763 bound_to 10752
  153.2743  135.6948  153.7455 H   0  0  0  0  0  0  0  0  0  0  0  0  # atno 10764 bound_to 10752
  153.6684  135.3423  155.3121 H   0  0  0  0  0  0  0  0  0  0  0  0  # atno 10765 bound_to 10752
  140.6153  134.4806  157.5219 H   0  0  0  0  0  0  0  0  0  0  0  0  # atno 11005 bound_to 11000
  145.6165  141.0330  143.1938 LP  0  0  0  0  0  0  0  0  0  0  0  0  # atno 17320 bound_to 7965
  144.7313  139.7718  143.7346 LP  0  0  0  0  0  0  0  0  0  0  0  0  # atno 17321 bound_to 7965
  140.6267  143.2182  151.6582 LP  0  0  0  0  0  0  0  0  0  0  0  0  # atno 17342 bound_to 10162
  139.5150  144.3392  152.0756 LP  0  0  0  0  0  0  0  0  0  0  0  0  # atno 17343 bound_to 10162
  157.5097  131.0924  151.0213 LP  0  0  0  0  0  0  0  0  0  0  0  0  # atno 17370 bound_to 10713
  157.0572  130.5811  149.5380 LP  0  0  0  0  0  0  0  0  0  0  0  0  # atno 17371 bound_to 10713
  139.9175  134.8216  156.1318 LP  0  0  0  0  0  0  0  0  0  0  0  0  # atno 17394 bound_to 11000
  141.0780  133.6767  156.2276 LP  0  0  0  0  0  0  0  0  0  0  0  0  # atno 17395 bound_to 11000

$$$$
