AV-unprocessed.smi:912|AV-procd|sdf|4143|dock2
  -GOLD-   22720 2 53D 1   1.00000     0.00000
 Structure written by MMmdl.
 27 27  0  0  0  0  0  0  0  0  2 V2000
  146.4840  138.3860  152.0237 C   0  0  0  0  0  0  0  0  0  0  0  0
  146.4773  136.9743  151.5733 N   0  3  0  0  0  0  0  0  0  0  0  0
  145.5435  136.0249  152.2461 C   0  0  2  0  0  0  0  0  0  0  0  0
  144.1487  136.6828  152.4151 C   0  0  0  0  0  0  0  0  0  0  0  0
  146.1622  135.6393  153.6143 C   0  0  0  0  0  0  0  0  0  0  0  0
  147.4574  135.3031  153.6431 N   0  0  0  0  0  0  0  0  0  0  0  0
  145.4871  135.6574  154.6419 O   0  0  0  0  0  0  0  0  0  0  0  0
  145.3861  134.7419  151.4021 C   0  0  0  0  0  0  0  0  0  0  0  0
  146.4799  133.8979  151.0804 C   0  0  0  0  0  0  0  0  0  0  0  0
  146.2500  132.7464  150.3004 C   0  0  0  0  0  0  0  0  0  0  0  0
  145.0350  132.3948  149.8336 N   0  0  0  0  0  0  0  0  0  0  0  0
  143.9919  133.1940  150.1346 C   0  0  0  0  0  0  0  0  0  0  0  0
  144.1136  134.3658  150.9068 C   0  0  0  0  0  0  0  0  0  0  0  0
  147.2819  138.9226  151.5105 H   0  0  0  0  0  0  0  0  0  0  0  0
  146.6631  138.4745  153.0953 H   0  0  0  0  0  0  0  0  0  0  0  0
  145.5480  138.8887  151.7808 H   0  0  0  0  0  0  0  0  0  0  0  0
  146.2547  136.9724  150.5882 H   0  0  0  0  0  0  0  0  0  0  0  0
  143.4307  136.0053  152.8782 H   0  0  0  0  0  0  0  0  0  0  0  0
  143.7359  136.9783  151.4500 H   0  0  0  0  0  0  0  0  0  0  0  0
  144.1773  137.5721  153.0451 H   0  0  0  0  0  0  0  0  0  0  0  0
  147.9072  135.0718  154.5171 H   0  0  0  0  0  0  0  0  0  0  0  0
  147.9921  135.3087  152.7857 H   0  0  0  0  0  0  0  0  0  0  0  0
  147.4873  134.1012  151.4098 H   0  0  0  0  0  0  0  0  0  0  0  0
  147.0679  132.0891  150.0449 H   0  0  0  0  0  0  0  0  0  0  0  0
  143.0293  132.8911  149.7499 H   0  0  0  0  0  0  0  0  0  0  0  0
  143.2357  134.9597  151.1148 H   0  0  0  0  0  0  0  0  0  0  0  0
  147.4114  136.6074  151.6848 H   0  0  0  0  0  0  0  0  0  0  0  0
  1  2  1  0  0  0  0
  1 14  1  0  0  0  0
  1 15  1  0  0  0  0
  1 16  1  0  0  0  0
  2  3  1  0  0  0  0
  2 17  1  0  0  0  0
  2 27  1  0  0  0  0
  3  4  1  0  0  0  0
  3  5  1  0  0  0  0
  3  8  1  0  0  0  0
  4 18  1  0  0  0  0
  4 19  1  0  0  0  0
  4 20  1  0  0  0  0
  5  6  1  0  0  0  0
  5  7  2  0  0  0  0
  6 21  1  0  0  0  0
  6 22  1  0  0  0  0
  8 13  1  0  0  0  0
  8  9  2  0  0  0  0
  9 10  1  0  0  0  0
  9 23  1  0  0  0  0
 10 11  2  0  0  0  0
 10 24  1  0  0  0  0
 11 12  1  0  0  0  0
 12 13  2  0  0  0  0
 12 25  1  0  0  0  0
 13 26  1  0  0  0  0
M  CHG  1   2   1
M  END
> <s_m_source_file>
AV-unprocessed.smi

> <i_m_source_file_index>
912

> <i_lp_mmshare_version>
43012

> <i_f3d_flags>
0

> <s_epik_input>
W0NIM11bTkhdW0NAQF0oW0NIM10pKEMoPU8pW05IMl0pYzFbY0hdW2NIXW5bY0hdW2NIXTE=

> <s_epik_cmdline>
J2VwaWtfcHl0aG9uJywgJy1waCcsICc3LjAnLCAnLXRuJywgJzgnLCAnLW1hJywgJzIwMCcsICctbWV0YWxfYmluZGluZycsICctaW1hZScsICc8aW5maWxlLm1hZT4nLCAnLW9tYWUnLCAnPG91dGZpbGUubWFlPic=

> <r_epik_Ionization_Penalty>
0.8426

> <r_epik_Ionization_Penalty_Charging>
0.842363

> <r_epik_Ionization_Penalty_Neutral>
0.000236815

> <r_epik_State_Penalty>
0.498415

> <r_epik_Charging_Adjusted_Penalty>
1.34078

> <i_epik_Tot_Q>
1

> <i_epik_Tot_abs_Q>
1

> <r_epik_Metal_State_Penalty>
0.661775

> <b_epik_Metal_Only>
0

> <s_lp_Force_Field>
OPLS_2005

> <r_lp_Energy>
11.5286

> <b_lp_Chiralities_Consistent>
1

> <s_lp_Variant>
AV-unprocessed.smi:912-4

> <Gold.Version>
5.8.1

> <Gold.Id.Protein>
6NUR|6NUR_protein|mol2

> <Gold.PLP.Fitness>
36.0698

> <Gold.PLP.PLP>
-22.9221

> <Gold.PLP.part.hbond>
-1.9898

> <Gold.PLP.part.metal>
0.0000

> <Gold.PLP.part.buried>
-3.1584

> <Gold.PLP.part.nonpolar>
-18.7369

> <Gold.PLP.part.repulsive>
0.2798

> <Gold.PLP.ligand.clash>
0.0000

> <Gold.PLP.ligand.torsion>
0.6226

> <Gold.PLP.Chemscore.Hbond>
2.8960

> <Gold.PLP.Chemscore.CHOScore>
1.8987

> <Gold.PLP.Chemscore.Metal>
0.0000

> <Gold.Chemscore.Hbonds>
donor molecule, donor type, donor heavy atom, donor atom, acceptor molecule, acceptor atom, score
      L1  H     2    27       P1  7948  2.00
      L1  H     6    22       P1  7948  0.90
      L1  C    10    24       P1 10747  1.00
      L1  C    12    25       P1 10186  0.87

> <Gold.PLP.Chemscore.Internal.Correction>
0.0087

> <Gold.Rescore>
     Score         DG    S(hbond)    S(metal)    S(lipo)     H(rot)  DE(clash)    DE(int)     intcor
     13.08     -13.56       1.98        0.00      52.36       1.83       0.03       0.45       ----

> <Gold.Chemscore.Fitness>
13.0780

> <Gold.Chemscore.DG>
-13.5578

> <Gold.Chemscore.ZeroCoef>
-5.4800

> <Gold.Chemscore.Hbond>
1.9846

> <Gold.Chemscore.Metal>
0.0000

> <Gold.Chemscore.Lipo>
52.3628

> <Gold.Chemscore.Internal_Hbond>
0.0000

> <Gold.Chemscore.DEClash>
0.0285

> <Gold.Chemscore.DEInternal>
0.4514

> <Gold.Chemscore.Rot>
1.8270

> <Gold.Chemscore.Internal.Correction>
   9.000000E+99

> <Gold.Chemscore.Hbonds>
donor molecule, donor type, donor heavy atom, donor atom, acceptor molecule, acceptor atom, score
      L1  H     2    27       P1  7948  0.97
      L1  H     6    22       P1  7948  0.87

> <Gold.Chemscore.Hbond.Weighted>
-6.6285

> <Gold.Chemscore.Metal.Weighted>
-0.0000

> <Gold.Chemscore.Lipo.Weighted>
-6.1264

> <Gold.Chemscore.Internal_Hbond.Weighted>
0.0000

> <Gold.Chemscore.DEClash.Weighted>
0.0285

> <Gold.Chemscore.DEInternal.Weighted>
0.4514

> <Gold.Chemscore.Rot.Weighted>
4.6771

> <Gold.Chemscore.Internal.Correction.Weighted>
   9.000000E+99

> <Gold.Protein.RotatedTorsions>
[ 6907 6896 6895 6894 ] final   29.07 input  -60.11 | X-H torsion
[ 7974 7965 7964 7962 ] final  -62.14 input  175.53 | X-H torsion
[ 8008 7997 7996 7995 ] final   75.22 input   59.86 | X-H torsion
[ 10167 10162 10161 10158 ] final  -17.67 input  -65.29 | X-H torsion
[ 10718 10713 10712 10709 ] final -159.36 input   66.30 | X-H torsion
[ 10763 10752 10751 10750 ] final  -50.57 input  -60.55 | X-H torsion
[ 11005 11000 10999 10996 ] final  134.48 input  -57.11 | X-H torsion

> <Gold.Protein.ActiveResidues>
 VAL166  LYS551  ARG553  GLY616  TRP617  ASP618  TYR619  PRO620  LYS621  CYS622 
 ASP623  PHE694  ASN695  SER759  ASP760  ASP761  ALA762  ILE779  LEU786  VAL792 
 PHE793  MET794  SER795  GLU796  ALA797  LYS798  CYS799  TRP800  GLU811  SER814 

> <Gold.Protein.RotatedAtoms>
  152.0261  134.9794  160.0571 H   0  0  0  0  0  0  0  0  0  0  0  0  # atno 6907 bound_to 6896
  152.1289  133.4392  159.4720 H   0  0  0  0  0  0  0  0  0  0  0  0  # atno 6908 bound_to 6896
  150.6854  134.2363  159.4497 H   0  0  0  0  0  0  0  0  0  0  0  0  # atno 6909 bound_to 6896
  145.7950  140.8688  143.0261 H   0  0  0  0  0  0  0  0  0  0  0  0  # atno 7974 bound_to 7965
  155.8098  140.3473  155.5451 H   0  0  0  0  0  0  0  0  0  0  0  0  # atno 8008 bound_to 7997
  155.8453  140.0948  157.1729 H   0  0  0  0  0  0  0  0  0  0  0  0  # atno 8009 bound_to 7997
  154.4006  140.1387  156.3765 H   0  0  0  0  0  0  0  0  0  0  0  0  # atno 8010 bound_to 7997
  140.7250  143.4993  150.9890 H   0  0  0  0  0  0  0  0  0  0  0  0  # atno 10167 bound_to 10162
  156.5670  130.8672  151.2826 H   0  0  0  0  0  0  0  0  0  0  0  0  # atno 10718 bound_to 10713
  154.1125  135.6547  153.4887 H   0  0  0  0  0  0  0  0  0  0  0  0  # atno 10763 bound_to 10752
  153.0252  135.5251  154.7178 H   0  0  0  0  0  0  0  0  0  0  0  0  # atno 10764 bound_to 10752
  154.6362  135.2982  155.0128 H   0  0  0  0  0  0  0  0  0  0  0  0  # atno 10765 bound_to 10752
  139.9918  134.9512  156.9873 H   0  0  0  0  0  0  0  0  0  0  0  0  # atno 11005 bound_to 11000
  144.6776  140.0177  143.7484 LP  0  0  0  0  0  0  0  0  0  0  0  0  # atno 17320 bound_to 7965
  145.9937  139.3035  143.0969 LP  0  0  0  0  0  0  0  0  0  0  0  0  # atno 17321 bound_to 7965
  139.8701  143.7203  152.3167 LP  0  0  0  0  0  0  0  0  0  0  0  0  # atno 17342 bound_to 10162
  139.7449  144.7550  151.0595 LP  0  0  0  0  0  0  0  0  0  0  0  0  # atno 17343 bound_to 10162
  157.7356  130.9765  150.2092 LP  0  0  0  0  0  0  0  0  0  0  0  0  # atno 17370 bound_to 10713
  156.2748  130.3726  149.7994 LP  0  0  0  0  0  0  0  0  0  0  0  0  # atno 17371 bound_to 10713
  140.4894  134.1208  155.7230 LP  0  0  0  0  0  0  0  0  0  0  0  0  # atno 17394 bound_to 11000
  141.1572  133.8861  157.1946 LP  0  0  0  0  0  0  0  0  0  0  0  0  # atno 17395 bound_to 11000

$$$$
