AV-unprocessed.smi:2881|AV-procd|sdf|11063|dock3
  -GOLD-   2272015533D 1   1.00000     0.00000
 Structure written by MMmdl.
 40 42  0  0  0  0  0  0  0  0  1 V2000
  150.3966  136.6285  157.6990 C   0  0  0  0  0  0  0  0  0  0  0  0
  150.0225  135.9138  156.4339 C   0  0  0  0  0  0  0  0  0  0  0  0
  150.1934  134.5336  156.1193 C   0  0  0  0  0  0  0  0  0  0  0  0
  149.6881  134.4096  154.8552 C   0  0  0  0  0  0  0  0  0  0  0  0
  149.5647  133.2247  153.9524 C   0  0  0  0  0  0  0  0  0  0  0  0
  148.1030  132.9763  153.5821 C   0  0  0  0  0  0  0  0  0  0  0  0
  147.5246  131.9765  154.0071 O   0  0  0  0  0  0  0  0  0  0  0  0
  147.5260  133.8869  152.7833 N   0  0  0  0  0  0  0  0  0  0  0  0
  146.1496  133.8354  152.2955 C   0  0  2  0  0  0  0  0  0  0  0  0
  145.8576  132.4568  151.6625 C   0  0  1  0  0  0  0  0  0  0  0  0
  144.3340  132.2884  151.5251 C   0  0  0  0  0  0  0  0  0  0  0  0
  143.9956  133.2567  150.3761 C   0  0  0  0  0  0  0  0  0  0  0  0
  145.3710  133.8581  150.0126 C   0  0  2  0  0  0  0  0  0  0  0  0
  146.2785  132.6507  150.2085 C   0  0  0  0  0  0  0  0  0  0  0  0
  145.8958  134.8095  151.1149 C   0  0  1  0  0  0  0  0  0  0  0  0
  144.9675  135.9969  151.4376 C   0  0  0  0  0  0  0  0  0  0  0  0
  145.6035  137.2162  151.1214 O   0  0  0  0  0  0  0  0  0  0  0  0
  149.2620  135.6663  154.4887 N   0  0  0  0  0  0  0  0  0  0  0  0
  149.4610  136.5926  155.4444 N   0  0  0  0  0  0  0  0  0  0  0  0
  148.8338  135.9006  153.6040 H   0  0  0  0  0  0  0  0  0  0  0  0
  150.5453  135.9250  158.5186 H   0  0  0  0  0  0  0  0  0  0  0  0
  149.6190  137.3300  158.0033 H   0  0  0  0  0  0  0  0  0  0  0  0
  151.3220  137.1902  157.5711 H   0  0  0  0  0  0  0  0  0  0  0  0
  150.6201  133.7529  156.7315 H   0  0  0  0  0  0  0  0  0  0  0  0
  149.9806  132.3393  154.4355 H   0  0  0  0  0  0  0  0  0  0  0  0
  150.1451  133.3825  153.0425 H   0  0  0  0  0  0  0  0  0  0  0  0
  148.0842  134.6724  152.4822 H   0  0  0  0  0  0  0  0  0  0  0  0
  145.4610  134.0150  153.1236 H   0  0  0  0  0  0  0  0  0  0  0  0
  146.3361  131.6210  152.1747 H   0  0  0  0  0  0  0  0  0  0  0  0
  144.0793  131.2641  151.2502 H   0  0  0  0  0  0  0  0  0  0  0  0
  143.8014  132.5284  152.4462 H   0  0  0  0  0  0  0  0  0  0  0  0
  143.5864  132.7052  149.5286 H   0  0  0  0  0  0  0  0  0  0  0  0
  143.2567  134.0053  150.6596 H   0  0  0  0  0  0  0  0  0  0  0  0
  145.4050  134.2927  149.0131 H   0  0  0  0  0  0  0  0  0  0  0  0
  147.3391  132.8793  150.0889 H   0  0  0  0  0  0  0  0  0  0  0  0
  146.0223  131.8055  149.5668 H   0  0  0  0  0  0  0  0  0  0  0  0
  146.8459  135.2135  150.7586 H   0  0  0  0  0  0  0  0  0  0  0  0
  144.0498  135.9298  150.8528 H   0  0  0  0  0  0  0  0  0  0  0  0
  144.6839  136.0110  152.4898 H   0  0  0  0  0  0  0  0  0  0  0  0
  144.9699  137.7921  150.7216 H   0  0  0  0  0  0  0  0  0  0  0  0
  1 21  1  0  0  0  0
  1 22  1  0  0  0  0
  1 23  1  0  0  0  0
  1  2  1  0  0  0  0
  2 19  2  0  0  0  0
  2  3  1  0  0  0  0
  3  4  2  0  0  0  0
  3 24  1  0  0  0  0
  4 18  1  0  0  0  0
  4  5  1  0  0  0  0
  5  6  1  0  0  0  0
  5 25  1  0  0  0  0
  5 26  1  0  0  0  0
  6  7  2  0  0  0  0
  6  8  1  0  0  0  0
  8  9  1  0  0  0  0
  8 27  1  0  0  0  0
  9 15  1  0  0  0  0
  9 10  1  0  0  0  0
  9 28  1  0  0  0  0
 10 14  1  0  0  0  0
 10 11  1  0  0  0  0
 10 29  1  0  0  0  0
 11 12  1  0  0  0  0
 11 30  1  0  0  0  0
 11 31  1  0  0  0  0
 12 13  1  0  0  0  0
 12 32  1  0  0  0  0
 12 33  1  0  0  0  0
 13 14  1  0  0  0  0
 13 15  1  0  0  0  0
 13 34  1  0  0  0  0
 14 35  1  0  0  0  0
 14 36  1  0  0  0  0
 15 16  1  0  0  0  0
 15 37  1  0  0  0  0
 16 17  1  0  0  0  0
 16 38  1  0  0  0  0
 16 39  1  0  0  0  0
 17 40  1  0  0  0  0
 18 19  1  0  0  0  0
 18 20  1  0  0  0  0
M  END
> <s_m_source_file>
AV-unprocessed.smi

> <i_m_source_file_index>
2881

> <i_lp_mmshare_version>
43012

> <i_f3d_flags>
0

> <s_epik_input>
W0NIM11jMVtjSF1jKG5bbkhdMSlbQ0gyXUMoPU8pW05IXVtDQEhdKFtDQEBIXTIzKVtDQEhdKFtDSDJdW09IXSlbQ0BASF0oW0NIMl0zKVtDSDJdW0NIMl0y

> <s_epik_cmdline>
J2VwaWtfcHl0aG9uJywgJy1waCcsICc3LjAnLCAnLXRuJywgJzgnLCAnLW1hJywgJzIwMCcsICctbWV0YWxfYmluZGluZycsICctaW1hZScsICc8aW5maWxlLm1hZT4nLCAnLW9tYWUnLCAnPG91dGZpbGUubWFlPic=

> <r_lp_tautomer_probability>
0.5

> <r_epik_Ionization_Penalty>
0.00013396

> <r_epik_Ionization_Penalty_Charging>
0

> <r_epik_Ionization_Penalty_Neutral>
0.00013396

> <r_epik_State_Penalty>
0.41068

> <r_epik_Charging_Adjusted_Penalty>
0.41068

> <i_epik_Tot_Q>
0

> <i_epik_Tot_abs_Q>
0

> <r_epik_Metal_State_Penalty>
0.41066

> <b_epik_Metal_Only>
0

> <s_lp_Force_Field>
OPLS_2005

> <r_lp_Energy>
47.2043

> <b_lp_Chiralities_Consistent>
1

> <s_lp_Variant>
AV-unprocessed.smi:2881-9

> <Gold.Version>
5.8.1

> <Gold.Id.Protein>
6NUR|6NUR_protein|mol2

> <Gold.PLP.Fitness>
38.6382

> <Gold.PLP.PLP>
-31.5057

> <Gold.PLP.part.hbond>
-3.0000

> <Gold.PLP.part.metal>
0.0000

> <Gold.PLP.part.buried>
-2.3658

> <Gold.PLP.part.nonpolar>
-25.4720

> <Gold.PLP.part.repulsive>
0.1872

> <Gold.PLP.ligand.clash>
0.0000

> <Gold.PLP.ligand.torsion>
0.9483

> <Gold.PLP.Chemscore.Hbond>
3.0000

> <Gold.PLP.Chemscore.CHOScore>
0.0000

> <Gold.PLP.Chemscore.Metal>
0.0000

> <Gold.Chemscore.Hbonds>
donor molecule, donor type, donor heavy atom, donor atom, acceptor molecule, acceptor atom, score
      L1  H     8    27       P1  7948  1.00
      L1  H    17    40       P1 10171  1.00
      L1  H    18    20       P1  7948  0.99

> <Gold.PLP.Chemscore.Internal.Correction>
0.0290

> <Gold.Rescore>
     Score         DG    S(hbond)    S(metal)    S(lipo)     H(rot)  DE(clash)    DE(int)     intcor
     14.21     -17.32       2.82        0.00      70.32       2.28       0.03       3.08       ----

> <Gold.Chemscore.Fitness>
14.2064

> <Gold.Chemscore.DG>
-17.3168

> <Gold.Chemscore.ZeroCoef>
-5.4800

> <Gold.Chemscore.Hbond>
2.8249

> <Gold.Chemscore.Metal>
0.0000

> <Gold.Chemscore.Lipo>
70.3157

> <Gold.Chemscore.Internal_Hbond>
0.0000

> <Gold.Chemscore.DEClash>
0.0310

> <Gold.Chemscore.DEInternal>
3.0794

> <Gold.Chemscore.Rot>
2.2755

> <Gold.Chemscore.Internal.Correction>
   9.000000E+99

> <Gold.Chemscore.Hbonds>
donor molecule, donor type, donor heavy atom, donor atom, acceptor molecule, acceptor atom, score
      L1  H     8    27       P1  7948  0.50
      L1  H    17    40       P1 10171  1.00
      L1  H    18    20       P1  7948  0.92

> <Gold.Chemscore.Hbond.Weighted>
-9.4350

> <Gold.Chemscore.Metal.Weighted>
-0.0000

> <Gold.Chemscore.Lipo.Weighted>
-8.2269

> <Gold.Chemscore.Internal_Hbond.Weighted>
0.0000

> <Gold.Chemscore.DEClash.Weighted>
0.0310

> <Gold.Chemscore.DEInternal.Weighted>
3.0794

> <Gold.Chemscore.Rot.Weighted>
5.8252

> <Gold.Chemscore.Internal.Correction.Weighted>
   9.000000E+99

> <Gold.Protein.RotatedTorsions>
[ 6907 6896 6895 6894 ] final   26.50 input  -60.11 | X-H torsion
[ 7974 7965 7964 7962 ] final -103.89 input  175.53 | X-H torsion
[ 8008 7997 7996 7995 ] final -166.56 input   59.86 | X-H torsion
[ 10167 10162 10161 10158 ] final -104.85 input  -65.29 | X-H torsion
[ 10718 10713 10712 10709 ] final  -26.18 input   66.30 | X-H torsion
[ 10763 10752 10751 10750 ] final  167.90 input  -60.55 | X-H torsion
[ 11005 11000 10999 10996 ] final    1.81 input  -57.11 | X-H torsion

> <Gold.Protein.ActiveResidues>
 VAL166  LYS551  ARG553  GLY616  TRP617  ASP618  TYR619  PRO620  LYS621  CYS622 
 ASP623  PHE694  ASN695  SER759  ASP760  ASP761  ALA762  ILE779  LEU786  VAL792 
 PHE793  MET794  SER795  GLU796  ALA797  LYS798  CYS799  TRP800  GLU811  SER814 

> <Gold.Protein.RotatedAtoms>
  151.9884  134.9992  160.0560 H   0  0  0  0  0  0  0  0  0  0  0  0  # atno 6907 bound_to 6896
  152.1631  133.4590  159.4879 H   0  0  0  0  0  0  0  0  0  0  0  0  # atno 6908 bound_to 6896
  150.6890  134.1964  159.4348 H   0  0  0  0  0  0  0  0  0  0  0  0  # atno 6909 bound_to 6896
  145.2501  140.9235  143.3100 H   0  0  0  0  0  0  0  0  0  0  0  0  # atno 7974 bound_to 7965
  155.8656  140.0985  157.1585 H   0  0  0  0  0  0  0  0  0  0  0  0  # atno 8008 bound_to 7997
  154.3993  140.1357  156.4077 H   0  0  0  0  0  0  0  0  0  0  0  0  # atno 8009 bound_to 7997
  155.7808  140.3458  155.5299 H   0  0  0  0  0  0  0  0  0  0  0  0  # atno 8010 bound_to 7997
  140.2048  143.3791  152.1099 H   0  0  0  0  0  0  0  0  0  0  0  0  # atno 10167 bound_to 10162
  156.4545  130.4491  149.6968 H   0  0  0  0  0  0  0  0  0  0  0  0  # atno 10718 bound_to 10713
  154.3607  135.2753  155.2322 H   0  0  0  0  0  0  0  0  0  0  0  0  # atno 10763 bound_to 10752
  154.4511  135.5930  153.6196 H   0  0  0  0  0  0  0  0  0  0  0  0  # atno 10764 bound_to 10752
  152.9844  135.6042  154.3827 H   0  0  0  0  0  0  0  0  0  0  0  0  # atno 10765 bound_to 10752
  140.6113  133.9746  155.8179 H   0  0  0  0  0  0  0  0  0  0  0  0  # atno 11005 bound_to 11000
  144.9511  139.4082  143.6402 LP  0  0  0  0  0  0  0  0  0  0  0  0  # atno 17320 bound_to 7965
  146.3305  139.8518  142.8872 LP  0  0  0  0  0  0  0  0  0  0  0  0  # atno 17321 bound_to 7965
  139.5203  144.7031  151.5436 LP  0  0  0  0  0  0  0  0  0  0  0  0  # atno 17342 bound_to 10162
  140.6365  143.8974  150.6652 LP  0  0  0  0  0  0  0  0  0  0  0  0  # atno 17343 bound_to 10162
  156.3781  130.7565  151.2555 LP  0  0  0  0  0  0  0  0  0  0  0  0  # atno 17370 bound_to 10713
  157.7501  131.0304  150.4134 LP  0  0  0  0  0  0  0  0  0  0  0  0  # atno 17371 bound_to 10713
  141.0806  134.0068  157.3392 LP  0  0  0  0  0  0  0  0  0  0  0  0  # atno 17394 bound_to 11000
  139.9191  135.0199  156.7996 LP  0  0  0  0  0  0  0  0  0  0  0  0  # atno 17395 bound_to 11000

$$$$
