AV-unprocessed.smi:2078|AV-procd|sdf|8467|dock9
  -GOLD-   2272011163D 1   1.00000     0.00000
 Structure written by MMmdl.
 41 42  0  0  0  0  0  0  0  0  3 V2000
  146.9576  135.9802  163.0548 C   0  0  0  0  0  0  0  0  0  0  0  0
  147.6021  135.7995  161.7230 C   0  0  0  0  0  0  0  0  0  0  0  0
  147.8017  134.7055  160.9298 C   0  0  0  0  0  0  0  0  0  0  0  0
  148.4814  135.2414  159.8021 C   0  0  0  0  0  0  0  0  0  0  0  0
  148.8894  134.5519  158.7255 N   0  5  0  0  0  0  0  0  0  0  0  0
  149.1084  135.1881  157.5526 C   0  0  0  0  0  0  0  0  0  0  0  0
  149.3367  136.3910  157.4023 O   0  0  0  0  0  0  0  0  0  0  0  0
  149.0566  134.3806  156.4836 N   0  0  0  0  0  0  0  0  0  0  0  0
  149.2420  134.7941  155.0980 C   0  0  0  0  0  0  0  0  0  0  0  0
  148.9178  133.6455  154.1244 C   0  0  0  0  0  0  0  0  0  0  0  0
  147.8992  134.0315  153.1166 N   0  3  1  0  0  0  0  0  0  0  0  0
  147.4582  132.8752  152.2950 C   0  0  0  0  0  0  0  0  0  0  0  0
  146.5072  133.3223  151.1730 C   0  0  0  0  0  0  0  0  0  0  0  0
  145.3001  134.0769  151.7439 C   0  0  0  0  0  0  0  0  0  0  0  0
  145.7704  135.2535  152.6156 C   0  0  1  0  0  0  0  0  0  0  0  0
  144.5816  136.0107  153.2242 C   0  0  0  0  0  0  0  0  0  0  0  0
  146.7408  134.7561  153.7062 C   0  0  0  0  0  0  0  0  0  0  0  0
  148.6641  136.5478  159.8954 N   0  0  0  0  0  0  0  0  0  0  0  0
  148.1071  136.9130  161.1270 O   0  0  0  0  0  0  0  0  0  0  0  0
  145.8723  136.0042  162.9570 H   0  0  0  0  0  0  0  0  0  0  0  0
  147.2764  136.9123  163.5218 H   0  0  0  0  0  0  0  0  0  0  0  0
  147.2194  135.1612  163.7249 H   0  0  0  0  0  0  0  0  0  0  0  0
  147.5118  133.6842  161.1258 H   0  0  0  0  0  0  0  0  0  0  0  0
  148.8692  133.4025  156.6508 H   0  0  0  0  0  0  0  0  0  0  0  0
  148.6305  135.6753  154.9032 H   0  0  0  0  0  0  0  0  0  0  0  0
  150.2797  135.1042  154.9743 H   0  0  0  0  0  0  0  0  0  0  0  0
  149.8427  133.3672  153.6171 H   0  0  0  0  0  0  0  0  0  0  0  0
  148.5829  132.7549  154.6585 H   0  0  0  0  0  0  0  0  0  0  0  0
  148.3256  132.3850  151.8513 H   0  0  0  0  0  0  0  0  0  0  0  0
  146.9689  132.1385  152.9342 H   0  0  0  0  0  0  0  0  0  0  0  0
  147.0429  133.9633  150.4716 H   0  0  0  0  0  0  0  0  0  0  0  0
  146.1693  132.4556  150.6040 H   0  0  0  0  0  0  0  0  0  0  0  0
  144.6683  134.4358  150.9304 H   0  0  0  0  0  0  0  0  0  0  0  0
  144.6885  133.3946  152.3364 H   0  0  0  0  0  0  0  0  0  0  0  0
  146.3120  135.9525  151.9761 H   0  0  0  0  0  0  0  0  0  0  0  0
  143.9938  135.3666  153.8790 H   0  0  0  0  0  0  0  0  0  0  0  0
  143.9176  136.3895  152.4467 H   0  0  0  0  0  0  0  0  0  0  0  0
  144.9188  136.8642  153.8132 H   0  0  0  0  0  0  0  0  0  0  0  0
  146.2192  134.0984  154.4038 H   0  0  0  0  0  0  0  0  0  0  0  0
  147.0896  135.6107  154.2849 H   0  0  0  0  0  0  0  0  0  0  0  0
  148.3564  134.6699  152.4813 H   0  0  0  0  0  0  0  0  0  0  0  0
  1  2  1  0  0  0  0
  1 20  1  0  0  0  0
  1 21  1  0  0  0  0
  1 22  1  0  0  0  0
  2 19  1  0  0  0  0
  2  3  2  0  0  0  0
  3  4  1  0  0  0  0
  3 23  1  0  0  0  0
  4  5  1  0  0  0  0
  4 18  2  0  0  0  0
  5  6  1  0  0  0  0
  6  7  2  0  0  0  0
  6  8  1  0  0  0  0
  8  9  1  0  0  0  0
  8 24  1  0  0  0  0
  9 10  1  0  0  0  0
  9 25  1  0  0  0  0
  9 26  1  0  0  0  0
 10 11  1  0  0  0  0
 10 27  1  0  0  0  0
 10 28  1  0  0  0  0
 11 17  1  0  0  0  0
 11 12  1  0  0  0  0
 11 41  1  0  0  0  0
 12 13  1  0  0  0  0
 12 29  1  0  0  0  0
 12 30  1  0  0  0  0
 13 14  1  0  0  0  0
 13 31  1  0  0  0  0
 13 32  1  0  0  0  0
 14 15  1  0  0  0  0
 14 33  1  0  0  0  0
 14 34  1  0  0  0  0
 15 16  1  0  0  0  0
 15 17  1  0  0  0  0
 15 35  1  0  0  0  0
 16 36  1  0  0  0  0
 16 37  1  0  0  0  0
 16 38  1  0  0  0  0
 17 39  1  0  0  0  0
 17 40  1  0  0  0  0
 18 19  1  0  0  0  0
M  CHG  1   5  -1
M  CHG  1  11   1
M  END
> <s_m_source_file>
AV-unprocessed.smi

> <i_m_source_file_index>
2078

> <i_lp_mmshare_version>
43012

> <i_f3d_flags>
0

> <s_epik_input>
W0NIM11jMVtjSF1jKG5vMSlbTkhdQyg9TylbTkhdW0NIMl1bQ0gyXU4yW0NIMl1bQ0gyXVtDSDJdW0NAQEhdKFtDSDNdKVtDSDJdMg==

> <s_epik_cmdline>
J2VwaWtfcHl0aG9uJywgJy1waCcsICc3LjAnLCAnLXRuJywgJzgnLCAnLW1hJywgJzIwMCcsICctbWV0YWxfYmluZGluZycsICctaW1hZScsICc8aW5maWxlLm1hZT4nLCAnLW9tYWUnLCAnPG91dGZpbGUubWFlPic=

> <r_epik_Ionization_Penalty>
6.22434

> <r_epik_Ionization_Penalty_Charging>
6.22425

> <r_epik_Ionization_Penalty_Neutral>
9.37855e-05

> <r_epik_State_Penalty>
6.22423

> <r_epik_Charging_Adjusted_Penalty>
12.4485

> <i_epik_Tot_Q>
0

> <i_epik_Tot_abs_Q>
2

> <r_epik_Metal_State_Penalty>
2.16764

> <b_epik_Metal_Only>
1

> <s_lp_Force_Field>
OPLS_2005

> <r_lp_Energy>
3.15807

> <b_lp_Chiralities_Consistent>
1

> <s_lp_Variant>
AV-unprocessed.smi:2078-5

> <Gold.Version>
5.8.1

> <Gold.Id.Protein>
6NUR|6NUR_protein|mol2

> <Gold.PLP.Fitness>
42.9265

> <Gold.PLP.PLP>
-27.0489

> <Gold.PLP.part.hbond>
-4.3602

> <Gold.PLP.part.metal>
0.0000

> <Gold.PLP.part.buried>
-1.6109

> <Gold.PLP.part.nonpolar>
-20.6300

> <Gold.PLP.part.repulsive>
0.0436

> <Gold.PLP.ligand.clash>
0.0000

> <Gold.PLP.ligand.torsion>
0.6705

> <Gold.PLP.Chemscore.Hbond>
5.7280

> <Gold.PLP.Chemscore.CHOScore>
0.0000

> <Gold.PLP.Chemscore.Metal>
0.0000

> <Gold.Chemscore.Hbonds>
donor molecule, donor type, donor heavy atom, donor atom, acceptor molecule, acceptor atom, score
      L1  H    11    41       P1  7948  1.90
      P1  H  6896  6908       L1     5  1.30
      P1  H  6931  6943       L1    19  1.00
      P1  H  6934  6947       L1    19  0.22

> <Gold.PLP.Chemscore.Internal.Correction>
0.0345

> <Gold.Rescore>
     Score         DG    S(hbond)    S(metal)    S(lipo)     H(rot)  DE(clash)    DE(int)     intcor
     13.31     -15.75       2.21        0.00      58.28       1.54       0.09       2.35       ----

> <Gold.Chemscore.Fitness>
13.3086

> <Gold.Chemscore.DG>
-15.7479

> <Gold.Chemscore.ZeroCoef>
-5.4800

> <Gold.Chemscore.Hbond>
2.2138

> <Gold.Chemscore.Metal>
0.0000

> <Gold.Chemscore.Lipo>
58.2773

> <Gold.Chemscore.Internal_Hbond>
0.0000

> <Gold.Chemscore.DEClash>
0.0856

> <Gold.Chemscore.DEInternal>
2.3537

> <Gold.Chemscore.Rot>
1.5409

> <Gold.Chemscore.Internal.Correction>
   9.000000E+99

> <Gold.Chemscore.Hbonds>
donor molecule, donor type, donor heavy atom, donor atom, acceptor molecule, acceptor atom, score
      L1  H    11    41       P1  7948  0.21
      P1  H  6896  6908       L1     5  0.03
      P1  H  6931  6943       L1    19  0.78
      P1  H  6934  6947       L1    19  0.16

> <Gold.Chemscore.Hbond.Weighted>
-7.3941

> <Gold.Chemscore.Metal.Weighted>
-0.0000

> <Gold.Chemscore.Lipo.Weighted>
-6.8184

> <Gold.Chemscore.Internal_Hbond.Weighted>
0.0000

> <Gold.Chemscore.DEClash.Weighted>
0.0856

> <Gold.Chemscore.DEInternal.Weighted>
2.3537

> <Gold.Chemscore.Rot.Weighted>
3.9446

> <Gold.Chemscore.Internal.Correction.Weighted>
   9.000000E+99

> <Gold.Protein.RotatedTorsions>
[ 6907 6896 6895 6894 ] final  150.88 input  -60.11 | X-H torsion
[ 7974 7965 7964 7962 ] final  161.39 input  175.53 | X-H torsion
[ 8008 7997 7996 7995 ] final  -19.67 input   59.86 | X-H torsion
[ 10167 10162 10161 10158 ] final   41.01 input  -65.29 | X-H torsion
[ 10718 10713 10712 10709 ] final  134.05 input   66.30 | X-H torsion
[ 10763 10752 10751 10750 ] final  -55.70 input  -60.55 | X-H torsion
[ 11005 11000 10999 10996 ] final  107.56 input  -57.11 | X-H torsion

> <Gold.Protein.ActiveResidues>
 VAL166  LYS551  ARG553  GLY616  TRP617  ASP618  TYR619  PRO620  LYS621  CYS622 
 ASP623  PHE694  ASN695  SER759  ASP760  ASP761  ALA762  ILE779  LEU786  VAL792 
 PHE793  MET794  SER795  GLU796  ALA797  LYS798  CYS799  TRP800  GLU811  SER814 

> <Gold.Protein.RotatedAtoms>
  152.1084  133.4287  159.4619 H   0  0  0  0  0  0  0  0  0  0  0  0  # atno 6907 bound_to 6896
  150.6866  134.2678  159.4584 H   0  0  0  0  0  0  0  0  0  0  0  0  # atno 6908 bound_to 6896
  152.0544  134.9633  160.0625 H   0  0  0  0  0  0  0  0  0  0  0  0  # atno 6909 bound_to 6896
  144.7688  139.7892  143.6305 H   0  0  0  0  0  0  0  0  0  0  0  0  # atno 7974 bound_to 7965
  154.4821  140.2082  155.9740 H   0  0  0  0  0  0  0  0  0  0  0  0  # atno 8008 bound_to 7997
  156.1180  140.3218  155.8137 H   0  0  0  0  0  0  0  0  0  0  0  0  # atno 8009 bound_to 7997
  155.4518  140.0517  157.2991 H   0  0  0  0  0  0  0  0  0  0  0  0  # atno 8010 bound_to 7997
  140.3685  144.2136  150.6134 H   0  0  0  0  0  0  0  0  0  0  0  0  # atno 10167 bound_to 10162
  157.4712  131.1080  150.9800 H   0  0  0  0  0  0  0  0  0  0  0  0  # atno 10718 bound_to 10713
  154.1950  135.6421  153.5070 H   0  0  0  0  0  0  0  0  0  0  0  0  # atno 10763 bound_to 10752
  153.0026  135.5437  154.6376 H   0  0  0  0  0  0  0  0  0  0  0  0  # atno 10764 bound_to 10752
  154.5774  135.2922  155.0740 H   0  0  0  0  0  0  0  0  0  0  0  0  # atno 10765 bound_to 10752
  139.8830  134.9404  156.5837 H   0  0  0  0  0  0  0  0  0  0  0  0  # atno 11005 bound_to 11000
  146.1818  139.5014  142.9862 LP  0  0  0  0  0  0  0  0  0  0  0  0  # atno 17320 bound_to 7965
  145.6387  141.0289  143.1823 LP  0  0  0  0  0  0  0  0  0  0  0  0  # atno 17321 bound_to 7965
  140.5057  143.2305  151.8612 LP  0  0  0  0  0  0  0  0  0  0  0  0  # atno 17342 bound_to 10162
  139.4806  144.5009  151.9062 LP  0  0  0  0  0  0  0  0  0  0  0  0  # atno 17343 bound_to 10162
  157.0564  130.5808  149.5378 LP  0  0  0  0  0  0  0  0  0  0  0  0  # atno 17370 bound_to 10713
  156.0074  130.5162  150.7876 LP  0  0  0  0  0  0  0  0  0  0  0  0  # atno 17371 bound_to 10713
  140.8007  133.8507  155.8724 LP  0  0  0  0  0  0  0  0  0  0  0  0  # atno 17394 bound_to 11000
  140.9595  134.1674  157.4665 LP  0  0  0  0  0  0  0  0  0  0  0  0  # atno 17395 bound_to 11000

$$$$
