AV-unprocessed.smi:1414|AV-procd|sdf|5761|dock4
  -GOLD-   22720 5403D 1   1.00000     0.00000
 Structure written by MMmdl.
 45 46  0  0  0  0  0  0  0  0  1 V2000
  152.3374  144.9252  158.6771 C   0  0  0  0  0  0  0  0  0  0  0  0
  152.4285  143.4012  158.5446 C   0  0  2  0  0  0  0  0  0  0  0  0
  151.0476  142.7574  158.3095 C   0  0  0  0  0  0  0  0  0  0  0  0
  151.1315  141.2874  158.3406 N   0  0  0  0  0  0  0  0  0  0  0  0
  151.0880  140.3845  156.8553 S   0  0  0  0  0  0  0  0  0  0  0  0
  152.4761  140.1453  156.4313 O   0  0  0  0  0  0  0  0  0  0  0  0
  150.1838  139.2402  157.0474 O   0  0  0  0  0  0  0  0  0  0  0  0
  150.3099  141.5385  155.6480 C   0  0  0  0  0  0  0  0  0  0  0  0
  148.7789  141.4928  155.7595 C   0  0  0  0  0  0  0  0  0  0  0  0
  148.2685  142.5683  156.6026 N   0  0  0  0  0  0  0  0  0  0  0  0
  147.6080  142.3944  157.7561 C   0  0  0  0  0  0  0  0  0  0  0  0
  147.3601  141.2877  158.2340 O   0  0  0  0  0  0  0  0  0  0  0  0
  147.2517  143.5737  158.2940 N   0  0  0  0  0  0  0  0  0  0  0  0
  146.5534  143.8224  159.5072 C   0  0  0  0  0  0  0  0  0  0  0  0
  145.5698  142.9627  160.0541 C   0  0  0  0  0  0  0  0  0  0  0  0
  144.9616  143.3150  161.2744 C   0  0  0  0  0  0  0  0  0  0  0  0
  145.3621  144.5081  161.9063 C   0  0  0  0  0  0  0  0  0  0  0  0
  146.3075  145.3298  161.4040 N   0  0  0  0  0  0  0  0  0  0  0  0
  146.8868  144.9851  160.2342 C   0  0  0  0  0  0  0  0  0  0  0  0
  151.8702  140.7578  159.4988 C   0  0  0  0  0  0  0  0  0  0  0  0
  153.2179  141.4840  159.6790 C   0  0  2  0  0  0  0  0  0  0  0  0
  153.9339  141.0564  160.9647 C   0  0  0  0  0  0  0  0  0  0  0  0
  152.9948  142.8865  159.7427 O   0  0  0  0  0  0  0  0  0  0  0  0
  151.9190  145.3728  157.7754 H   0  0  0  0  0  0  0  0  0  0  0  0
  153.3235  145.3615  158.8372 H   0  0  0  0  0  0  0  0  0  0  0  0
  151.7055  145.2120  159.5182 H   0  0  0  0  0  0  0  0  0  0  0  0
  153.0947  143.1751  157.7123 H   0  0  0  0  0  0  0  0  0  0  0  0
  150.3576  143.0736  159.0928 H   0  0  0  0  0  0  0  0  0  0  0  0
  150.6212  143.0954  157.3652 H   0  0  0  0  0  0  0  0  0  0  0  0
  150.6757  142.5432  155.8535 H   0  0  0  0  0  0  0  0  0  0  0  0
  150.6295  141.2551  154.6462 H   0  0  0  0  0  0  0  0  0  0  0  0
  148.3328  141.5975  154.7704 H   0  0  0  0  0  0  0  0  0  0  0  0
  148.4517  140.5262  156.1466 H   0  0  0  0  0  0  0  0  0  0  0  0
  148.4222  143.5122  156.2788 H   0  0  0  0  0  0  0  0  0  0  0  0
  147.4619  144.3927  157.7426 H   0  0  0  0  0  0  0  0  0  0  0  0
  145.2798  142.0404  159.5762 H   0  0  0  0  0  0  0  0  0  0  0  0
  144.2072  142.6820  161.7177 H   0  0  0  0  0  0  0  0  0  0  0  0
  144.9154  144.8069  162.8430 H   0  0  0  0  0  0  0  0  0  0  0  0
  147.6408  145.6646  159.8642 H   0  0  0  0  0  0  0  0  0  0  0  0
  151.2547  140.9001  160.3879 H   0  0  0  0  0  0  0  0  0  0  0  0
  152.0227  139.6837  159.3950 H   0  0  0  0  0  0  0  0  0  0  0  0
  153.8762  141.2673  158.8376 H   0  0  0  0  0  0  0  0  0  0  0  0
  154.1372  139.9853  160.9632 H   0  0  0  0  0  0  0  0  0  0  0  0
  153.3330  141.2825  161.8460 H   0  0  0  0  0  0  0  0  0  0  0  0
  154.8868  141.5752  161.0698 H   0  0  0  0  0  0  0  0  0  0  0  0
  1  2  1  0  0  0  0
  1 24  1  0  0  0  0
  1 25  1  0  0  0  0
  1 26  1  0  0  0  0
  2 23  1  0  0  0  0
  2  3  1  0  0  0  0
  2 27  1  0  0  0  0
  3  4  1  0  0  0  0
  3 28  1  0  0  0  0
  3 29  1  0  0  0  0
  4  5  1  0  0  0  0
  4 20  1  0  0  0  0
  5  6  2  0  0  0  0
  5  7  2  0  0  0  0
  5  8  1  0  0  0  0
  8  9  1  0  0  0  0
  8 30  1  0  0  0  0
  8 31  1  0  0  0  0
  9 10  1  0  0  0  0
  9 32  1  0  0  0  0
  9 33  1  0  0  0  0
 10 11  1  0  0  0  0
 10 34  1  0  0  0  0
 11 12  2  0  0  0  0
 11 13  1  0  0  0  0
 13 14  1  0  0  0  0
 13 35  1  0  0  0  0
 14 19  1  0  0  0  0
 14 15  2  0  0  0  0
 15 16  1  0  0  0  0
 15 36  1  0  0  0  0
 16 17  2  0  0  0  0
 16 37  1  0  0  0  0
 17 18  1  0  0  0  0
 17 38  1  0  0  0  0
 18 19  2  0  0  0  0
 19 39  1  0  0  0  0
 20 21  1  0  0  0  0
 20 40  1  0  0  0  0
 20 41  1  0  0  0  0
 21 22  1  0  0  0  0
 21 23  1  0  0  0  0
 21 42  1  0  0  0  0
 22 43  1  0  0  0  0
 22 44  1  0  0  0  0
 22 45  1  0  0  0  0
M  END
> <s_m_source_file>
AV-unprocessed.smi

> <i_m_source_file_index>
1414

> <i_lp_mmshare_version>
43012

> <i_f3d_flags>
0

> <s_epik_input>
W0NIM11bQ0BASF0xW0NIMl1OKFtDSDJdW0NASF0oTzEpW0NIM10pUyg9TykoPU8pW0NIMl1bQ0gyXVtOSF1DKD1PKVtOSF1jMltjSF1bY0hdW2NIXW5bY0hdMg==

> <s_epik_cmdline>
J2VwaWtfcHl0aG9uJywgJy1waCcsICc3LjAnLCAnLXRuJywgJzgnLCAnLW1hJywgJzIwMCcsICctbWV0YWxfYmluZGluZycsICctaW1hZScsICc8aW5maWxlLm1hZT4nLCAnLW9tYWUnLCAnPG91dGZpbGUubWFlPic=

> <r_epik_Ionization_Penalty>
0.00437531

> <r_epik_Ionization_Penalty_Charging>
0

> <r_epik_Ionization_Penalty_Neutral>
0.00437531

> <r_epik_State_Penalty>
0.00312896

> <r_epik_Charging_Adjusted_Penalty>
0.00312896

> <i_epik_Tot_Q>
0

> <i_epik_Tot_abs_Q>
0

> <r_epik_Metal_State_Penalty>
-0

> <b_epik_Metal_Only>
0

> <s_lp_Force_Field>
OPLS_2005

> <r_lp_Energy>
4.57438

> <b_lp_Chiralities_Consistent>
1

> <s_lp_Variant>
AV-unprocessed.smi:1414-2

> <Gold.Version>
5.8.1

> <Gold.Id.Protein>
6NUR|6NUR_protein|mol2

> <Gold.PLP.Fitness>
50.3144

> <Gold.PLP.PLP>
-42.7854

> <Gold.PLP.part.hbond>
-4.6733

> <Gold.PLP.part.metal>
0.0000

> <Gold.PLP.part.buried>
-4.9129

> <Gold.PLP.part.nonpolar>
-33.9314

> <Gold.PLP.part.repulsive>
0.2195

> <Gold.PLP.ligand.clash>
0.0000

> <Gold.PLP.ligand.torsion>
2.1658

> <Gold.PLP.Chemscore.Hbond>
2.8229

> <Gold.PLP.Chemscore.CHOScore>
0.4062

> <Gold.PLP.Chemscore.Metal>
0.0000

> <Gold.Chemscore.Hbonds>
donor molecule, donor type, donor heavy atom, donor atom, acceptor molecule, acceptor atom, score
      L1  H    10    34       P1  8028  0.71
      L1  H    13    35       P1  8029  0.75
      P1  H  7997  8009       L1     6  1.00
      L1  C    19    39       P1  8029  0.63

> <Gold.PLP.Chemscore.Internal.Correction>
2.1733

> <Gold.Rescore>
     Score         DG    S(hbond)    S(metal)    S(lipo)     H(rot)  DE(clash)    DE(int)     intcor
     15.42     -18.78       1.91        0.00      93.39       1.57       0.16       3.19       ----

> <Gold.Chemscore.Fitness>
15.4217

> <Gold.Chemscore.DG>
-18.7799

> <Gold.Chemscore.ZeroCoef>
-5.4800

> <Gold.Chemscore.Hbond>
1.9129

> <Gold.Chemscore.Metal>
0.0000

> <Gold.Chemscore.Lipo>
93.3907

> <Gold.Chemscore.Internal_Hbond>
0.0000

> <Gold.Chemscore.DEClash>
0.1639

> <Gold.Chemscore.DEInternal>
3.1944

> <Gold.Chemscore.Rot>
1.5687

> <Gold.Chemscore.Internal.Correction>
   9.000000E+99

> <Gold.Chemscore.Hbonds>
donor molecule, donor type, donor heavy atom, donor atom, acceptor molecule, acceptor atom, score
      L1  H    10    34       P1  8028  0.39
      L1  H    13    35       P1  8029  0.09
      P1  H  7997  8009       L1     6  0.99

> <Gold.Chemscore.Hbond.Weighted>
-6.3892

> <Gold.Chemscore.Metal.Weighted>
-0.0000

> <Gold.Chemscore.Lipo.Weighted>
-10.9267

> <Gold.Chemscore.Internal_Hbond.Weighted>
0.0000

> <Gold.Chemscore.DEClash.Weighted>
0.1639

> <Gold.Chemscore.DEInternal.Weighted>
3.1944

> <Gold.Chemscore.Rot.Weighted>
4.0160

> <Gold.Chemscore.Internal.Correction.Weighted>
   9.000000E+99

> <Gold.Protein.RotatedTorsions>
[ 6907 6896 6895 6894 ] final  158.82 input  -60.11 | X-H torsion
[ 7974 7965 7964 7962 ] final   95.65 input  175.53 | X-H torsion
[ 8008 7997 7996 7995 ] final -165.10 input   59.86 | X-H torsion
[ 10167 10162 10161 10158 ] final -149.47 input  -65.29 | X-H torsion
[ 10718 10713 10712 10709 ] final  -73.64 input   66.30 | X-H torsion
[ 10763 10752 10751 10750 ] final   37.53 input  -60.55 | X-H torsion
[ 11005 11000 10999 10996 ] final  121.81 input  -57.11 | X-H torsion

> <Gold.Protein.ActiveResidues>
 VAL166  LYS551  ARG553  GLY616  TRP617  ASP618  TYR619  PRO620  LYS621  CYS622 
 ASP623  PHE694  ASN695  SER759  ASP760  ASP761  ALA762  ILE779  LEU786  VAL792 
 PHE793  MET794  SER795  GLU796  ALA797  LYS798  CYS799  TRP800  GLU811  SER814 

> <Gold.Protein.RotatedAtoms>
  151.9948  133.3804  159.4158 H   0  0  0  0  0  0  0  0  0  0  0  0  # atno 6907 bound_to 6896
  150.6917  134.3898  159.5080 H   0  0  0  0  0  0  0  0  0  0  0  0  # atno 6908 bound_to 6896
  152.1636  134.8891  160.0590 H   0  0  0  0  0  0  0  0  0  0  0  0  # atno 6909 bound_to 6896
  145.4493  139.2294  143.3048 H   0  0  0  0  0  0  0  0  0  0  0  0  # atno 7974 bound_to 7965
  155.8450  140.0954  157.1711 H   0  0  0  0  0  0  0  0  0  0  0  0  # atno 8008 bound_to 7997
  154.3983  140.1394  156.3836 H   0  0  0  0  0  0  0  0  0  0  0  0  # atno 8009 bound_to 7997
  155.8023  140.3452  155.5412 H   0  0  0  0  0  0  0  0  0  0  0  0  # atno 8010 bound_to 7997
  139.7440  143.8619  152.2570 H   0  0  0  0  0  0  0  0  0  0  0  0  # atno 10167 bound_to 10162
  156.0272  130.4399  150.2773 H   0  0  0  0  0  0  0  0  0  0  0  0  # atno 10718 bound_to 10713
  153.0034  135.6275  154.2160 H   0  0  0  0  0  0  0  0  0  0  0  0  # atno 10763 bound_to 10752
  154.1903  135.2809  155.3026 H   0  0  0  0  0  0  0  0  0  0  0  0  # atno 10764 bound_to 10752
  154.5765  135.5660  153.7203 H   0  0  0  0  0  0  0  0  0  0  0  0  # atno 10765 bound_to 10752
  139.9241  134.9640  156.8014 H   0  0  0  0  0  0  0  0  0  0  0  0  # atno 11005 bound_to 11000
  146.2513  140.5250  142.8892 LP  0  0  0  0  0  0  0  0  0  0  0  0  # atno 17320 bound_to 7965
  144.8071  140.6320  143.6439 LP  0  0  0  0  0  0  0  0  0  0  0  0  # atno 17321 bound_to 7965
  139.8578  144.7132  150.9136 LP  0  0  0  0  0  0  0  0  0  0  0  0  # atno 17342 bound_to 10162
  140.7789  143.3843  151.1420 LP  0  0  0  0  0  0  0  0  0  0  0  0  # atno 17343 bound_to 10162
  157.0876  131.0161  151.3133 LP  0  0  0  0  0  0  0  0  0  0  0  0  # atno 17370 bound_to 10713
  157.4879  130.7804  149.7478 LP  0  0  0  0  0  0  0  0  0  0  0  0  # atno 17371 bound_to 10713
  140.6386  133.9839  155.7696 LP  0  0  0  0  0  0  0  0  0  0  0  0  # atno 17394 bound_to 11000
  141.0786  134.0097  157.3420 LP  0  0  0  0  0  0  0  0  0  0  0  0  # atno 17395 bound_to 11000

$$$$
