AV-unprocessed.smi:1701|AV-procd|sdf|6844|dock4
  -GOLD-   22720 8 23D 1   1.00000     0.00000
 Structure written by MMmdl.
 54 56  0  0  0  0  0  0  0  0  4 V2000
  152.5176  142.7910  160.4831 C   0  0  0  0  0  0  0  0  0  0  0  0
  153.0200  143.5938  159.2738 C   0  0  0  0  0  0  0  0  0  0  0  0
  152.0191  143.7038  158.2124 N   0  0  0  0  0  0  0  0  0  0  0  0
  151.0367  144.7840  158.3334 C   0  0  0  0  0  0  0  0  0  0  0  0
  150.9177  145.3245  159.7671 C   0  0  0  0  0  0  0  0  0  0  0  0
  151.6377  142.4995  157.5725 C   0  0  0  0  0  0  0  0  0  0  0  0
  152.3386  141.2817  157.7520 C   0  0  0  0  0  0  0  0  0  0  0  0
  151.9017  140.1141  157.0939 C   0  0  0  0  0  0  0  0  0  0  0  0
  150.7608  140.1602  156.2677 C   0  0  0  0  0  0  0  0  0  0  0  0
  150.3692  138.9641  155.6085 N   0  0  0  0  0  0  0  0  0  0  0  0
  151.1277  137.9073  155.2252 C   0  0  0  0  0  0  0  0  0  0  0  0
  152.3430  137.9475  155.4074 O   0  0  0  0  0  0  0  0  0  0  0  0
  150.5381  136.8313  154.6202 N   0  5  0  0  0  0  0  0  0  0  0  0
  150.1446  135.5364  155.2040 C   0  0  1  0  0  0  0  0  0  0  0  0
  148.6216  135.5065  155.4361 C   0  0  0  0  0  0  0  0  0  0  0  0
  148.0135  134.8726  154.1726 C   0  0  0  0  0  0  0  0  0  0  0  0
  149.1576  134.5237  153.3047 N   0  3  2  0  0  0  0  0  0  0  0  0
  148.9479  133.4225  152.3302 C   0  0  0  0  0  0  0  0  0  0  0  0
  149.0695  132.0314  152.9741 C   0  0  0  0  0  0  0  0  0  0  0  0
  150.3947  131.9008  153.7328 C   0  0  0  0  0  0  0  0  0  0  0  0
  150.4831  132.9995  154.7985 C   0  0  0  0  0  0  0  0  0  0  0  0
  150.3573  134.4151  154.1672 C   0  0  2  0  0  0  0  0  0  0  0  0
  150.1041  141.4016  156.1032 C   0  0  0  0  0  0  0  0  0  0  0  0
  150.5579  142.4956  156.7519 N   0  3  0  0  0  0  0  0  0  0  0  0
  153.2769  142.7576  161.2648 H   0  0  0  0  0  0  0  0  0  0  0  0
  152.2820  141.7624  160.2088 H   0  0  0  0  0  0  0  0  0  0  0  0
  151.6209  143.2381  160.9133 H   0  0  0  0  0  0  0  0  0  0  0  0
  153.2846  144.5996  159.6012 H   0  0  0  0  0  0  0  0  0  0  0  0
  153.9485  143.1667  158.8991 H   0  0  0  0  0  0  0  0  0  0  0  0
  151.2838  145.5919  157.6435 H   0  0  0  0  0  0  0  0  0  0  0  0
  150.0592  144.4171  158.0186 H   0  0  0  0  0  0  0  0  0  0  0  0
  150.1542  146.1007  159.8220 H   0  0  0  0  0  0  0  0  0  0  0  0
  151.8511  145.7593  160.1238 H   0  0  0  0  0  0  0  0  0  0  0  0
  150.6324  144.5327  160.4604 H   0  0  0  0  0  0  0  0  0  0  0  0
  153.2180  141.2236  158.3745 H   0  0  0  0  0  0  0  0  0  0  0  0
  152.4408  139.1876  157.2284 H   0  0  0  0  0  0  0  0  0  0  0  0
  149.3969  138.9161  155.3415 H   0  0  0  0  0  0  0  0  0  0  0  0
  150.6860  135.3209  156.1261 H   0  0  0  0  0  0  0  0  0  0  0  0
  148.3957  134.8786  156.2986 H   0  0  0  0  0  0  0  0  0  0  0  0
  148.2013  136.4913  155.6454 H   0  0  0  0  0  0  0  0  0  0  0  0
  147.4352  133.9860  154.4369 H   0  0  0  0  0  0  0  0  0  0  0  0
  147.3483  135.5606  153.6497 H   0  0  0  0  0  0  0  0  0  0  0  0
  147.9807  133.5410  151.8408 H   0  0  0  0  0  0  0  0  0  0  0  0
  149.7038  133.5220  151.5505 H   0  0  0  0  0  0  0  0  0  0  0  0
  148.2355  131.8590  153.6554 H   0  0  0  0  0  0  0  0  0  0  0  0
  149.0027  131.2608  152.2057 H   0  0  0  0  0  0  0  0  0  0  0  0
  150.4656  130.9180  154.1997 H   0  0  0  0  0  0  0  0  0  0  0  0
  151.2332  131.9819  153.0401 H   0  0  0  0  0  0  0  0  0  0  0  0
  149.6989  132.8129  155.5361 H   0  0  0  0  0  0  0  0  0  0  0  0
  151.4302  132.9072  155.3332 H   0  0  0  0  0  0  0  0  0  0  0  0
  151.2480  134.5991  153.5633 H   0  0  0  0  0  0  0  0  0  0  0  0
  149.2441  141.5693  155.4723 H   0  0  0  0  0  0  0  0  0  0  0  0
  149.3171  135.3598  152.7600 H   0  0  0  0  0  0  0  0  0  0  0  0
  150.0571  143.3731  156.6127 H   0  0  0  0  0  0  0  0  0  0  0  0
  1  2  1  0  0  0  0
  1 25  1  0  0  0  0
  1 26  1  0  0  0  0
  1 27  1  0  0  0  0
  2  3  1  0  0  0  0
  2 28  1  0  0  0  0
  2 29  1  0  0  0  0
  3  4  1  0  0  0  0
  3  6  1  0  0  0  0
  4  5  1  0  0  0  0
  4 30  1  0  0  0  0
  4 31  1  0  0  0  0
  5 32  1  0  0  0  0
  5 33  1  0  0  0  0
  5 34  1  0  0  0  0
  6 24  1  0  0  0  0
  6  7  2  0  0  0  0
  7  8  1  0  0  0  0
  7 35  1  0  0  0  0
  8  9  2  0  0  0  0
  8 36  1  0  0  0  0
  9 10  1  0  0  0  0
  9 23  1  0  0  0  0
 10 11  1  0  0  0  0
 10 37  1  0  0  0  0
 11 12  2  0  0  0  0
 11 13  1  0  0  0  0
 13 14  1  0  0  0  0
 14 22  1  0  0  0  0
 14 15  1  0  0  0  0
 14 38  1  0  0  0  0
 15 16  1  0  0  0  0
 15 39  1  0  0  0  0
 15 40  1  0  0  0  0
 16 17  1  0  0  0  0
 16 41  1  0  0  0  0
 16 42  1  0  0  0  0
 17 22  1  0  0  0  0
 17 18  1  0  0  0  0
 17 53  1  0  0  0  0
 18 19  1  0  0  0  0
 18 43  1  0  0  0  0
 18 44  1  0  0  0  0
 19 20  1  0  0  0  0
 19 45  1  0  0  0  0
 19 46  1  0  0  0  0
 20 21  1  0  0  0  0
 20 47  1  0  0  0  0
 20 48  1  0  0  0  0
 21 22  1  0  0  0  0
 21 49  1  0  0  0  0
 21 50  1  0  0  0  0
 22 51  1  0  0  0  0
 23 24  2  0  0  0  0
 23 52  1  0  0  0  0
 24 54  1  0  0  0  0
M  CHG  1  13  -1
M  CHG  1  17   1
M  CHG  1  24   1
M  END
> <s_m_source_file>
AV-unprocessed.smi

> <i_m_source_file_index>
1701

> <i_lp_mmshare_version>
43012

> <i_f3d_flags>
0

> <s_epik_input>
W0NIM11bQ0gyXU4oW0NIMl1bQ0gzXSljMVtjSF1bY0hdYyhbY0hdbjEpW05IXUMoPU8pW05IXVtDQEhdKFtDSDJdW0NIMl0yKVtDQEBIXShOMjMpW0NIMl1bQ0gyXVtDSDJdW0NIMl0z

> <s_epik_cmdline>
J2VwaWtfcHl0aG9uJywgJy1waCcsICc3LjAnLCAnLXRuJywgJzgnLCAnLW1hJywgJzIwMCcsICctbWV0YWxfYmluZGluZycsICctaW1hZScsICc8aW5maWxlLm1hZT4nLCAnLW9tYWUnLCAnPG91dGZpbGUubWFlPic=

> <r_lp_tautomer_probability>
0.999994

> <r_epik_Ionization_Penalty>
7.37095

> <r_epik_Ionization_Penalty_Charging>
7.37095

> <r_epik_Ionization_Penalty_Neutral>
3.78969e-06

> <r_epik_State_Penalty>
6.83842

> <r_epik_Charging_Adjusted_Penalty>
14.2094

> <i_epik_Tot_Q>
1

> <i_epik_Tot_abs_Q>
3

> <r_epik_Metal_State_Penalty>
2.78552

> <b_epik_Metal_Only>
1

> <s_lp_Force_Field>
OPLS_2005

> <r_lp_Energy>
52.2686

> <b_lp_Chiralities_Consistent>
1

> <s_lp_Variant>
AV-unprocessed.smi:1701-24

> <Gold.Version>
5.8.1

> <Gold.Id.Protein>
6NUR|6NUR_protein|mol2

> <Gold.PLP.Fitness>
53.9535

> <Gold.PLP.PLP>
-44.2988

> <Gold.PLP.part.hbond>
-2.0000

> <Gold.PLP.part.metal>
0.0000

> <Gold.PLP.part.buried>
-5.4230

> <Gold.PLP.part.nonpolar>
-36.7846

> <Gold.PLP.part.repulsive>
0.2313

> <Gold.PLP.ligand.clash>
0.0000

> <Gold.PLP.ligand.torsion>
1.6726

> <Gold.PLP.Chemscore.Hbond>
4.0000

> <Gold.PLP.Chemscore.CHOScore>
0.0000

> <Gold.PLP.Chemscore.Metal>
0.0000

> <Gold.Chemscore.Hbonds>
donor molecule, donor type, donor heavy atom, donor atom, acceptor molecule, acceptor atom, score
      L1  H    17    53       P1  7948  0.20
      L1  H    24    54       P1  8028  2.00

> <Gold.PLP.Chemscore.Internal.Correction>
1.0000

> <Gold.Rescore>
     Score         DG    S(hbond)    S(metal)    S(lipo)     H(rot)  DE(clash)    DE(int)     intcor
     17.73     -20.83       1.92        0.00     104.55       1.28       0.00       3.10       ----

> <Gold.Chemscore.Fitness>
17.7288

> <Gold.Chemscore.DG>
-20.8261

> <Gold.Chemscore.ZeroCoef>
-5.4800

> <Gold.Chemscore.Hbond>
1.9161

> <Gold.Chemscore.Metal>
0.0000

> <Gold.Chemscore.Lipo>
104.5534

> <Gold.Chemscore.Internal_Hbond>
0.0000

> <Gold.Chemscore.DEClash>
0.0000

> <Gold.Chemscore.DEInternal>
3.0973

> <Gold.Chemscore.Rot>
1.2838

> <Gold.Chemscore.Internal.Correction>
   9.000000E+99

> <Gold.Chemscore.Hbonds>
donor molecule, donor type, donor heavy atom, donor atom, acceptor molecule, acceptor atom, score
      L1  H    24    54       P1  8028  0.94

> <Gold.Chemscore.Hbond.Weighted>
-6.3999

> <Gold.Chemscore.Metal.Weighted>
-0.0000

> <Gold.Chemscore.Lipo.Weighted>
-12.2328

> <Gold.Chemscore.Internal_Hbond.Weighted>
0.0000

> <Gold.Chemscore.DEClash.Weighted>
0.0000

> <Gold.Chemscore.DEInternal.Weighted>
3.0973

> <Gold.Chemscore.Rot.Weighted>
3.2865

> <Gold.Chemscore.Internal.Correction.Weighted>
   9.000000E+99

> <Gold.Protein.RotatedTorsions>
[ 6907 6896 6895 6894 ] final  132.00 input  -60.11 | X-H torsion
[ 7974 7965 7964 7962 ] final  -59.06 input  175.53 | X-H torsion
[ 8008 7997 7996 7995 ] final   88.15 input   59.86 | X-H torsion
[ 10167 10162 10161 10158 ] final  -46.22 input  -65.29 | X-H torsion
[ 10718 10713 10712 10709 ] final -128.07 input   66.30 | X-H torsion
[ 10763 10752 10751 10750 ] final  -23.95 input  -60.55 | X-H torsion
[ 11005 11000 10999 10996 ] final  -46.24 input  -57.11 | X-H torsion

> <Gold.Protein.ActiveResidues>
 VAL166  LYS551  ARG553  GLY616  TRP617  ASP618  TYR619  PRO620  LYS621  CYS622 
 ASP623  PHE694  ASN695  SER759  ASP760  ASP761  ALA762  ILE779  LEU786  VAL792 
 PHE793  MET794  SER795  GLU796  ALA797  LYS798  CYS799  TRP800  GLU811  SER814 

> <Gold.Protein.RotatedAtoms>
  152.3368  133.6021  159.5848 H   0  0  0  0  0  0  0  0  0  0  0  0  # atno 6907 bound_to 6896
  150.7455  133.9783  159.3577 H   0  0  0  0  0  0  0  0  0  0  0  0  # atno 6908 bound_to 6896
  151.7651  135.0801  160.0402 H   0  0  0  0  0  0  0  0  0  0  0  0  # atno 6909 bound_to 6896
  145.8319  140.8474  143.0079 H   0  0  0  0  0  0  0  0  0  0  0  0  # atno 7974 bound_to 7965
  155.9842  140.3374  155.6691 H   0  0  0  0  0  0  0  0  0  0  0  0  # atno 8008 bound_to 7997
  155.6508  140.0705  157.2605 H   0  0  0  0  0  0  0  0  0  0  0  0  # atno 8009 bound_to 7997
  154.4200  140.1726  156.1660 H   0  0  0  0  0  0  0  0  0  0  0  0  # atno 8010 bound_to 7997
  140.6826  143.2841  151.3752 H   0  0  0  0  0  0  0  0  0  0  0  0  # atno 10167 bound_to 10162
  156.1916  130.6799  151.0431 H   0  0  0  0  0  0  0  0  0  0  0  0  # atno 10718 bound_to 10713
  153.6760  135.6969  153.5132 H   0  0  0  0  0  0  0  0  0  0  0  0  # atno 10763 bound_to 10752
  153.2521  135.4271  155.0807 H   0  0  0  0  0  0  0  0  0  0  0  0  # atno 10764 bound_to 10752
  154.8413  135.3534  154.6304 H   0  0  0  0  0  0  0  0  0  0  0  0  # atno 10765 bound_to 10752
  141.0566  133.6723  156.3126 H   0  0  0  0  0  0  0  0  0  0  0  0  # atno 11005 bound_to 11000
  144.6739  140.0685  143.7474 LP  0  0  0  0  0  0  0  0  0  0  0  0  # atno 17320 bound_to 7965
  145.9561  139.2767  143.1183 LP  0  0  0  0  0  0  0  0  0  0  0  0  # atno 17321 bound_to 7965
  139.6160  144.1003  152.2345 LP  0  0  0  0  0  0  0  0  0  0  0  0  # atno 17342 bound_to 10162
  140.0432  144.5991  150.7395 LP  0  0  0  0  0  0  0  0  0  0  0  0  # atno 17343 bound_to 10162
  157.6932  131.0803  150.7045 LP  0  0  0  0  0  0  0  0  0  0  0  0  # atno 17370 bound_to 10713
  156.7102  130.4649  149.5549 LP  0  0  0  0  0  0  0  0  0  0  0  0  # atno 17371 bound_to 10713
  140.5951  134.5611  157.5507 LP  0  0  0  0  0  0  0  0  0  0  0  0  # atno 17394 bound_to 11000
  139.9395  134.7812  156.0714 LP  0  0  0  0  0  0  0  0  0  0  0  0  # atno 17395 bound_to 11000

$$$$
