AV-unprocessed.smi:1815|AV-procd|sdf|7358|dock2
  -GOLD-   22720 9 13D 1   1.00000     0.00000
 Structure written by MMmdl.
 38 39  0  0  0  0  0  0  0  0  2 V2000
  151.9117  143.6987  159.3183 C   0  0  0  0  0  0  0  0  0  0  0  0
  152.0582  142.2162  159.6760 C   0  0  1  0  0  0  0  0  0  0  0  0
  151.5828  141.2931  158.5386 C   0  0  0  0  0  0  0  0  0  0  0  0
  151.7927  139.8847  158.8531 N   0  0  0  0  0  0  0  0  0  0  0  0
  151.3239  139.0309  157.7625 C   0  0  0  0  0  0  0  0  0  0  0  0
  150.7679  137.6656  158.1973 C   0  0  0  0  0  0  0  0  0  0  0  0
  149.5705  137.8444  159.0068 N   0  0  0  0  0  0  0  0  0  0  0  0
  148.7403  136.8633  159.3854 C   0  0  0  0  0  0  0  0  0  0  0  0
  148.9697  135.7002  159.0452 O   0  0  0  0  0  0  0  0  0  0  0  0
  147.6968  137.2902  160.1328 N   0  5  0  0  0  0  0  0  0  0  0  0
  146.9467  136.4047  160.8088 C   0  0  0  0  0  0  0  0  0  0  0  0
  147.3398  135.8447  161.9585 N   0  0  0  0  0  0  0  0  0  0  0  0
  146.4032  134.9591  162.4941 C   0  0  0  0  0  0  0  0  0  0  0  0
  145.2659  134.8488  161.7392 C   0  0  0  0  0  0  0  0  0  0  0  0
  145.3376  135.8606  160.3248 S   0  0  0  0  0  0  0  0  0  0  0  0
  153.2049  139.6755  159.1633 C   0  0  0  0  0  0  0  0  0  0  0  0
  153.6888  140.5980  160.2988 C   0  0  1  0  0  0  0  0  0  0  0  0
  155.1896  140.4468  160.5695 C   0  0  0  0  0  0  0  0  0  0  0  0
  153.4330  141.9539  159.9429 O   0  0  0  0  0  0  0  0  0  0  0  0
  150.8715  143.9507  159.1111 H   0  0  0  0  0  0  0  0  0  0  0  0
  152.5005  143.9519  158.4362 H   0  0  0  0  0  0  0  0  0  0  0  0
  152.2505  144.3323  160.1382 H   0  0  0  0  0  0  0  0  0  0  0  0
  151.4775  142.0139  160.5778 H   0  0  0  0  0  0  0  0  0  0  0  0
  150.5243  141.4729  158.3475 H   0  0  0  0  0  0  0  0  0  0  0  0
  152.1124  141.5479  157.6190 H   0  0  0  0  0  0  0  0  0  0  0  0
  150.5293  139.5532  157.2276 H   0  0  0  0  0  0  0  0  0  0  0  0
  152.1266  138.8854  157.0376 H   0  0  0  0  0  0  0  0  0  0  0  0
  150.5110  137.0523  157.3335 H   0  0  0  0  0  0  0  0  0  0  0  0
  151.5199  137.1230  158.7724 H   0  0  0  0  0  0  0  0  0  0  0  0
  149.3518  138.7833  159.3055 H   0  0  0  0  0  0  0  0  0  0  0  0
  146.6294  134.4498  163.4191 H   0  0  0  0  0  0  0  0  0  0  0  0
  144.3953  134.2391  161.9274 H   0  0  0  0  0  0  0  0  0  0  0  0
  153.3767  138.6414  159.4594 H   0  0  0  0  0  0  0  0  0  0  0  0
  153.8074  139.8498  158.2704 H   0  0  0  0  0  0  0  0  0  0  0  0
  153.1428  140.3651  161.2146 H   0  0  0  0  0  0  0  0  0  0  0  0
  155.4352  139.4250  160.8593 H   0  0  0  0  0  0  0  0  0  0  0  0
  155.5082  141.1068  161.3767 H   0  0  0  0  0  0  0  0  0  0  0  0
  155.7770  140.6951  159.6853 H   0  0  0  0  0  0  0  0  0  0  0  0
  1  2  1  0  0  0  0
  1 20  1  0  0  0  0
  1 21  1  0  0  0  0
  1 22  1  0  0  0  0
  2 19  1  0  0  0  0
  2  3  1  0  0  0  0
  2 23  1  0  0  0  0
  3  4  1  0  0  0  0
  3 24  1  0  0  0  0
  3 25  1  0  0  0  0
  4  5  1  0  0  0  0
  4 16  1  0  0  0  0
  5  6  1  0  0  0  0
  5 26  1  0  0  0  0
  5 27  1  0  0  0  0
  6  7  1  0  0  0  0
  6 28  1  0  0  0  0
  6 29  1  0  0  0  0
  7  8  1  0  0  0  0
  7 30  1  0  0  0  0
  8  9  2  0  0  0  0
  8 10  1  0  0  0  0
 10 11  1  0  0  0  0
 11 15  1  0  0  0  0
 11 12  2  0  0  0  0
 12 13  1  0  0  0  0
 13 14  2  0  0  0  0
 13 31  1  0  0  0  0
 14 15  1  0  0  0  0
 14 32  1  0  0  0  0
 16 17  1  0  0  0  0
 16 33  1  0  0  0  0
 16 34  1  0  0  0  0
 17 18  1  0  0  0  0
 17 19  1  0  0  0  0
 17 35  1  0  0  0  0
 18 36  1  0  0  0  0
 18 37  1  0  0  0  0
 18 38  1  0  0  0  0
M  CHG  1  10  -1
M  END
> <s_m_source_file>
AV-unprocessed.smi

> <i_m_source_file_index>
1815

> <i_lp_mmshare_version>
43012

> <i_f3d_flags>
0

> <s_epik_input>
W0NIM11bQ0BASF0xW0NIMl1OKFtDSDJdW0NASF0oTzEpW0NIM10pW0NIMl1bQ0gyXVtOSF1DKD1PKVtOSF1jMm5bY0hdW2NIXXMy

> <s_epik_cmdline>
J2VwaWtfcHl0aG9uJywgJy1waCcsICc3LjAnLCAnLXRuJywgJzgnLCAnLW1hJywgJzIwMCcsICctbWV0YWxfYmluZGluZycsICctaW1hZScsICc8aW5maWxlLm1hZT4nLCAnLW9tYWUnLCAnPG91dGZpbGUubWFlPic=

> <r_lp_tautomer_probability>
0.999

> <r_epik_Ionization_Penalty>
7.22374

> <r_epik_Ionization_Penalty_Charging>
5.82415

> <r_epik_Ionization_Penalty_Neutral>
1.39959

> <r_epik_State_Penalty>
6.03347

> <r_epik_Charging_Adjusted_Penalty>
11.8576

> <i_epik_Tot_Q>
-1

> <i_epik_Tot_abs_Q>
1

> <r_epik_Metal_State_Penalty>
2.01024

> <b_epik_Metal_Only>
1

> <s_lp_Force_Field>
OPLS_2005

> <r_lp_Energy>
15.5459

> <b_lp_Chiralities_Consistent>
1

> <s_lp_Variant>
AV-unprocessed.smi:1815-9

> <Gold.Version>
5.8.1

> <Gold.Id.Protein>
6NUR|6NUR_protein|mol2

> <Gold.PLP.Fitness>
42.5554

> <Gold.PLP.PLP>
-33.3886

> <Gold.PLP.part.hbond>
-3.0000

> <Gold.PLP.part.metal>
0.0000

> <Gold.PLP.part.buried>
-3.7596

> <Gold.PLP.part.nonpolar>
-26.6979

> <Gold.PLP.part.repulsive>
0.2364

> <Gold.PLP.ligand.clash>
0.0000

> <Gold.PLP.ligand.torsion>
1.2008

> <Gold.PLP.Chemscore.Hbond>
3.8480

> <Gold.PLP.Chemscore.CHOScore>
0.0000

> <Gold.PLP.Chemscore.Metal>
0.0000

> <Gold.Chemscore.Hbonds>
donor molecule, donor type, donor heavy atom, donor atom, acceptor molecule, acceptor atom, score
      P1  H  6896  6908       L1     9  0.84
      P1  H  6931  6943       L1    10  0.05
      P1  H  6934  6947       L1    10  1.73

> <Gold.PLP.Chemscore.Internal.Correction>
0.0244

> <Gold.Rescore>
     Score         DG    S(hbond)    S(metal)    S(lipo)     H(rot)  DE(clash)    DE(int)     intcor
     14.98     -16.23       1.54        0.00      82.36       1.57       0.09       1.17       ----

> <Gold.Chemscore.Fitness>
14.9765

> <Gold.Chemscore.DG>
-16.2331

> <Gold.Chemscore.ZeroCoef>
-5.4800

> <Gold.Chemscore.Hbond>
1.5359

> <Gold.Chemscore.Metal>
0.0000

> <Gold.Chemscore.Lipo>
82.3624

> <Gold.Chemscore.Internal_Hbond>
0.0000

> <Gold.Chemscore.DEClash>
0.0874

> <Gold.Chemscore.DEInternal>
1.1692

> <Gold.Chemscore.Rot>
1.5676

> <Gold.Chemscore.Internal.Correction>
   9.000000E+99

> <Gold.Chemscore.Hbonds>
donor molecule, donor type, donor heavy atom, donor atom, acceptor molecule, acceptor atom, score
      P1  H  6896  6908       L1     9  0.82
      P1  H  6934  6947       L1    10  0.37

> <Gold.Chemscore.Hbond.Weighted>
-5.1298

> <Gold.Chemscore.Metal.Weighted>
-0.0000

> <Gold.Chemscore.Lipo.Weighted>
-9.6364

> <Gold.Chemscore.Internal_Hbond.Weighted>
0.0000

> <Gold.Chemscore.DEClash.Weighted>
0.0874

> <Gold.Chemscore.DEInternal.Weighted>
1.1692

> <Gold.Chemscore.Rot.Weighted>
4.0130

> <Gold.Chemscore.Internal.Correction.Weighted>
   9.000000E+99

> <Gold.Protein.RotatedTorsions>
[ 6907 6896 6895 6894 ] final  176.49 input  -60.11 | X-H torsion
[ 7974 7965 7964 7962 ] final  179.53 input  175.53 | X-H torsion
[ 8008 7997 7996 7995 ] final -158.86 input   59.86 | X-H torsion
[ 10167 10162 10161 10158 ] final   46.90 input  -65.29 | X-H torsion
[ 10718 10713 10712 10709 ] final  -19.60 input   66.30 | X-H torsion
[ 10763 10752 10751 10750 ] final  -70.27 input  -60.55 | X-H torsion
[ 11005 11000 10999 10996 ] final  -55.82 input  -57.11 | X-H torsion

> <Gold.Protein.ActiveResidues>
 VAL166  LYS551  ARG553  GLY616  TRP617  ASP618  TYR619  PRO620  LYS621  CYS622 
 ASP623  PHE694  ASN695  SER759  ASP760  ASP761  ALA762  ILE779  LEU786  VAL792 
 PHE793  MET794  SER795  GLU796  ALA797  LYS798  CYS799  TRP800  GLU811  SER814 

> <Gold.Protein.RotatedAtoms>
  151.7193  133.3314  159.3310 H   0  0  0  0  0  0  0  0  0  0  0  0  # atno 6907 bound_to 6896
  150.7660  134.6462  159.6273 H   0  0  0  0  0  0  0  0  0  0  0  0  # atno 6908 bound_to 6896
  152.3662  134.6803  160.0243 H   0  0  0  0  0  0  0  0  0  0  0  0  # atno 6909 bound_to 6896
  144.7145  140.0562  143.6434 H   0  0  0  0  0  0  0  0  0  0  0  0  # atno 7974 bound_to 7965
  155.7539  140.0830  157.2188 H   0  0  0  0  0  0  0  0  0  0  0  0  # atno 8008 bound_to 7997
  154.4009  140.1555  156.2811 H   0  0  0  0  0  0  0  0  0  0  0  0  # atno 8009 bound_to 7997
  155.8904  140.3415  155.5955 H   0  0  0  0  0  0  0  0  0  0  0  0  # atno 8010 bound_to 7997
  140.3092  144.2841  150.6203 H   0  0  0  0  0  0  0  0  0  0  0  0  # atno 10167 bound_to 10162
  156.5433  130.4683  149.6488 H   0  0  0  0  0  0  0  0  0  0  0  0  # atno 10718 bound_to 10713
  154.4153  135.5999  153.5977 H   0  0  0  0  0  0  0  0  0  0  0  0  # atno 10763 bound_to 10752
  152.9791  135.5939  154.4021 H   0  0  0  0  0  0  0  0  0  0  0  0  # atno 10764 bound_to 10752
  154.3839  135.2841  155.2173 H   0  0  0  0  0  0  0  0  0  0  0  0  # atno 10765 bound_to 10752
  141.1092  133.6611  156.4527 H   0  0  0  0  0  0  0  0  0  0  0  0  # atno 11005 bound_to 11000
  145.9903  139.3009  143.0989 LP  0  0  0  0  0  0  0  0  0  0  0  0  # atno 17320 bound_to 7965
  145.8911  140.9303  143.0552 LP  0  0  0  0  0  0  0  0  0  0  0  0  # atno 17321 bound_to 7965
  140.5583  143.2196  151.7809 LP  0  0  0  0  0  0  0  0  0  0  0  0  # atno 17342 bound_to 10162
  139.4897  144.4383  151.9793 LP  0  0  0  0  0  0  0  0  0  0  0  0  # atno 17343 bound_to 10162
  156.2951  130.7146  151.2004 LP  0  0  0  0  0  0  0  0  0  0  0  0  # atno 17370 bound_to 10713
  157.7401  131.0521  150.5187 LP  0  0  0  0  0  0  0  0  0  0  0  0  # atno 17371 bound_to 10713
  140.4821  134.6654  157.5175 LP  0  0  0  0  0  0  0  0  0  0  0  0  # atno 17394 bound_to 11000
  139.9977  134.6886  155.9583 LP  0  0  0  0  0  0  0  0  0  0  0  0  # atno 17395 bound_to 11000

$$$$
