AV-unprocessed.smi:797|AV-procd|sdf|3767|dock1
  -GOLD-   22720 1203D 1   1.00000     0.00000
 Structure written by MMmdl.
 35 36  0  0  0  0  0  0  0  0  1 V2000
  146.1613  138.1433  151.8910 C   0  0  0  0  0  0  0  0  0  0  0  0
  146.7572  138.9775  152.9860 C   0  0  0  0  0  0  0  0  0  0  0  0
  147.3108  140.2841  152.9008 C   0  0  0  0  0  0  0  0  0  0  0  0
  147.7063  140.5504  154.1809 C   0  0  0  0  0  0  0  0  0  0  0  0
  148.3716  141.7265  154.8136 C   0  0  0  0  0  0  0  0  0  0  0  0
  149.8201  141.1649  155.8058 S   0  0  0  0  0  0  0  0  0  0  0  0
  149.3346  140.5704  157.0604 O   0  0  0  0  0  0  0  0  0  0  0  0
  150.7338  140.4132  154.9312 O   0  0  0  0  0  0  0  0  0  0  0  0
  150.5842  142.6610  156.2114 N   0  0  0  0  0  0  0  0  0  0  0  0
  150.9963  142.9065  157.5958 C   0  0  0  0  0  0  0  0  0  0  0  0
  151.7450  144.2498  157.7041 C   0  0  0  0  0  0  0  0  0  0  0  0
  152.2665  144.4873  159.1306 C   0  0  0  0  0  0  0  0  0  0  0  0
  153.1473  143.3212  159.6055 C   0  0  0  0  0  0  0  0  0  0  0  0
  152.3975  141.9833  159.5052 C   0  0  0  0  0  0  0  0  0  0  0  0
  151.8800  141.7413  158.0781 C   0  0  0  0  0  0  0  0  0  0  0  0
  147.4160  139.4992  154.9900 O   0  0  0  0  0  0  0  0  0  0  0  0
  146.8106  138.5011  154.2187 N   0  0  0  0  0  0  0  0  0  0  0  0
  146.0919  138.7068  150.9603 H   0  0  0  0  0  0  0  0  0  0  0  0
  145.1565  137.8101  152.1521 H   0  0  0  0  0  0  0  0  0  0  0  0
  146.7681  137.2582  151.6985 H   0  0  0  0  0  0  0  0  0  0  0  0
  147.4106  140.9227  152.0358 H   0  0  0  0  0  0  0  0  0  0  0  0
  148.7095  142.4432  154.0654 H   0  0  0  0  0  0  0  0  0  0  0  0
  147.6802  142.2388  155.4828 H   0  0  0  0  0  0  0  0  0  0  0  0
  150.0584  143.4520  155.8409 H   0  0  0  0  0  0  0  0  0  0  0  0
  150.1054  142.9412  158.2241 H   0  0  0  0  0  0  0  0  0  0  0  0
  152.5829  144.2640  157.0057 H   0  0  0  0  0  0  0  0  0  0  0  0
  151.0895  145.0727  157.4175 H   0  0  0  0  0  0  0  0  0  0  0  0
  152.8313  145.4191  159.1692 H   0  0  0  0  0  0  0  0  0  0  0  0
  151.4231  144.6087  159.8114 H   0  0  0  0  0  0  0  0  0  0  0  0
  154.0544  143.2780  159.0013 H   0  0  0  0  0  0  0  0  0  0  0  0
  153.4680  143.4922  160.6336 H   0  0  0  0  0  0  0  0  0  0  0  0
  153.0532  141.1659  159.8063 H   0  0  0  0  0  0  0  0  0  0  0  0
  151.5591  141.9808  160.2031 H   0  0  0  0  0  0  0  0  0  0  0  0
  151.3173  140.8073  158.0453 H   0  0  0  0  0  0  0  0  0  0  0  0
  152.7282  141.6149  157.4040 H   0  0  0  0  0  0  0  0  0  0  0  0
  1  2  1  0  0  0  0
  1 18  1  0  0  0  0
  1 19  1  0  0  0  0
  1 20  1  0  0  0  0
  2 17  2  0  0  0  0
  2  3  1  0  0  0  0
  3  4  2  0  0  0  0
  3 21  1  0  0  0  0
  4  5  1  0  0  0  0
  4 16  1  0  0  0  0
  5  6  1  0  0  0  0
  5 22  1  0  0  0  0
  5 23  1  0  0  0  0
  6  7  2  0  0  0  0
  6  8  2  0  0  0  0
  6  9  1  0  0  0  0
  9 10  1  0  0  0  0
  9 24  1  0  0  0  0
 10 15  1  0  0  0  0
 10 11  1  0  0  0  0
 10 25  1  0  0  0  0
 11 12  1  0  0  0  0
 11 26  1  0  0  0  0
 11 27  1  0  0  0  0
 12 13  1  0  0  0  0
 12 28  1  0  0  0  0
 12 29  1  0  0  0  0
 13 14  1  0  0  0  0
 13 30  1  0  0  0  0
 13 31  1  0  0  0  0
 14 15  1  0  0  0  0
 14 32  1  0  0  0  0
 14 33  1  0  0  0  0
 15 34  1  0  0  0  0
 15 35  1  0  0  0  0
 16 17  1  0  0  0  0
M  END
> <s_m_source_file>
AV-unprocessed.smi

> <i_m_source_file_index>
797

> <i_lp_mmshare_version>
43012

> <i_f3d_flags>
0

> <s_epik_input>
W0NIM11jMVtjSF1jKG9uMSlbQ0gyXVMoPU8pKD1PKVtOSF1bQ0hdMltDSDJdW0NIMl1bQ0gyXVtDSDJdW0NIMl0y

> <s_epik_cmdline>
J2VwaWtfcHl0aG9uJywgJy1waCcsICc3LjAnLCAnLXRuJywgJzgnLCAnLW1hJywgJzIwMCcsICctbWV0YWxfYmluZGluZycsICctaW1hZScsICc8aW5maWxlLm1hZT4nLCAnLW9tYWUnLCAnPG91dGZpbGUubWFlPic=

> <r_lp_tautomer_probability>
1

> <r_epik_Ionization_Penalty>
5.6723e-05

> <r_epik_Ionization_Penalty_Charging>
0

> <r_epik_Ionization_Penalty_Neutral>
5.6723e-05

> <r_epik_State_Penalty>
-0

> <r_epik_Charging_Adjusted_Penalty>
0

> <i_epik_Tot_Q>
0

> <i_epik_Tot_abs_Q>
0

> <r_epik_Metal_State_Penalty>
0.0496356

> <b_epik_Metal_Only>
0

> <s_lp_Force_Field>
OPLS_2005

> <r_lp_Energy>
1.90415

> <b_lp_Chiralities_Consistent>
1

> <s_lp_Variant>
AV-unprocessed.smi:797-1

> <Gold.Version>
5.8.1

> <Gold.Id.Protein>
6NUR|6NUR_protein|mol2

> <Gold.PLP.Fitness>
41.3848

> <Gold.PLP.PLP>
-36.1845

> <Gold.PLP.part.hbond>
-2.0000

> <Gold.PLP.part.metal>
0.0000

> <Gold.PLP.part.buried>
-0.4910

> <Gold.PLP.part.nonpolar>
-34.5159

> <Gold.PLP.part.repulsive>
0.2810

> <Gold.PLP.ligand.clash>
0.0000

> <Gold.PLP.ligand.torsion>
0.4790

> <Gold.PLP.Chemscore.Hbond>
2.0000

> <Gold.PLP.Chemscore.CHOScore>
0.0000

> <Gold.PLP.Chemscore.Metal>
0.0000

> <Gold.Chemscore.Hbonds>
donor molecule, donor type, donor heavy atom, donor atom, acceptor molecule, acceptor atom, score
      L1  H     9    24       P1  8028  1.00
      P1  H  7989  7998       L1     8  1.00

> <Gold.PLP.Chemscore.Internal.Correction>
0.1583

> <Gold.Rescore>
     Score         DG    S(hbond)    S(metal)    S(lipo)     H(rot)  DE(clash)    DE(int)     intcor
     19.33     -19.90       1.97        0.00     101.78       1.60       0.11       0.46       ----

> <Gold.Chemscore.Fitness>
19.3257

> <Gold.Chemscore.DG>
-19.8975

> <Gold.Chemscore.ZeroCoef>
-5.4800

> <Gold.Chemscore.Hbond>
1.9742

> <Gold.Chemscore.Metal>
0.0000

> <Gold.Chemscore.Lipo>
101.7757

> <Gold.Chemscore.Internal_Hbond>
0.0000

> <Gold.Chemscore.DEClash>
0.1074

> <Gold.Chemscore.DEInternal>
0.4644

> <Gold.Chemscore.Rot>
1.5954

> <Gold.Chemscore.Internal.Correction>
   9.000000E+99

> <Gold.Chemscore.Hbonds>
donor molecule, donor type, donor heavy atom, donor atom, acceptor molecule, acceptor atom, score
      L1  H     9    24       P1  8028  1.00
      P1  H  7989  7998       L1     8  0.98

> <Gold.Chemscore.Hbond.Weighted>
-6.5940

> <Gold.Chemscore.Metal.Weighted>
-0.0000

> <Gold.Chemscore.Lipo.Weighted>
-11.9078

> <Gold.Chemscore.Internal_Hbond.Weighted>
0.0000

> <Gold.Chemscore.DEClash.Weighted>
0.1074

> <Gold.Chemscore.DEInternal.Weighted>
0.4644

> <Gold.Chemscore.Rot.Weighted>
4.0843

> <Gold.Chemscore.Internal.Correction.Weighted>
   9.000000E+99

> <Gold.Protein.RotatedTorsions>
[ 6907 6896 6895 6894 ] final    5.78 input  -60.11 | X-H torsion
[ 7974 7965 7964 7962 ] final   54.38 input  175.53 | X-H torsion
[ 8008 7997 7996 7995 ] final -152.28 input   59.86 | X-H torsion
[ 10167 10162 10161 10158 ] final  124.80 input  -65.29 | X-H torsion
[ 10718 10713 10712 10709 ] final -109.39 input   66.30 | X-H torsion
[ 10763 10752 10751 10750 ] final  169.32 input  -60.55 | X-H torsion
[ 11005 11000 10999 10996 ] final  123.53 input  -57.11 | X-H torsion

> <Gold.Protein.ActiveResidues>
 VAL166  LYS551  ARG553  GLY616  TRP617  ASP618  TYR619  PRO620  LYS621  CYS622 
 ASP623  PHE694  ASN695  SER759  ASP760  ASP761  ALA762  ILE779  LEU786  VAL792 
 PHE793  MET794  SER795  GLU796  ALA797  LYS798  CYS799  TRP800  GLU811  SER814 

> <Gold.Protein.RotatedAtoms>
  151.6631  135.0986  160.0183 H   0  0  0  0  0  0  0  0  0  0  0  0  # atno 6907 bound_to 6896
  152.3935  133.6709  159.6265 H   0  0  0  0  0  0  0  0  0  0  0  0  # atno 6908 bound_to 6896
  150.7846  133.8830  159.3332 H   0  0  0  0  0  0  0  0  0  0  0  0  # atno 6909 bound_to 6896
  145.9614  139.4063  143.0246 H   0  0  0  0  0  0  0  0  0  0  0  0  # atno 7974 bound_to 7965
  155.6527  140.0714  157.2581 H   0  0  0  0  0  0  0  0  0  0  0  0  # atno 8008 bound_to 7997
  154.4159  140.1730  156.1742 H   0  0  0  0  0  0  0  0  0  0  0  0  # atno 8009 bound_to 7997
  155.9763  140.3357  155.6625 H   0  0  0  0  0  0  0  0  0  0  0  0  # atno 8010 bound_to 7997
  139.5721  144.6944  151.3751 H   0  0  0  0  0  0  0  0  0  0  0  0  # atno 10167 bound_to 10162
  156.0535  130.5761  150.8093 H   0  0  0  0  0  0  0  0  0  0  0  0  # atno 10718 bound_to 10713
  154.3815  135.2753  155.2208 H   0  0  0  0  0  0  0  0  0  0  0  0  # atno 10763 bound_to 10752
  154.4313  135.5976  153.6074 H   0  0  0  0  0  0  0  0  0  0  0  0  # atno 10764 bound_to 10752
  152.9834  135.5996  154.4058 H   0  0  0  0  0  0  0  0  0  0  0  0  # atno 10765 bound_to 10752
  139.9317  134.9641  156.8274 H   0  0  0  0  0  0  0  0  0  0  0  0  # atno 11005 bound_to 11000
  145.8034  140.9760  143.0986 LP  0  0  0  0  0  0  0  0  0  0  0  0  # atno 17320 bound_to 7965
  144.6816  139.9830  143.7483 LP  0  0  0  0  0  0  0  0  0  0  0  0  # atno 17321 bound_to 7965
  140.7005  143.7643  150.7395 LP  0  0  0  0  0  0  0  0  0  0  0  0  # atno 17342 bound_to 10162
  140.1152  143.4662  152.2346 LP  0  0  0  0  0  0  0  0  0  0  0  0  # atno 17343 bound_to 10162
  157.5483  131.0943  150.9732 LP  0  0  0  0  0  0  0  0  0  0  0  0  # atno 17370 bound_to 10713
  156.9998  130.5595  149.5310 LP  0  0  0  0  0  0  0  0  0  0  0  0  # atno 17371 bound_to 10713
  140.6184  134.0016  155.7607 LP  0  0  0  0  0  0  0  0  0  0  0  0  # atno 17394 bound_to 11000
  141.0909  133.9918  157.3239 LP  0  0  0  0  0  0  0  0  0  0  0  0  # atno 17395 bound_to 11000

$$$$
