#       Name:                AV-unprocessed.smi:110
#       Creating user name   scv26
#       Creation time:       Thu Mar 26 18:16:13 2020


#       File generated by GOLD software.
#

@<TRIPOS>MOLECULE
AV-unprocessed.smi:110
    57    61     1
SMALL
NO_CHARGES


@<TRIPOS>ATOM
      1 ****        -5.5168   4.0494   0.3797 O.3            1 S1                 0.0000
      2 ****        -4.5381   3.2745   1.0386 C.3            1 S1                 0.0000
      3 ****        -3.1391   3.8779   0.8187 C.3            1 S1                 0.0000
      4 ****        -2.1606   3.1912   1.5981 O.3            1 S1                 0.0000
      5 ****        -0.9375   3.1295   0.9249 C.3            1 S1                 0.0000
      6 ****        -0.6410   1.6839   0.6600 N.pl3          1 S1                 0.0000
      7 ****        -1.5131   0.6279   0.5081 C.2            1 S1                 0.0000
      8 ****        -0.9535  -0.5298   0.2849 N.2            1 S1                 0.0000
      9 ****         0.4101  -0.2593   0.2894 C.ar           1 S1                 0.0000
     10 ****         1.5853  -1.0476   0.1220 C.ar           1 S1                 0.0000
     11 ****         1.5647  -2.3800  -0.1388 N.pl3          1 S1                 0.0000
     12 ****         0.5426  -2.9207  -1.0483 C.3            1 S1                 0.0000
     13 ****         1.0494  -4.2726  -1.5808 C.3            1 S1                 0.0000
     14 ****         2.3029  -4.4365  -0.7868 C.ar           1 S1                 0.0000
     15 ****         3.1692  -5.5436  -0.7886 C.ar           1 S1                 0.0000
     16 ****         4.3017  -5.5036   0.0517 C.ar           1 S1                 0.0000
     17 ****         4.5427  -4.3767   0.8711 C.ar           1 S1                 0.0000
     18 ****         3.6583  -3.2757   0.8563 C.ar           1 S1                 0.0000
     19 ****         2.5329  -3.3146   0.0048 C.ar           1 S1                 0.0000
     20 ****         2.7798  -0.4060   0.2040 N.ar           1 S1                 0.0000
     21 ****         2.8287   0.9081   0.4385 C.ar           1 S1                 0.0000
     22 ****         1.8191   1.7615   0.6160 N.ar           1 S1                 0.0000
     23 ****         0.6138   1.1286   0.5330 C.ar           1 S1                 0.0000
     24 ****        -1.0963   3.9329  -0.3793 C.3            1 S1                 0.0000
     25 ****        -0.3401   3.4670  -1.4828 O.3            1 S1                 0.0000
     26 ****        -2.5992   3.8944  -0.6204 C.3            1 S1                 0.0000
     27 ****        -3.0091   2.7519  -1.3535 O.3            1 S1                 0.0000
     28 ****        -3.1397   4.9053   1.1869 H              1 S1                 0.0000
     29 ****        -0.1164   3.4701   1.5566 H              1 S1                 0.0000
     30 ****        -0.7999   4.9598  -0.1619 H              1 S1                 0.0000
     31 ****        -2.9381   4.7773  -1.1635 H              1 S1                 0.0000
     32 ****        -6.3658   3.6732   0.5551 H              1 S1                 0.0000
     33 ****        -4.7722   3.2621   2.1033 H              1 S1                 0.0000
     34 ****        -4.5915   2.2422   0.6925 H              1 S1                 0.0000
     35 ****        -2.5854   0.7380   0.5674 H              1 S1                 0.0000
     36 ****        -0.3851  -3.0656  -0.4941 H              1 S1                 0.0000
     37 ****         0.3381  -2.2303  -1.8677 H              1 S1                 0.0000
     38 ****         0.3466  -5.0843  -1.3909 H              1 S1                 0.0000
     39 ****         1.2789  -4.2311  -2.6460 H              1 S1                 0.0000
     40 ****         2.9716  -6.4024  -1.4131 H              1 S1                 0.0000
     41 ****         4.9843  -6.3402   0.0738 H              1 S1                 0.0000
     42 ****         5.4077  -4.3591   1.5174 H              1 S1                 0.0000
     43 ****         3.8466  -2.4288   1.4989 H              1 S1                 0.0000
     44 ****         3.8187   1.3369   0.4889 H              1 S1                 0.0000
     45 ****        -0.6067   2.5789  -1.6672 H              1 S1                 0.0000
     46 ****        -3.9481   2.7854  -1.4561 H              1 S1                 0.0000
     47 ****        -5.3432   4.0456  -0.6051 LP             1 S1                 0.0000
     48 ****        -5.4877   4.9894   0.7196 LP             1 S1                 0.0000
     49 ****        -2.4810   2.2616   1.7801 LP             1 S1                 0.0000
     50 ****        -2.0334   3.6754   2.4638 LP             1 S1                 0.0000
     51 ****        -1.4035  -1.4114   0.1428 LP             1 S1                 0.0000
     52 ****         3.6289  -0.9213   0.0879 LP             1 S1                 0.0000
     53 ****         1.9315   2.7402   0.7879 LP             1 S1                 0.0000
     54 ****         0.6344   3.4890  -1.2595 LP             1 S1                 0.0000
     55 ****        -0.5125   4.0452  -2.2803 LP             1 S1                 0.0000
     56 ****        -2.7527   1.9223  -0.8576 LP             1 S1                 0.0000
     57 ****        -2.5707   2.7519  -2.2523 LP             1 S1                 0.0000
@<TRIPOS>BOND
    1    1    2 1     
    2    1   32 1     
    3    2    3 1     
    4    2   33 1     
    5    2   34 1     
    6    3   28 1     
    7    3   26 1     
    8    3    4 1     
    9    4    5 1     
   10    5   29 1     
   11    5    6 1     
   12    5   24 1     
   13    6   23 1     
   14    6    7 1     
   15    7    8 2     
   16    7   35 1     
   17    8    9 1     
   18    9   23 ar    
   19    9   10 ar    
   20   10   11 1     
   21   10   20 ar    
   22   11   19 1     
   23   11   12 1     
   24   12   13 1     
   25   12   36 1     
   26   12   37 1     
   27   13   14 1     
   28   13   38 1     
   29   13   39 1     
   30   14   19 ar    
   31   14   15 ar    
   32   15   16 ar    
   33   15   40 1     
   34   16   17 ar    
   35   16   41 1     
   36   17   18 ar    
   37   17   42 1     
   38   18   19 ar    
   39   18   43 1     
   40   20   21 ar    
   41   21   22 ar    
   42   21   44 1     
   43   22   23 ar    
   44   24   30 1     
   45   24   25 1     
   46   24   26 1     
   47   25   45 1     
   48   26   31 1     
   49   26   27 1     
   50   27   46 1     
   51    1   47 1     
   52    1   48 1     
   53    4   49 1     
   54    4   50 1     
   55    8   51 1     
   56   20   52 1     
   57   22   53 1     
   58   25   54 1     
   59   25   55 1     
   60   27   56 1     
   61   27   57 1     
@<TRIPOS>SUBSTRUCTURE
      1 S1             1
@<TRIPOS>SET
LONE_PAIRS      STATIC     ATOMS    <user>   **** ""
11 47 48 49 50 51 52 53 54 55 56 57
DONOR_HYDROGENS      STATIC     ATOMS    <user>   **** ""
3 32 45 46
ATOM$BLUE        STATIC     ATOMS    COLORGROUP SYSTEM
11 47 48 49 50 51 52 53 54 55 56 57
ATOM$RED        STATIC     ATOMS    COLORGROUP SYSTEM
3 32 45 46
