AV-unprocessed.smi:2171|AV-procd|sdf|8831|dock5
  -GOLD-   2272012 23D 1   1.00000     0.00000
 Structure written by MMmdl.
 39 41  0  0  0  0  0  0  0  0  2 V2000
  152.7765  140.2686  157.0602 O   0  0  0  0  0  0  0  0  0  0  0  0
  151.7615  140.8405  157.4567 C   0  0  0  0  0  0  0  0  0  0  0  0
  151.6987  141.3856  158.8834 C   0  0  0  0  0  0  0  0  0  0  0  0
  151.4488  142.8159  158.8781 N   0  0  0  0  0  0  0  0  0  0  0  0
  152.3316  143.8430  159.1431 C   0  0  0  0  0  0  0  0  0  0  0  0
  151.6407  145.0146  159.0238 C   0  0  0  0  0  0  0  0  0  0  0  0
  150.3255  144.5973  158.6764 C   0  0  0  0  0  0  0  0  0  0  0  0
  150.2139  143.2816  158.5909 N   0  0  0  0  0  0  0  0  0  0  0  0
  150.6778  141.0397  156.6902 N   0  0  0  0  0  0  0  0  0  0  0  0
  150.5586  140.6495  155.2889 C   0  0  1  0  0  0  0  0  0  0  0  0
  151.2294  139.2997  154.9796 C   0  0  0  0  0  0  0  0  0  0  0  0
  150.3123  138.6162  153.9454 C   0  0  0  0  0  0  0  0  0  0  0  0
  149.2464  139.5955  153.6583 N   0  3  1  0  0  0  0  0  0  0  0  0
  147.9564  139.0644  153.1663 C   0  0  0  0  0  0  0  0  0  0  0  0
  147.0112  140.2401  152.8470 C   0  0  0  0  0  0  0  0  0  0  0  0
  146.8659  141.1991  154.0462 C   0  0  0  0  0  0  0  0  0  0  0  0
  148.2435  141.6453  154.5726 C   0  0  0  0  0  0  0  0  0  0  0  0
  149.1045  140.4075  154.8762 C   0  0  2  0  0  0  0  0  0  0  0  0
  150.9074  140.8920  159.4495 H   0  0  0  0  0  0  0  0  0  0  0  0
  152.6384  141.1795  159.3989 H   0  0  0  0  0  0  0  0  0  0  0  0
  153.3651  143.6563  159.3943 H   0  0  0  0  0  0  0  0  0  0  0  0
  152.0171  146.0171  159.1631 H   0  0  0  0  0  0  0  0  0  0  0  0
  149.4545  145.2066  158.4861 H   0  0  0  0  0  0  0  0  0  0  0  0
  149.8868  141.5125  157.1032 H   0  0  0  0  0  0  0  0  0  0  0  0
  151.0003  141.4078  154.6385 H   0  0  0  0  0  0  0  0  0  0  0  0
  152.2409  139.4411  154.5969 H   0  0  0  0  0  0  0  0  0  0  0  0
  151.3021  138.6777  155.8731 H   0  0  0  0  0  0  0  0  0  0  0  0
  150.8436  138.3475  153.0318 H   0  0  0  0  0  0  0  0  0  0  0  0
  149.8842  137.7060  154.3685 H   0  0  0  0  0  0  0  0  0  0  0  0
  148.1244  138.4632  152.2722 H   0  0  0  0  0  0  0  0  0  0  0  0
  147.5123  138.4095  153.9178 H   0  0  0  0  0  0  0  0  0  0  0  0
  147.4009  140.7934  151.9915 H   0  0  0  0  0  0  0  0  0  0  0  0
  146.0325  139.8631  152.5484 H   0  0  0  0  0  0  0  0  0  0  0  0
  146.2728  142.0686  153.7619 H   0  0  0  0  0  0  0  0  0  0  0  0
  146.3167  140.6988  154.8449 H   0  0  0  0  0  0  0  0  0  0  0  0
  148.7384  142.2764  153.8333 H   0  0  0  0  0  0  0  0  0  0  0  0
  148.1184  142.2518  155.4699 H   0  0  0  0  0  0  0  0  0  0  0  0
  148.6117  139.8029  155.6414 H   0  0  0  0  0  0  0  0  0  0  0  0
  149.6084  140.2130  152.9457 H   0  0  0  0  0  0  0  0  0  0  0  0
  1  2  2  0  0  0  0
  2  3  1  0  0  0  0
  2  9  1  0  0  0  0
  3  4  1  0  0  0  0
  3 19  1  0  0  0  0
  3 20  1  0  0  0  0
  4  8  1  0  0  0  0
  4  5  1  0  0  0  0
  5  6  2  0  0  0  0
  5 21  1  0  0  0  0
  6  7  1  0  0  0  0
  6 22  1  0  0  0  0
  7  8  2  0  0  0  0
  7 23  1  0  0  0  0
  9 10  1  0  0  0  0
  9 24  1  0  0  0  0
 10 18  1  0  0  0  0
 10 11  1  0  0  0  0
 10 25  1  0  0  0  0
 11 12  1  0  0  0  0
 11 26  1  0  0  0  0
 11 27  1  0  0  0  0
 12 13  1  0  0  0  0
 12 28  1  0  0  0  0
 12 29  1  0  0  0  0
 13 18  1  0  0  0  0
 13 14  1  0  0  0  0
 13 39  1  0  0  0  0
 14 15  1  0  0  0  0
 14 30  1  0  0  0  0
 14 31  1  0  0  0  0
 15 16  1  0  0  0  0
 15 32  1  0  0  0  0
 15 33  1  0  0  0  0
 16 17  1  0  0  0  0
 16 34  1  0  0  0  0
 16 35  1  0  0  0  0
 17 18  1  0  0  0  0
 17 36  1  0  0  0  0
 17 37  1  0  0  0  0
 18 38  1  0  0  0  0
M  CHG  1  13   1
M  END
> <s_m_source_file>
AV-unprocessed.smi

> <i_m_source_file_index>
2171

> <i_lp_mmshare_version>
43012

> <i_f3d_flags>
0

> <s_epik_input>
bjFbY0hdW2NIXVtjSF1uMVtDSDJdQyg9TylbTkhdW0NASF0oW0NIMl1bQ0gyXTIpW0NAQEhdKE4yMylbQ0gyXVtDSDJdW0NIMl1bQ0gyXTM=

> <s_epik_cmdline>
J2VwaWtfcHl0aG9uJywgJy1waCcsICc3LjAnLCAnLXRuJywgJzgnLCAnLW1hJywgJzIwMCcsICctbWV0YWxfYmluZGluZycsICctaW1hZScsICc8aW5maWxlLm1hZT4nLCAnLW9tYWUnLCAnPG91dGZpbGUubWFlPic=

> <r_lp_tautomer_probability>
1

> <r_epik_Ionization_Penalty>
0.00204179

> <r_epik_Ionization_Penalty_Charging>
0.00203239

> <r_epik_Ionization_Penalty_Neutral>
9.40205e-06

> <r_epik_State_Penalty>
0.00138983

> <r_epik_Charging_Adjusted_Penalty>
0.00342221

> <i_epik_Tot_Q>
1

> <i_epik_Tot_abs_Q>
1

> <r_epik_Metal_State_Penalty>
-0

> <b_epik_Metal_Only>
0

> <s_lp_Force_Field>
OPLS_2005

> <r_lp_Energy>
34.4486

> <b_lp_Chiralities_Consistent>
1

> <s_lp_Variant>
AV-unprocessed.smi:2171-6

> <Gold.Version>
5.8.1

> <Gold.Id.Protein>
6NUR|6NUR_protein|mol2

> <Gold.PLP.Fitness>
46.6019

> <Gold.PLP.PLP>
-39.2914

> <Gold.PLP.part.hbond>
-2.0000

> <Gold.PLP.part.metal>
0.0000

> <Gold.PLP.part.buried>
-0.6194

> <Gold.PLP.part.nonpolar>
-37.2226

> <Gold.PLP.part.repulsive>
0.3037

> <Gold.PLP.ligand.clash>
0.0000

> <Gold.PLP.ligand.torsion>
0.5136

> <Gold.PLP.Chemscore.Hbond>
1.7840

> <Gold.PLP.Chemscore.CHOScore>
0.9910

> <Gold.PLP.Chemscore.Metal>
0.0000

> <Gold.Chemscore.Hbonds>
donor molecule, donor type, donor heavy atom, donor atom, acceptor molecule, acceptor atom, score
      L1  H    13    39       P1  7957  0.61
      P1  H  7997  8009       L1     1  0.96
      L1  C     7    23       P1  8029  1.00

> <Gold.PLP.Chemscore.Internal.Correction>
0.0125

> <Gold.Rescore>
     Score         DG    S(hbond)    S(metal)    S(lipo)     H(rot)  DE(clash)    DE(int)     intcor
     18.52     -20.29       1.92        0.00     103.33       1.44       0.05       1.72       ----

> <Gold.Chemscore.Fitness>
18.5155

> <Gold.Chemscore.DG>
-20.2913

> <Gold.Chemscore.ZeroCoef>
-5.4800

> <Gold.Chemscore.Hbond>
1.9194

> <Gold.Chemscore.Metal>
0.0000

> <Gold.Chemscore.Lipo>
103.3288

> <Gold.Chemscore.Internal_Hbond>
0.0000

> <Gold.Chemscore.DEClash>
0.0542

> <Gold.Chemscore.DEInternal>
1.7216

> <Gold.Chemscore.Rot>
1.4410

> <Gold.Chemscore.Internal.Correction>
   9.000000E+99

> <Gold.Chemscore.Hbonds>
donor molecule, donor type, donor heavy atom, donor atom, acceptor molecule, acceptor atom, score
      L1  H    13    39       P1  7957  0.60
      P1  H  7997  8009       L1     1  0.92

> <Gold.Chemscore.Hbond.Weighted>
-6.4108

> <Gold.Chemscore.Metal.Weighted>
-0.0000

> <Gold.Chemscore.Lipo.Weighted>
-12.0895

> <Gold.Chemscore.Internal_Hbond.Weighted>
0.0000

> <Gold.Chemscore.DEClash.Weighted>
0.0542

> <Gold.Chemscore.DEInternal.Weighted>
1.7216

> <Gold.Chemscore.Rot.Weighted>
3.6889

> <Gold.Chemscore.Internal.Correction.Weighted>
   9.000000E+99

> <Gold.Protein.RotatedTorsions>
[ 6907 6896 6895 6894 ] final  166.64 input  -60.11 | X-H torsion
[ 7974 7965 7964 7962 ] final -134.77 input  175.53 | X-H torsion
[ 8008 7997 7996 7995 ] final  174.08 input   59.86 | X-H torsion
[ 10167 10162 10161 10158 ] final  -73.60 input  -65.29 | X-H torsion
[ 10718 10713 10712 10709 ] final -110.61 input   66.30 | X-H torsion
[ 10763 10752 10751 10750 ] final -126.46 input  -60.55 | X-H torsion
[ 11005 11000 10999 10996 ] final  134.83 input  -57.11 | X-H torsion

> <Gold.Protein.ActiveResidues>
 VAL166  LYS551  ARG553  GLY616  TRP617  ASP618  TYR619  PRO620  LYS621  CYS622 
 ASP623  PHE694  ASN695  SER759  ASP760  ASP761  ALA762  ILE779  LEU786  VAL792 
 PHE793  MET794  SER795  GLU796  ALA797  LYS798  CYS799  TRP800  GLU811  SER814 

> <Gold.Protein.RotatedAtoms>
  151.8758  133.3485  159.3749 H   0  0  0  0  0  0  0  0  0  0  0  0  # atno 6907 bound_to 6896
  150.7140  134.5068  159.5597 H   0  0  0  0  0  0  0  0  0  0  0  0  # atno 6908 bound_to 6896
  152.2610  134.8035  160.0481 H   0  0  0  0  0  0  0  0  0  0  0  0  # atno 6909 bound_to 6896
  144.9073  140.6850  143.5047 H   0  0  0  0  0  0  0  0  0  0  0  0  # atno 7974 bound_to 7965
  156.1011  140.1443  156.9467 H   0  0  0  0  0  0  0  0  0  0  0  0  # atno 8008 bound_to 7997
  154.4703  140.0912  156.7172 H   0  0  0  0  0  0  0  0  0  0  0  0  # atno 8009 bound_to 7997
  155.4759  140.3443  155.4335 H   0  0  0  0  0  0  0  0  0  0  0  0  # atno 8010 bound_to 7997
  140.5097  143.2347  151.7614 H   0  0  0  0  0  0  0  0  0  0  0  0  # atno 10167 bound_to 10162
  156.0600  130.5824  150.8261 H   0  0  0  0  0  0  0  0  0  0  0  0  # atno 10718 bound_to 10713
  154.8745  135.3995  154.3434 H   0  0  0  0  0  0  0  0  0  0  0  0  # atno 10763 bound_to 10752
  153.4230  135.7023  153.6286 H   0  0  0  0  0  0  0  0  0  0  0  0  # atno 10764 bound_to 10752
  153.4940  135.3742  155.2476 H   0  0  0  0  0  0  0  0  0  0  0  0  # atno 10765 bound_to 10752
  139.9940  134.9504  156.9922 H   0  0  0  0  0  0  0  0  0  0  0  0  # atno 11005 bound_to 11000
  145.3514  139.1705  143.4433 LP  0  0  0  0  0  0  0  0  0  0  0  0  # atno 17320 bound_to 7965
  146.3140  140.3566  142.8661 LP  0  0  0  0  0  0  0  0  0  0  0  0  # atno 17321 bound_to 7965
  139.4893  144.4408  151.9766 LP  0  0  0  0  0  0  0  0  0  0  0  0  # atno 17342 bound_to 10162
  140.3500  144.3100  150.5951 LP  0  0  0  0  0  0  0  0  0  0  0  0  # atno 17343 bound_to 10162
  157.5602  131.0945  150.9570 LP  0  0  0  0  0  0  0  0  0  0  0  0  # atno 17370 bound_to 10713
  156.9810  130.5527  149.5296 LP  0  0  0  0  0  0  0  0  0  0  0  0  # atno 17371 bound_to 10713
  140.4853  134.1247  155.7223 LP  0  0  0  0  0  0  0  0  0  0  0  0  # atno 17394 bound_to 11000
  141.1589  133.8830  157.1901 LP  0  0  0  0  0  0  0  0  0  0  0  0  # atno 17395 bound_to 11000

$$$$
