#       Name:                AV-unprocessed.smi:2779
#       Creating user name   scv26
#       Creation time:       Fri Mar 27 15:14:46 2020


#       File generated by GOLD software.
#

@<TRIPOS>MOLECULE
AV-unprocessed.smi:2779
    45    46     1
SMALL
NO_CHARGES


@<TRIPOS>ATOM
      1 ****        -1.9625   0.4384  -3.5168 O.2            1 S1                 0.0000
      2 ****        -2.7705   0.3227  -2.5956 C.2            1 S1                 0.0000
      3 ****        -4.2178   0.3417  -2.7921 C.2            1 S1                 0.0000
      4 ****        -5.0764   0.1984  -1.7599 C.2            1 S1                 0.0000
      5 ****        -4.5554   0.0216  -0.4144 C.2            1 S1                 0.0000
      6 ****        -5.4310  -0.1518   0.8022 C.3            1 S1                 0.0000
      7 ****        -6.7226  -0.1264   0.4717 F              1 S1                 0.0000
      8 ****        -5.1681  -1.3179   1.3929 F              1 S1                 0.0000
      9 ****        -5.1986   0.8271   1.6772 F              1 S1                 0.0000
     10 ****        -3.2740   0.0087  -0.2336 N.2            1 S1                 0.0000
     11 ****        -2.3961   0.1562  -1.2934 N.am           1 S1                 0.0000
     12 ****        -0.9809   0.1019  -0.9073 C.3            1 S1                 0.0000
     13 ****        -0.3680  -1.2937  -1.1536 C.3            1 S1                 0.0000
     14 ****        -0.7446  -2.1864  -0.1242 O.3            1 S1                 0.0000
     15 ****         1.1680  -1.2771  -1.2239 C.3            1 S1                 0.0000
     16 ****         1.7013  -0.5250  -0.1448 O.3            1 S1                 0.0000
     17 ****         3.1192  -0.4839  -0.1504 C.3            1 S1                 0.0000
     18 ****         3.6748   0.2667   1.0454 C.ar           1 S1                 0.0000
     19 ****         3.0375   0.1805   2.3020 C.ar           1 S1                 0.0000
     20 ****         3.5705   0.8596   3.4149 C.ar           1 S1                 0.0000
     21 ****         4.7461   1.6229   3.2783 C.ar           1 S1                 0.0000
     22 ****         5.3905   1.7040   2.0288 C.ar           1 S1                 0.0000
     23 ****         4.8579   1.0247   0.9155 C.ar           1 S1                 0.0000
     24 ****        -0.7382  -1.7072  -2.0924 H              1 S1                 0.0000
     25 ****        -4.6096   0.4725  -3.7902 H              1 S1                 0.0000
     26 ****        -6.1427   0.2142  -1.9293 H              1 S1                 0.0000
     27 ****        -0.4304   0.8501  -1.4808 H              1 S1                 0.0000
     28 ****        -0.8511   0.3966   0.1362 H              1 S1                 0.0000
     29 ****        -1.6883  -2.2192  -0.0873 H              1 S1                 0.0000
     30 ****         1.5635  -2.2946  -1.2236 H              1 S1                 0.0000
     31 ****         1.4778  -0.8139  -2.1620 H              1 S1                 0.0000
     32 ****         3.5220  -1.4976  -0.1304 H              1 S1                 0.0000
     33 ****         3.4669  -0.0120  -1.0708 H              1 S1                 0.0000
     34 ****         2.1391  -0.4081   2.4178 H              1 S1                 0.0000
     35 ****         3.0790   0.7922   4.3743 H              1 S1                 0.0000
     36 ****         5.1552   2.1426   4.1323 H              1 S1                 0.0000
     37 ****         6.2951   2.2849   1.9248 H              1 S1                 0.0000
     38 ****         5.3614   1.0875  -0.0381 H              1 S1                 0.0000
     39 ****        -0.9810   0.4123  -3.3272 LP             1 S1                 0.0000
     40 ****        -2.2875   0.5584  -4.4548 LP             1 S1                 0.0000
     41 ****        -2.9108  -0.1103   0.6905 LP             1 S1                 0.0000
     42 ****        -0.3835  -1.8642   0.7509 LP             1 S1                 0.0000
     43 ****        -0.3825  -3.0980  -0.3187 LP             1 S1                 0.0000
     44 ****         1.3972  -0.9382   0.7136 LP             1 S1                 0.0000
     45 ****         1.3544   0.4109  -0.2056 LP             1 S1                 0.0000
@<TRIPOS>BOND
    1    1    2 2     
    2    2   11 am    
    3    2    3 1     
    4    3    4 2     
    5    3   25 1     
    6    4    5 1     
    7    4   26 1     
    8    5    6 1     
    9    5   10 2     
   10    6    7 1     
   11    6    8 1     
   12    6    9 1     
   13   10   11 1     
   14   11   12 1     
   15   12   13 1     
   16   12   27 1     
   17   12   28 1     
   18   13   24 1     
   19   13   14 1     
   20   13   15 1     
   21   14   29 1     
   22   15   16 1     
   23   15   30 1     
   24   15   31 1     
   25   16   17 1     
   26   17   18 1     
   27   17   32 1     
   28   17   33 1     
   29   18   23 ar    
   30   18   19 ar    
   31   19   20 ar    
   32   19   34 1     
   33   20   21 ar    
   34   20   35 1     
   35   21   22 ar    
   36   21   36 1     
   37   22   23 ar    
   38   22   37 1     
   39   23   38 1     
   40    1   39 1     
   41    1   40 1     
   42   10   41 1     
   43   14   42 1     
   44   14   43 1     
   45   16   44 1     
   46   16   45 1     
@<TRIPOS>SUBSTRUCTURE
      1 S1             1
@<TRIPOS>SET
LONE_PAIRS      STATIC     ATOMS    <user>   **** ""
7 39 40 41 42 43 44 45
DONOR_HYDROGENS      STATIC     ATOMS    <user>   **** ""
1 29
ATOM$BLUE        STATIC     ATOMS    COLORGROUP SYSTEM
7 39 40 41 42 43 44 45
ATOM$RED        STATIC     ATOMS    COLORGROUP SYSTEM
1 29
