AV-unprocessed.smi:276|AV-procd|sdf|2070|dock10
  -GOLD-   2262021323D 1   1.00000     0.00000
 Structure written by MMmdl.
 57 61  0  0  0  0  0  0  0  0  1 V2000
  151.3227  142.3604  156.8588 C   0  0  0  0  0  0  0  0  0  0  0  0
  150.5612  141.9807  155.7262 O   0  0  0  0  0  0  0  0  0  0  0  0
  149.9409  140.7142  155.8840 C   0  0  2  0  0  0  0  0  0  0  0  0
  150.7312  139.5399  155.2941 C   0  0  0  0  0  0  0  0  0  0  0  0
  149.4031  138.9679  154.7596 C   0  0  1  0  0  0  0  0  0  0  0  0
  148.8075  138.0087  155.7013 N   0  0  0  0  0  0  0  0  0  0  0  0
  149.7449  137.2028  156.4775 C   0  0  0  0  0  0  0  0  0  0  0  0
  147.8329  137.2170  155.2005 C   0  0  0  0  0  0  0  0  0  0  0  0
  147.4751  136.1390  155.9418 N   0  0  0  0  0  0  0  0  0  0  0  0
  146.5090  135.3222  155.5113 C   0  0  0  0  0  0  0  0  0  0  0  0
  145.7907  135.3966  154.3888 N   0  0  0  0  0  0  0  0  0  0  0  0
  146.1602  136.4712  153.6341 C   0  0  0  0  0  0  0  0  0  0  0  0
  147.1682  137.4227  153.9572 C   0  0  0  0  0  0  0  0  0  0  0  0
  147.2663  138.3691  152.9436 N   0  0  0  0  0  0  0  0  0  0  0  0
  146.3577  138.0078  152.0798 C   0  0  0  0  0  0  0  0  0  0  0  0
  145.6457  136.8796  152.4166 N   0  0  0  0  0  0  0  0  0  0  0  0
  144.5781  136.2664  151.6450 C   0  0  0  0  0  0  0  0  0  0  0  0
  145.0888  135.1390  150.7180 C   0  0  2  0  0  0  0  0  0  0  0  0
  144.1397  134.9713  149.6807 O   0  0  0  0  0  0  0  0  0  0  0  0
  145.2508  133.7675  151.4159 C   0  0  2  0  0  0  0  0  0  0  0  0
  146.0029  132.6974  150.6043 C   0  0  0  0  0  0  0  0  0  0  0  0
  144.8967  131.9503  149.8968 C   0  0  0  0  0  0  0  0  0  0  0  0
  143.8201  131.9501  150.9688 C   0  0  0  0  0  0  0  0  0  0  0  0
  143.9374  133.2247  151.5874 O   0  0  0  0  0  0  0  0  0  0  0  0
  148.8519  140.4180  154.8371 C   0  0  0  0  0  0  0  0  0  0  0  0
  148.7727  141.2644  153.5532 C   0  0  0  0  0  0  0  0  0  0  0  0
  147.6222  142.0400  154.2006 C   0  0  0  0  0  0  0  0  0  0  0  0
  147.3834  140.8141  155.0853 C   0  0  0  0  0  0  0  0  0  0  0  0
  151.7636  143.3428  156.6897 H   0  0  0  0  0  0  0  0  0  0  0  0
  152.1336  141.6558  157.0469 H   0  0  0  0  0  0  0  0  0  0  0  0
  150.6976  142.4207  157.7504 H   0  0  0  0  0  0  0  0  0  0  0  0
  149.5900  140.5228  156.9004 H   0  0  0  0  0  0  0  0  0  0  0  0
  151.4015  139.8491  154.4902 H   0  0  0  0  0  0  0  0  0  0  0  0
  151.2609  138.9418  156.0349 H   0  0  0  0  0  0  0  0  0  0  0  0
  149.5025  138.5908  153.7419 H   0  0  0  0  0  0  0  0  0  0  0  0
  149.2598  136.3459  156.9484 H   0  0  0  0  0  0  0  0  0  0  0  0
  150.1906  137.7968  157.2747 H   0  0  0  0  0  0  0  0  0  0  0  0
  150.5476  136.8285  155.8411 H   0  0  0  0  0  0  0  0  0  0  0  0
  146.2762  134.4914  156.1609 H   0  0  0  0  0  0  0  0  0  0  0  0
  146.1777  138.5596  151.1686 H   0  0  0  0  0  0  0  0  0  0  0  0
  143.8459  135.8877  152.3565 H   0  0  0  0  0  0  0  0  0  0  0  0
  144.0765  137.0410  151.0633 H   0  0  0  0  0  0  0  0  0  0  0  0
  146.0370  135.4422  150.2723 H   0  0  0  0  0  0  0  0  0  0  0  0
  144.5856  134.6410  148.9157 H   0  0  0  0  0  0  0  0  0  0  0  0
  145.7337  133.8941  152.3860 H   0  0  0  0  0  0  0  0  0  0  0  0
  146.7584  133.0777  149.9203 H   0  0  0  0  0  0  0  0  0  0  0  0
  146.5097  132.0166  151.2899 H   0  0  0  0  0  0  0  0  0  0  0  0
  144.5624  132.5066  149.0201 H   0  0  0  0  0  0  0  0  0  0  0  0
  145.1867  130.9476  149.5818 H   0  0  0  0  0  0  0  0  0  0  0  0
  142.8205  131.7903  150.5643 H   0  0  0  0  0  0  0  0  0  0  0  0
  144.0182  131.1759  151.7113 H   0  0  0  0  0  0  0  0  0  0  0  0
  149.6568  141.8593  153.3230 H   0  0  0  0  0  0  0  0  0  0  0  0
  148.4490  140.6830  152.6881 H   0  0  0  0  0  0  0  0  0  0  0  0
  147.9626  142.9094  154.7653 H   0  0  0  0  0  0  0  0  0  0  0  0
  146.8006  142.2875  153.5280 H   0  0  0  0  0  0  0  0  0  0  0  0
  146.6552  140.1408  154.6335 H   0  0  0  0  0  0  0  0  0  0  0  0
  147.1353  141.0381  156.1229 H   0  0  0  0  0  0  0  0  0  0  0  0
  1  2  1  0  0  0  0
  1 29  1  0  0  0  0
  1 30  1  0  0  0  0
  1 31  1  0  0  0  0
  2  3  1  0  0  0  0
  3 25  1  0  0  0  0
  3  4  1  0  0  0  0
  3 32  1  0  0  0  0
  4  5  1  0  0  0  0
  4 33  1  0  0  0  0
  4 34  1  0  0  0  0
  5  6  1  0  0  0  0
  5 25  1  0  0  0  0
  5 35  1  0  0  0  0
  6  7  1  0  0  0  0
  6  8  1  0  0  0  0
  7 36  1  0  0  0  0
  7 37  1  0  0  0  0
  7 38  1  0  0  0  0
  8 13  1  0  0  0  0
  8  9  2  0  0  0  0
  9 10  1  0  0  0  0
 10 11  2  0  0  0  0
 10 39  1  0  0  0  0
 11 12  1  0  0  0  0
 12 16  1  0  0  0  0
 12 13  2  0  0  0  0
 13 14  1  0  0  0  0
 14 15  2  0  0  0  0
 15 16  1  0  0  0  0
 15 40  1  0  0  0  0
 16 17  1  0  0  0  0
 17 18  1  0  0  0  0
 17 41  1  0  0  0  0
 17 42  1  0  0  0  0
 18 19  1  0  0  0  0
 18 20  1  0  0  0  0
 18 43  1  0  0  0  0
 19 44  1  0  0  0  0
 20 24  1  0  0  0  0
 20 21  1  0  0  0  0
 20 45  1  0  0  0  0
 21 22  1  0  0  0  0
 21 46  1  0  0  0  0
 21 47  1  0  0  0  0
 22 23  1  0  0  0  0
 22 48  1  0  0  0  0
 22 49  1  0  0  0  0
 23 24  1  0  0  0  0
 23 50  1  0  0  0  0
 23 51  1  0  0  0  0
 25 28  1  0  0  0  0
 25 26  1  0  0  0  0
 26 27  1  0  0  0  0
 26 52  1  0  0  0  0
 26 53  1  0  0  0  0
 27 28  1  0  0  0  0
 27 54  1  0  0  0  0
 27 55  1  0  0  0  0
 28 56  1  0  0  0  0
 28 57  1  0  0  0  0
M  END
> <s_m_source_file>
AV-unprocessed.smi

> <i_m_source_file_index>
276

> <i_lp_mmshare_version>
43012

> <i_f3d_flags>
0

> <s_epik_input>
W0NIMl0xW0NIMl1bQ0gyXUMxMltDQEhdKE9bQ0gzXSlbQ0gyXVtDQEhdMk4oW0NIM10pYyhuW2NIXW4zKWMoYzM0KW5bY0hdbjRbQ0gyXVtDQEhdKFtPSF0pW0NAQEhdNVtDSDJdW0NIMl1bQ0gyXU81

> <s_epik_cmdline>
J2VwaWtfcHl0aG9uJywgJy1waCcsICc3LjAnLCAnLXRuJywgJzgnLCAnLW1hJywgJzIwMCcsICctbWV0YWxfYmluZGluZycsICctaW1hZScsICc8aW5maWxlLm1hZT4nLCAnLW9tYWUnLCAnPG91dGZpbGUubWFlPic=

> <r_lp_tautomer_probability>
1

> <r_epik_Ionization_Penalty>
0.00204117

> <r_epik_Ionization_Penalty_Charging>
0

> <r_epik_Ionization_Penalty_Neutral>
0.00204117

> <r_epik_State_Penalty>
0.00127401

> <r_epik_Charging_Adjusted_Penalty>
0.00127401

> <i_epik_Tot_Q>
0

> <i_epik_Tot_abs_Q>
0

> <r_epik_Metal_State_Penalty>
-0

> <b_epik_Metal_Only>
0

> <s_lp_Force_Field>
OPLS_2005

> <r_lp_Energy>
59.1309

> <b_lp_Chiralities_Consistent>
1

> <s_lp_Variant>
AV-unprocessed.smi:276-1

> <Gold.Version>
5.8.1

> <Gold.Id.Protein>
6NUR|6NUR_protein|mol2

> <Gold.PLP.Fitness>
40.7041

> <Gold.PLP.PLP>
-38.8054

> <Gold.PLP.part.hbond>
-1.6225

> <Gold.PLP.part.metal>
0.0000

> <Gold.PLP.part.buried>
-2.8208

> <Gold.PLP.part.nonpolar>
-35.9030

> <Gold.PLP.part.repulsive>
1.9786

> <Gold.PLP.ligand.clash>
0.0000

> <Gold.PLP.ligand.torsion>
2.4246

> <Gold.PLP.Chemscore.Hbond>
1.0000

> <Gold.PLP.Chemscore.CHOScore>
1.0000

> <Gold.PLP.Chemscore.Metal>
0.0000

> <Gold.Chemscore.Hbonds>
donor molecule, donor type, donor heavy atom, donor atom, acceptor molecule, acceptor atom, score
      L1  H    19    44       P1  7921  0.96
      L1  C    15    40       P1 10171  0.62

> <Gold.PLP.Chemscore.Internal.Correction>
0.7478

> <Gold.Rescore>
     Score         DG    S(hbond)    S(metal)    S(lipo)     H(rot)  DE(clash)    DE(int)     intcor
      9.13     -13.39       0.99        0.00      98.98       2.72       0.59       3.67       ----

> <Gold.Chemscore.Fitness>
9.1332

> <Gold.Chemscore.DG>
-13.3948

> <Gold.Chemscore.ZeroCoef>
-5.4800

> <Gold.Chemscore.Hbond>
0.9850

> <Gold.Chemscore.Metal>
0.0000

> <Gold.Chemscore.Lipo>
98.9803

> <Gold.Chemscore.Internal_Hbond>
0.0000

> <Gold.Chemscore.DEClash>
0.5918

> <Gold.Chemscore.DEInternal>
3.6697

> <Gold.Chemscore.Rot>
2.7172

> <Gold.Chemscore.Internal.Correction>
   9.000000E+99

> <Gold.Chemscore.Hbonds>
donor molecule, donor type, donor heavy atom, donor atom, acceptor molecule, acceptor atom, score
      L1  H    19    44       P1  7921  0.88

> <Gold.Chemscore.Hbond.Weighted>
-3.2901

> <Gold.Chemscore.Metal.Weighted>
-0.0000

> <Gold.Chemscore.Lipo.Weighted>
-11.5807

> <Gold.Chemscore.Internal_Hbond.Weighted>
0.0000

> <Gold.Chemscore.DEClash.Weighted>
0.5918

> <Gold.Chemscore.DEInternal.Weighted>
3.6697

> <Gold.Chemscore.Rot.Weighted>
6.9560

> <Gold.Chemscore.Internal.Correction.Weighted>
   9.000000E+99

> <Gold.Protein.RotatedTorsions>
[ 6907 6896 6895 6894 ] final   50.95 input  -60.11 | X-H torsion
[ 7974 7965 7964 7962 ] final  155.95 input  175.53 | X-H torsion
[ 8008 7997 7996 7995 ] final  136.61 input   59.86 | X-H torsion
[ 10167 10162 10161 10158 ] final  -52.27 input  -65.29 | X-H torsion
[ 10718 10713 10712 10709 ] final   86.66 input   66.30 | X-H torsion
[ 10763 10752 10751 10750 ] final  145.06 input  -60.55 | X-H torsion
[ 11005 11000 10999 10996 ] final  -50.85 input  -57.11 | X-H torsion

> <Gold.Protein.ActiveResidues>
 VAL166  LYS551  ARG553  GLY616  TRP617  ASP618  TYR619  PRO620  LYS621  CYS622 
 ASP623  PHE694  ASN695  SER759  ASP760  ASP761  ALA762  ILE779  LEU786  VAL792 
 PHE793  MET794  SER795  GLU796  ALA797  LYS798  CYS799  TRP800  GLU811  SER814 

> <Gold.Protein.RotatedAtoms>
  152.3074  134.7538  160.0343 H   0  0  0  0  0  0  0  0  0  0  0  0  # atno 6907 bound_to 6896
  151.8030  133.3367  159.3541 H   0  0  0  0  0  0  0  0  0  0  0  0  # atno 6908 bound_to 6896
  150.7303  134.5665  159.5913 H   0  0  0  0  0  0  0  0  0  0  0  0  # atno 6909 bound_to 6896
  144.7993  139.7137  143.6188 H   0  0  0  0  0  0  0  0  0  0  0  0  # atno 7974 bound_to 7965
  156.3004  140.2441  156.3773 H   0  0  0  0  0  0  0  0  0  0  0  0  # atno 8008 bound_to 7997
  154.8733  140.0415  157.1757 H   0  0  0  0  0  0  0  0  0  0  0  0  # atno 8009 bound_to 7997
  154.8772  140.2944  155.5450 H   0  0  0  0  0  0  0  0  0  0  0  0  # atno 8010 bound_to 7997
  140.6546  143.2590  151.4623 H   0  0  0  0  0  0  0  0  0  0  0  0  # atno 10167 bound_to 10162
  157.6931  131.0224  150.3006 H   0  0  0  0  0  0  0  0  0  0  0  0  # atno 10718 bound_to 10713
  153.9992  135.2925  155.3404 H   0  0  0  0  0  0  0  0  0  0  0  0  # atno 10763 bound_to 10752
  154.7169  135.5125  153.8755 H   0  0  0  0  0  0  0  0  0  0  0  0  # atno 10764 bound_to 10752
  153.0774  135.6668  154.0235 H   0  0  0  0  0  0  0  0  0  0  0  0  # atno 10765 bound_to 10752
  141.0839  133.6647  156.3792 H   0  0  0  0  0  0  0  0  0  0  0  0  # atno 11005 bound_to 11000
  146.2270  139.5742  142.9580 LP  0  0  0  0  0  0  0  0  0  0  0  0  # atno 17320 bound_to 7965
  145.5593  141.0406  143.2235 LP  0  0  0  0  0  0  0  0  0  0  0  0  # atno 17321 bound_to 7965
  139.5766  144.1804  152.1912 LP  0  0  0  0  0  0  0  0  0  0  0  0  # atno 17342 bound_to 10162
  140.1117  144.5451  150.6921 LP  0  0  0  0  0  0  0  0  0  0  0  0  # atno 17343 bound_to 10162
  156.3523  130.3833  149.7319 LP  0  0  0  0  0  0  0  0  0  0  0  0  # atno 17370 bound_to 10713
  156.4793  130.8033  151.3048 LP  0  0  0  0  0  0  0  0  0  0  0  0  # atno 17371 bound_to 10713
  140.5407  134.6123  157.5379 LP  0  0  0  0  0  0  0  0  0  0  0  0  # atno 17394 bound_to 11000
  139.9655  134.7380  156.0147 LP  0  0  0  0  0  0  0  0  0  0  0  0  # atno 17395 bound_to 11000

$$$$
