AV-unprocessed.smi:37|AV-procd|sdf|324|dock3
  -GOLD-   2262016143D 1   1.00000     0.00000
 Structure written by MMmdl.
 43 44  0  0  0  0  0  0  0  0  2 V2000
  151.6566  145.2944  159.4146 C   0  0  0  0  0  0  0  0  0  0  0  0
  151.7465  144.4173  158.1569 C   0  0  0  0  0  0  0  0  0  0  0  0
  151.2086  142.9988  158.3580 C   0  0  0  0  0  0  0  0  0  0  0  0
  150.6103  142.6570  159.3800 O   0  0  0  0  0  0  0  0  0  0  0  0
  151.4716  142.2102  157.3057 O   0  0  0  0  0  0  0  0  0  0  0  0
  150.9752  140.8824  157.2826 C   0  0  0  0  0  0  0  0  0  0  0  0
  151.9585  139.9843  156.5183 C   0  0  1  0  0  0  0  0  0  0  0  0
  152.2122  138.7653  157.2173 O   0  0  0  0  0  0  0  0  0  0  0  0
  152.3526  137.6981  156.3220 C   0  0  1  0  0  0  0  0  0  0  0  0
  151.2177  136.7121  156.5307 N   0  0  0  0  0  0  0  0  0  0  0  0
  150.5261  136.1634  155.4619 C   0  0  0  0  0  0  0  0  0  0  0  0
  149.5344  135.2701  155.6532 C   0  0  0  0  0  0  0  0  0  0  0  0
  148.8911  134.7479  154.5947 F   0  0  0  0  0  0  0  0  0  0  0  0
  149.1703  134.8739  157.0116 C   0  0  0  0  0  0  0  0  0  0  0  0
  148.2676  134.0555  157.1799 O   0  0  0  0  0  0  0  0  0  0  0  0
  149.8579  135.4382  158.0460 N   0  5  0  0  0  0  0  0  0  0  0  0
  150.8645  136.3407  157.8571 C   0  0  0  0  0  0  0  0  0  0  0  0
  151.4929  136.8516  158.7845 O   0  0  0  0  0  0  0  0  0  0  0  0
  152.2938  138.2889  154.9049 C   0  0  2  0  0  0  0  0  0  0  0  0
  154.1355  138.7506  154.3013 Br  0  0  0  0  0  0  0  0  0  0  0  0
  151.4974  139.5648  155.1182 C   0  0  1  0  0  0  0  0  0  0  0  0
  150.1023  139.2814  155.1249 O   0  0  0  0  0  0  0  0  0  0  0  0
  149.2336  140.0660  154.4663 C   0  0  0  0  0  0  0  0  0  0  0  0
  149.5175  141.0742  153.8198 O   0  0  0  0  0  0  0  0  0  0  0  0
  147.7967  139.5554  154.5584 C   0  0  0  0  0  0  0  0  0  0  0  0
  147.2147  139.1766  153.1892 C   0  0  0  0  0  0  0  0  0  0  0  0
  152.0563  146.2890  159.2168 H   0  0  0  0  0  0  0  0  0  0  0  0
  152.2275  144.8682  160.2403 H   0  0  0  0  0  0  0  0  0  0  0  0
  150.6235  145.4136  159.7432 H   0  0  0  0  0  0  0  0  0  0  0  0
  151.1926  144.8854  157.3429 H   0  0  0  0  0  0  0  0  0  0  0  0
  152.7850  144.3483  157.8324 H   0  0  0  0  0  0  0  0  0  0  0  0
  150.8207  140.5150  158.2977 H   0  0  0  0  0  0  0  0  0  0  0  0
  150.0069  140.8761  156.7804 H   0  0  0  0  0  0  0  0  0  0  0  0
  152.9123  140.5034  156.4148 H   0  0  0  0  0  0  0  0  0  0  0  0
  153.2621  137.1348  156.5363 H   0  0  0  0  0  0  0  0  0  0  0  0
  150.7781  136.4353  154.4488 H   0  0  0  0  0  0  0  0  0  0  0  0
  151.8644  137.6036  154.1735 H   0  0  0  0  0  0  0  0  0  0  0  0
  151.7257  140.3308  154.3756 H   0  0  0  0  0  0  0  0  0  0  0  0
  147.7754  138.6888  155.2197 H   0  0  0  0  0  0  0  0  0  0  0  0
  147.1810  140.3248  155.0255 H   0  0  0  0  0  0  0  0  0  0  0  0
  146.2198  138.7463  153.3028 H   0  0  0  0  0  0  0  0  0  0  0  0
  147.8380  138.4397  152.6815 H   0  0  0  0  0  0  0  0  0  0  0  0
  147.1221  140.0477  152.5390 H   0  0  0  0  0  0  0  0  0  0  0  0
  1  2  1  0  0  0  0
  1 27  1  0  0  0  0
  1 28  1  0  0  0  0
  1 29  1  0  0  0  0
  2  3  1  0  0  0  0
  2 30  1  0  0  0  0
  2 31  1  0  0  0  0
  3  4  2  0  0  0  0
  3  5  1  0  0  0  0
  5  6  1  0  0  0  0
  6  7  1  0  0  0  0
  6 32  1  0  0  0  0
  6 33  1  0  0  0  0
  7 21  1  0  0  0  0
  7  8  1  0  0  0  0
  7 34  1  0  0  0  0
  8  9  1  0  0  0  0
  9 10  1  0  0  0  0
  9 19  1  0  0  0  0
  9 35  1  0  0  0  0
 10 17  1  0  0  0  0
 10 11  1  0  0  0  0
 11 12  2  0  0  0  0
 11 36  1  0  0  0  0
 12 13  1  0  0  0  0
 12 14  1  0  0  0  0
 14 15  2  0  0  0  0
 14 16  1  0  0  0  0
 16 17  1  0  0  0  0
 17 18  2  0  0  0  0
 19 20  1  0  0  0  0
 19 21  1  0  0  0  0
 19 37  1  0  0  0  0
 21 22  1  0  0  0  0
 21 38  1  0  0  0  0
 22 23  1  0  0  0  0
 23 24  2  0  0  0  0
 23 25  1  0  0  0  0
 25 26  1  0  0  0  0
 25 39  1  0  0  0  0
 25 40  1  0  0  0  0
 26 41  1  0  0  0  0
 26 42  1  0  0  0  0
 26 43  1  0  0  0  0
M  CHG  1  16  -1
M  END
> <s_m_source_file>
AV-unprocessed.smi

> <i_m_source_file_index>
37

> <i_lp_mmshare_version>
43012

> <i_f3d_flags>
0

> <s_epik_input>
W0NIM11bQ0gyXUMoPU8pT1tDSDJdW0NAQEhdMU9bQ0BASF0objJbY0hdYyhGKWMoPU8pW25IXWMyPU8pW0NAQEhdKEJyKVtDQEhdMU9DKD1PKVtDSDJdW0NIM10=

> <s_epik_cmdline>
J2VwaWtfcHl0aG9uJywgJy1waCcsICc3LjAnLCAnLXRuJywgJzgnLCAnLW1hJywgJzIwMCcsICctbWV0YWxfYmluZGluZycsICctaW1hZScsICc8aW5maWxlLm1hZT4nLCAnLW9tYWUnLCAnPG91dGZpbGUubWFlPic=

> <r_epik_Ionization_Penalty>
1.08158

> <r_epik_Ionization_Penalty_Charging>
9.05154e-09

> <r_epik_Ionization_Penalty_Neutral>
1.08158

> <r_epik_State_Penalty>
1.13706

> <r_epik_Charging_Adjusted_Penalty>
1.13706

> <i_epik_Tot_Q>
-1

> <i_epik_Tot_abs_Q>
1

> <r_epik_Metal_State_Penalty>
0.00343535

> <b_epik_Metal_Only>
0

> <s_epik_Chemistry_Notes>
This compound has an ester and may undergo hydrolysis at high or low pH. This compound contains an acetal/aminal-like group ( X-CH(R)-Y where X, Y are N, S, or O) that may be acid/base labile, releasing an aldehyde.

> <s_lp_Force_Field>
OPLS_2005

> <r_lp_Energy>
30.833

> <b_lp_Chiralities_Consistent>
1

> <s_lp_Variant>
AV-unprocessed.smi:37-22

> <Gold.Version>
5.8.1

> <Gold.Id.Protein>
6NUR|6NUR_protein|mol2

> <Gold.PLP.Fitness>
41.3717

> <Gold.PLP.PLP>
-35.9119

> <Gold.PLP.part.hbond>
-5.0000

> <Gold.PLP.part.metal>
0.0000

> <Gold.PLP.part.buried>
0.8733

> <Gold.PLP.part.nonpolar>
-33.3948

> <Gold.PLP.part.repulsive>
1.9127

> <Gold.PLP.ligand.clash>
0.0000

> <Gold.PLP.ligand.torsion>
2.0486

> <Gold.PLP.Chemscore.Hbond>
3.1031

> <Gold.PLP.Chemscore.CHOScore>
0.0000

> <Gold.PLP.Chemscore.Metal>
0.0000

> <Gold.Chemscore.Hbonds>
donor molecule, donor type, donor heavy atom, donor atom, acceptor molecule, acceptor atom, score
      P1  H  6896  6907       L1    16  1.57
      P1  H  6896  6908       L1    18  0.26
      P1  H  7989  7998       L1    24  0.27
      P1  H  8011  8017       L1    24  0.93

> <Gold.PLP.Chemscore.Internal.Correction>
0.2477

> <Gold.Rescore>
     Score         DG    S(hbond)    S(metal)    S(lipo)     H(rot)  DE(clash)    DE(int)     intcor
      6.04     -10.94       1.29        0.00      81.41       3.27       1.32       3.58       ----

> <Gold.Chemscore.Fitness>
6.0396

> <Gold.Chemscore.DG>
-10.9362

> <Gold.Chemscore.ZeroCoef>
-5.4800

> <Gold.Chemscore.Hbond>
1.2860

> <Gold.Chemscore.Metal>
0.0000

> <Gold.Chemscore.Lipo>
81.4057

> <Gold.Chemscore.Internal_Hbond>
0.0000

> <Gold.Chemscore.DEClash>
1.3152

> <Gold.Chemscore.DEInternal>
3.5814

> <Gold.Chemscore.Rot>
3.2669

> <Gold.Chemscore.Internal.Correction>
   9.000000E+99

> <Gold.Chemscore.Hbonds>
donor molecule, donor type, donor heavy atom, donor atom, acceptor molecule, acceptor atom, score
      P1  H  6896  6907       L1    16  0.22
      P1  H  6896  6908       L1    18  0.07
      P1  H  7989  7998       L1    24  0.13
      P1  H  8011  8017       L1    24  0.85

> <Gold.Chemscore.Hbond.Weighted>
-4.2951

> <Gold.Chemscore.Metal.Weighted>
-0.0000

> <Gold.Chemscore.Lipo.Weighted>
-9.5245

> <Gold.Chemscore.Internal_Hbond.Weighted>
0.0000

> <Gold.Chemscore.DEClash.Weighted>
1.3152

> <Gold.Chemscore.DEInternal.Weighted>
3.5814

> <Gold.Chemscore.Rot.Weighted>
8.3634

> <Gold.Chemscore.Internal.Correction.Weighted>
   9.000000E+99

> <Gold.Protein.RotatedTorsions>
[ 6907 6896 6895 6894 ] final  -94.03 input  -60.11 | X-H torsion
[ 7974 7965 7964 7962 ] final  -24.53 input  175.53 | X-H torsion
[ 8008 7997 7996 7995 ] final  -65.33 input   59.86 | X-H torsion
[ 10167 10162 10161 10158 ] final  169.02 input  -65.29 | X-H torsion
[ 10718 10713 10712 10709 ] final  -45.08 input   66.30 | X-H torsion
[ 10763 10752 10751 10750 ] final -140.97 input  -60.55 | X-H torsion
[ 11005 11000 10999 10996 ] final  -49.21 input  -57.11 | X-H torsion

> <Gold.Protein.ActiveResidues>
 VAL166  LYS551  ARG553  GLY616  TRP617  ASP618  TYR619  PRO620  LYS621  CYS622 
 ASP623  PHE694  ASN695  SER759  ASP760  ASP761  ALA762  ILE779  LEU786  VAL792 
 PHE793  MET794  SER795  GLU796  ALA797  LYS798  CYS799  TRP800  GLU811  SER814 

> <Gold.Protein.RotatedAtoms>
  150.6933  134.1876  159.4272 H   0  0  0  0  0  0  0  0  0  0  0  0  # atno 6907 bound_to 6896
  151.9848  135.0007  160.0568 H   0  0  0  0  0  0  0  0  0  0  0  0  # atno 6908 bound_to 6896
  152.1722  133.4616  159.4952 H   0  0  0  0  0  0  0  0  0  0  0  0  # atno 6909 bound_to 6896
  146.1548  140.4765  142.8596 H   0  0  0  0  0  0  0  0  0  0  0  0  # atno 7974 bound_to 7965
  154.4665  140.0935  156.7034 H   0  0  0  0  0  0  0  0  0  0  0  0  # atno 8008 bound_to 7997
  155.4843  140.3468  155.4326 H   0  0  0  0  0  0  0  0  0  0  0  0  # atno 8009 bound_to 7997
  156.0965  140.1411  156.9512 H   0  0  0  0  0  0  0  0  0  0  0  0  # atno 8010 bound_to 7997
  139.4982  144.3752  151.9682 H   0  0  0  0  0  0  0  0  0  0  0  0  # atno 10167 bound_to 10162
  156.2320  130.4173  149.8863 H   0  0  0  0  0  0  0  0  0  0  0  0  # atno 10718 bound_to 10713
  154.8561  135.3538  154.5793 H   0  0  0  0  0  0  0  0  0  0  0  0  # atno 10763 bound_to 10752
  153.6405  135.6998  153.5248 H   0  0  0  0  0  0  0  0  0  0  0  0  # atno 10764 bound_to 10752
  153.2975  135.4216  155.1182 H   0  0  0  0  0  0  0  0  0  0  0  0  # atno 10765 bound_to 10752
  141.0746  133.6669  156.3553 H   0  0  0  0  0  0  0  0  0  0  0  0  # atno 11005 bound_to 11000
  144.7950  140.6105  143.6516 LP  0  0  0  0  0  0  0  0  0  0  0  0  # atno 17320 bound_to 7965
  145.4734  139.1501  143.3801 LP  0  0  0  0  0  0  0  0  0  0  0  0  # atno 17321 bound_to 7965
  140.3188  144.3452  150.6015 LP  0  0  0  0  0  0  0  0  0  0  0  0  # atno 17342 bound_to 10162
  140.5739  143.2178  151.7549 LP  0  0  0  0  0  0  0  0  0  0  0  0  # atno 17343 bound_to 10162
  156.6474  130.8730  151.3525 LP  0  0  0  0  0  0  0  0  0  0  0  0  # atno 17370 bound_to 10713
  157.7137  130.9471  150.1179 LP  0  0  0  0  0  0  0  0  0  0  0  0  # atno 17371 bound_to 10713
  140.5601  134.5943  157.5431 LP  0  0  0  0  0  0  0  0  0  0  0  0  # atno 17394 bound_to 11000
  139.9558  134.7537  156.0344 LP  0  0  0  0  0  0  0  0  0  0  0  0  # atno 17395 bound_to 11000

$$$$
