AV-unprocessed.smi:553|AV-procd|sdf|2905|dock2
  -GOLD-   2262023393D 1   1.00000     0.00000
 Structure written by MMmdl.
 43 45  0  0  0  0  0  0  0  0  1 V2000
  149.8422  135.1215  156.3898 O   0  0  0  0  0  0  0  0  0  0  0  0
  149.7041  135.4153  155.2045 C   0  0  0  0  0  0  0  0  0  0  0  0
  149.9722  136.6252  154.6750 N   0  0  0  0  0  0  0  0  0  0  0  0
  150.4922  137.7864  155.3083 C   0  0  0  0  0  0  0  0  0  0  0  0
  150.6911  139.0320  154.6659 C   0  0  0  0  0  0  0  0  0  0  0  0
  151.1975  140.1110  155.4158 C   0  0  0  0  0  0  0  0  0  0  0  0
  151.4824  139.9171  156.7829 C   0  0  0  0  0  0  0  0  0  0  0  0
  151.9876  140.9892  157.5320 N   0  0  0  0  0  0  0  0  0  0  0  0
  152.3490  140.6230  158.8957 C   0  0  0  0  0  0  0  0  0  0  0  0
  153.0127  141.8178  159.6025 C   0  0  0  0  0  0  0  0  0  0  0  0
  152.1418  142.9449  159.5563 O   0  0  0  0  0  0  0  0  0  0  0  0
  151.8497  143.3413  158.2190 C   0  0  0  0  0  0  0  0  0  0  0  0
  151.1554  142.1850  157.4786 C   0  0  0  0  0  0  0  0  0  0  0  0
  151.2848  138.7316  157.4065 N   0  0  0  0  0  0  0  0  0  0  0  0
  150.7995  137.7014  156.6821 C   0  0  0  0  0  0  0  0  0  0  0  0
  149.2294  134.5202  154.3194 N   0  0  0  0  0  0  0  0  0  0  0  0
  148.8406  133.1290  154.5562 C   0  0  1  0  0  0  0  0  0  0  0  0
  148.5888  132.3922  153.2275 C   0  0  0  0  0  0  0  0  0  0  0  0
  148.5316  130.8846  153.5046 C   0  0  0  0  0  0  0  0  0  0  0  0
  149.6436  130.5879  154.9316 S   0  0  0  0  0  0  0  0  0  0  0  0
  148.8687  129.9686  156.0174 O   0  0  0  0  0  0  0  0  0  0  0  0
  150.9030  129.9906  154.4625 O   0  0  0  0  0  0  0  0  0  0  0  0
  149.9278  132.3553  155.3197 C   0  0  0  0  0  0  0  0  0  0  0  0
  149.7351  136.7388  153.7004 H   0  0  0  0  0  0  0  0  0  0  0  0
  150.4566  139.1894  153.6251 H   0  0  0  0  0  0  0  0  0  0  0  0
  151.3582  141.0713  154.9477 H   0  0  0  0  0  0  0  0  0  0  0  0
  151.4570  140.3180  159.4450 H   0  0  0  0  0  0  0  0  0  0  0  0
  153.0284  139.7699  158.8823 H   0  0  0  0  0  0  0  0  0  0  0  0
  153.2202  141.5711  160.6438 H   0  0  0  0  0  0  0  0  0  0  0  0
  153.9680  142.0643  159.1362 H   0  0  0  0  0  0  0  0  0  0  0  0
  151.2016  144.2174  158.2410 H   0  0  0  0  0  0  0  0  0  0  0  0
  152.7675  143.6358  157.7073 H   0  0  0  0  0  0  0  0  0  0  0  0
  150.9708  142.4611  156.4397 H   0  0  0  0  0  0  0  0  0  0  0  0
  150.1862  141.9828  157.9373 H   0  0  0  0  0  0  0  0  0  0  0  0
  150.6544  136.7754  157.2194 H   0  0  0  0  0  0  0  0  0  0  0  0
  149.1060  134.8523  153.3737 H   0  0  0  0  0  0  0  0  0  0  0  0
  147.9117  133.0919  155.1285 H   0  0  0  0  0  0  0  0  0  0  0  0
  147.6812  132.7419  152.7345 H   0  0  0  0  0  0  0  0  0  0  0  0
  149.4174  132.5888  152.5454 H   0  0  0  0  0  0  0  0  0  0  0  0
  147.5251  130.5833  153.7953 H   0  0  0  0  0  0  0  0  0  0  0  0
  148.8426  130.2820  152.6510 H   0  0  0  0  0  0  0  0  0  0  0  0
  150.9237  132.6172  154.9602 H   0  0  0  0  0  0  0  0  0  0  0  0
  149.8949  132.5124  156.3979 H   0  0  0  0  0  0  0  0  0  0  0  0
  1  2  2  0  0  0  0
  2  3  1  0  0  0  0
  2 16  1  0  0  0  0
  3  4  1  0  0  0  0
  3 24  1  0  0  0  0
  4 15  1  0  0  0  0
  4  5  2  0  0  0  0
  5  6  1  0  0  0  0
  5 25  1  0  0  0  0
  6  7  2  0  0  0  0
  6 26  1  0  0  0  0
  7  8  1  0  0  0  0
  7 14  1  0  0  0  0
  8 13  1  0  0  0  0
  8  9  1  0  0  0  0
  9 10  1  0  0  0  0
  9 27  1  0  0  0  0
  9 28  1  0  0  0  0
 10 11  1  0  0  0  0
 10 29  1  0  0  0  0
 10 30  1  0  0  0  0
 11 12  1  0  0  0  0
 12 13  1  0  0  0  0
 12 31  1  0  0  0  0
 12 32  1  0  0  0  0
 13 33  1  0  0  0  0
 13 34  1  0  0  0  0
 14 15  2  0  0  0  0
 15 35  1  0  0  0  0
 16 17  1  0  0  0  0
 16 36  1  0  0  0  0
 17 23  1  0  0  0  0
 17 18  1  0  0  0  0
 17 37  1  0  0  0  0
 18 19  1  0  0  0  0
 18 38  1  0  0  0  0
 18 39  1  0  0  0  0
 19 20  1  0  0  0  0
 19 40  1  0  0  0  0
 19 41  1  0  0  0  0
 20 21  2  0  0  0  0
 20 22  2  0  0  0  0
 20 23  1  0  0  0  0
 23 42  1  0  0  0  0
 23 43  1  0  0  0  0
M  END
> <s_m_source_file>
AV-unprocessed.smi

> <i_m_source_file_index>
553

> <i_lp_mmshare_version>
43012

> <i_f3d_flags>
0

> <s_epik_input>
Tz1TMSg9TylbQ0gyXVtDSDJdW0NASF0oW0NIMl0xKVtOSF1DKD1PKVtOSF1jMltjSF1bY0hdYyhuW2NIXTIpTjNbQ0gyXVtDSDJdT1tDSDJdW0NIMl0z

> <s_epik_cmdline>
J2VwaWtfcHl0aG9uJywgJy1waCcsICc3LjAnLCAnLXRuJywgJzgnLCAnLW1hJywgJzIwMCcsICctbWV0YWxfYmluZGluZycsICctaW1hZScsICc8aW5maWxlLm1hZT4nLCAnLW9tYWUnLCAnPG91dGZpbGUubWFlPic=

> <r_lp_tautomer_probability>
1

> <r_epik_Ionization_Penalty>
0.00171806

> <r_epik_Ionization_Penalty_Charging>
0

> <r_epik_Ionization_Penalty_Neutral>
0.00171806

> <r_epik_State_Penalty>
0.00114322

> <r_epik_Charging_Adjusted_Penalty>
0.00114322

> <i_epik_Tot_Q>
0

> <i_epik_Tot_abs_Q>
0

> <r_epik_Metal_State_Penalty>
-0

> <b_epik_Metal_Only>
0

> <s_lp_Force_Field>
OPLS_2005

> <r_lp_Energy>
34.1165

> <b_lp_Chiralities_Consistent>
1

> <s_lp_Variant>
AV-unprocessed.smi:553-2

> <Gold.Version>
5.8.1

> <Gold.Id.Protein>
6NUR|6NUR_protein|mol2

> <Gold.PLP.Fitness>
40.2834

> <Gold.PLP.PLP>
-34.9232

> <Gold.PLP.part.hbond>
-2.0000

> <Gold.PLP.part.metal>
0.0000

> <Gold.PLP.part.buried>
-2.9903

> <Gold.PLP.part.nonpolar>
-30.2553

> <Gold.PLP.part.repulsive>
0.1587

> <Gold.PLP.ligand.clash>
0.0000

> <Gold.PLP.ligand.torsion>
0.1475

> <Gold.PLP.Chemscore.Hbond>
1.8500

> <Gold.PLP.Chemscore.CHOScore>
0.0000

> <Gold.PLP.Chemscore.Metal>
0.0000

> <Gold.Chemscore.Hbonds>
donor molecule, donor type, donor heavy atom, donor atom, acceptor molecule, acceptor atom, score
      L1  H     3    24       P1  7948  1.00
      L1  H    16    36       P1  7948  0.80

> <Gold.PLP.Chemscore.Internal.Correction>
0.1050

> <Gold.Rescore>
     Score         DG    S(hbond)    S(metal)    S(lipo)     H(rot)  DE(clash)    DE(int)     intcor
     14.26     -17.11       1.72        0.00      78.05       1.27       0.16       2.69       ----

> <Gold.Chemscore.Fitness>
14.2559

> <Gold.Chemscore.DG>
-17.1064

> <Gold.Chemscore.ZeroCoef>
-5.4800

> <Gold.Chemscore.Hbond>
1.7206

> <Gold.Chemscore.Metal>
0.0000

> <Gold.Chemscore.Lipo>
78.0491

> <Gold.Chemscore.Internal_Hbond>
0.0000

> <Gold.Chemscore.DEClash>
0.1591

> <Gold.Chemscore.DEInternal>
2.6914

> <Gold.Chemscore.Rot>
1.2703

> <Gold.Chemscore.Internal.Correction>
   9.000000E+99

> <Gold.Chemscore.Hbonds>
donor molecule, donor type, donor heavy atom, donor atom, acceptor molecule, acceptor atom, score
      L1  H     3    24       P1  7948  0.56
      L1  H    16    36       P1  7948  0.11

> <Gold.Chemscore.Hbond.Weighted>
-5.7467

> <Gold.Chemscore.Metal.Weighted>
-0.0000

> <Gold.Chemscore.Lipo.Weighted>
-9.1317

> <Gold.Chemscore.Internal_Hbond.Weighted>
0.0000

> <Gold.Chemscore.DEClash.Weighted>
0.1591

> <Gold.Chemscore.DEInternal.Weighted>
2.6914

> <Gold.Chemscore.Rot.Weighted>
3.2520

> <Gold.Chemscore.Internal.Correction.Weighted>
   9.000000E+99

> <Gold.Protein.RotatedTorsions>
[ 6907 6896 6895 6894 ] final   31.61 input  -60.11 | X-H torsion
[ 7974 7965 7964 7962 ] final  103.91 input  175.53 | X-H torsion
[ 8008 7997 7996 7995 ] final  -70.91 input   59.86 | X-H torsion
[ 10167 10162 10161 10158 ] final  -52.41 input  -65.29 | X-H torsion
[ 10718 10713 10712 10709 ] final  -75.74 input   66.30 | X-H torsion
[ 10763 10752 10751 10750 ] final   16.89 input  -60.55 | X-H torsion
[ 11005 11000 10999 10996 ] final  116.01 input  -57.11 | X-H torsion

> <Gold.Protein.ActiveResidues>
 VAL166  LYS551  ARG553  GLY616  TRP617  ASP618  TYR619  PRO620  LYS621  CYS622 
 ASP623  PHE694  ASN695  SER759  ASP760  ASP761  ALA762  ILE779  LEU786  VAL792 
 PHE793  MET794  SER795  GLU796  ALA797  LYS798  CYS799  TRP800  GLU811  SER814 

> <Gold.Protein.RotatedAtoms>
  152.0627  134.9584  160.0574 H   0  0  0  0  0  0  0  0  0  0  0  0  # atno 6907 bound_to 6896
  152.0941  133.4210  159.4565 H   0  0  0  0  0  0  0  0  0  0  0  0  # atno 6908 bound_to 6896
  150.6837  134.2757  159.4650 H   0  0  0  0  0  0  0  0  0  0  0  0  # atno 6909 bound_to 6896
  145.3397  139.2465  143.3616 H   0  0  0  0  0  0  0  0  0  0  0  0  # atno 7974 bound_to 7965
  154.5047  140.0825  156.7871 H   0  0  0  0  0  0  0  0  0  0  0  0  # atno 8008 bound_to 7997
  155.3920  140.3433  155.4234 H   0  0  0  0  0  0  0  0  0  0  0  0  # atno 8009 bound_to 7997
  156.1501  140.1556  156.8771 H   0  0  0  0  0  0  0  0  0  0  0  0  # atno 8010 bound_to 7997
  140.6539  143.2585  151.4644 H   0  0  0  0  0  0  0  0  0  0  0  0  # atno 10167 bound_to 10162
  156.0198  130.4448  150.3088 H   0  0  0  0  0  0  0  0  0  0  0  0  # atno 10718 bound_to 10713
  153.1389  135.6756  153.9059 H   0  0  0  0  0  0  0  0  0  0  0  0  # atno 10763 bound_to 10752
  153.8522  135.3092  155.3434 H   0  0  0  0  0  0  0  0  0  0  0  0  # atno 10764 bound_to 10752
  154.7771  135.4909  153.9849 H   0  0  0  0  0  0  0  0  0  0  0  0  # atno 10765 bound_to 10752
  139.9028  134.9592  156.7133 H   0  0  0  0  0  0  0  0  0  0  0  0  # atno 11005 bound_to 11000
  146.3012  140.3991  142.8703 LP  0  0  0  0  0  0  0  0  0  0  0  0  # atno 17320 bound_to 7965
  144.8800  140.7388  143.5992 LP  0  0  0  0  0  0  0  0  0  0  0  0  # atno 17321 bound_to 7965
  139.5758  144.1823  152.1901 LP  0  0  0  0  0  0  0  0  0  0  0  0  # atno 17342 bound_to 10162
  140.1133  144.5438  150.6910 LP  0  0  0  0  0  0  0  0  0  0  0  0  # atno 17343 bound_to 10162
  157.1190  131.0241  151.3017 LP  0  0  0  0  0  0  0  0  0  0  0  0  # atno 17370 bound_to 10713
  157.4644  130.7672  149.7265 LP  0  0  0  0  0  0  0  0  0  0  0  0  # atno 17371 bound_to 10713
  140.7058  133.9266  155.8053 LP  0  0  0  0  0  0  0  0  0  0  0  0  # atno 17394 bound_to 11000
  141.0337  134.0719  157.3984 LP  0  0  0  0  0  0  0  0  0  0  0  0  # atno 17395 bound_to 11000

$$$$
