#       Name:                AV-unprocessed.smi:1443
#       Creating user name   scv26
#       Creation time:       Fri Mar 27 05:55:56 2020


#       File generated by GOLD software.
#

@<TRIPOS>MOLECULE
AV-unprocessed.smi:1443
    31    32     1
SMALL
NO_CHARGES


@<TRIPOS>ATOM
      1 ****         5.4443  -4.2980   3.6753 C.3            1 S1                 0.0000
      2 ****         4.1345  -5.4744   4.1126 S.3            1 S1                 0.0000
      3 ****         2.6563  -4.8442   3.3854 C.2            1 S1                 0.0000
      4 ****         1.4857  -5.4891   3.5412 N.2            1 S1                 0.0000
      5 ****         0.2831  -4.6266   2.7231 S.3            1 S1                 0.0000
      6 ****         1.4416  -3.4327   2.2155 C.2            1 S1                 0.0000
      7 ****         1.0841  -2.3100   1.4132 N.am           1 S1                 0.0000
      8 ****         1.8270  -1.2895   0.9324 C.2            1 S1                 0.0000
      9 ****         3.0321  -1.2172   1.1670 O.2            1 S1                 0.0000
     10 ****         1.1709  -0.3786   0.1963 N.am           1 S1                 0.0000
     11 ****         1.7367   0.7849  -0.4017 C.3            1 S1                 0.0000
     12 ****         1.1372   1.2368  -1.7156 C.3            1 S1                 0.0000
     13 ****         0.8782   2.0320  -0.4643 C.3            1 S1                 0.0000
     14 ****         1.4890   3.4070  -0.3028 C.3            1 S1                 0.0000
     15 ****         2.6663  -3.7112   2.6617 N.2            1 S1                 0.0000
     16 ****         6.3972  -4.6240   4.0919 H              1 S1                 0.0000
     17 ****         5.2148  -3.3079   4.0700 H              1 S1                 0.0000
     18 ****         5.5469  -4.2258   2.5923 H              1 S1                 0.0000
     19 ****         0.1108  -2.2810   1.1458 H              1 S1                 0.0000
     20 ****         0.1811  -0.5222   0.0549 H              1 S1                 0.0000
     21 ****         2.8092   0.9369  -0.2874 H              1 S1                 0.0000
     22 ****         1.8154   1.6586  -2.4549 H              1 S1                 0.0000
     23 ****         0.3072   0.6620  -2.1227 H              1 S1                 0.0000
     24 ****        -0.1242   1.9487  -0.0472 H              1 S1                 0.0000
     25 ****         2.4923   3.4386  -0.7286 H              1 S1                 0.0000
     26 ****         1.5525   3.6650   0.7544 H              1 S1                 0.0000
     27 ****         0.8727   4.1518  -0.8066 H              1 S1                 0.0000
     28 ****         1.3497  -6.3363   4.0547 LP             1 S1                 0.0000
     29 ****         3.4766  -1.9207   1.7215 LP             1 S1                 0.0000
     30 ****         3.5674  -0.4549   0.8033 LP             1 S1                 0.0000
     31 ****         3.4784  -3.1555   2.4833 LP             1 S1                 0.0000
@<TRIPOS>BOND
    1    1    2 1     
    2    1   16 1     
    3    1   17 1     
    4    1   18 1     
    5    2    3 1     
    6    3   15 1     
    7    3    4 2     
    8    4    5 1     
    9    5    6 1     
   10    6    7 1     
   11    6   15 2     
   12    7    8 am    
   13    7   19 1     
   14    8    9 2     
   15    8   10 am    
   16   10   11 1     
   17   10   20 1     
   18   11   13 1     
   19   11   12 1     
   20   11   21 1     
   21   12   13 1     
   22   12   22 1     
   23   12   23 1     
   24   13   14 1     
   25   13   24 1     
   26   14   25 1     
   27   14   26 1     
   28   14   27 1     
   29    4   28 1     
   30    9   29 1     
   31    9   30 1     
   32   15   31 1     
@<TRIPOS>SUBSTRUCTURE
      1 S1             1
@<TRIPOS>SET
LONE_PAIRS      STATIC     ATOMS    <user>   **** ""
4 28 29 30 31
DONOR_HYDROGENS      STATIC     ATOMS    <user>   **** ""
2 19 20
ATOM$BLUE        STATIC     ATOMS    COLORGROUP SYSTEM
4 28 29 30 31
ATOM$RED        STATIC     ATOMS    COLORGROUP SYSTEM
2 19 20
