AV-unprocessed.smi:3253|AV-procd|sdf|12448|dock9
  -GOLD-   2272018343D 1   1.00000     0.00000
 Structure written by MMmdl.
 37 38  0  0  0  0  0  0  0  0  2 V2000
  146.9154  141.9212  157.4691 C   0  0  0  0  0  0  0  0  0  0  0  0
  148.1133  141.3065  156.7328 C   0  0  1  0  0  0  0  0  0  0  0  0
  147.8511  141.2193  155.2128 C   0  0  0  0  0  0  0  0  0  0  0  0
  148.7217  140.2554  154.5305 N   0  0  0  0  0  0  0  0  0  0  0  0
  150.0910  140.1900  154.5814 C   0  0  0  0  0  0  0  0  0  0  0  0
  150.4599  139.1203  153.8070 C   0  0  0  0  0  0  0  0  0  0  0  0
  149.3024  138.5844  153.3092 N   0  3  0  0  0  0  0  0  0  0  0  0
  148.2470  139.2791  153.7460 C   0  0  0  0  0  0  0  0  0  0  0  0
  149.3051  142.1057  157.0164 N   0  0  0  0  0  0  0  0  0  0  0  0
  150.3857  141.6850  157.6933 C   0  0  0  0  0  0  0  0  0  0  0  0
  150.4828  140.5563  158.1769 O   0  0  0  0  0  0  0  0  0  0  0  0
  151.5490  142.6806  157.8179 C   0  0  1  0  0  0  0  0  0  0  0  0
  151.1004  144.0064  158.4666 C   0  0  0  0  0  0  0  0  0  0  0  0
  151.7780  143.9953  159.8273 C   0  0  0  0  0  0  0  0  0  0  0  0
  151.5627  144.8461  160.6887 O   0  0  0  0  0  0  0  0  0  0  0  0
  152.6012  142.9492  159.9422 N   0  0  0  0  0  0  0  0  0  0  0  0
  153.3942  142.6135  161.1168 C   0  0  0  0  0  0  0  0  0  0  0  0
  152.6690  142.1440  158.7354 C   0  0  0  0  0  0  0  0  0  0  0  0
  146.0103  141.3365  157.3028 H   0  0  0  0  0  0  0  0  0  0  0  0
  146.7198  142.9396  157.1312 H   0  0  0  0  0  0  0  0  0  0  0  0
  147.0905  141.9545  158.5449 H   0  0  0  0  0  0  0  0  0  0  0  0
  148.2468  140.2972  157.1264 H   0  0  0  0  0  0  0  0  0  0  0  0
  146.8203  140.9173  155.0216 H   0  0  0  0  0  0  0  0  0  0  0  0
  147.9874  142.1931  154.7399 H   0  0  0  0  0  0  0  0  0  0  0  0
  150.6849  140.8846  155.1576 H   0  0  0  0  0  0  0  0  0  0  0  0
  151.4333  138.7105  153.5795 H   0  0  0  0  0  0  0  0  0  0  0  0
  147.2141  139.0813  153.5208 H   0  0  0  0  0  0  0  0  0  0  0  0
  149.3130  143.0499  156.6579 H   0  0  0  0  0  0  0  0  0  0  0  0
  151.9555  142.8779  156.8243 H   0  0  0  0  0  0  0  0  0  0  0  0
  151.4544  144.8634  157.8931 H   0  0  0  0  0  0  0  0  0  0  0  0
  150.0188  144.1001  158.5770 H   0  0  0  0  0  0  0  0  0  0  0  0
  154.0361  143.4488  161.3989 H   0  0  0  0  0  0  0  0  0  0  0  0
  154.0300  141.7481  160.9282 H   0  0  0  0  0  0  0  0  0  0  0  0
  152.7437  142.3792  161.9603 H   0  0  0  0  0  0  0  0  0  0  0  0
  152.5564  141.0846  158.9743 H   0  0  0  0  0  0  0  0  0  0  0  0
  153.6468  142.2744  158.2695 H   0  0  0  0  0  0  0  0  0  0  0  0
  149.2496  137.7770  152.7008 H   0  0  0  0  0  0  0  0  0  0  0  0
  1  2  1  0  0  0  0
  1 19  1  0  0  0  0
  1 20  1  0  0  0  0
  1 21  1  0  0  0  0
  2  3  1  0  0  0  0
  2  9  1  0  0  0  0
  2 22  1  0  0  0  0
  3  4  1  0  0  0  0
  3 23  1  0  0  0  0
  3 24  1  0  0  0  0
  4  8  1  0  0  0  0
  4  5  1  0  0  0  0
  5  6  2  0  0  0  0
  5 25  1  0  0  0  0
  6  7  1  0  0  0  0
  6 26  1  0  0  0  0
  7  8  2  0  0  0  0
  7 37  1  0  0  0  0
  8 27  1  0  0  0  0
  9 10  1  0  0  0  0
  9 28  1  0  0  0  0
 10 11  2  0  0  0  0
 10 12  1  0  0  0  0
 12 18  1  0  0  0  0
 12 13  1  0  0  0  0
 12 29  1  0  0  0  0
 13 14  1  0  0  0  0
 13 30  1  0  0  0  0
 13 31  1  0  0  0  0
 14 15  2  0  0  0  0
 14 16  1  0  0  0  0
 16 17  1  0  0  0  0
 16 18  1  0  0  0  0
 17 32  1  0  0  0  0
 17 33  1  0  0  0  0
 17 34  1  0  0  0  0
 18 35  1  0  0  0  0
 18 36  1  0  0  0  0
M  CHG  1   7   1
M  END
> <s_m_source_file>
AV-unprocessed.smi

> <i_m_source_file_index>
3253

> <i_lp_mmshare_version>
43012

> <i_f3d_flags>
0

> <s_epik_input>
W2NIXTFuW2NIXVtjSF1uMVtDSDJdW0NAQEhdKFtDSDNdKVtOSF1DKD1PKVtDQEBIXTJbQ0gyXUMoPU8pTihbQ0gzXSlbQ0gyXTI=

> <s_epik_cmdline>
J2VwaWtfcHl0aG9uJywgJy1waCcsICc3LjAnLCAnLXRuJywgJzgnLCAnLW1hJywgJzIwMCcsICctbWV0YWxfYmluZGluZycsICctaW1hZScsICc8aW5maWxlLm1hZT4nLCAnLW9tYWUnLCAnPG91dGZpbGUubWFlPic=

> <r_lp_tautomer_probability>
1

> <r_epik_Ionization_Penalty>
0.251561

> <r_epik_Ionization_Penalty_Charging>
0

> <r_epik_Ionization_Penalty_Neutral>
0.251561

> <r_epik_State_Penalty>
0.242926

> <r_epik_Charging_Adjusted_Penalty>
0.242926

> <i_epik_Tot_Q>
1

> <i_epik_Tot_abs_Q>
1

> <r_epik_Metal_State_Penalty>
0.533885

> <b_epik_Metal_Only>
0

> <s_lp_Force_Field>
OPLS_2005

> <r_lp_Energy>
13.8895

> <b_lp_Chiralities_Consistent>
1

> <s_lp_Variant>
AV-unprocessed.smi:3253-4

> <Gold.Version>
5.8.1

> <Gold.Id.Protein>
6NUR|6NUR_protein|mol2

> <Gold.PLP.Fitness>
47.0639

> <Gold.PLP.PLP>
-38.6589

> <Gold.PLP.part.hbond>
-3.0000

> <Gold.PLP.part.metal>
0.0000

> <Gold.PLP.part.buried>
-2.7051

> <Gold.PLP.part.nonpolar>
-31.5398

> <Gold.PLP.part.repulsive>
0.2534

> <Gold.PLP.ligand.clash>
0.0000

> <Gold.PLP.ligand.torsion>
0.2960

> <Gold.PLP.Chemscore.Hbond>
2.9920

> <Gold.PLP.Chemscore.CHOScore>
0.0000

> <Gold.PLP.Chemscore.Metal>
0.0000

> <Gold.Chemscore.Hbonds>
donor molecule, donor type, donor heavy atom, donor atom, acceptor molecule, acceptor atom, score
      L1  H     7    37       P1  7948  2.00
      L1  H     9    28       P1  8028  1.00

> <Gold.PLP.Chemscore.Internal.Correction>
0.0210

> <Gold.Rescore>
     Score         DG    S(hbond)    S(metal)    S(lipo)     H(rot)  DE(clash)    DE(int)     intcor
     14.51     -14.81       2.00        0.00      67.28       2.03       0.01       0.29       ----

> <Gold.Chemscore.Fitness>
14.5104

> <Gold.Chemscore.DG>
-14.8119

> <Gold.Chemscore.ZeroCoef>
-5.4800

> <Gold.Chemscore.Hbond>
1.9962

> <Gold.Chemscore.Metal>
0.0000

> <Gold.Chemscore.Lipo>
67.2810

> <Gold.Chemscore.Internal_Hbond>
0.0000

> <Gold.Chemscore.DEClash>
0.0102

> <Gold.Chemscore.DEInternal>
0.2913

> <Gold.Chemscore.Rot>
2.0341

> <Gold.Chemscore.Internal.Correction>
   9.000000E+99

> <Gold.Chemscore.Hbonds>
donor molecule, donor type, donor heavy atom, donor atom, acceptor molecule, acceptor atom, score
      L1  H     7    37       P1  7948  0.94
      L1  H     9    28       P1  8028  0.96

> <Gold.Chemscore.Hbond.Weighted>
-6.6672

> <Gold.Chemscore.Metal.Weighted>
-0.0000

> <Gold.Chemscore.Lipo.Weighted>
-7.8719

> <Gold.Chemscore.Internal_Hbond.Weighted>
0.0000

> <Gold.Chemscore.DEClash.Weighted>
0.0102

> <Gold.Chemscore.DEInternal.Weighted>
0.2913

> <Gold.Chemscore.Rot.Weighted>
5.2072

> <Gold.Chemscore.Internal.Correction.Weighted>
   9.000000E+99

> <Gold.Protein.RotatedTorsions>
[ 6907 6896 6895 6894 ] final  -19.54 input  -60.11 | X-H torsion
[ 7974 7965 7964 7962 ] final   74.20 input  175.53 | X-H torsion
[ 8008 7997 7996 7995 ] final -135.25 input   59.86 | X-H torsion
[ 10167 10162 10161 10158 ] final  -24.16 input  -65.29 | X-H torsion
[ 10718 10713 10712 10709 ] final -105.84 input   66.30 | X-H torsion
[ 10763 10752 10751 10750 ] final  135.60 input  -60.55 | X-H torsion
[ 11005 11000 10999 10996 ] final  125.21 input  -57.11 | X-H torsion

> <Gold.Protein.ActiveResidues>
 VAL166  LYS551  ARG553  GLY616  TRP617  ASP618  TYR619  PRO620  LYS621  CYS622 
 ASP623  PHE694  ASN695  SER759  ASP760  ASP761  ALA762  ILE779  LEU786  VAL792 
 PHE793  MET794  SER795  GLU796  ALA797  LYS798  CYS799  TRP800  GLU811  SER814 

> <Gold.Protein.RotatedAtoms>
  151.2616  135.0655  159.9099 H   0  0  0  0  0  0  0  0  0  0  0  0  # atno 6907 bound_to 6896
  152.5365  134.0225  159.7998 H   0  0  0  0  0  0  0  0  0  0  0  0  # atno 6908 bound_to 6896
  151.0449  133.5624  159.2678 H   0  0  0  0  0  0  0  0  0  0  0  0  # atno 6909 bound_to 6896
  145.7313  139.2685  143.1539 H   0  0  0  0  0  0  0  0  0  0  0  0  # atno 7974 bound_to 7965
  155.3755  140.0491  157.3045 H   0  0  0  0  0  0  0  0  0  0  0  0  # atno 8008 bound_to 7997
  154.5108  140.2191  155.9122 H   0  0  0  0  0  0  0  0  0  0  0  0  # atno 8009 bound_to 7997
  156.1581  140.3122  155.8765 H   0  0  0  0  0  0  0  0  0  0  0  0  # atno 8010 bound_to 7997
  140.7288  143.4378  151.0703 H   0  0  0  0  0  0  0  0  0  0  0  0  # atno 10167 bound_to 10162
  156.0363  130.5583  150.7596 H   0  0  0  0  0  0  0  0  0  0  0  0  # atno 10718 bound_to 10713
  153.8427  135.3089  155.3427 H   0  0  0  0  0  0  0  0  0  0  0  0  # atno 10763 bound_to 10752
  154.7926  135.4774  154.0090 H   0  0  0  0  0  0  0  0  0  0  0  0  # atno 10764 bound_to 10752
  153.1566  135.6853  153.8895 H   0  0  0  0  0  0  0  0  0  0  0  0  # atno 10765 bound_to 10752
  139.9396  134.9637  156.8525 H   0  0  0  0  0  0  0  0  0  0  0  0  # atno 11005 bound_to 11000
  146.0535  140.8045  142.9770 LP  0  0  0  0  0  0  0  0  0  0  0  0  # atno 17320 bound_to 7965
  144.6892  140.3088  143.7251 LP  0  0  0  0  0  0  0  0  0  0  0  0  # atno 17321 bound_to 7965
  139.8042  143.8041  152.3166 LP  0  0  0  0  0  0  0  0  0  0  0  0  # atno 17342 bound_to 10162
  139.8068  144.7352  150.9750 LP  0  0  0  0  0  0  0  0  0  0  0  0  # atno 17343 bound_to 10162
  157.5119  131.0926  151.0188 LP  0  0  0  0  0  0  0  0  0  0  0  0  # atno 17370 bound_to 10713
  157.0541  130.5799  149.5375 LP  0  0  0  0  0  0  0  0  0  0  0  0  # atno 17371 bound_to 10713
  140.5987  134.0193  155.7528 LP  0  0  0  0  0  0  0  0  0  0  0  0  # atno 17394 bound_to 11000
  141.1024  133.9746  157.3055 LP  0  0  0  0  0  0  0  0  0  0  0  0  # atno 17395 bound_to 11000

$$$$
