AV-unprocessed.smi:598|AV-procd|sdf|3027|dock9
  -GOLD-   2262023543D 1   1.00000     0.00000
 Structure written by MMmdl.
 43 44  0  0  0  0  0  0  0  0  3 V2000
  152.1231  144.7318  159.8120 C   0  0  0  0  0  0  0  0  0  0  0  0
  151.6003  143.4034  159.2408 C   0  0  2  0  0  0  0  0  0  0  0  0
  152.7287  142.3642  159.0832 C   0  0  0  0  0  0  0  0  0  0  0  0
  152.1815  141.0075  158.6123 C   0  0  0  0  0  0  0  0  0  0  0  0
  151.3593  141.1452  157.3224 C   0  0  0  0  0  0  0  0  0  0  0  0
  150.2336  142.1883  157.4852 C   0  0  2  0  0  0  0  0  0  0  0  0
  149.4618  142.3134  156.2532 N   0  0  0  0  0  0  0  0  0  0  0  0
  149.0694  141.3085  155.4524 C   0  0  0  0  0  0  0  0  0  0  0  0
  149.3387  140.1297  155.6788 O   0  0  0  0  0  0  0  0  0  0  0  0
  148.2506  141.6634  154.1984 C   0  0  0  0  0  0  0  0  0  0  0  0
  146.8754  142.1222  154.4709 N   0  0  0  0  0  0  0  0  0  0  0  0
  146.4236  143.2448  153.7492 C   0  0  0  0  0  0  0  0  0  0  0  0
  145.1961  143.7685  153.9340 C   0  0  0  0  0  0  0  0  0  0  0  0
  144.7542  144.9298  153.1937 N   0  3  0  0  0  0  0  0  0  0  0  0
  143.8055  145.5767  153.6256 O   0  0  0  0  0  0  0  0  0  0  0  0
  145.3392  145.2340  152.1584 O   0  5  0  0  0  0  0  0  0  0  0  0
  144.3325  143.1333  154.9106 C   0  0  0  0  0  0  0  0  0  0  0  0
  144.7596  142.0613  155.6064 C   0  0  0  0  0  0  0  0  0  0  0  0
  146.0989  141.4977  155.4090 C   0  0  0  0  0  0  0  0  0  0  0  0
  146.5016  140.5306  156.0547 O   0  0  0  0  0  0  0  0  0  0  0  0
  150.7888  143.5677  157.9278 C   0  0  2  0  0  0  0  0  0  0  0  0
  151.5650  144.3024  156.8080 C   0  0  0  0  0  0  0  0  0  0  0  0
  152.9066  145.1620  159.1882 H   0  0  0  0  0  0  0  0  0  0  0  0
  152.5455  144.5863  160.8066 H   0  0  0  0  0  0  0  0  0  0  0  0
  151.3213  145.4651  159.9009 H   0  0  0  0  0  0  0  0  0  0  0  0
  150.9096  143.0079  159.9876 H   0  0  0  0  0  0  0  0  0  0  0  0
  153.4775  142.7245  158.3772 H   0  0  0  0  0  0  0  0  0  0  0  0
  153.2470  142.2320  160.0336 H   0  0  0  0  0  0  0  0  0  0  0  0
  153.0035  140.3083  158.4567 H   0  0  0  0  0  0  0  0  0  0  0  0
  151.5560  140.5775  159.3956 H   0  0  0  0  0  0  0  0  0  0  0  0
  152.0155  141.4236  156.4974 H   0  0  0  0  0  0  0  0  0  0  0  0
  150.9369  140.1744  157.0606 H   0  0  0  0  0  0  0  0  0  0  0  0
  149.5607  141.8391  158.2710 H   0  0  0  0  0  0  0  0  0  0  0  0
  149.1971  143.2507  155.9875 H   0  0  0  0  0  0  0  0  0  0  0  0
  148.7960  142.4302  153.6463 H   0  0  0  0  0  0  0  0  0  0  0  0
  148.2407  140.7967  153.5352 H   0  0  0  0  0  0  0  0  0  0  0  0
  147.1453  143.6489  153.0536 H   0  0  0  0  0  0  0  0  0  0  0  0
  143.3374  143.5122  155.0908 H   0  0  0  0  0  0  0  0  0  0  0  0
  144.1000  141.6040  156.3293 H   0  0  0  0  0  0  0  0  0  0  0  0
  149.9273  144.1954  158.1614 H   0  0  0  0  0  0  0  0  0  0  0  0
  152.4597  143.7598  156.5051 H   0  0  0  0  0  0  0  0  0  0  0  0
  151.8750  145.2978  157.1238 H   0  0  0  0  0  0  0  0  0  0  0  0
  150.9520  144.4446  155.9178 H   0  0  0  0  0  0  0  0  0  0  0  0
  1  2  1  0  0  0  0
  1 23  1  0  0  0  0
  1 24  1  0  0  0  0
  1 25  1  0  0  0  0
  2 21  1  0  0  0  0
  2  3  1  0  0  0  0
  2 26  1  0  0  0  0
  3  4  1  0  0  0  0
  3 27  1  0  0  0  0
  3 28  1  0  0  0  0
  4  5  1  0  0  0  0
  4 29  1  0  0  0  0
  4 30  1  0  0  0  0
  5  6  1  0  0  0  0
  5 31  1  0  0  0  0
  5 32  1  0  0  0  0
  6  7  1  0  0  0  0
  6 21  1  0  0  0  0
  6 33  1  0  0  0  0
  7  8  1  0  0  0  0
  7 34  1  0  0  0  0
  8  9  2  0  0  0  0
  8 10  1  0  0  0  0
 10 11  1  0  0  0  0
 10 35  1  0  0  0  0
 10 36  1  0  0  0  0
 11 19  1  0  0  0  0
 11 12  1  0  0  0  0
 12 13  2  0  0  0  0
 12 37  1  0  0  0  0
 13 14  1  0  0  0  0
 13 17  1  0  0  0  0
 14 15  2  0  0  0  0
 14 16  1  0  0  0  0
 17 18  2  0  0  0  0
 17 38  1  0  0  0  0
 18 19  1  0  0  0  0
 18 39  1  0  0  0  0
 19 20  2  0  0  0  0
 21 22  1  0  0  0  0
 21 40  1  0  0  0  0
 22 41  1  0  0  0  0
 22 42  1  0  0  0  0
 22 43  1  0  0  0  0
M  CHG  1  14   1
M  CHG  1  16  -1
M  END
> <s_m_source_file>
AV-unprocessed.smi

> <i_m_source_file_index>
598

> <i_lp_mmshare_version>
43012

> <i_f3d_flags>
0

> <s_epik_input>
W0NIM11bQ0BASF0xW0NIMl1bQ0gyXVtDSDJdW0NASF0oW0NASF0xW0NIM10pW05IXUMoPU8pW0NIMl1uMltjSF1jKFtOK10oPU8pW08tXSlbY0hdW2NIXWMyPU8=

> <s_epik_cmdline>
J2VwaWtfcHl0aG9uJywgJy1waCcsICc3LjAnLCAnLXRuJywgJzgnLCAnLW1hJywgJzIwMCcsICctbWV0YWxfYmluZGluZycsICctaW1hZScsICc8aW5maWxlLm1hZT4nLCAnLW9tYWUnLCAnPG91dGZpbGUubWFlPic=

> <r_lp_tautomer_probability>
1

> <r_epik_Ionization_Penalty>
1.91291e-08

> <r_epik_Ionization_Penalty_Charging>
8.21931e-11

> <r_epik_Ionization_Penalty_Neutral>
1.90469e-08

> <r_epik_State_Penalty>
-0

> <r_epik_Charging_Adjusted_Penalty>
8.21931e-11

> <i_epik_Tot_Q>
0

> <i_epik_Tot_abs_Q>
2

> <r_epik_Metal_State_Penalty>
-0

> <b_epik_Metal_Only>
0

> <s_lp_Force_Field>
OPLS_2005

> <r_lp_Energy>
25.0261

> <b_lp_Chiralities_Consistent>
1

> <s_lp_Variant>
AV-unprocessed.smi:598-7

> <Gold.Version>
5.8.1

> <Gold.Id.Protein>
6NUR|6NUR_protein|mol2

> <Gold.PLP.Fitness>
45.7527

> <Gold.PLP.PLP>
-44.1369

> <Gold.PLP.part.hbond>
-2.4488

> <Gold.PLP.part.metal>
0.0000

> <Gold.PLP.part.buried>
-4.3072

> <Gold.PLP.part.nonpolar>
-38.7989

> <Gold.PLP.part.repulsive>
0.3929

> <Gold.PLP.ligand.clash>
0.0072

> <Gold.PLP.ligand.torsion>
0.6977

> <Gold.PLP.Chemscore.Hbond>
1.0000

> <Gold.PLP.Chemscore.CHOScore>
0.0000

> <Gold.PLP.Chemscore.Metal>
0.0000

> <Gold.Chemscore.Hbonds>
donor molecule, donor type, donor heavy atom, donor atom, acceptor molecule, acceptor atom, score
      L1  H     7    34       P1  8028  1.00

> <Gold.PLP.Chemscore.Internal.Correction>
0.0183

> <Gold.Rescore>
     Score         DG    S(hbond)    S(metal)    S(lipo)     H(rot)  DE(clash)    DE(int)     intcor
     11.52     -16.91       0.98        0.00     103.32       1.54       0.56       4.83       ----

> <Gold.Chemscore.Fitness>
11.5178

> <Gold.Chemscore.DG>
-16.9098

> <Gold.Chemscore.ZeroCoef>
-5.4800

> <Gold.Chemscore.Hbond>
0.9827

> <Gold.Chemscore.Metal>
0.0000

> <Gold.Chemscore.Lipo>
103.3181

> <Gold.Chemscore.Internal_Hbond>
0.0000

> <Gold.Chemscore.DEClash>
0.5622

> <Gold.Chemscore.DEInternal>
4.8298

> <Gold.Chemscore.Rot>
1.5393

> <Gold.Chemscore.Internal.Correction>
   9.000000E+99

> <Gold.Chemscore.Hbonds>
donor molecule, donor type, donor heavy atom, donor atom, acceptor molecule, acceptor atom, score
      L1  H     7    34       P1  8028  0.93

> <Gold.Chemscore.Hbond.Weighted>
-3.2823

> <Gold.Chemscore.Metal.Weighted>
-0.0000

> <Gold.Chemscore.Lipo.Weighted>
-12.0882

> <Gold.Chemscore.Internal_Hbond.Weighted>
0.0000

> <Gold.Chemscore.DEClash.Weighted>
0.5622

> <Gold.Chemscore.DEInternal.Weighted>
4.8298

> <Gold.Chemscore.Rot.Weighted>
3.9407

> <Gold.Chemscore.Internal.Correction.Weighted>
   9.000000E+99

> <Gold.Protein.RotatedTorsions>
[ 6907 6896 6895 6894 ] final  -84.80 input  -60.11 | X-H torsion
[ 7974 7965 7964 7962 ] final   15.82 input  175.53 | X-H torsion
[ 8008 7997 7996 7995 ] final -129.25 input   59.86 | X-H torsion
[ 10167 10162 10161 10158 ] final   21.09 input  -65.29 | X-H torsion
[ 10718 10713 10712 10709 ] final  -99.42 input   66.30 | X-H torsion
[ 10763 10752 10751 10750 ] final   36.86 input  -60.55 | X-H torsion
[ 11005 11000 10999 10996 ] final   67.66 input  -57.11 | X-H torsion

> <Gold.Protein.ActiveResidues>
 VAL166  LYS551  ARG553  GLY616  TRP617  ASP618  TYR619  PRO620  LYS621  CYS622 
 ASP623  PHE694  ASN695  SER759  ASP760  ASP761  ALA762  ILE779  LEU786  VAL792 
 PHE793  MET794  SER795  GLU796  ALA797  LYS798  CYS799  TRP800  GLU811  SER814 

> <Gold.Protein.RotatedAtoms>
  150.6874  134.3303  159.4823 H   0  0  0  0  0  0  0  0  0  0  0  0  # atno 6907 bound_to 6896
  152.1168  134.9232  160.0574 H   0  0  0  0  0  0  0  0  0  0  0  0  # atno 6908 bound_to 6896
  152.0453  133.3960  159.4391 H   0  0  0  0  0  0  0  0  0  0  0  0  # atno 6909 bound_to 6896
  146.2267  139.8839  142.8566 H   0  0  0  0  0  0  0  0  0  0  0  0  # atno 7974 bound_to 7965
  155.2761  140.0442  157.3011 H   0  0  0  0  0  0  0  0  0  0  0  0  # atno 8008 bound_to 7997
  154.5624  140.2350  155.8283 H   0  0  0  0  0  0  0  0  0  0  0  0  # atno 8009 bound_to 7997
  156.2058  140.3013  155.9632 H   0  0  0  0  0  0  0  0  0  0  0  0  # atno 8010 bound_to 7997
  140.5454  143.9604  150.6544 H   0  0  0  0  0  0  0  0  0  0  0  0  # atno 10167 bound_to 10162
  156.0133  130.5282  150.6667 H   0  0  0  0  0  0  0  0  0  0  0  0  # atno 10718 bound_to 10713
  153.0060  135.6294  154.2052 H   0  0  0  0  0  0  0  0  0  0  0  0  # atno 10763 bound_to 10752
  154.1796  135.2814  155.3058 H   0  0  0  0  0  0  0  0  0  0  0  0  # atno 10764 bound_to 10752
  154.5845  135.5637  153.7277 H   0  0  0  0  0  0  0  0  0  0  0  0  # atno 10765 bound_to 10752
  139.9757  134.6825  156.0358 H   0  0  0  0  0  0  0  0  0  0  0  0  # atno 11005 bound_to 11000
  145.2485  141.0035  143.3895 LP  0  0  0  0  0  0  0  0  0  0  0  0  # atno 17320 bound_to 7965
  144.9394  139.4207  143.6456 LP  0  0  0  0  0  0  0  0  0  0  0  0  # atno 17321 bound_to 7965
  140.3016  143.3257  152.0966 LP  0  0  0  0  0  0  0  0  0  0  0  0  # atno 17342 bound_to 10162
  139.5005  144.6693  151.6281 LP  0  0  0  0  0  0  0  0  0  0  0  0  # atno 17343 bound_to 10162
  157.4398  131.0860  151.0955 LP  0  0  0  0  0  0  0  0  0  0  0  0  # atno 17370 bound_to 10713
  157.1502  130.6181  149.5580 LP  0  0  0  0  0  0  0  0  0  0  0  0  # atno 17371 bound_to 10713
  141.1435  133.6560  156.3797 LP  0  0  0  0  0  0  0  0  0  0  0  0  # atno 17394 bound_to 11000
  140.5199  134.6314  157.5314 LP  0  0  0  0  0  0  0  0  0  0  0  0  # atno 17395 bound_to 11000

$$$$
