AV-unprocessed.smi:2997|AV-procd|sdf|11414|dock8
  -GOLD-   2272016333D 1   1.00000     0.00000
 Structure written by MMmdl.
 39 41  0  0  0  0  0  0  0  0  2 V2000
  152.8021  143.4220  161.0680 C   0  0  0  0  0  0  0  0  0  0  0  0
  152.2380  142.6192  159.9080 C   0  0  0  0  0  0  0  0  0  0  0  0
  151.3184  143.2469  159.0375 C   0  0  0  0  0  0  0  0  0  0  0  0
  150.8180  142.4857  157.9877 C   0  0  0  0  0  0  0  0  0  0  0  0
  149.9115  142.8064  156.9747 N   0  3  0  0  0  0  0  0  0  0  0  0
  149.7289  141.7236  156.1689 C   0  0  0  0  0  0  0  0  0  0  0  0
  150.5045  140.7166  156.6543 N   0  0  0  0  0  0  0  0  0  0  0  0
  150.6867  139.3448  156.1621 C   0  0  0  0  0  0  0  0  0  0  0  0
  151.1508  139.2950  154.6939 C   0  0  2  0  0  0  0  0  0  0  0  0
  150.0416  139.5141  153.8419 O   0  0  0  0  0  0  0  0  0  0  0  0
  151.8213  137.9521  154.3485 C   0  0  0  0  0  0  0  0  0  0  0  0
  151.2548  136.8412  155.0931 N   0  0  0  0  0  0  0  0  0  0  0  0
  149.9954  136.2907  154.9809 C   0  0  0  0  0  0  0  0  0  0  0  0
  149.9140  135.2735  155.8881 C   0  0  0  0  0  0  0  0  0  0  0  0
  151.1912  135.2769  156.5151 C   0  0  0  0  0  0  0  0  0  0  0  0
  151.9910  136.2169  156.0379 N   0  0  0  0  0  0  0  0  0  0  0  0
  151.2029  141.1460  157.7869 C   0  0  0  0  0  0  0  0  0  0  0  0
  152.1101  140.5129  158.6326 C   0  0  0  0  0  0  0  0  0  0  0  0
  152.6293  141.2698  159.7074 C   0  0  0  0  0  0  0  0  0  0  0  0
  153.6183  140.6052  160.6500 C   0  0  0  0  0  0  0  0  0  0  0  0
  152.3878  144.4302  161.0950 H   0  0  0  0  0  0  0  0  0  0  0  0
  153.8855  143.5094  160.9822 H   0  0  0  0  0  0  0  0  0  0  0  0
  152.5669  142.9407  162.0174 H   0  0  0  0  0  0  0  0  0  0  0  0
  151.0174  144.2740  159.1831 H   0  0  0  0  0  0  0  0  0  0  0  0
  149.0895  141.6734  155.2994 H   0  0  0  0  0  0  0  0  0  0  0  0
  151.3948  138.8332  156.8153 H   0  0  0  0  0  0  0  0  0  0  0  0
  149.7331  138.8272  156.2750 H   0  0  0  0  0  0  0  0  0  0  0  0
  151.8652  140.1002  154.5178 H   0  0  0  0  0  0  0  0  0  0  0  0
  150.3268  139.4096  152.9464 H   0  0  0  0  0  0  0  0  0  0  0  0
  151.7038  137.7382  153.2856 H   0  0  0  0  0  0  0  0  0  0  0  0
  152.8949  137.9992  154.5392 H   0  0  0  0  0  0  0  0  0  0  0  0
  149.2701  136.6658  154.2741 H   0  0  0  0  0  0  0  0  0  0  0  0
  149.0710  134.6248  156.0751 H   0  0  0  0  0  0  0  0  0  0  0  0
  151.5582  134.6295  157.2978 H   0  0  0  0  0  0  0  0  0  0  0  0
  152.4072  139.4862  158.4787 H   0  0  0  0  0  0  0  0  0  0  0  0
  153.8360  139.5817  160.3434 H   0  0  0  0  0  0  0  0  0  0  0  0
  153.2166  140.5717  161.6628 H   0  0  0  0  0  0  0  0  0  0  0  0
  154.5600  141.1541  160.6678 H   0  0  0  0  0  0  0  0  0  0  0  0
  149.4519  143.6978  156.8392 H   0  0  0  0  0  0  0  0  0  0  0  0
  1  2  1  0  0  0  0
  1 21  1  0  0  0  0
  1 22  1  0  0  0  0
  1 23  1  0  0  0  0
  2 19  1  0  0  0  0
  2  3  2  0  0  0  0
  3  4  1  0  0  0  0
  3 24  1  0  0  0  0
  4 17  2  0  0  0  0
  4  5  1  0  0  0  0
  5  6  2  0  0  0  0
  5 39  1  0  0  0  0
  6  7  1  0  0  0  0
  6 25  1  0  0  0  0
  7  8  1  0  0  0  0
  7 17  1  0  0  0  0
  8  9  1  0  0  0  0
  8 26  1  0  0  0  0
  8 27  1  0  0  0  0
  9 10  1  0  0  0  0
  9 11  1  0  0  0  0
  9 28  1  0  0  0  0
 10 29  1  0  0  0  0
 11 12  1  0  0  0  0
 11 30  1  0  0  0  0
 11 31  1  0  0  0  0
 12 16  1  0  0  0  0
 12 13  1  0  0  0  0
 13 14  2  0  0  0  0
 13 32  1  0  0  0  0
 14 15  1  0  0  0  0
 14 33  1  0  0  0  0
 15 16  2  0  0  0  0
 15 34  1  0  0  0  0
 17 18  1  0  0  0  0
 18 19  2  0  0  0  0
 18 35  1  0  0  0  0
 19 20  1  0  0  0  0
 20 36  1  0  0  0  0
 20 37  1  0  0  0  0
 20 38  1  0  0  0  0
M  CHG  1   5   1
M  END
> <s_m_source_file>
AV-unprocessed.smi

> <i_m_source_file_index>
2997

> <i_lp_mmshare_version>
43012

> <i_f3d_flags>
0

> <s_epik_input>
W0NIM11jKFtjSF0xKWMoW0NIM10pW2NIXWMoYzEyKW4oW2NIXW4yKVtDSDJdW0NASF0oW09IXSlbQ0gyXW4zW2NIXVtjSF1bY0hdbjM=

> <s_epik_cmdline>
J2VwaWtfcHl0aG9uJywgJy1waCcsICc3LjAnLCAnLXRuJywgJzgnLCAnLW1hJywgJzIwMCcsICctbWV0YWxfYmluZGluZycsICctaW1hZScsICc8aW5maWxlLm1hZT4nLCAnLW9tYWUnLCAnPG91dGZpbGUubWFlPic=

> <r_lp_tautomer_probability>
1

> <r_epik_Ionization_Penalty>
1.09215

> <r_epik_Ionization_Penalty_Charging>
1.09214

> <r_epik_Ionization_Penalty_Neutral>
1.42327e-05

> <r_epik_State_Penalty>
1.14852

> <r_epik_Charging_Adjusted_Penalty>
2.24066

> <i_epik_Tot_Q>
1

> <i_epik_Tot_abs_Q>
1

> <r_epik_Metal_State_Penalty>
1.23686

> <b_epik_Metal_Only>
0

> <s_lp_Force_Field>
OPLS_2005

> <r_lp_Energy>
13.1956

> <b_lp_Chiralities_Consistent>
1

> <s_lp_Variant>
AV-unprocessed.smi:2997-3

> <Gold.Version>
5.8.1

> <Gold.Id.Protein>
6NUR|6NUR_protein|mol2

> <Gold.PLP.Fitness>
51.2167

> <Gold.PLP.PLP>
-39.0383

> <Gold.PLP.part.hbond>
-4.0000

> <Gold.PLP.part.metal>
0.0000

> <Gold.PLP.part.buried>
-2.5362

> <Gold.PLP.part.nonpolar>
-33.0669

> <Gold.PLP.part.repulsive>
0.0275

> <Gold.PLP.ligand.clash>
0.0000

> <Gold.PLP.ligand.torsion>
0.6124

> <Gold.PLP.Chemscore.Hbond>
3.4640

> <Gold.PLP.Chemscore.CHOScore>
1.0000

> <Gold.PLP.Chemscore.Metal>
0.0000

> <Gold.Chemscore.Hbonds>
donor molecule, donor type, donor heavy atom, donor atom, acceptor molecule, acceptor atom, score
      L1  H     5    39       P1  8028  1.76
      L1  H    10    29       P1  7957  0.70
      P1  H 10752 10765       L1    16  1.00
      L1  C    13    32       P1  7948  1.00

> <Gold.PLP.Chemscore.Internal.Correction>
0.0112

> <Gold.Rescore>
     Score         DG    S(hbond)    S(metal)    S(lipo)     H(rot)  DE(clash)    DE(int)     intcor
     19.54     -20.05       2.48        0.00     102.06       2.21       0.04       0.47       ----

> <Gold.Chemscore.Fitness>
19.5352

> <Gold.Chemscore.DG>
-20.0499

> <Gold.Chemscore.ZeroCoef>
-5.4800

> <Gold.Chemscore.Hbond>
2.4834

> <Gold.Chemscore.Metal>
0.0000

> <Gold.Chemscore.Lipo>
102.0551

> <Gold.Chemscore.Internal_Hbond>
0.0000

> <Gold.Chemscore.DEClash>
0.0426

> <Gold.Chemscore.DEInternal>
0.4722

> <Gold.Chemscore.Rot>
2.2129

> <Gold.Chemscore.Internal.Correction>
   9.000000E+99

> <Gold.Chemscore.Hbonds>
donor molecule, donor type, donor heavy atom, donor atom, acceptor molecule, acceptor atom, score
      L1  H     5    39       P1  8028  0.81
      L1  H    10    29       P1  7957  0.59
      P1  H 10752 10765       L1    16  0.35

> <Gold.Chemscore.Hbond.Weighted>
-8.2944

> <Gold.Chemscore.Metal.Weighted>
-0.0000

> <Gold.Chemscore.Lipo.Weighted>
-11.9404

> <Gold.Chemscore.Internal_Hbond.Weighted>
0.0000

> <Gold.Chemscore.DEClash.Weighted>
0.0426

> <Gold.Chemscore.DEInternal.Weighted>
0.4722

> <Gold.Chemscore.Rot.Weighted>
5.6649

> <Gold.Chemscore.Internal.Correction.Weighted>
   9.000000E+99

> <Gold.Protein.RotatedTorsions>
[ 6907 6896 6895 6894 ] final  102.47 input  -60.11 | X-H torsion
[ 7974 7965 7964 7962 ] final   70.72 input  175.53 | X-H torsion
[ 8008 7997 7996 7995 ] final  -22.30 input   59.86 | X-H torsion
[ 10167 10162 10161 10158 ] final  -11.90 input  -65.29 | X-H torsion
[ 10718 10713 10712 10709 ] final  -20.72 input   66.30 | X-H torsion
[ 10763 10752 10751 10750 ] final -136.68 input  -60.55 | X-H torsion
[ 11005 11000 10999 10996 ] final  -87.51 input  -57.11 | X-H torsion

> <Gold.Protein.ActiveResidues>
 VAL166  LYS551  ARG553  GLY616  TRP617  ASP618  TYR619  PRO620  LYS621  CYS622 
 ASP623  PHE694  ASN695  SER759  ASP760  ASP761  ALA762  ILE779  LEU786  VAL792 
 PHE793  MET794  SER795  GLU796  ALA797  LYS798  CYS799  TRP800  GLU811  SER814 

> <Gold.Protein.RotatedAtoms>
  152.5322  133.9970  159.7876 H   0  0  0  0  0  0  0  0  0  0  0  0  # atno 6907 bound_to 6896
  151.0196  133.5881  159.2680 H   0  0  0  0  0  0  0  0  0  0  0  0  # atno 6908 bound_to 6896
  151.2926  135.0753  159.9263 H   0  0  0  0  0  0  0  0  0  0  0  0  # atno 6909 bound_to 6896
  145.7746  139.2859  143.1301 H   0  0  0  0  0  0  0  0  0  0  0  0  # atno 7974 bound_to 7965
  154.4652  140.2011  156.0137 H   0  0  0  0  0  0  0  0  0  0  0  0  # atno 8008 bound_to 7997
  156.0914  140.3257  155.7792 H   0  0  0  0  0  0  0  0  0  0  0  0  # atno 8009 bound_to 7997
  155.4950  140.0549  157.2938 H   0  0  0  0  0  0  0  0  0  0  0  0  # atno 8010 bound_to 7997
  140.7149  143.5590  150.9217 H   0  0  0  0  0  0  0  0  0  0  0  0  # atno 10167 bound_to 10162
  156.5280  130.4648  149.6562 H   0  0  0  0  0  0  0  0  0  0  0  0  # atno 10718 bound_to 10713
  154.8678  135.3665  154.5100 H   0  0  0  0  0  0  0  0  0  0  0  0  # atno 10763 bound_to 10752
  153.5736  135.7020  153.5498 H   0  0  0  0  0  0  0  0  0  0  0  0  # atno 10764 bound_to 10752
  153.3520  135.4069  155.1616 H   0  0  0  0  0  0  0  0  0  0  0  0  # atno 10765 bound_to 10752
  141.1616  133.7515  156.9317 H   0  0  0  0  0  0  0  0  0  0  0  0  # atno 11005 bound_to 11000
  146.0135  140.8413  142.9959 LP  0  0  0  0  0  0  0  0  0  0  0  0  # atno 17320 bound_to 7965
  144.6806  140.2525  143.7330 LP  0  0  0  0  0  0  0  0  0  0  0  0  # atno 17321 bound_to 7965
  139.9315  143.6488  152.3075 LP  0  0  0  0  0  0  0  0  0  0  0  0  # atno 17342 bound_to 10162
  139.6940  144.7643  151.1388 LP  0  0  0  0  0  0  0  0  0  0  0  0  # atno 17343 bound_to 10162
  156.3086  130.7216  151.2104 LP  0  0  0  0  0  0  0  0  0  0  0  0  # atno 17370 bound_to 10713
  157.7426  131.0487  150.5010 LP  0  0  0  0  0  0  0  0  0  0  0  0  # atno 17371 bound_to 10713
  140.1382  134.9311  157.2430 LP  0  0  0  0  0  0  0  0  0  0  0  0  # atno 17394 bound_to 11000
  140.2869  134.3285  155.7326 LP  0  0  0  0  0  0  0  0  0  0  0  0  # atno 17395 bound_to 11000

$$$$
