AV-unprocessed.smi:2481|AV-procd|sdf|9771|dock1
  -GOLD-   2272013413D 1   1.00000     0.00000
 Structure written by MMmdl.
 37 38  0  0  0  0  0  0  0  0  1 V2000
  150.8755  136.7495  154.6365 C   0  0  0  0  0  0  0  0  0  0  0  0
  150.8590  135.3984  155.1627 N   0  0  0  0  0  0  0  0  0  0  0  0
  151.7136  135.0231  156.1434 N   0  0  0  0  0  0  0  0  0  0  0  0
  151.3906  133.7447  156.3407 C   0  0  0  0  0  0  0  0  0  0  0  0
  150.3849  133.2532  155.5581 N   0  0  0  0  0  0  0  0  0  0  0  0
  150.1031  134.3419  154.8490 C   0  0  0  0  0  0  0  0  0  0  0  0
  149.1078  134.4502  153.8411 N   0  0  0  0  0  0  0  0  0  0  0  0
  148.0214  133.6778  153.6702 C   0  0  0  0  0  0  0  0  0  0  0  0
  147.7134  132.7211  154.3814 O   0  0  0  0  0  0  0  0  0  0  0  0
  147.2992  134.0851  152.6157 N   0  0  0  0  0  0  0  0  0  0  0  0
  146.0657  133.4674  152.1282 C   0  0  2  0  0  0  0  0  0  0  0  0
  146.3297  131.9634  151.9125 C   0  0  0  0  0  0  0  0  0  0  0  0
  145.1030  131.2434  151.3371 C   0  0  0  0  0  0  0  0  0  0  0  0
  144.6449  131.9073  150.0332 C   0  0  0  0  0  0  0  0  0  0  0  0
  144.3548  133.3994  150.2503 C   0  0  0  0  0  0  0  0  0  0  0  0
  145.5754  134.1553  150.8249 C   0  0  1  0  0  0  0  0  0  0  0  0
  145.2499  135.6513  151.0366 C   0  0  0  0  0  0  0  0  0  0  0  0
  145.0182  136.2979  149.8023 O   0  0  0  0  0  0  0  0  0  0  0  0
  149.8782  137.1839  154.7071 H   0  0  0  0  0  0  0  0  0  0  0  0
  151.1844  136.7312  153.5911 H   0  0  0  0  0  0  0  0  0  0  0  0
  151.5711  137.3722  155.2004 H   0  0  0  0  0  0  0  0  0  0  0  0
  151.8997  133.1426  157.0788 H   0  0  0  0  0  0  0  0  0  0  0  0
  149.2385  135.1997  153.1781 H   0  0  0  0  0  0  0  0  0  0  0  0
  147.6326  134.8849  152.0981 H   0  0  0  0  0  0  0  0  0  0  0  0
  145.2767  133.5596  152.8772 H   0  0  0  0  0  0  0  0  0  0  0  0
  147.1742  131.8298  151.2346 H   0  0  0  0  0  0  0  0  0  0  0  0
  146.6158  131.4964  152.8557 H   0  0  0  0  0  0  0  0  0  0  0  0
  145.3364  130.1933  151.1588 H   0  0  0  0  0  0  0  0  0  0  0  0
  144.2904  131.2620  152.0645 H   0  0  0  0  0  0  0  0  0  0  0  0
  145.4147  131.7898  149.2693 H   0  0  0  0  0  0  0  0  0  0  0  0
  143.7534  131.4063  149.6544 H   0  0  0  0  0  0  0  0  0  0  0  0
  144.0481  133.8410  149.3018 H   0  0  0  0  0  0  0  0  0  0  0  0
  143.5055  133.5071  150.9264 H   0  0  0  0  0  0  0  0  0  0  0  0
  146.3827  134.0903  150.0930 H   0  0  0  0  0  0  0  0  0  0  0  0
  144.3756  135.7705  151.6774 H   0  0  0  0  0  0  0  0  0  0  0  0
  146.0747  136.1712  151.5230 H   0  0  0  0  0  0  0  0  0  0  0  0
  145.5402  135.8736  149.1383 H   0  0  0  0  0  0  0  0  0  0  0  0
  1  2  1  0  0  0  0
  1 19  1  0  0  0  0
  1 20  1  0  0  0  0
  1 21  1  0  0  0  0
  2  6  1  0  0  0  0
  2  3  1  0  0  0  0
  3  4  2  0  0  0  0
  4  5  1  0  0  0  0
  4 22  1  0  0  0  0
  5  6  2  0  0  0  0
  6  7  1  0  0  0  0
  7  8  1  0  0  0  0
  7 23  1  0  0  0  0
  8  9  2  0  0  0  0
  8 10  1  0  0  0  0
 10 11  1  0  0  0  0
 10 24  1  0  0  0  0
 11 16  1  0  0  0  0
 11 12  1  0  0  0  0
 11 25  1  0  0  0  0
 12 13  1  0  0  0  0
 12 26  1  0  0  0  0
 12 27  1  0  0  0  0
 13 14  1  0  0  0  0
 13 28  1  0  0  0  0
 13 29  1  0  0  0  0
 14 15  1  0  0  0  0
 14 30  1  0  0  0  0
 14 31  1  0  0  0  0
 15 16  1  0  0  0  0
 15 32  1  0  0  0  0
 15 33  1  0  0  0  0
 16 17  1  0  0  0  0
 16 34  1  0  0  0  0
 17 18  1  0  0  0  0
 17 35  1  0  0  0  0
 17 36  1  0  0  0  0
 18 37  1  0  0  0  0
M  END
> <s_m_source_file>
AV-unprocessed.smi

> <i_m_source_file_index>
2481

> <i_lp_mmshare_version>
43012

> <i_f3d_flags>
0

> <s_epik_input>
W0NIM11uMW5bY0hdbmMxW05IXUMoPU8pW05IXVtDQEBIXTJbQ0gyXVtDSDJdW0NIMl1bQ0gyXVtDQEhdMltDSDJdW09IXQ==

> <s_epik_cmdline>
J2VwaWtfcHl0aG9uJywgJy1waCcsICc3LjAnLCAnLXRuJywgJzgnLCAnLW1hJywgJzIwMCcsICctbWV0YWxfYmluZGluZycsICctaW1hZScsICc8aW5maWxlLm1hZT4nLCAnLW9tYWUnLCAnPG91dGZpbGUubWFlPic=

> <r_lp_tautomer_probability>
1

> <r_epik_Ionization_Penalty>
2.32704e-05

> <r_epik_Ionization_Penalty_Charging>
0

> <r_epik_Ionization_Penalty_Neutral>
2.32704e-05

> <r_epik_State_Penalty>
-0

> <r_epik_Charging_Adjusted_Penalty>
0

> <i_epik_Tot_Q>
0

> <i_epik_Tot_abs_Q>
0

> <r_epik_Metal_State_Penalty>
-0

> <b_epik_Metal_Only>
0

> <s_lp_Force_Field>
OPLS_2005

> <r_lp_Energy>
13.3573

> <b_lp_Chiralities_Consistent>
1

> <s_lp_Variant>
AV-unprocessed.smi:2481-1

> <Gold.Version>
5.8.1

> <Gold.Id.Protein>
6NUR|6NUR_protein|mol2

> <Gold.PLP.Fitness>
43.9464

> <Gold.PLP.PLP>
-32.9103

> <Gold.PLP.part.hbond>
-5.0000

> <Gold.PLP.part.metal>
0.0000

> <Gold.PLP.part.buried>
-4.1052

> <Gold.PLP.part.nonpolar>
-23.9492

> <Gold.PLP.part.repulsive>
0.0520

> <Gold.PLP.ligand.clash>
0.0000

> <Gold.PLP.ligand.torsion>
0.1706

> <Gold.PLP.Chemscore.Hbond>
3.7896

> <Gold.PLP.Chemscore.CHOScore>
0.0000

> <Gold.PLP.Chemscore.Metal>
0.0000

> <Gold.Chemscore.Hbonds>
donor molecule, donor type, donor heavy atom, donor atom, acceptor molecule, acceptor atom, score
      L1  H     7    23       P1  7948  0.75
      L1  H    10    24       P1  7948  0.98
      L1  H    18    37       P1  7921  1.00
      P1  H 10752 10765       L1     3  0.72

> <Gold.PLP.Chemscore.Internal.Correction>
0.0084

> <Gold.Rescore>
     Score         DG    S(hbond)    S(metal)    S(lipo)     H(rot)  DE(clash)    DE(int)     intcor
     14.42     -16.48       2.70        0.00      60.56       1.99       0.04       2.02       ----

> <Gold.Chemscore.Fitness>
14.4212

> <Gold.Chemscore.DG>
-16.4793

> <Gold.Chemscore.ZeroCoef>
-5.4800

> <Gold.Chemscore.Hbond>
2.6953

> <Gold.Chemscore.Metal>
0.0000

> <Gold.Chemscore.Lipo>
60.5611

> <Gold.Chemscore.Internal_Hbond>
0.0000

> <Gold.Chemscore.DEClash>
0.0371

> <Gold.Chemscore.DEInternal>
2.0210

> <Gold.Chemscore.Rot>
1.9877

> <Gold.Chemscore.Internal.Correction>
   9.000000E+99

> <Gold.Chemscore.Hbonds>
donor molecule, donor type, donor heavy atom, donor atom, acceptor molecule, acceptor atom, score
      L1  H     7    23       P1  7948  0.09
      L1  H    10    24       P1  7948  0.77
      L1  H    18    37       P1  7921  1.00
      P1  H 10752 10765       L1     3  0.10

> <Gold.Chemscore.Hbond.Weighted>
-9.0022

> <Gold.Chemscore.Metal.Weighted>
-0.0000

> <Gold.Chemscore.Lipo.Weighted>
-7.0856

> <Gold.Chemscore.Internal_Hbond.Weighted>
0.0000

> <Gold.Chemscore.DEClash.Weighted>
0.0371

> <Gold.Chemscore.DEInternal.Weighted>
2.0210

> <Gold.Chemscore.Rot.Weighted>
5.0885

> <Gold.Chemscore.Internal.Correction.Weighted>
   9.000000E+99

> <Gold.Protein.RotatedTorsions>
[ 6907 6896 6895 6894 ] final  155.46 input  -60.11 | X-H torsion
[ 7974 7965 7964 7962 ] final   87.49 input  175.53 | X-H torsion
[ 8008 7997 7996 7995 ] final  168.96 input   59.86 | X-H torsion
[ 10167 10162 10161 10158 ] final  171.92 input  -65.29 | X-H torsion
[ 10718 10713 10712 10709 ] final   86.17 input   66.30 | X-H torsion
[ 10763 10752 10751 10750 ] final -137.36 input  -60.55 | X-H torsion
[ 11005 11000 10999 10996 ] final -117.52 input  -57.11 | X-H torsion

> <Gold.Protein.ActiveResidues>
 VAL166  LYS551  ARG553  GLY616  TRP617  ASP618  TYR619  PRO620  LYS621  CYS622 
 ASP623  PHE694  ASN695  SER759  ASP760  ASP761  ALA762  ILE779  LEU786  VAL792 
 PHE793  MET794  SER795  GLU796  ALA797  LYS798  CYS799  TRP800  GLU811  SER814 

> <Gold.Protein.RotatedAtoms>
  152.0439  133.3989  159.4348 H   0  0  0  0  0  0  0  0  0  0  0  0  # atno 6907 bound_to 6896
  150.6874  134.3384  159.4866 H   0  0  0  0  0  0  0  0  0  0  0  0  # atno 6908 bound_to 6896
  152.1186  134.9222  160.0614 H   0  0  0  0  0  0  0  0  0  0  0  0  # atno 6909 bound_to 6896
  145.5583  139.2301  143.2474 H   0  0  0  0  0  0  0  0  0  0  0  0  # atno 7974 bound_to 7965
  156.1500  140.1576  156.8785 H   0  0  0  0  0  0  0  0  0  0  0  0  # atno 8008 bound_to 7997
  154.5062  140.0812  156.7937 H   0  0  0  0  0  0  0  0  0  0  0  0  # atno 8009 bound_to 7997
  155.3914  140.3410  155.4254 H   0  0  0  0  0  0  0  0  0  0  0  0  # atno 8010 bound_to 7997
  139.5061  144.3431  151.9998 H   0  0  0  0  0  0  0  0  0  0  0  0  # atno 10167 bound_to 10162
  157.6925  131.0204  150.2932 H   0  0  0  0  0  0  0  0  0  0  0  0  # atno 10718 bound_to 10713
  154.8663  135.3644  154.5210 H   0  0  0  0  0  0  0  0  0  0  0  0  # atno 10763 bound_to 10752
  153.5841  135.7017  153.5456 H   0  0  0  0  0  0  0  0  0  0  0  0  # atno 10764 bound_to 10752
  153.3431  135.4092  155.1550 H   0  0  0  0  0  0  0  0  0  0  0  0  # atno 10765 bound_to 10752
  141.0349  133.9925  157.3087 H   0  0  0  0  0  0  0  0  0  0  0  0  # atno 11005 bound_to 11000
  146.1869  140.6408  142.9163 LP  0  0  0  0  0  0  0  0  0  0  0  0  # atno 17320 bound_to 7965
  144.7495  140.5155  143.6812 LP  0  0  0  0  0  0  0  0  0  0  0  0  # atno 17321 bound_to 7965
  140.2869  144.3797  150.6101 LP  0  0  0  0  0  0  0  0  0  0  0  0  # atno 17342 bound_to 10162
  140.5976  143.2167  151.7134 LP  0  0  0  0  0  0  0  0  0  0  0  0  # atno 17343 bound_to 10162
  156.3460  130.3823  149.7369 LP  0  0  0  0  0  0  0  0  0  0  0  0  # atno 17370 bound_to 10713
  156.4862  130.8064  151.3076 LP  0  0  0  0  0  0  0  0  0  0  0  0  # atno 17371 bound_to 10713
  139.9233  135.0201  156.8144 LP  0  0  0  0  0  0  0  0  0  0  0  0  # atno 17394 bound_to 11000
  140.6341  133.9879  155.7676 LP  0  0  0  0  0  0  0  0  0  0  0  0  # atno 17395 bound_to 11000

$$$$
