AV-unprocessed.smi:1092|AV-procd|sdf|4737|dock3
  -GOLD-   22720 3273D 1   1.00000     0.00000
 Structure written by MMmdl.
 43 45  0  0  0  0  0  0  0  0  1 V2000
  146.9539  140.5878  153.2982 C   0  0  0  0  0  0  0  0  0  0  0  0
  147.8740  140.6335  154.5339 C   0  0  0  0  0  0  0  0  0  0  0  0
  147.1559  141.3248  155.7055 C   0  0  0  0  0  0  0  0  0  0  0  0
  148.0995  139.3030  154.9598 O   0  0  0  0  0  0  0  0  0  0  0  0
  149.2535  141.3067  154.2892 C   0  0  0  0  0  0  0  0  0  0  0  0
  150.2155  141.1210  155.3855 N   0  0  0  0  0  0  0  0  0  0  0  0
  150.2974  142.1891  156.2478 N   0  0  0  0  0  0  0  0  0  0  0  0
  151.0715  142.1711  157.2859 C   0  0  0  0  0  0  0  0  0  0  0  0
  151.0996  143.4002  158.1129 C   0  0  0  0  0  0  0  0  0  0  0  0
  150.0175  143.6726  158.9806 C   0  0  0  0  0  0  0  0  0  0  0  0
  150.0379  144.8415  159.7662 C   0  0  0  0  0  0  0  0  0  0  0  0
  151.1254  145.7337  159.6794 C   0  0  0  0  0  0  0  0  0  0  0  0
  152.1954  145.4641  158.8029 C   0  0  0  0  0  0  0  0  0  0  0  0
  152.1859  144.2981  158.0128 C   0  0  0  0  0  0  0  0  0  0  0  0
  151.8741  140.9177  157.4914 C   0  0  0  0  0  0  0  0  0  0  0  0
  152.7502  140.7147  158.6811 C   0  0  0  0  0  0  0  0  0  0  0  0
  153.0030  139.4045  159.1514 C   0  0  0  0  0  0  0  0  0  0  0  0
  153.8189  139.1968  160.2805 C   0  0  0  0  0  0  0  0  0  0  0  0
  154.3829  140.2954  160.9556 C   0  0  0  0  0  0  0  0  0  0  0  0
  154.1263  141.6034  160.5041 C   0  0  0  0  0  0  0  0  0  0  0  0
  153.3103  141.8133  159.3758 C   0  0  0  0  0  0  0  0  0  0  0  0
  151.8043  139.9443  156.6498 N   0  0  0  0  0  0  0  0  0  0  0  0
  150.9678  139.9909  155.5303 C   0  0  0  0  0  0  0  0  0  0  0  0
  150.8994  139.0608  154.7272 O   0  0  0  0  0  0  0  0  0  0  0  0
  146.7631  141.5894  152.9120 H   0  0  0  0  0  0  0  0  0  0  0  0
  145.9893  140.1405  153.5400 H   0  0  0  0  0  0  0  0  0  0  0  0
  147.3865  139.9960  152.4907 H   0  0  0  0  0  0  0  0  0  0  0  0
  146.9215  142.3623  155.4646 H   0  0  0  0  0  0  0  0  0  0  0  0
  147.7716  141.3277  156.6057 H   0  0  0  0  0  0  0  0  0  0  0  0
  146.2172  140.8260  155.9500 H   0  0  0  0  0  0  0  0  0  0  0  0
  147.6994  138.7158  154.3370 H   0  0  0  0  0  0  0  0  0  0  0  0
  149.6778  140.9222  153.3603 H   0  0  0  0  0  0  0  0  0  0  0  0
  149.1225  142.3738  154.0999 H   0  0  0  0  0  0  0  0  0  0  0  0
  149.1792  142.9948  159.0602 H   0  0  0  0  0  0  0  0  0  0  0  0
  149.2185  145.0538  160.4368 H   0  0  0  0  0  0  0  0  0  0  0  0
  151.1370  146.6293  160.2830 H   0  0  0  0  0  0  0  0  0  0  0  0
  153.0231  146.1546  158.7343 H   0  0  0  0  0  0  0  0  0  0  0  0
  153.0058  144.1122  157.3345 H   0  0  0  0  0  0  0  0  0  0  0  0
  152.5810  138.5476  158.6460 H   0  0  0  0  0  0  0  0  0  0  0  0
  154.0110  138.1928  160.6292 H   0  0  0  0  0  0  0  0  0  0  0  0
  155.0070  140.1354  161.8222 H   0  0  0  0  0  0  0  0  0  0  0  0
  154.5517  142.4477  161.0261 H   0  0  0  0  0  0  0  0  0  0  0  0
  153.1123  142.8264  159.0576 H   0  0  0  0  0  0  0  0  0  0  0  0
  1  2  1  0  0  0  0
  1 25  1  0  0  0  0
  1 26  1  0  0  0  0
  1 27  1  0  0  0  0
  2  3  1  0  0  0  0
  2  4  1  0  0  0  0
  2  5  1  0  0  0  0
  3 28  1  0  0  0  0
  3 29  1  0  0  0  0
  3 30  1  0  0  0  0
  4 31  1  0  0  0  0
  5  6  1  0  0  0  0
  5 32  1  0  0  0  0
  5 33  1  0  0  0  0
  6 23  1  0  0  0  0
  6  7  1  0  0  0  0
  7  8  2  0  0  0  0
  8  9  1  0  0  0  0
  8 15  1  0  0  0  0
  9 14  1  0  0  0  0
  9 10  2  0  0  0  0
 10 11  1  0  0  0  0
 10 34  1  0  0  0  0
 11 12  2  0  0  0  0
 11 35  1  0  0  0  0
 12 13  1  0  0  0  0
 12 36  1  0  0  0  0
 13 14  2  0  0  0  0
 13 37  1  0  0  0  0
 14 38  1  0  0  0  0
 15 16  1  0  0  0  0
 15 22  2  0  0  0  0
 16 21  1  0  0  0  0
 16 17  2  0  0  0  0
 17 18  1  0  0  0  0
 17 39  1  0  0  0  0
 18 19  2  0  0  0  0
 18 40  1  0  0  0  0
 19 20  1  0  0  0  0
 19 41  1  0  0  0  0
 20 21  2  0  0  0  0
 20 42  1  0  0  0  0
 21 43  1  0  0  0  0
 22 23  1  0  0  0  0
 23 24  2  0  0  0  0
M  END
> <s_m_source_file>
AV-unprocessed.smi

> <i_m_source_file_index>
1092

> <i_lp_mmshare_version>
43012

> <i_f3d_flags>
0

> <s_epik_input>
W2NIXTFbY0hdW2NIXVtjSF1bY0hdYzEtYyhubjJbQ0gyXUMoW0NIM10pKFtDSDNdKVtPSF0pYyhuYzI9TyktYzNbY0hdW2NIXVtjSF1bY0hdW2NIXTM=

> <s_epik_cmdline>
J2VwaWtfcHl0aG9uJywgJy1waCcsICc3LjAnLCAnLXRuJywgJzgnLCAnLW1hJywgJzIwMCcsICctbWV0YWxfYmluZGluZycsICctaW1hZScsICc8aW5maWxlLm1hZT4nLCAnLW9tYWUnLCAnPG91dGZpbGUubWFlPic=

> <r_lp_tautomer_probability>
1

> <r_epik_Ionization_Penalty>
4.51197e-08

> <r_epik_Ionization_Penalty_Charging>
4.64162e-09

> <r_epik_Ionization_Penalty_Neutral>
4.04781e-08

> <r_epik_State_Penalty>
-0

> <r_epik_Charging_Adjusted_Penalty>
4.64162e-09

> <i_epik_Tot_Q>
0

> <i_epik_Tot_abs_Q>
0

> <r_epik_Metal_State_Penalty>
-0

> <b_epik_Metal_Only>
0

> <s_lp_Force_Field>
OPLS_2005

> <r_lp_Energy>
39.3317

> <b_lp_Chiralities_Consistent>
1

> <s_lp_Variant>
AV-unprocessed.smi:1092-1

> <Gold.Version>
5.8.1

> <Gold.Id.Protein>
6NUR|6NUR_protein|mol2

> <Gold.PLP.Fitness>
48.2725

> <Gold.PLP.PLP>
-50.1205

> <Gold.PLP.part.hbond>
0.0000

> <Gold.PLP.part.metal>
0.0000

> <Gold.PLP.part.buried>
-4.9179

> <Gold.PLP.part.nonpolar>
-45.2162

> <Gold.PLP.part.repulsive>
0.2777

> <Gold.PLP.ligand.clash>
0.0000

> <Gold.PLP.ligand.torsion>
2.0838

> <Gold.PLP.Chemscore.Hbond>
0.0000

> <Gold.PLP.Chemscore.CHOScore>
0.0000

> <Gold.PLP.Chemscore.Metal>
0.0000

> <Gold.PLP.Chemscore.Internal.Correction>
2.3194

> <Gold.Rescore>
     Score         DG    S(hbond)    S(metal)    S(lipo)     H(rot)  DE(clash)    DE(int)     intcor
     16.04     -19.42       0.00        0.00     153.94       1.59       0.14       3.24       ----

> <Gold.Chemscore.Fitness>
16.0364

> <Gold.Chemscore.DG>
-19.4164

> <Gold.Chemscore.ZeroCoef>
-5.4800

> <Gold.Chemscore.Hbond>
0.0001

> <Gold.Chemscore.Metal>
0.0000

> <Gold.Chemscore.Lipo>
153.9391

> <Gold.Chemscore.Internal_Hbond>
0.0000

> <Gold.Chemscore.DEClash>
0.1404

> <Gold.Chemscore.DEInternal>
3.2396

> <Gold.Chemscore.Rot>
1.5918

> <Gold.Chemscore.Internal.Correction>
   9.000000E+99

> <Gold.Chemscore.Hbond.Weighted>
-0.0005

> <Gold.Chemscore.Metal.Weighted>
-0.0000

> <Gold.Chemscore.Lipo.Weighted>
-18.0109

> <Gold.Chemscore.Internal_Hbond.Weighted>
0.0000

> <Gold.Chemscore.DEClash.Weighted>
0.1404

> <Gold.Chemscore.DEInternal.Weighted>
3.2396

> <Gold.Chemscore.Rot.Weighted>
4.0749

> <Gold.Chemscore.Internal.Correction.Weighted>
   9.000000E+99

> <Gold.Protein.RotatedTorsions>
[ 6907 6896 6895 6894 ] final  124.91 input  -60.11 | X-H torsion
[ 7974 7965 7964 7962 ] final  146.53 input  175.53 | X-H torsion
[ 8008 7997 7996 7995 ] final  -34.20 input   59.86 | X-H torsion
[ 10167 10162 10161 10158 ] final  177.71 input  -65.29 | X-H torsion
[ 10718 10713 10712 10709 ] final -136.73 input   66.30 | X-H torsion
[ 10763 10752 10751 10750 ] final -117.74 input  -60.55 | X-H torsion
[ 11005 11000 10999 10996 ] final  162.21 input  -57.11 | X-H torsion

> <Gold.Protein.ActiveResidues>
 VAL166  LYS551  ARG553  GLY616  TRP617  ASP618  TYR619  PRO620  LYS621  CYS622 
 ASP623  PHE694  ASN695  SER759  ASP760  ASP761  ALA762  ILE779  LEU786  VAL792 
 PHE793  MET794  SER795  GLU796  ALA797  LYS798  CYS799  TRP800  GLU811  SER814 

> <Gold.Protein.RotatedAtoms>
  152.4037  133.6857  159.6338 H   0  0  0  0  0  0  0  0  0  0  0  0  # atno 6907 bound_to 6896
  150.7925  133.8745  159.3277 H   0  0  0  0  0  0  0  0  0  0  0  0  # atno 6908 bound_to 6896
  151.6505  135.1004  160.0211 H   0  0  0  0  0  0  0  0  0  0  0  0  # atno 6909 bound_to 6896
  144.8664  139.5916  143.5907 H   0  0  0  0  0  0  0  0  0  0  0  0  # atno 7974 bound_to 7965
  154.4127  140.1690  156.2011 H   0  0  0  0  0  0  0  0  0  0  0  0  # atno 8008 bound_to 7997
  155.9523  140.3400  155.6395 H   0  0  0  0  0  0  0  0  0  0  0  0  # atno 8009 bound_to 7997
  155.6854  140.0727  157.2459 H   0  0  0  0  0  0  0  0  0  0  0  0  # atno 8010 bound_to 7997
  139.5264  144.2766  152.0582 H   0  0  0  0  0  0  0  0  0  0  0  0  # atno 10167 bound_to 10162
  156.2803  130.7317  151.1312 H   0  0  0  0  0  0  0  0  0  0  0  0  # atno 10718 bound_to 10713
  154.8565  135.4298  154.2028 H   0  0  0  0  0  0  0  0  0  0  0  0  # atno 10763 bound_to 10752
  153.3071  135.6973  153.7155 H   0  0  0  0  0  0  0  0  0  0  0  0  # atno 10764 bound_to 10752
  153.6262  135.3493  155.3001 H   0  0  0  0  0  0  0  0  0  0  0  0  # atno 10765 bound_to 10752
  140.2234  134.8178  157.3244 H   0  0  0  0  0  0  0  0  0  0  0  0  # atno 11005 bound_to 11000
  146.2898  139.7108  142.9169 LP  0  0  0  0  0  0  0  0  0  0  0  0  # atno 17320 bound_to 7965
  145.4214  141.0407  143.2962 LP  0  0  0  0  0  0  0  0  0  0  0  0  # atno 17321 bound_to 7965
  140.2223  144.4453  150.6336 LP  0  0  0  0  0  0  0  0  0  0  0  0  # atno 17342 bound_to 10162
  140.6410  143.2203  151.6290 LP  0  0  0  0  0  0  0  0  0  0  0  0  # atno 17343 bound_to 10162
  157.7312  131.0610  150.5689 LP  0  0  0  0  0  0  0  0  0  0  0  0  # atno 17370 bound_to 10713
  156.5794  130.4300  149.5984 LP  0  0  0  0  0  0  0  0  0  0  0  0  # atno 17371 bound_to 10713
  140.1825  134.4472  155.7763 LP  0  0  0  0  0  0  0  0  0  0  0  0  # atno 17394 bound_to 11000
  141.2222  133.6990  156.7893 LP  0  0  0  0  0  0  0  0  0  0  0  0  # atno 17395 bound_to 11000

$$$$
