AV-unprocessed.smi:2822|AV-procd|sdf|10878|dock1
  -GOLD-   2272015323D 1   1.00000     0.00000
 Structure written by MMmdl.
 40 42  0  0  0  0  0  0  0  0  2 V2000
  150.2727  138.4492  154.1298 Cl  0  0  0  0  0  0  0  0  0  0  0  0
  149.1560  139.7689  154.0951 C   0  0  0  0  0  0  0  0  0  0  0  0
  149.4730  140.9573  154.7850 C   0  0  0  0  0  0  0  0  0  0  0  0
  148.6132  141.9978  154.7693 N   0  3  0  0  0  0  0  0  0  0  0  0
  147.4361  141.9605  154.1101 C   0  0  0  0  0  0  0  0  0  0  0  0
  147.0635  140.8006  153.4014 C   0  0  0  0  0  0  0  0  0  0  0  0
  147.9307  139.6794  153.3895 C   0  0  0  0  0  0  0  0  0  0  0  0
  147.6166  138.4960  152.7043 N   0  0  0  0  0  0  0  0  0  0  0  0
  146.2392  138.1607  152.3769 C   0  0  0  0  0  0  0  0  0  0  0  0
  145.6374  137.1868  153.4072 C   0  0  2  0  0  0  0  0  0  0  0  0
  146.3040  135.7985  153.3783 C   0  0  0  0  0  0  0  0  0  0  0  0
  145.9523  135.0283  152.1913 N   0  0  0  0  0  0  0  0  0  0  0  0
  146.5883  133.7112  152.2138 C   0  0  0  0  0  0  0  0  0  0  0  0
  146.2619  132.8770  150.9653 C   0  0  0  0  0  0  0  0  0  0  0  0
  144.7423  132.7314  150.8049 C   0  0  0  0  0  0  0  0  0  0  0  0
  144.0765  134.1154  150.8292 C   0  0  0  0  0  0  0  0  0  0  0  0
  144.4953  134.9086  152.0848 C   0  0  2  0  0  0  0  0  0  0  0  0
  143.8244  136.2964  152.0927 C   0  0  0  0  0  0  0  0  0  0  0  0
  144.2258  137.0391  153.2415 O   0  0  0  0  0  0  0  0  0  0  0  0
  150.3841  141.1056  155.3459 H   0  0  0  0  0  0  0  0  0  0  0  0
  146.8312  142.8539  154.1678 H   0  0  0  0  0  0  0  0  0  0  0  0
  146.1195  140.7906  152.8772 H   0  0  0  0  0  0  0  0  0  0  0  0
  148.3149  137.7691  152.6303 H   0  0  0  0  0  0  0  0  0  0  0  0
  145.6399  139.0682  152.3046 H   0  0  0  0  0  0  0  0  0  0  0  0
  146.2258  137.6940  151.3913 H   0  0  0  0  0  0  0  0  0  0  0  0
  145.7988  137.6105  154.3992 H   0  0  0  0  0  0  0  0  0  0  0  0
  147.3870  135.9109  153.4412 H   0  0  0  0  0  0  0  0  0  0  0  0
  146.0013  135.2469  154.2699 H   0  0  0  0  0  0  0  0  0  0  0  0
  147.6701  133.8288  152.2884 H   0  0  0  0  0  0  0  0  0  0  0  0
  146.2761  133.1645  153.1050 H   0  0  0  0  0  0  0  0  0  0  0  0
  146.6822  133.3588  150.0816 H   0  0  0  0  0  0  0  0  0  0  0  0
  146.7282  131.8940  151.0372 H   0  0  0  0  0  0  0  0  0  0  0  0
  144.5064  132.2120  149.8759 H   0  0  0  0  0  0  0  0  0  0  0  0
  144.3449  132.1202  151.6160 H   0  0  0  0  0  0  0  0  0  0  0  0
  144.3582  134.6683  149.9320 H   0  0  0  0  0  0  0  0  0  0  0  0
  142.9922  134.0032  150.7968 H   0  0  0  0  0  0  0  0  0  0  0  0
  144.1301  134.3645  152.9576 H   0  0  0  0  0  0  0  0  0  0  0  0
  144.0609  136.8511  151.1844 H   0  0  0  0  0  0  0  0  0  0  0  0
  142.7396  136.1901  152.1158 H   0  0  0  0  0  0  0  0  0  0  0  0
  148.8641  142.8472  155.2762 H   0  0  0  0  0  0  0  0  0  0  0  0
  1  2  1  0  0  0  0
  2  7  1  0  0  0  0
  2  3  2  0  0  0  0
  3  4  1  0  0  0  0
  3 20  1  0  0  0  0
  4  5  2  0  0  0  0
  4 40  1  0  0  0  0
  5  6  1  0  0  0  0
  5 21  1  0  0  0  0
  6  7  2  0  0  0  0
  6 22  1  0  0  0  0
  7  8  1  0  0  0  0
  8  9  1  0  0  0  0
  8 23  1  0  0  0  0
  9 10  1  0  0  0  0
  9 24  1  0  0  0  0
  9 25  1  0  0  0  0
 10 19  1  0  0  0  0
 10 11  1  0  0  0  0
 10 26  1  0  0  0  0
 11 12  1  0  0  0  0
 11 27  1  0  0  0  0
 11 28  1  0  0  0  0
 12 17  1  0  0  0  0
 12 13  1  0  0  0  0
 13 14  1  0  0  0  0
 13 29  1  0  0  0  0
 13 30  1  0  0  0  0
 14 15  1  0  0  0  0
 14 31  1  0  0  0  0
 14 32  1  0  0  0  0
 15 16  1  0  0  0  0
 15 33  1  0  0  0  0
 15 34  1  0  0  0  0
 16 17  1  0  0  0  0
 16 35  1  0  0  0  0
 16 36  1  0  0  0  0
 17 18  1  0  0  0  0
 17 37  1  0  0  0  0
 18 19  1  0  0  0  0
 18 38  1  0  0  0  0
 18 39  1  0  0  0  0
M  CHG  1   4   1
M  END
> <s_m_source_file>
AV-unprocessed.smi

> <i_m_source_file_index>
2822

> <i_lp_mmshare_version>
43012

> <i_f3d_flags>
0

> <s_epik_input>
Q2xjMVtjSF1uW2NIXVtjSF1jMVtOSF1bQ0gyXVtDQEhdKFtDSDJdMilPW0NIMl1bQ0BASF0oTjIzKVtDSDJdW0NIMl1bQ0gyXVtDSDJdMw==

> <s_epik_cmdline>
J2VwaWtfcHl0aG9uJywgJy1waCcsICc3LjAnLCAnLXRuJywgJzgnLCAnLW1hJywgJzIwMCcsICctbWV0YWxfYmluZGluZycsICctaW1hZScsICc8aW5maWxlLm1hZT4nLCAnLW9tYWUnLCAnPG91dGZpbGUubWFlPic=

> <r_epik_Ionization_Penalty>
1.37653

> <r_epik_Ionization_Penalty_Charging>
0.152973

> <r_epik_Ionization_Penalty_Neutral>
1.22356

> <r_epik_State_Penalty>
1.42693

> <r_epik_Charging_Adjusted_Penalty>
1.5799

> <i_epik_Tot_Q>
1

> <i_epik_Tot_abs_Q>
1

> <r_epik_Metal_State_Penalty>
4.59822

> <b_epik_Metal_Only>
0

> <s_lp_Force_Field>
OPLS_2005

> <r_lp_Energy>
45.685

> <b_lp_Chiralities_Consistent>
1

> <s_lp_Variant>
AV-unprocessed.smi:2822-19

> <Gold.Version>
5.8.1

> <Gold.Id.Protein>
6NUR|6NUR_protein|mol2

> <Gold.PLP.Fitness>
42.4225

> <Gold.PLP.PLP>
-34.0260

> <Gold.PLP.part.hbond>
-3.0000

> <Gold.PLP.part.metal>
0.0000

> <Gold.PLP.part.buried>
-0.5757

> <Gold.PLP.part.nonpolar>
-31.1100

> <Gold.PLP.part.repulsive>
0.5313

> <Gold.PLP.ligand.clash>
0.0000

> <Gold.PLP.ligand.torsion>
0.3040

> <Gold.PLP.Chemscore.Hbond>
3.0000

> <Gold.PLP.Chemscore.CHOScore>
0.0000

> <Gold.PLP.Chemscore.Metal>
0.0000

> <Gold.Chemscore.Hbonds>
donor molecule, donor type, donor heavy atom, donor atom, acceptor molecule, acceptor atom, score
      L1  H     4    40       P1  8028  2.00
      L1  H     8    23       P1  7948  1.00

> <Gold.PLP.Chemscore.Internal.Correction>
0.0045

> <Gold.Rescore>
     Score         DG    S(hbond)    S(metal)    S(lipo)     H(rot)  DE(clash)    DE(int)     intcor
     18.49     -19.22       1.93        0.00      88.22       1.18       0.45       0.28       ----

> <Gold.Chemscore.Fitness>
18.4900

> <Gold.Chemscore.DG>
-19.2204

> <Gold.Chemscore.ZeroCoef>
-5.4800

> <Gold.Chemscore.Hbond>
1.9269

> <Gold.Chemscore.Metal>
0.0000

> <Gold.Chemscore.Lipo>
88.2230

> <Gold.Chemscore.Internal_Hbond>
0.0000

> <Gold.Chemscore.DEClash>
0.4538

> <Gold.Chemscore.DEInternal>
0.2767

> <Gold.Chemscore.Rot>
1.1788

> <Gold.Chemscore.Internal.Correction>
   9.000000E+99

> <Gold.Chemscore.Hbonds>
donor molecule, donor type, donor heavy atom, donor atom, acceptor molecule, acceptor atom, score
      L1  H     4    40       P1  8028  0.98
      L1  H     8    23       P1  7948  0.95

> <Gold.Chemscore.Hbond.Weighted>
-6.4360

> <Gold.Chemscore.Metal.Weighted>
-0.0000

> <Gold.Chemscore.Lipo.Weighted>
-10.3221

> <Gold.Chemscore.Internal_Hbond.Weighted>
0.0000

> <Gold.Chemscore.DEClash.Weighted>
0.4538

> <Gold.Chemscore.DEInternal.Weighted>
0.2767

> <Gold.Chemscore.Rot.Weighted>
3.0177

> <Gold.Chemscore.Internal.Correction.Weighted>
   9.000000E+99

> <Gold.Protein.RotatedTorsions>
[ 6907 6896 6895 6894 ] final -163.75 input  -60.11 | X-H torsion
[ 7974 7965 7964 7962 ] final   41.28 input  175.53 | X-H torsion
[ 8008 7997 7996 7995 ] final  -98.36 input   59.86 | X-H torsion
[ 10167 10162 10161 10158 ] final -100.38 input  -65.29 | X-H torsion
[ 10718 10713 10712 10709 ] final   35.37 input   66.30 | X-H torsion
[ 10763 10752 10751 10750 ] final   47.61 input  -60.55 | X-H torsion
[ 11005 11000 10999 10996 ] final   26.71 input  -57.11 | X-H torsion

> <Gold.Protein.ActiveResidues>
 VAL166  LYS551  ARG553  GLY616  TRP617  ASP618  TYR619  PRO620  LYS621  CYS622 
 ASP623  PHE694  ASN695  SER759  ASP760  ASP761  ALA762  ILE779  LEU786  VAL792 
 PHE793  MET794  SER795  GLU796  ALA797  LYS798  CYS799  TRP800  GLU811  SER814 

> <Gold.Protein.RotatedAtoms>
  151.4010  133.3757  159.2731 H   0  0  0  0  0  0  0  0  0  0  0  0  # atno 6907 bound_to 6896
  150.9433  134.8842  159.7637 H   0  0  0  0  0  0  0  0  0  0  0  0  # atno 6908 bound_to 6896
  152.5081  134.3962  159.9453 H   0  0  0  0  0  0  0  0  0  0  0  0  # atno 6909 bound_to 6896
  146.0836  139.5434  142.9521 H   0  0  0  0  0  0  0  0  0  0  0  0  # atno 7974 bound_to 7965
  154.8001  140.0456  157.1266 H   0  0  0  0  0  0  0  0  0  0  0  0  # atno 8008 bound_to 7997
  154.9489  140.3062  155.5065 H   0  0  0  0  0  0  0  0  0  0  0  0  # atno 8009 bound_to 7997
  156.2960  140.2292  156.4565 H   0  0  0  0  0  0  0  0  0  0  0  0  # atno 8010 bound_to 7997
  140.2525  143.3463  152.0701 H   0  0  0  0  0  0  0  0  0  0  0  0  # atno 10167 bound_to 10162
  157.3218  130.7452  149.6790 H   0  0  0  0  0  0  0  0  0  0  0  0  # atno 10718 bound_to 10713
  152.9798  135.5971  154.3790 H   0  0  0  0  0  0  0  0  0  0  0  0  # atno 10763 bound_to 10752
  154.3457  135.2767  155.2401 H   0  0  0  0  0  0  0  0  0  0  0  0  # atno 10764 bound_to 10752
  154.4463  135.6001  153.6217 H   0  0  0  0  0  0  0  0  0  0  0  0  # atno 10765 bound_to 10752
  140.3340  134.2406  155.7698 H   0  0  0  0  0  0  0  0  0  0  0  0  # atno 11005 bound_to 11000
  145.6172  141.0329  143.1934 LP  0  0  0  0  0  0  0  0  0  0  0  0  # atno 17320 bound_to 7965
  144.7310  139.7726  143.7347 LP  0  0  0  0  0  0  0  0  0  0  0  0  # atno 17321 bound_to 7965
  139.5042  144.6770  151.6103 LP  0  0  0  0  0  0  0  0  0  0  0  0  # atno 17342 bound_to 10162
  140.6029  143.9576  150.6399 LP  0  0  0  0  0  0  0  0  0  0  0  0  # atno 17343 bound_to 10162
  155.9686  130.4221  150.4499 LP  0  0  0  0  0  0  0  0  0  0  0  0  # atno 17370 bound_to 10713
  157.2516  131.0547  151.2376 LP  0  0  0  0  0  0  0  0  0  0  0  0  # atno 17371 bound_to 10713
  141.2056  133.7856  157.0224 LP  0  0  0  0  0  0  0  0  0  0  0  0  # atno 17394 bound_to 11000
  140.0836  134.9634  157.1664 LP  0  0  0  0  0  0  0  0  0  0  0  0  # atno 17395 bound_to 11000

$$$$
