AV-unprocessed.smi:2604|AV-procd|sdf|10191|dock2
  -GOLD-   2272014203D 1   1.00000     0.00000
 Structure written by MMmdl.
 26 27  0  0  0  0  0  0  0  0  2 V2000
  151.2035  140.3919  155.5971 C   0  0  0  0  0  0  0  0  0  0  0  0
  152.0750  139.3290  155.2880 C   0  0  0  0  0  0  0  0  0  0  0  0
  151.6899  138.2339  154.5987 N   0  0  0  0  0  0  0  0  0  0  0  0
  150.4059  138.1630  154.1876 C   0  0  0  0  0  0  0  0  0  0  0  0
  149.4493  139.1706  154.4418 C   0  0  0  0  0  0  0  0  0  0  0  0
  148.0165  139.0147  153.9562 C   0  0  2  0  0  0  0  0  0  0  0  0
  147.2411  137.9099  154.7106 C   0  0  0  0  0  0  0  0  0  0  0  0
  145.8678  137.8419  154.2207 N   0  0  0  0  0  0  0  0  0  0  0  0
  145.8877  137.4879  152.8046 C   0  0  0  0  0  0  0  0  0  0  0  0
  146.6176  138.5825  152.0037 C   0  0  0  0  0  0  0  0  0  0  0  0
  147.9986  138.7423  152.5028 N   0  3  0  0  0  0  0  0  0  0  0  0
  149.8659  140.3099  155.1652 C   0  0  0  0  0  0  0  0  0  0  0  0
  151.5536  141.2483  156.1542 H   0  0  0  0  0  0  0  0  0  0  0  0
  153.1069  139.3575  155.6056 H   0  0  0  0  0  0  0  0  0  0  0  0
  150.1352  137.2709  153.6422 H   0  0  0  0  0  0  0  0  0  0  0  0
  147.5045  139.9652  154.1185 H   0  0  0  0  0  0  0  0  0  0  0  0
  147.7161  136.9349  154.5949 H   0  0  0  0  0  0  0  0  0  0  0  0
  147.2195  138.1309  155.7782 H   0  0  0  0  0  0  0  0  0  0  0  0
  145.3583  137.1393  154.7388 H   0  0  0  0  0  0  0  0  0  0  0  0
  146.3688  136.5181  152.6683 H   0  0  0  0  0  0  0  0  0  0  0  0
  144.8611  137.3884  152.4514 H   0  0  0  0  0  0  0  0  0  0  0  0
  146.6494  138.3218  150.9458 H   0  0  0  0  0  0  0  0  0  0  0  0
  146.0891  139.5338  152.0832 H   0  0  0  0  0  0  0  0  0  0  0  0
  148.4480  139.5021  152.0123 H   0  0  0  0  0  0  0  0  0  0  0  0
  149.1751  141.1074  155.3955 H   0  0  0  0  0  0  0  0  0  0  0  0
  148.5071  137.8876  152.3273 H   0  0  0  0  0  0  0  0  0  0  0  0
  1 12  1  0  0  0  0
  1  2  2  0  0  0  0
  1 13  1  0  0  0  0
  2  3  1  0  0  0  0
  2 14  1  0  0  0  0
  3  4  2  0  0  0  0
  4  5  1  0  0  0  0
  4 15  1  0  0  0  0
  5  6  1  0  0  0  0
  5 12  2  0  0  0  0
  6 11  1  0  0  0  0
  6  7  1  0  0  0  0
  6 16  1  0  0  0  0
  7  8  1  0  0  0  0
  7 17  1  0  0  0  0
  7 18  1  0  0  0  0
  8  9  1  0  0  0  0
  8 19  1  0  0  0  0
  9 10  1  0  0  0  0
  9 20  1  0  0  0  0
  9 21  1  0  0  0  0
 10 11  1  0  0  0  0
 10 22  1  0  0  0  0
 10 23  1  0  0  0  0
 11 24  1  0  0  0  0
 11 26  1  0  0  0  0
 12 25  1  0  0  0  0
M  CHG  1  11   1
M  END
> <s_m_source_file>
AV-unprocessed.smi

> <i_m_source_file_index>
2604

> <i_lp_mmshare_version>
43012

> <i_f3d_flags>
0

> <s_epik_input>
W2NIXTFbY0hdW2NIXW5bY0hdYzFbQ0BASF0yW0NIMl1bTkhdW0NIMl1bQ0gyXVtOSF0y

> <s_epik_cmdline>
J2VwaWtfcHl0aG9uJywgJy1waCcsICc3LjAnLCAnLXRuJywgJzgnLCAnLW1hJywgJzIwMCcsICctbWV0YWxfYmluZGluZycsICctaW1hZScsICc8aW5maWxlLm1hZT4nLCAnLW9tYWUnLCAnPG91dGZpbGUubWFlPic=

> <r_epik_Ionization_Penalty>
0.0278512

> <r_epik_Ionization_Penalty_Charging>
0.015072

> <r_epik_Ionization_Penalty_Neutral>
0.0127792

> <r_epik_State_Penalty>
0.548815

> <r_epik_Charging_Adjusted_Penalty>
0.563887

> <i_epik_Tot_Q>
1

> <i_epik_Tot_abs_Q>
1

> <r_epik_Metal_State_Penalty>
0.542887

> <b_epik_Metal_Only>
0

> <s_lp_Force_Field>
OPLS_2005

> <r_lp_Energy>
7.72855

> <b_lp_Chiralities_Consistent>
1

> <s_lp_Variant>
AV-unprocessed.smi:2604-3

> <Gold.Version>
5.8.1

> <Gold.Id.Protein>
6NUR|6NUR_protein|mol2

> <Gold.PLP.Fitness>
34.7840

> <Gold.PLP.PLP>
-22.8098

> <Gold.PLP.part.hbond>
-1.7104

> <Gold.PLP.part.metal>
0.0000

> <Gold.PLP.part.buried>
-2.2035

> <Gold.PLP.part.nonpolar>
-20.2083

> <Gold.PLP.part.repulsive>
0.2010

> <Gold.PLP.ligand.clash>
0.0000

> <Gold.PLP.ligand.torsion>
0.1272

> <Gold.PLP.Chemscore.Hbond>
2.9750

> <Gold.PLP.Chemscore.CHOScore>
1.0972

> <Gold.PLP.Chemscore.Metal>
0.0000

> <Gold.Chemscore.Hbonds>
donor molecule, donor type, donor heavy atom, donor atom, acceptor molecule, acceptor atom, score
      L1  H    11    24       P1  7957  0.98
      L1  H    11    26       P1  7948  2.00
      L1  C     4    15       P1  7948  1.00
      L1  C     4    15       P1  7949  0.10

> <Gold.PLP.Chemscore.Internal.Correction>
0.0121

> <Gold.Rescore>
     Score         DG    S(hbond)    S(metal)    S(lipo)     H(rot)  DE(clash)    DE(int)     intcor
     15.70     -15.87       1.97        0.00      54.36       1.00       0.11       0.06       ----

> <Gold.Chemscore.Fitness>
15.7021

> <Gold.Chemscore.DG>
-15.8732

> <Gold.Chemscore.ZeroCoef>
-5.4800

> <Gold.Chemscore.Hbond>
1.9738

> <Gold.Chemscore.Metal>
0.0000

> <Gold.Chemscore.Lipo>
54.3637

> <Gold.Chemscore.Internal_Hbond>
0.0000

> <Gold.Chemscore.DEClash>
0.1103

> <Gold.Chemscore.DEInternal>
0.0608

> <Gold.Chemscore.Rot>
1.0000

> <Gold.Chemscore.Internal.Correction>
   9.000000E+99

> <Gold.Chemscore.Hbonds>
donor molecule, donor type, donor heavy atom, donor atom, acceptor molecule, acceptor atom, score
      L1  H    11    24       P1  7957  0.86
      L1  H    11    26       P1  7948  1.00

> <Gold.Chemscore.Hbond.Weighted>
-6.5926

> <Gold.Chemscore.Metal.Weighted>
-0.0000

> <Gold.Chemscore.Lipo.Weighted>
-6.3605

> <Gold.Chemscore.Internal_Hbond.Weighted>
0.0000

> <Gold.Chemscore.DEClash.Weighted>
0.1103

> <Gold.Chemscore.DEInternal.Weighted>
0.0608

> <Gold.Chemscore.Rot.Weighted>
2.5600

> <Gold.Chemscore.Internal.Correction.Weighted>
   9.000000E+99

> <Gold.Protein.RotatedTorsions>
[ 6907 6896 6895 6894 ] final  179.07 input  -60.11 | X-H torsion
[ 7974 7965 7964 7962 ] final -131.69 input  175.53 | X-H torsion
[ 8008 7997 7996 7995 ] final  -24.45 input   59.86 | X-H torsion
[ 10167 10162 10161 10158 ] final  166.31 input  -65.29 | X-H torsion
[ 10718 10713 10712 10709 ] final -107.13 input   66.30 | X-H torsion
[ 10763 10752 10751 10750 ] final -166.40 input  -60.55 | X-H torsion
[ 11005 11000 10999 10996 ] final -142.33 input  -57.11 | X-H torsion

> <Gold.Protein.ActiveResidues>
 VAL166  LYS551  ARG553  GLY616  TRP617  ASP618  TYR619  PRO620  LYS621  CYS622 
 ASP623  PHE694  ASN695  SER759  ASP760  ASP761  ALA762  ILE779  LEU786  VAL792 
 PHE793  MET794  SER795  GLU796  ALA797  LYS798  CYS799  TRP800  GLU811  SER814 

> <Gold.Protein.RotatedAtoms>
  151.6776  133.3312  159.3211 H   0  0  0  0  0  0  0  0  0  0  0  0  # atno 6907 bound_to 6896
  150.7838  134.6808  159.6452 H   0  0  0  0  0  0  0  0  0  0  0  0  # atno 6908 bound_to 6896
  152.3902  134.6456  160.0162 H   0  0  0  0  0  0  0  0  0  0  0  0  # atno 6909 bound_to 6896
  144.9355  140.7178  143.4879 H   0  0  0  0  0  0  0  0  0  0  0  0  # atno 7974 bound_to 7965
  154.4529  140.1953  156.0466 H   0  0  0  0  0  0  0  0  0  0  0  0  # atno 8008 bound_to 7997
  156.0685  140.3287  155.7519 H   0  0  0  0  0  0  0  0  0  0  0  0  # atno 8009 bound_to 7997
  155.5300  140.0577  157.2881 H   0  0  0  0  0  0  0  0  0  0  0  0  # atno 8010 bound_to 7997
  139.4922  144.4041  151.9376 H   0  0  0  0  0  0  0  0  0  0  0  0  # atno 10167 bound_to 10162
  156.0422  130.5647  150.7778 H   0  0  0  0  0  0  0  0  0  0  0  0  # atno 10718 bound_to 10713
  154.6836  135.2958  154.9578 H   0  0  0  0  0  0  0  0  0  0  0  0  # atno 10763 bound_to 10752
  154.0565  135.6637  153.4810 H   0  0  0  0  0  0  0  0  0  0  0  0  # atno 10764 bound_to 10752
  153.0564  135.5142  154.7892 H   0  0  0  0  0  0  0  0  0  0  0  0  # atno 10765 bound_to 10752
  140.8236  134.2601  157.4889 H   0  0  0  0  0  0  0  0  0  0  0  0  # atno 11005 bound_to 11000
  145.3074  139.1830  143.4657 LP  0  0  0  0  0  0  0  0  0  0  0  0  # atno 17320 bound_to 7965
  146.3265  140.3073  142.8624 LP  0  0  0  0  0  0  0  0  0  0  0  0  # atno 17321 bound_to 7965
  140.3480  144.3123  150.5954 LP  0  0  0  0  0  0  0  0  0  0  0  0  # atno 17342 bound_to 10162
  140.5509  143.2206  151.7928 LP  0  0  0  0  0  0  0  0  0  0  0  0  # atno 17343 bound_to 10162
  157.5254  131.0934  151.0024 LP  0  0  0  0  0  0  0  0  0  0  0  0  # atno 17370 bound_to 10713
  157.0344  130.5724  149.5347 LP  0  0  0  0  0  0  0  0  0  0  0  0  # atno 17371 bound_to 10713
  139.8707  134.9548  156.4189 LP  0  0  0  0  0  0  0  0  0  0  0  0  # atno 17394 bound_to 11000
  140.9073  133.7737  155.9750 LP  0  0  0  0  0  0  0  0  0  0  0  0  # atno 17395 bound_to 11000

$$$$
