AV-unprocessed.smi:752|AV-procd|sdf|3595|dock2
  -GOLD-   22720 0583D 1   1.00000     0.00000
 Structure written by MMmdl.
 41 42  0  0  0  0  0  0  0  0  1 V2000
  134.7631  137.3959  154.2260 C   0  0  0  0  0  0  0  0  0  0  0  0
  135.8433  137.7067  155.2672 C   0  0  0  0  0  0  0  0  0  0  0  0
  137.0377  138.3748  154.6731 C   0  0  0  0  0  0  0  0  0  0  0  0
  138.2854  137.9244  154.8260 N   0  0  0  0  0  0  0  0  0  0  0  0
  139.2326  138.7238  154.1752 C   0  0  0  0  0  0  0  0  0  0  0  0
  140.6828  138.3310  154.1834 C   0  0  0  0  0  0  0  0  0  0  0  0
  140.7922  136.8198  153.9789 C   0  0  0  0  0  0  0  0  0  0  0  0
  139.9394  136.0687  154.4511 O   0  0  0  0  0  0  0  0  0  0  0  0
  141.8799  136.3931  153.3184 N   0  0  0  0  0  0  0  0  0  0  0  0
  142.3333  135.0102  153.2250 C   0  0  0  0  0  0  0  0  0  0  0  0
  143.2300  134.8064  151.9856 C   0  0  2  0  0  0  0  0  0  0  0  0
  143.4660  133.3088  151.7104 C   0  0  0  0  0  0  0  0  0  0  0  0
  144.3174  133.0955  150.4488 C   0  0  0  0  0  0  0  0  0  0  0  0
  145.6640  133.8308  150.5493 C   0  0  0  0  0  0  0  0  0  0  0  0
  145.4868  135.3268  150.8671 C   0  0  1  0  0  0  0  0  0  0  0  0
  144.9496  136.0064  149.7491 O   0  0  0  0  0  0  0  0  0  0  0  0
  144.5857  135.5458  152.0965 C   0  0  0  0  0  0  0  0  0  0  0  0
  138.6796  139.8170  153.5553 C   0  0  0  0  0  0  0  0  0  0  0  0
  136.9489  139.8683  153.7476 S   0  0  0  0  0  0  0  0  0  0  0  0
  133.9068  136.9060  154.6898 H   0  0  0  0  0  0  0  0  0  0  0  0
  135.1455  136.7342  153.4483 H   0  0  0  0  0  0  0  0  0  0  0  0
  134.4059  138.3075  153.7460 H   0  0  0  0  0  0  0  0  0  0  0  0
  135.4343  138.3467  156.0500 H   0  0  0  0  0  0  0  0  0  0  0  0
  136.1657  136.7862  155.7544 H   0  0  0  0  0  0  0  0  0  0  0  0
  141.2278  138.8452  153.3910 H   0  0  0  0  0  0  0  0  0  0  0  0
  141.1607  138.6110  155.1230 H   0  0  0  0  0  0  0  0  0  0  0  0
  142.5115  137.0958  152.9615 H   0  0  0  0  0  0  0  0  0  0  0  0
  142.8560  134.6963  154.1299 H   0  0  0  0  0  0  0  0  0  0  0  0
  141.4478  134.3786  153.1486 H   0  0  0  0  0  0  0  0  0  0  0  0
  142.6941  135.2163  151.1278 H   0  0  0  0  0  0  0  0  0  0  0  0
  143.9598  132.8484  152.5671 H   0  0  0  0  0  0  0  0  0  0  0  0
  142.5109  132.7961  151.5926 H   0  0  0  0  0  0  0  0  0  0  0  0
  144.4893  132.0301  150.2934 H   0  0  0  0  0  0  0  0  0  0  0  0
  143.7695  133.4487  149.5741 H   0  0  0  0  0  0  0  0  0  0  0  0
  146.2591  133.3691  151.3381 H   0  0  0  0  0  0  0  0  0  0  0  0
  146.2319  133.7038  149.6270 H   0  0  0  0  0  0  0  0  0  0  0  0
  146.4653  135.7667  151.0621 H   0  0  0  0  0  0  0  0  0  0  0  0
  144.5966  136.8323  150.0425 H   0  0  0  0  0  0  0  0  0  0  0  0
  144.4358  136.6161  152.2373 H   0  0  0  0  0  0  0  0  0  0  0  0
  145.1093  135.1963  152.9873 H   0  0  0  0  0  0  0  0  0  0  0  0
  139.1835  140.5853  152.9876 H   0  0  0  0  0  0  0  0  0  0  0  0
  1  2  1  0  0  0  0
  1 20  1  0  0  0  0
  1 21  1  0  0  0  0
  1 22  1  0  0  0  0
  2  3  1  0  0  0  0
  2 23  1  0  0  0  0
  2 24  1  0  0  0  0
  3 19  1  0  0  0  0
  3  4  2  0  0  0  0
  4  5  1  0  0  0  0
  5  6  1  0  0  0  0
  5 18  2  0  0  0  0
  6  7  1  0  0  0  0
  6 25  1  0  0  0  0
  6 26  1  0  0  0  0
  7  8  2  0  0  0  0
  7  9  1  0  0  0  0
  9 10  1  0  0  0  0
  9 27  1  0  0  0  0
 10 11  1  0  0  0  0
 10 28  1  0  0  0  0
 10 29  1  0  0  0  0
 11 17  1  0  0  0  0
 11 12  1  0  0  0  0
 11 30  1  0  0  0  0
 12 13  1  0  0  0  0
 12 31  1  0  0  0  0
 12 32  1  0  0  0  0
 13 14  1  0  0  0  0
 13 33  1  0  0  0  0
 13 34  1  0  0  0  0
 14 15  1  0  0  0  0
 14 35  1  0  0  0  0
 14 36  1  0  0  0  0
 15 16  1  0  0  0  0
 15 17  1  0  0  0  0
 15 37  1  0  0  0  0
 16 38  1  0  0  0  0
 17 39  1  0  0  0  0
 17 40  1  0  0  0  0
 18 19  1  0  0  0  0
 18 41  1  0  0  0  0
M  END
> <s_m_source_file>
AV-unprocessed.smi

> <i_m_source_file_index>
752

> <i_lp_mmshare_version>
43012

> <i_f3d_flags>
0

> <s_epik_input>
W0NIM11bQ0gyXWMxbmMoW2NIXXMxKVtDSDJdQyg9TylbTkhdW0NIMl1bQ0BASF0yW0NIMl1bQ0gyXVtDSDJdW0NAQEhdKFtPSF0pW0NIMl0y

> <s_epik_cmdline>
J2VwaWtfcHl0aG9uJywgJy1waCcsICc3LjAnLCAnLXRuJywgJzgnLCAnLW1hJywgJzIwMCcsICctbWV0YWxfYmluZGluZycsICctaW1hZScsICc8aW5maWxlLm1hZT4nLCAnLW9tYWUnLCAnPG91dGZpbGUubWFlPic=

> <r_lp_tautomer_probability>
1

> <r_epik_Ionization_Penalty>
5.44903e-05

> <r_epik_Ionization_Penalty_Charging>
0

> <r_epik_Ionization_Penalty_Neutral>
5.44903e-05

> <r_epik_State_Penalty>
-0

> <r_epik_Charging_Adjusted_Penalty>
0

> <i_epik_Tot_Q>
0

> <i_epik_Tot_abs_Q>
0

> <r_epik_Metal_State_Penalty>
-0

> <b_epik_Metal_Only>
0

> <s_lp_Force_Field>
OPLS_2005

> <r_lp_Energy>
4.55991

> <b_lp_Chiralities_Consistent>
1

> <s_lp_Variant>
AV-unprocessed.smi:752-1

> <Gold.Version>
5.8.1

> <Gold.Id.Protein>
6NUR|6NUR_protein|mol2

> <Gold.PLP.Fitness>
43.3680

> <Gold.PLP.PLP>
-36.1738

> <Gold.PLP.part.hbond>
-3.0000

> <Gold.PLP.part.metal>
0.0000

> <Gold.PLP.part.buried>
-5.7051

> <Gold.PLP.part.nonpolar>
-27.5073

> <Gold.PLP.part.repulsive>
0.1119

> <Gold.PLP.ligand.clash>
0.0000

> <Gold.PLP.ligand.torsion>
0.8528

> <Gold.PLP.Chemscore.Hbond>
1.9425

> <Gold.PLP.Chemscore.CHOScore>
1.0000

> <Gold.PLP.Chemscore.Metal>
0.0000

> <Gold.Chemscore.Hbonds>
donor molecule, donor type, donor heavy atom, donor atom, acceptor molecule, acceptor atom, score
      L1  H    16    38       P1 10171  1.00
      P1  H 11000 11005       L1     8  1.00
      L1  C    18    41       P1 10160  1.00

> <Gold.PLP.Chemscore.Internal.Correction>
0.0722

> <Gold.Rescore>
     Score         DG    S(hbond)    S(metal)    S(lipo)     H(rot)  DE(clash)    DE(int)     intcor
     14.31     -16.72       1.97        0.00      85.56       2.08       0.02       2.40       ----

> <Gold.Chemscore.Fitness>
14.3082

> <Gold.Chemscore.DG>
-16.7249

> <Gold.Chemscore.ZeroCoef>
-5.4800

> <Gold.Chemscore.Hbond>
1.9667

> <Gold.Chemscore.Metal>
0.0000

> <Gold.Chemscore.Lipo>
85.5646

> <Gold.Chemscore.Internal_Hbond>
0.0000

> <Gold.Chemscore.DEClash>
0.0174

> <Gold.Chemscore.DEInternal>
2.3993

> <Gold.Chemscore.Rot>
2.0840

> <Gold.Chemscore.Internal.Correction>
   9.000000E+99

> <Gold.Chemscore.Hbonds>
donor molecule, donor type, donor heavy atom, donor atom, acceptor molecule, acceptor atom, score
      L1  H    16    38       P1 10171  0.97
      P1  H 11000 11005       L1     8  0.93

> <Gold.Chemscore.Hbond.Weighted>
-6.5688

> <Gold.Chemscore.Metal.Weighted>
-0.0000

> <Gold.Chemscore.Lipo.Weighted>
-10.0111

> <Gold.Chemscore.Internal_Hbond.Weighted>
0.0000

> <Gold.Chemscore.DEClash.Weighted>
0.0174

> <Gold.Chemscore.DEInternal.Weighted>
2.3993

> <Gold.Chemscore.Rot.Weighted>
5.3350

> <Gold.Chemscore.Internal.Correction.Weighted>
   9.000000E+99

> <Gold.Protein.RotatedTorsions>
[ 6907 6896 6895 6894 ] final   95.37 input  -60.11 | X-H torsion
[ 7974 7965 7964 7962 ] final  -15.00 input  175.53 | X-H torsion
[ 8008 7997 7996 7995 ] final -101.77 input   59.86 | X-H torsion
[ 10167 10162 10161 10158 ] final   94.81 input  -65.29 | X-H torsion
[ 10718 10713 10712 10709 ] final  -14.66 input   66.30 | X-H torsion
[ 10763 10752 10751 10750 ] final   72.82 input  -60.55 | X-H torsion
[ 11005 11000 10999 10996 ] final   59.54 input  -57.11 | X-H torsion

> <Gold.Protein.ActiveResidues>
 VAL166  LYS551  ARG553  GLY616  TRP617  ASP618  TYR619  PRO620  LYS621  CYS622 
 ASP623  PHE694  ASN695  SER759  ASP760  ASP761  ALA762  ILE779  LEU786  VAL792 
 PHE793  MET794  SER795  GLU796  ALA797  LYS798  CYS799  TRP800  GLU811  SER814 

> <Gold.Protein.RotatedAtoms>
  152.5444  134.1051  159.8334 H   0  0  0  0  0  0  0  0  0  0  0  0  # atno 6907 bound_to 6896
  151.1124  133.5156  159.2612 H   0  0  0  0  0  0  0  0  0  0  0  0  # atno 6908 bound_to 6896
  151.1869  135.0395  159.8871 H   0  0  0  0  0  0  0  0  0  0  0  0  # atno 6909 bound_to 6896
  146.2051  140.3430  142.8410 H   0  0  0  0  0  0  0  0  0  0  0  0  # atno 7974 bound_to 7965
  154.8473  140.0432  157.1581 H   0  0  0  0  0  0  0  0  0  0  0  0  # atno 8008 bound_to 7997
  154.8981  140.2996  155.5312 H   0  0  0  0  0  0  0  0  0  0  0  0  # atno 8009 bound_to 7997
  156.2995  140.2381  156.4005 H   0  0  0  0  0  0  0  0  0  0  0  0  # atno 8010 bound_to 7997
  139.8048  144.6798  150.9717 H   0  0  0  0  0  0  0  0  0  0  0  0  # atno 10167 bound_to 10162
  156.6128  130.4854  149.6195 H   0  0  0  0  0  0  0  0  0  0  0  0  # atno 10718 bound_to 10713
  153.0483  135.5085  154.7802 H   0  0  0  0  0  0  0  0  0  0  0  0  # atno 10763 bound_to 10752
  154.6684  135.2949  154.9776 H   0  0  0  0  0  0  0  0  0  0  0  0  # atno 10764 bound_to 10752
  154.0603  135.6692  153.4863 H   0  0  0  0  0  0  0  0  0  0  0  0  # atno 10765 bound_to 10752
  140.0296  134.6031  155.9525 H   0  0  0  0  0  0  0  0  0  0  0  0  # atno 11005 bound_to 11000
  144.8772  140.7352  143.6009 LP  0  0  0  0  0  0  0  0  0  0  0  0  # atno 17320 bound_to 7965
  145.3349  139.1748  143.4517 LP  0  0  0  0  0  0  0  0  0  0  0  0  # atno 17321 bound_to 7965
  140.7819  143.4244  151.0791 LP  0  0  0  0  0  0  0  0  0  0  0  0  # atno 17342 bound_to 10162
  139.7914  143.8213  152.3152 LP  0  0  0  0  0  0  0  0  0  0  0  0  # atno 17343 bound_to 10162
  156.2375  130.6831  151.1524 LP  0  0  0  0  0  0  0  0  0  0  0  0  # atno 17370 bound_to 10713
  157.7249  131.0656  150.5974 LP  0  0  0  0  0  0  0  0  0  0  0  0  # atno 17371 bound_to 10713
  141.1823  133.6549  156.5072 LP  0  0  0  0  0  0  0  0  0  0  0  0  # atno 17394 bound_to 11000
  140.4248  134.7155  157.4910 LP  0  0  0  0  0  0  0  0  0  0  0  0  # atno 17395 bound_to 11000

$$$$
