AV-unprocessed.smi:3031|AV-procd|sdf|11553|dock1
  -GOLD-   2272016513D 1   1.00000     0.00000
 Structure written by MMmdl.
 46 47  0  0  0  0  0  0  0  0  1 V2000
  151.8985  141.0700  158.6220 C   0  0  0  0  0  0  0  0  0  0  0  0
  151.4117  140.4872  157.3268 C   0  0  0  0  0  0  0  0  0  0  0  0
  151.9244  139.3551  156.6324 C   0  0  0  0  0  0  0  0  0  0  0  0
  151.2683  139.0972  155.5130 N   0  0  0  0  0  0  0  0  0  0  0  0
  150.3144  140.0503  155.4544 N   0  0  0  0  0  0  0  0  0  0  0  0
  149.3845  140.0751  154.3390 C   0  0  0  0  0  0  0  0  0  0  0  0
  148.3177  138.9662  154.4338 C   0  0  2  0  0  0  0  0  0  0  0  0
  148.8287  137.7951  155.2925 C   0  0  0  0  0  0  0  0  0  0  0  0
  147.9296  138.5261  153.0890 N   0  0  0  0  0  0  0  0  0  0  0  0
  146.5338  138.1155  152.9385 C   0  0  0  0  0  0  0  0  0  0  0  0
  146.4133  136.8398  152.0876 C   0  0  2  0  0  0  0  0  0  0  0  0
  146.9341  137.0923  150.7996 O   0  0  0  0  0  0  0  0  0  0  0  0
  145.0090  136.2042  151.9390 C   0  0  0  0  0  0  0  0  0  0  0  0
  144.9267  134.9238  151.2251 N   0  0  0  0  0  0  0  0  0  0  0  0
  143.6385  134.2531  151.4087 C   0  0  0  0  0  0  0  0  0  0  0  0
  143.5815  132.9014  150.6766 C   0  0  0  0  0  0  0  0  0  0  0  0
  144.6425  132.0679  151.1293 O   0  0  0  0  0  0  0  0  0  0  0  0
  145.9224  132.6608  150.9395 C   0  0  0  0  0  0  0  0  0  0  0  0
  145.9770  134.0125  151.6725 C   0  0  0  0  0  0  0  0  0  0  0  0
  150.3802  140.9050  156.5342 C   0  0  0  0  0  0  0  0  0  0  0  0
  151.7356  140.3866  159.4553 H   0  0  0  0  0  0  0  0  0  0  0  0
  151.3879  142.0019  158.8662 H   0  0  0  0  0  0  0  0  0  0  0  0
  152.9660  141.2884  158.5881 H   0  0  0  0  0  0  0  0  0  0  0  0
  152.7501  138.7158  156.9084 H   0  0  0  0  0  0  0  0  0  0  0  0
  148.9128  141.0581  154.2975 H   0  0  0  0  0  0  0  0  0  0  0  0
  149.9605  139.9681  153.4187 H   0  0  0  0  0  0  0  0  0  0  0  0
  147.4446  139.3882  154.9336 H   0  0  0  0  0  0  0  0  0  0  0  0
  149.1670  138.1479  156.2671 H   0  0  0  0  0  0  0  0  0  0  0  0
  149.6692  137.2900  154.8152 H   0  0  0  0  0  0  0  0  0  0  0  0
  148.0519  137.0543  155.4792 H   0  0  0  0  0  0  0  0  0  0  0  0
  148.1354  139.2644  152.4234 H   0  0  0  0  0  0  0  0  0  0  0  0
  146.0508  137.9711  153.9027 H   0  0  0  0  0  0  0  0  0  0  0  0
  145.9776  138.9143  152.4461 H   0  0  0  0  0  0  0  0  0  0  0  0
  147.0638  136.0866  152.5342 H   0  0  0  0  0  0  0  0  0  0  0  0
  146.2225  137.3679  150.2419 H   0  0  0  0  0  0  0  0  0  0  0  0
  144.6365  136.0635  152.9551 H   0  0  0  0  0  0  0  0  0  0  0  0
  144.3218  136.9217  151.4883 H   0  0  0  0  0  0  0  0  0  0  0  0
  143.4540  134.0908  152.4717 H   0  0  0  0  0  0  0  0  0  0  0  0
  142.8207  134.8685  151.0483 H   0  0  0  0  0  0  0  0  0  0  0  0
  142.6308  132.4052  150.8713 H   0  0  0  0  0  0  0  0  0  0  0  0
  143.6546  133.0431  149.5972 H   0  0  0  0  0  0  0  0  0  0  0  0
  146.6879  131.9880  151.3262 H   0  0  0  0  0  0  0  0  0  0  0  0
  146.1171  132.7908  149.8738 H   0  0  0  0  0  0  0  0  0  0  0  0
  146.9551  134.4656  151.5069 H   0  0  0  0  0  0  0  0  0  0  0  0
  145.8891  133.8447  152.7472 H   0  0  0  0  0  0  0  0  0  0  0  0
  149.6915  141.7289  156.6501 H   0  0  0  0  0  0  0  0  0  0  0  0
  1  2  1  0  0  0  0
  1 21  1  0  0  0  0
  1 22  1  0  0  0  0
  1 23  1  0  0  0  0
  2 20  2  0  0  0  0
  2  3  1  0  0  0  0
  3  4  2  0  0  0  0
  3 24  1  0  0  0  0
  4  5  1  0  0  0  0
  5  6  1  0  0  0  0
  5 20  1  0  0  0  0
  6  7  1  0  0  0  0
  6 25  1  0  0  0  0
  6 26  1  0  0  0  0
  7  8  1  0  0  0  0
  7  9  1  0  0  0  0
  7 27  1  0  0  0  0
  8 28  1  0  0  0  0
  8 29  1  0  0  0  0
  8 30  1  0  0  0  0
  9 10  1  0  0  0  0
  9 31  1  0  0  0  0
 10 11  1  0  0  0  0
 10 32  1  0  0  0  0
 10 33  1  0  0  0  0
 11 12  1  0  0  0  0
 11 13  1  0  0  0  0
 11 34  1  0  0  0  0
 12 35  1  0  0  0  0
 13 14  1  0  0  0  0
 13 36  1  0  0  0  0
 13 37  1  0  0  0  0
 14 19  1  0  0  0  0
 14 15  1  0  0  0  0
 15 16  1  0  0  0  0
 15 38  1  0  0  0  0
 15 39  1  0  0  0  0
 16 17  1  0  0  0  0
 16 40  1  0  0  0  0
 16 41  1  0  0  0  0
 17 18  1  0  0  0  0
 18 19  1  0  0  0  0
 18 42  1  0  0  0  0
 18 43  1  0  0  0  0
 19 44  1  0  0  0  0
 19 45  1  0  0  0  0
 20 46  1  0  0  0  0
M  END
> <s_m_source_file>
AV-unprocessed.smi

> <i_m_source_file_index>
3031

> <i_lp_mmshare_version>
43012

> <i_f3d_flags>
0

> <s_epik_input>
W0NIM11jMVtjSF1ubihbY0hdMSlbQ0gyXVtDQEhdKFtDSDNdKVtOSF1bQ0gyXVtDQEhdKFtPSF0pW0NIMl1OMltDSDJdW0NIMl1PW0NIMl1bQ0gyXTI=

> <s_epik_cmdline>
J2VwaWtfcHl0aG9uJywgJy1waCcsICc3LjAnLCAnLXRuJywgJzgnLCAnLW1hJywgJzIwMCcsICctbWV0YWxfYmluZGluZycsICctaW1hZScsICc8aW5maWxlLm1hZT4nLCAnLW9tYWUnLCAnPG91dGZpbGUubWFlPic=

> <r_lp_tautomer_probability>
1

> <r_epik_Ionization_Penalty>
2.8101

> <r_epik_Ionization_Penalty_Charging>
0

> <r_epik_Ionization_Penalty_Neutral>
2.8101

> <r_epik_State_Penalty>
2.12351

> <r_epik_Charging_Adjusted_Penalty>
2.12351

> <i_epik_Tot_Q>
0

> <i_epik_Tot_abs_Q>
0

> <r_epik_Metal_State_Penalty>
2.12345

> <b_epik_Metal_Only>
0

> <s_lp_Force_Field>
OPLS_2005

> <r_lp_Energy>
35.4854

> <b_lp_Chiralities_Consistent>
1

> <s_lp_Variant>
AV-unprocessed.smi:3031-13

> <Gold.Version>
5.8.1

> <Gold.Id.Protein>
6NUR|6NUR_protein|mol2

> <Gold.PLP.Fitness>
47.3509

> <Gold.PLP.PLP>
-38.3728

> <Gold.PLP.part.hbond>
-5.0888

> <Gold.PLP.part.metal>
0.0000

> <Gold.PLP.part.buried>
-1.7419

> <Gold.PLP.part.nonpolar>
-31.1304

> <Gold.PLP.part.repulsive>
0.3715

> <Gold.PLP.ligand.clash>
0.0000

> <Gold.PLP.ligand.torsion>
1.4562

> <Gold.PLP.Chemscore.Hbond>
3.0075

> <Gold.PLP.Chemscore.CHOScore>
0.9141

> <Gold.PLP.Chemscore.Metal>
0.0000

> <Gold.Chemscore.Hbonds>
donor molecule, donor type, donor heavy atom, donor atom, acceptor molecule, acceptor atom, score
      L1  H     9    31       P1  7957  0.79
      P1  H  7954  7966       L1    12  0.80

> <Gold.PLP.Chemscore.Internal.Correction>
0.1257

> <Gold.Rescore>
     Score         DG    S(hbond)    S(metal)    S(lipo)     H(rot)  DE(clash)    DE(int)     intcor
     16.66     -18.13       2.86        0.00      81.76       2.53       0.21       1.26       ----

> <Gold.Chemscore.Fitness>
16.6575

> <Gold.Chemscore.DG>
-18.1261

> <Gold.Chemscore.ZeroCoef>
-5.4800

> <Gold.Chemscore.Hbond>
2.8640

> <Gold.Chemscore.Metal>
0.0000

> <Gold.Chemscore.Lipo>
81.7563

> <Gold.Chemscore.Internal_Hbond>
0.0000

> <Gold.Chemscore.DEClash>
0.2089

> <Gold.Chemscore.DEInternal>
1.2597

> <Gold.Chemscore.Rot>
2.5333

> <Gold.Chemscore.Internal.Correction>
   9.000000E+99

> <Gold.Chemscore.Hbonds>
donor molecule, donor type, donor heavy atom, donor atom, acceptor molecule, acceptor atom, score
      L1  H     9    31       P1  7957  0.75
      P1  H  7954  7966       L1    12  0.12

> <Gold.Chemscore.Hbond.Weighted>
-9.5657

> <Gold.Chemscore.Metal.Weighted>
-0.0000

> <Gold.Chemscore.Lipo.Weighted>
-9.5655

> <Gold.Chemscore.Internal_Hbond.Weighted>
0.0000

> <Gold.Chemscore.DEClash.Weighted>
0.2089

> <Gold.Chemscore.DEInternal.Weighted>
1.2597

> <Gold.Chemscore.Rot.Weighted>
6.4852

> <Gold.Chemscore.Internal.Correction.Weighted>
   9.000000E+99

> <Gold.Protein.RotatedTorsions>
[ 6907 6896 6895 6894 ] final  -97.68 input  -60.11 | X-H torsion
[ 7974 7965 7964 7962 ] final    6.57 input  175.53 | X-H torsion
[ 8008 7997 7996 7995 ] final -102.47 input   59.86 | X-H torsion
[ 10167 10162 10161 10158 ] final  176.90 input  -65.29 | X-H torsion
[ 10718 10713 10712 10709 ] final  -50.26 input   66.30 | X-H torsion
[ 10763 10752 10751 10750 ] final  123.30 input  -60.55 | X-H torsion
[ 11005 11000 10999 10996 ] final  -15.02 input  -57.11 | X-H torsion

> <Gold.Protein.ActiveResidues>
 VAL166  LYS551  ARG553  GLY616  TRP617  ASP618  TYR619  PRO620  LYS621  CYS622 
 ASP623  PHE694  ASN695  SER759  ASP760  ASP761  ALA762  ILE779  LEU786  VAL792 
 PHE793  MET794  SER795  GLU796  ALA797  LYS798  CYS799  TRP800  GLU811  SER814 

> <Gold.Protein.RotatedAtoms>
  150.7023  134.1311  159.4069 H   0  0  0  0  0  0  0  0  0  0  0  0  # atno 6907 bound_to 6896
  151.9297  135.0260  160.0537 H   0  0  0  0  0  0  0  0  0  0  0  0  # atno 6908 bound_to 6896
  152.2186  133.4931  159.5186 H   0  0  0  0  0  0  0  0  0  0  0  0  # atno 6909 bound_to 6896
  146.2433  140.0213  142.8397 H   0  0  0  0  0  0  0  0  0  0  0  0  # atno 7974 bound_to 7965
  154.8571  140.0428  157.1641 H   0  0  0  0  0  0  0  0  0  0  0  0  # atno 8008 bound_to 7997
  154.8880  140.2982  155.5366 H   0  0  0  0  0  0  0  0  0  0  0  0  # atno 8009 bound_to 7997
  156.2997  140.2399  156.3892 H   0  0  0  0  0  0  0  0  0  0  0  0  # atno 8010 bound_to 7997
  139.5232  144.2861  152.0504 H   0  0  0  0  0  0  0  0  0  0  0  0  # atno 10167 bound_to 10162
  156.1817  130.4150  149.9497 H   0  0  0  0  0  0  0  0  0  0  0  0  # atno 10718 bound_to 10713
  153.6433  135.3375  155.3078 H   0  0  0  0  0  0  0  0  0  0  0  0  # atno 10763 bound_to 10752
  154.8554  135.4323  154.1982 H   0  0  0  0  0  0  0  0  0  0  0  0  # atno 10764 bound_to 10752
  153.2906  135.7016  153.7371 H   0  0  0  0  0  0  0  0  0  0  0  0  # atno 10765 bound_to 10752
  140.7924  133.8278  155.9392 H   0  0  0  0  0  0  0  0  0  0  0  0  # atno 11005 bound_to 11000
  145.1239  140.9478  143.4584 LP  0  0  0  0  0  0  0  0  0  0  0  0  # atno 17320 bound_to 7965
  145.0454  139.3225  143.5955 LP  0  0  0  0  0  0  0  0  0  0  0  0  # atno 17321 bound_to 7965
  140.2314  144.4364  150.6298 LP  0  0  0  0  0  0  0  0  0  0  0  0  # atno 17342 bound_to 10162
  140.6352  143.2194  151.6409 LP  0  0  0  0  0  0  0  0  0  0  0  0  # atno 17343 bound_to 10162
  156.7266  130.9027  151.3622 LP  0  0  0  0  0  0  0  0  0  0  0  0  # atno 17370 bound_to 10713
  157.6872  130.9197  150.0418 LP  0  0  0  0  0  0  0  0  0  0  0  0  # atno 17371 bound_to 10713
  140.9376  134.1941  157.4820 LP  0  0  0  0  0  0  0  0  0  0  0  0  # atno 17394 bound_to 11000
  139.8730  134.9859  156.5300 LP  0  0  0  0  0  0  0  0  0  0  0  0  # atno 17395 bound_to 11000

$$$$
