AV-unprocessed.smi:2098|AV-procd|sdf|8568|dock10
  -GOLD-   2272011303D 1   1.00000     0.00000
 Structure written by MMmdl.
 37 39  0  0  0  0  0  0  0  0  2 V2000
  152.9298  137.5430  158.0481 O   0  0  0  0  0  0  0  0  0  0  0  0
  152.0865  138.6063  157.6511 C   0  0  1  0  0  0  0  0  0  0  0  0
  152.3829  139.8256  158.5356 C   0  0  0  0  0  0  0  0  0  0  0  0
  151.9451  140.9986  157.8621 O   0  0  0  0  0  0  0  0  0  0  0  0
  151.9580  142.1910  158.5531 C   0  0  0  0  0  0  0  0  0  0  0  0
  151.5182  143.3375  157.8591 C   0  0  0  0  0  0  0  0  0  0  0  0
  151.5019  144.5982  158.4866 C   0  0  0  0  0  0  0  0  0  0  0  0
  151.9255  144.7242  159.8223 C   0  0  0  0  0  0  0  0  0  0  0  0
  151.9118  145.9354  160.4271 F   0  0  0  0  0  0  0  0  0  0  0  0
  152.3633  143.5884  160.5281 C   0  0  0  0  0  0  0  0  0  0  0  0
  152.3809  142.3276  159.9001 C   0  0  0  0  0  0  0  0  0  0  0  0
  152.2936  138.9011  156.1515 C   0  0  0  0  0  0  0  0  0  0  0  0
  151.1140  138.5769  155.3393 N   0  0  0  0  0  0  0  0  0  0  0  0
  150.7538  137.4075  154.7442 C   0  0  0  0  0  0  0  0  0  0  0  0
  149.5683  137.6187  154.1074 N   0  3  0  0  0  0  0  0  0  0  0  0
  149.1669  138.9431  154.2966 C   0  0  0  0  0  0  0  0  0  0  0  0
  148.0415  139.6283  153.8489 C   0  0  0  0  0  0  0  0  0  0  0  0
  147.9349  140.9837  154.2250 C   0  0  0  0  0  0  0  0  0  0  0  0
  148.9229  141.6075  155.0146 C   0  0  0  0  0  0  0  0  0  0  0  0
  150.0604  140.9037  155.4619 C   0  0  0  0  0  0  0  0  0  0  0  0
  150.1570  139.5644  155.0864 C   0  0  0  0  0  0  0  0  0  0  0  0
  153.7560  137.6306  157.5977 H   0  0  0  0  0  0  0  0  0  0  0  0
  151.0582  138.2877  157.8254 H   0  0  0  0  0  0  0  0  0  0  0  0
  151.8485  139.7308  159.4826 H   0  0  0  0  0  0  0  0  0  0  0  0
  153.4513  139.8798  158.7527 H   0  0  0  0  0  0  0  0  0  0  0  0
  151.1919  143.2500  156.8331 H   0  0  0  0  0  0  0  0  0  0  0  0
  151.1648  145.4682  157.9426 H   0  0  0  0  0  0  0  0  0  0  0  0
  152.6872  143.6830  161.5540 H   0  0  0  0  0  0  0  0  0  0  0  0
  152.7224  141.4804  160.4748 H   0  0  0  0  0  0  0  0  0  0  0  0
  152.5418  139.9505  155.9877 H   0  0  0  0  0  0  0  0  0  0  0  0
  153.1311  138.3211  155.7611 H   0  0  0  0  0  0  0  0  0  0  0  0
  151.3061  136.4794  154.7745 H   0  0  0  0  0  0  0  0  0  0  0  0
  147.2831  139.1533  153.2440 H   0  0  0  0  0  0  0  0  0  0  0  0
  147.0778  141.5564  153.9016 H   0  0  0  0  0  0  0  0  0  0  0  0
  148.8061  142.6475  155.2830 H   0  0  0  0  0  0  0  0  0  0  0  0
  150.8118  141.3889  156.0676 H   0  0  0  0  0  0  0  0  0  0  0  0
  149.0717  136.9090  153.5840 H   0  0  0  0  0  0  0  0  0  0  0  0
  1  2  1  0  0  0  0
  1 22  1  0  0  0  0
  2  3  1  0  0  0  0
  2 12  1  0  0  0  0
  2 23  1  0  0  0  0
  3  4  1  0  0  0  0
  3 24  1  0  0  0  0
  3 25  1  0  0  0  0
  4  5  1  0  0  0  0
  5 11  1  0  0  0  0
  5  6  2  0  0  0  0
  6  7  1  0  0  0  0
  6 26  1  0  0  0  0
  7  8  2  0  0  0  0
  7 27  1  0  0  0  0
  8  9  1  0  0  0  0
  8 10  1  0  0  0  0
 10 11  2  0  0  0  0
 10 28  1  0  0  0  0
 11 29  1  0  0  0  0
 12 13  1  0  0  0  0
 12 30  1  0  0  0  0
 12 31  1  0  0  0  0
 13 21  1  0  0  0  0
 13 14  1  0  0  0  0
 14 15  2  0  0  0  0
 14 32  1  0  0  0  0
 15 16  1  0  0  0  0
 15 37  1  0  0  0  0
 16 21  2  0  0  0  0
 16 17  1  0  0  0  0
 17 18  2  0  0  0  0
 17 33  1  0  0  0  0
 18 19  1  0  0  0  0
 18 34  1  0  0  0  0
 19 20  2  0  0  0  0
 19 35  1  0  0  0  0
 20 21  1  0  0  0  0
 20 36  1  0  0  0  0
M  CHG  1  15   1
M  END
> <s_m_source_file>
AV-unprocessed.smi

> <i_m_source_file_index>
2098

> <i_lp_mmshare_version>
43012

> <i_f3d_flags>
0

> <s_epik_input>
W2NIXTFbY0hdW2NIXVtjSF1jKGMxMiluKFtjSF1uMilbQ0gyXVtDQEhdKFtPSF0pW0NIMl1PYzNbY0hdW2NIXWMoRilbY0hdW2NIXTM=

> <s_epik_cmdline>
J2VwaWtfcHl0aG9uJywgJy1waCcsICc3LjAnLCAnLXRuJywgJzgnLCAnLW1hJywgJzIwMCcsICctbWV0YWxfYmluZGluZycsICctaW1hZScsICc8aW5maWxlLm1hZT4nLCAnLW9tYWUnLCAnPG91dGZpbGUubWFlPic=

> <r_lp_tautomer_probability>
1

> <r_epik_Ionization_Penalty>
1.3832

> <r_epik_Ionization_Penalty_Charging>
1.38319

> <r_epik_Ionization_Penalty_Neutral>
2.3993e-06

> <r_epik_State_Penalty>
1.46389

> <r_epik_Charging_Adjusted_Penalty>
2.84709

> <i_epik_Tot_Q>
1

> <i_epik_Tot_abs_Q>
1

> <r_epik_Metal_State_Penalty>
5.50438

> <b_epik_Metal_Only>
0

> <s_lp_Force_Field>
OPLS_2005

> <r_lp_Energy>
18.1934

> <b_lp_Chiralities_Consistent>
1

> <s_lp_Variant>
AV-unprocessed.smi:2098-4

> <Gold.Version>
5.8.1

> <Gold.Id.Protein>
6NUR|6NUR_protein|mol2

> <Gold.PLP.Fitness>
51.6217

> <Gold.PLP.PLP>
-48.2748

> <Gold.PLP.part.hbond>
-1.3972

> <Gold.PLP.part.metal>
0.0000

> <Gold.PLP.part.buried>
1.3902

> <Gold.PLP.part.nonpolar>
-47.9755

> <Gold.PLP.part.repulsive>
0.0345

> <Gold.PLP.ligand.clash>
0.0000

> <Gold.PLP.ligand.torsion>
1.3474

> <Gold.PLP.Chemscore.Hbond>
2.0000

> <Gold.PLP.Chemscore.CHOScore>
0.0000

> <Gold.PLP.Chemscore.Metal>
0.0000

> <Gold.Chemscore.Hbonds>
donor molecule, donor type, donor heavy atom, donor atom, acceptor molecule, acceptor atom, score
      L1  H    15    37       P1  7948  1.57

> <Gold.PLP.Chemscore.Internal.Correction>
0.0418

> <Gold.Rescore>
     Score         DG    S(hbond)    S(metal)    S(lipo)     H(rot)  DE(clash)    DE(int)     intcor
     15.34     -16.91       0.93        0.00     124.98       2.46       0.20       1.37       ----

> <Gold.Chemscore.Fitness>
15.3403

> <Gold.Chemscore.DG>
-16.9109

> <Gold.Chemscore.ZeroCoef>
-5.4800

> <Gold.Chemscore.Hbond>
0.9286

> <Gold.Chemscore.Metal>
0.0000

> <Gold.Chemscore.Lipo>
124.9828

> <Gold.Chemscore.Internal_Hbond>
0.0000

> <Gold.Chemscore.DEClash>
0.2011

> <Gold.Chemscore.DEInternal>
1.3695

> <Gold.Chemscore.Rot>
2.4584

> <Gold.Chemscore.Internal.Correction>
   9.000000E+99

> <Gold.Chemscore.Hbonds>
donor molecule, donor type, donor heavy atom, donor atom, acceptor molecule, acceptor atom, score
      L1  H    15    37       P1  7948  0.78

> <Gold.Chemscore.Hbond.Weighted>
-3.1015

> <Gold.Chemscore.Metal.Weighted>
-0.0000

> <Gold.Chemscore.Lipo.Weighted>
-14.6230

> <Gold.Chemscore.Internal_Hbond.Weighted>
0.0000

> <Gold.Chemscore.DEClash.Weighted>
0.2011

> <Gold.Chemscore.DEInternal.Weighted>
1.3695

> <Gold.Chemscore.Rot.Weighted>
6.2936

> <Gold.Chemscore.Internal.Correction.Weighted>
   9.000000E+99

> <Gold.Protein.RotatedTorsions>
[ 6907 6896 6895 6894 ] final  -69.90 input  -60.11 | X-H torsion
[ 7974 7965 7964 7962 ] final  -78.20 input  175.53 | X-H torsion
[ 8008 7997 7996 7995 ] final   71.81 input   59.86 | X-H torsion
[ 10167 10162 10161 10158 ] final   11.05 input  -65.29 | X-H torsion
[ 10718 10713 10712 10709 ] final  -97.42 input   66.30 | X-H torsion
[ 10763 10752 10751 10750 ] final  -96.25 input  -60.55 | X-H torsion
[ 11005 11000 10999 10996 ] final  -40.02 input  -57.11 | X-H torsion

> <Gold.Protein.ActiveResidues>
 VAL166  LYS551  ARG553  GLY616  TRP617  ASP618  TYR619  PRO620  LYS621  CYS622 
 ASP623  PHE694  ASN695  SER759  ASP760  ASP761  ALA762  ILE779  LEU786  VAL792 
 PHE793  MET794  SER795  GLU796  ALA797  LYS798  CYS799  TRP800  GLU811  SER814 

> <Gold.Protein.RotatedAtoms>
  150.7283  134.5531  159.5804 H   0  0  0  0  0  0  0  0  0  0  0  0  # atno 6907 bound_to 6896
  152.3013  134.7604  160.0366 H   0  0  0  0  0  0  0  0  0  0  0  0  # atno 6908 bound_to 6896
  151.8184  133.3355  159.3613 H   0  0  0  0  0  0  0  0  0  0  0  0  # atno 6909 bound_to 6896
  145.5896  140.9432  143.1299 H   0  0  0  0  0  0  0  0  0  0  0  0  # atno 7974 bound_to 7965
  155.7594  140.3487  155.5190 H   0  0  0  0  0  0  0  0  0  0  0  0  # atno 8008 bound_to 7997
  155.8928  140.1021  157.1427 H   0  0  0  0  0  0  0  0  0  0  0  0  # atno 8009 bound_to 7997
  154.4035  140.1301  156.4324 H   0  0  0  0  0  0  0  0  0  0  0  0  # atno 8010 bound_to 7997
  140.6156  143.8314  150.7115 H   0  0  0  0  0  0  0  0  0  0  0  0  # atno 10167 bound_to 10162
  156.0083  130.5193  150.6371 H   0  0  0  0  0  0  0  0  0  0  0  0  # atno 10718 bound_to 10713
  154.7223  135.5090  153.8831 H   0  0  0  0  0  0  0  0  0  0  0  0  # atno 10763 bound_to 10752
  153.0873  135.6649  153.9932 H   0  0  0  0  0  0  0  0  0  0  0  0  # atno 10764 bound_to 10752
  153.9753  135.3034  155.3404 H   0  0  0  0  0  0  0  0  0  0  0  0  # atno 10765 bound_to 10752
  141.0144  133.6892  156.2265 H   0  0  0  0  0  0  0  0  0  0  0  0  # atno 11005 bound_to 11000
  144.7357  139.7593  143.7330 LP  0  0  0  0  0  0  0  0  0  0  0  0  # atno 17320 bound_to 7965
  146.1657  139.4787  142.9960 LP  0  0  0  0  0  0  0  0  0  0  0  0  # atno 17321 bound_to 7965
  140.1893  143.4050  152.1875 LP  0  0  0  0  0  0  0  0  0  0  0  0  # atno 17342 bound_to 10162
  139.5396  144.7244  151.4778 LP  0  0  0  0  0  0  0  0  0  0  0  0  # atno 17343 bound_to 10162
  157.4158  131.0830  151.1178 LP  0  0  0  0  0  0  0  0  0  0  0  0  # atno 17370 bound_to 10713
  157.1795  130.6303  149.5667 LP  0  0  0  0  0  0  0  0  0  0  0  0  # atno 17371 bound_to 10713
  140.6679  134.4899  157.5586 LP  0  0  0  0  0  0  0  0  0  0  0  0  # atno 17394 bound_to 11000
  139.9108  134.8348  156.1534 LP  0  0  0  0  0  0  0  0  0  0  0  0  # atno 17395 bound_to 11000

$$$$
