AV-unprocessed.smi:841|AV-procd|sdf|3916|dock8
  -GOLD-   22720 1383D 1   1.00000     0.00000
 Structure written by MMmdl.
 30 31  0  0  0  0  0  0  0  0  1 V2000
  153.7340  140.1035  158.9010 O   0  0  0  0  0  0  0  0  0  0  0  0
  152.8387  140.9276  159.0879 C   0  0  0  0  0  0  0  0  0  0  0  0
  152.9190  141.8940  160.2724 C   0  0  0  0  0  0  0  0  0  0  0  0
  152.4599  143.2236  159.9079 N   0  0  0  0  0  0  0  0  0  0  0  0
  152.8612  144.0101  158.8474 C   0  0  0  0  0  0  0  0  0  0  0  0
  152.1609  145.1801  158.9198 C   0  0  0  0  0  0  0  0  0  0  0  0
  151.3492  145.0166  160.0768 C   0  0  0  0  0  0  0  0  0  0  0  0
  151.5328  143.8469  160.6678 N   0  0  0  0  0  0  0  0  0  0  0  0
  151.7615  141.0427  158.2951 N   0  0  0  0  0  0  0  0  0  0  0  0
  151.4854  140.2300  157.1145 C   0  0  0  0  0  0  0  0  0  0  0  0
  150.6418  140.9933  156.0762 C   0  0  1  0  0  0  0  0  0  0  0  0
  150.1425  140.1612  154.9102 C   0  0  0  0  0  0  0  0  0  0  0  0
  148.9962  141.0150  154.3763 C   0  0  0  0  0  0  0  0  0  0  0  0
  148.4763  141.7197  155.5003 O   0  0  0  0  0  0  0  0  0  0  0  0
  149.3233  141.5320  156.6299 C   0  0  0  0  0  0  0  0  0  0  0  0
  152.3122  141.5075  161.0929 H   0  0  0  0  0  0  0  0  0  0  0  0
  153.9431  141.9723  160.6404 H   0  0  0  0  0  0  0  0  0  0  0  0
  153.6023  143.6740  158.1372 H   0  0  0  0  0  0  0  0  0  0  0  0
  152.2206  146.0248  158.2496 H   0  0  0  0  0  0  0  0  0  0  0  0
  150.6389  145.7094  160.5035 H   0  0  0  0  0  0  0  0  0  0  0  0
  151.0799  141.7509  158.5263 H   0  0  0  0  0  0  0  0  0  0  0  0
  152.4116  139.8661  156.6663 H   0  0  0  0  0  0  0  0  0  0  0  0
  150.9406  139.3450  157.4441 H   0  0  0  0  0  0  0  0  0  0  0  0
  151.2200  141.8321  155.6845 H   0  0  0  0  0  0  0  0  0  0  0  0
  150.9087  139.9665  154.1592 H   0  0  0  0  0  0  0  0  0  0  0  0
  149.7598  139.2028  155.2637 H   0  0  0  0  0  0  0  0  0  0  0  0
  149.3677  141.7422  153.6532 H   0  0  0  0  0  0  0  0  0  0  0  0
  148.2260  140.4169  153.8892 H   0  0  0  0  0  0  0  0  0  0  0  0
  148.8547  140.8033  157.2929 H   0  0  0  0  0  0  0  0  0  0  0  0
  149.4527  142.4603  157.1866 H   0  0  0  0  0  0  0  0  0  0  0  0
  1  2  2  0  0  0  0
  2  3  1  0  0  0  0
  2  9  1  0  0  0  0
  3  4  1  0  0  0  0
  3 16  1  0  0  0  0
  3 17  1  0  0  0  0
  4  8  1  0  0  0  0
  4  5  1  0  0  0  0
  5  6  2  0  0  0  0
  5 18  1  0  0  0  0
  6  7  1  0  0  0  0
  6 19  1  0  0  0  0
  7  8  2  0  0  0  0
  7 20  1  0  0  0  0
  9 10  1  0  0  0  0
  9 21  1  0  0  0  0
 10 11  1  0  0  0  0
 10 22  1  0  0  0  0
 10 23  1  0  0  0  0
 11 15  1  0  0  0  0
 11 12  1  0  0  0  0
 11 24  1  0  0  0  0
 12 13  1  0  0  0  0
 12 25  1  0  0  0  0
 12 26  1  0  0  0  0
 13 14  1  0  0  0  0
 13 27  1  0  0  0  0
 13 28  1  0  0  0  0
 14 15  1  0  0  0  0
 15 29  1  0  0  0  0
 15 30  1  0  0  0  0
M  END
> <s_m_source_file>
AV-unprocessed.smi

> <i_m_source_file_index>
841

> <i_lp_mmshare_version>
43012

> <i_f3d_flags>
0

> <s_epik_input>
bjFbY0hdW2NIXVtjSF1uMVtDSDJdQyg9TylbTkhdW0NIMl1bQ0BASF0yW0NIMl1bQ0gyXU9bQ0gyXTI=

> <s_epik_cmdline>
J2VwaWtfcHl0aG9uJywgJy1waCcsICc3LjAnLCAnLXRuJywgJzgnLCAnLW1hJywgJzIwMCcsICctbWV0YWxfYmluZGluZycsICctaW1hZScsICc8aW5maWxlLm1hZT4nLCAnLW9tYWUnLCAnPG91dGZpbGUubWFlPic=

> <r_lp_tautomer_probability>
1

> <r_epik_Ionization_Penalty>
1.49823e-05

> <r_epik_Ionization_Penalty_Charging>
0

> <r_epik_Ionization_Penalty_Neutral>
1.49823e-05

> <r_epik_State_Penalty>
-0

> <r_epik_Charging_Adjusted_Penalty>
0

> <i_epik_Tot_Q>
0

> <i_epik_Tot_abs_Q>
0

> <r_epik_Metal_State_Penalty>
-0

> <b_epik_Metal_Only>
0

> <s_lp_Force_Field>
OPLS_2005

> <r_lp_Energy>
18.8738

> <b_lp_Chiralities_Consistent>
1

> <s_lp_Variant>
AV-unprocessed.smi:841-2

> <Gold.Version>
5.8.1

> <Gold.Id.Protein>
6NUR|6NUR_protein|mol2

> <Gold.PLP.Fitness>
38.4299

> <Gold.PLP.PLP>
-36.5720

> <Gold.PLP.part.hbond>
-1.0000

> <Gold.PLP.part.metal>
0.0000

> <Gold.PLP.part.buried>
-4.0889

> <Gold.PLP.part.nonpolar>
-32.2837

> <Gold.PLP.part.repulsive>
0.8668

> <Gold.PLP.ligand.clash>
0.0000

> <Gold.PLP.ligand.torsion>
0.5641

> <Gold.PLP.Chemscore.Hbond>
0.9920

> <Gold.PLP.Chemscore.CHOScore>
0.0000

> <Gold.PLP.Chemscore.Metal>
0.0000

> <Gold.Chemscore.Hbonds>
donor molecule, donor type, donor heavy atom, donor atom, acceptor molecule, acceptor atom, score
      P1  H  7997  8010       L1     1  0.99

> <Gold.PLP.Chemscore.Internal.Correction>
0.0100

> <Gold.Rescore>
     Score         DG    S(hbond)    S(metal)    S(lipo)     H(rot)  DE(clash)    DE(int)     intcor
     13.53     -14.06       0.96        0.00      82.65       1.68       0.06       0.47       ----

> <Gold.Chemscore.Fitness>
13.5284

> <Gold.Chemscore.DG>
-14.0612

> <Gold.Chemscore.ZeroCoef>
-5.4800

> <Gold.Chemscore.Hbond>
0.9594

> <Gold.Chemscore.Metal>
0.0000

> <Gold.Chemscore.Lipo>
82.6509

> <Gold.Chemscore.Internal_Hbond>
0.0000

> <Gold.Chemscore.DEClash>
0.0620

> <Gold.Chemscore.DEInternal>
0.4708

> <Gold.Chemscore.Rot>
1.6771

> <Gold.Chemscore.Internal.Correction>
   9.000000E+99

> <Gold.Chemscore.Hbonds>
donor molecule, donor type, donor heavy atom, donor atom, acceptor molecule, acceptor atom, score
      P1  H  7997  8010       L1     1  0.90

> <Gold.Chemscore.Hbond.Weighted>
-3.2044

> <Gold.Chemscore.Metal.Weighted>
-0.0000

> <Gold.Chemscore.Lipo.Weighted>
-9.6702

> <Gold.Chemscore.Internal_Hbond.Weighted>
0.0000

> <Gold.Chemscore.DEClash.Weighted>
0.0620

> <Gold.Chemscore.DEInternal.Weighted>
0.4708

> <Gold.Chemscore.Rot.Weighted>
4.2934

> <Gold.Chemscore.Internal.Correction.Weighted>
   9.000000E+99

> <Gold.Protein.RotatedTorsions>
[ 6907 6896 6895 6894 ] final    1.10 input  -60.11 | X-H torsion
[ 7974 7965 7964 7962 ] final   21.85 input  175.53 | X-H torsion
[ 8008 7997 7996 7995 ] final   17.90 input   59.86 | X-H torsion
[ 10167 10162 10161 10158 ] final   -8.14 input  -65.29 | X-H torsion
[ 10718 10713 10712 10709 ] final   -6.39 input   66.30 | X-H torsion
[ 10763 10752 10751 10750 ] final  112.24 input  -60.55 | X-H torsion
[ 11005 11000 10999 10996 ] final -167.90 input  -57.11 | X-H torsion

> <Gold.Protein.ActiveResidues>
 VAL166  LYS551  ARG553  GLY616  TRP617  ASP618  TYR619  PRO620  LYS621  CYS622 
 ASP623  PHE694  ASN695  SER759  ASP760  ASP761  ALA762  ILE779  LEU786  VAL792 
 PHE793  MET794  SER795  GLU796  ALA797  LYS798  CYS799  TRP800  GLU811  SER814 

> <Gold.Protein.RotatedAtoms>
  151.5871  135.1055  160.0030 H   0  0  0  0  0  0  0  0  0  0  0  0  # atno 6907 bound_to 6896
  152.4325  133.7298  159.6591 H   0  0  0  0  0  0  0  0  0  0  0  0  # atno 6908 bound_to 6896
  150.8219  133.8168  159.3158 H   0  0  0  0  0  0  0  0  0  0  0  0  # atno 6909 bound_to 6896
  146.2054  139.7969  142.8730 H   0  0  0  0  0  0  0  0  0  0  0  0  # atno 7974 bound_to 7965
  154.8981  140.2996  155.5333 H   0  0  0  0  0  0  0  0  0  0  0  0  # atno 8008 bound_to 7997
  156.3019  140.2412  156.3941 H   0  0  0  0  0  0  0  0  0  0  0  0  # atno 8009 bound_to 7997
  154.8549  140.0408  157.1617 H   0  0  0  0  0  0  0  0  0  0  0  0  # atno 8010 bound_to 7997
  140.7050  143.6002  150.8805 H   0  0  0  0  0  0  0  0  0  0  0  0  # atno 10167 bound_to 10162
  156.7325  130.5184  149.5842 H   0  0  0  0  0  0  0  0  0  0  0  0  # atno 10718 bound_to 10713
  153.4750  135.3692  155.2411 H   0  0  0  0  0  0  0  0  0  0  0  0  # atno 10763 bound_to 10752
  154.8756  135.3940  154.3767 H   0  0  0  0  0  0  0  0  0  0  0  0  # atno 10764 bound_to 10752
  153.4361  135.7083  153.6264 H   0  0  0  0  0  0  0  0  0  0  0  0  # atno 10765 bound_to 10752
  140.5480  134.5456  157.5116 H   0  0  0  0  0  0  0  0  0  0  0  0  # atno 11005 bound_to 11000
  145.3338  141.0272  143.3431 LP  0  0  0  0  0  0  0  0  0  0  0  0  # atno 17320 bound_to 7965
  144.8780  139.4944  143.6736 LP  0  0  0  0  0  0  0  0  0  0  0  0  # atno 17321 bound_to 7965
  139.9727  143.6039  152.2968 LP  0  0  0  0  0  0  0  0  0  0  0  0  # atno 17342 bound_to 10162
  139.6631  144.7662  151.1924 LP  0  0  0  0  0  0  0  0  0  0  0  0  # atno 17343 bound_to 10162
  156.1519  130.6316  151.0607 LP  0  0  0  0  0  0  0  0  0  0  0  0  # atno 17370 bound_to 10713
  157.6853  131.0826  150.7260 LP  0  0  0  0  0  0  0  0  0  0  0  0  # atno 17371 bound_to 10713
  139.9469  134.7685  156.0539 LP  0  0  0  0  0  0  0  0  0  0  0  0  # atno 17394 bound_to 11000
  141.1188  133.6619  156.3162 LP  0  0  0  0  0  0  0  0  0  0  0  0  # atno 17395 bound_to 11000

$$$$
