#       Name:                AV-unprocessed.smi:1914
#       Creating user name   scv26
#       Creation time:       Fri Mar 27 09:49:58 2020


#       File generated by GOLD software.
#

@<TRIPOS>MOLECULE
AV-unprocessed.smi:1914
    48    49     1
SMALL
NO_CHARGES


@<TRIPOS>ATOM
      1 ****        -1.4419   4.4759  -0.0604 C.3            1 S1                 0.0000
      2 ****        -2.2524   3.7041  -1.1165 C.3            1 S1                 0.0000
      3 ****        -3.7713   3.7756  -0.8732 C.3            1 S1                 0.0000
      4 ****        -4.1883   2.8891   0.3089 C.3            1 S1                 0.0000
      5 ****        -3.6781   1.4510   0.1261 C.3            1 S1                 0.0000
      6 ****        -2.2051   1.4253  -0.0656 N.4            1 S1                 1.0000
      7 ****        -1.6668   0.0420  -0.0908 C.3            1 S1                 0.0000
      8 ****        -0.1811  -0.0161   0.2993 C.3            1 S1                 0.0000
      9 ****         0.2881  -1.3945   0.3086 N.am           1 S1                 0.0000
     10 ****         1.5250  -1.7701   0.6627 C.2            1 S1                 0.0000
     11 ****         2.3895  -0.9727   1.0282 O.2            1 S1                 0.0000
     12 ****         1.8128  -3.2777   0.6145 C.3            1 S1                 0.0000
     13 ****         3.2367  -3.5918   0.4093 N.am           1 S1                 0.0000
     14 ****         3.9887  -3.9428   1.5481 C.2            1 S1                 0.0000
     15 ****         5.2936  -4.2484   1.4705 C.2            1 S1                 0.0000
     16 ****         5.9277  -4.2101   0.1742 C.2            1 S1                 0.0000
     17 ****         5.2185  -3.8730  -0.9213 C.2            1 S1                 0.0000
     18 ****         3.7920  -3.5382  -0.8410 C.2            1 S1                 0.0000
     19 ****         3.1353  -3.2287  -1.8358 O.2            1 S1                 0.0000
     20 ****        -1.7932   2.2368  -1.2436 C.3            1 S1                 0.0000
     21 ****        -1.5492   4.0421   0.9339 H              1 S1                 0.0000
     22 ****        -1.7622   5.5167  -0.0040 H              1 S1                 0.0000
     23 ****        -0.3796   4.4743  -0.3060 H              1 S1                 0.0000
     24 ****        -2.0547   4.1927  -2.0716 H              1 S1                 0.0000
     25 ****        -4.0849   4.8063  -0.7042 H              1 S1                 0.0000
     26 ****        -4.2944   3.4411  -1.7702 H              1 S1                 0.0000
     27 ****        -3.8006   3.3019   1.2409 H              1 S1                 0.0000
     28 ****        -5.2745   2.8877   0.4054 H              1 S1                 0.0000
     29 ****        -3.9482   0.8657   1.0058 H              1 S1                 0.0000
     30 ****        -4.1667   0.9816  -0.7295 H              1 S1                 0.0000
     31 ****        -2.2227  -0.5723   0.6192 H              1 S1                 0.0000
     32 ****        -1.8299  -0.4004  -1.0749 H              1 S1                 0.0000
     33 ****         0.4322   0.5534  -0.3992 H              1 S1                 0.0000
     34 ****        -0.0369   0.4224   1.2882 H              1 S1                 0.0000
     35 ****        -0.3651  -2.1097   0.0223 H              1 S1                 0.0000
     36 ****         1.4518  -3.7197   1.5441 H              1 S1                 0.0000
     37 ****         1.2137  -3.7406  -0.1722 H              1 S1                 0.0000
     38 ****         3.4426  -3.9411   2.4802 H              1 S1                 0.0000
     39 ****         5.8547  -4.5118   2.3550 H              1 S1                 0.0000
     40 ****         6.9766  -4.4510   0.0828 H              1 S1                 0.0000
     41 ****         5.7101  -3.8484  -1.8829 H              1 S1                 0.0000
     42 ****        -2.2206   1.7955  -2.1454 H              1 S1                 0.0000
     43 ****        -0.7117   2.2097  -1.3711 H              1 S1                 0.0000
     44 ****        -1.8097   1.8700   0.7507 H              1 S1                 0.0000
     45 ****         2.1823   0.0046   1.0707 LP             1 S1                 0.0000
     46 ****         3.2986  -1.3027   1.2825 LP             1 S1                 0.0000
     47 ****         2.1645  -3.0066  -1.7448 LP             1 S1                 0.0000
     48 ****         3.5728  -3.1995  -2.7345 LP             1 S1                 0.0000
@<TRIPOS>BOND
    1    1    2 1     
    2    1   21 1     
    3    1   22 1     
    4    1   23 1     
    5    2   20 1     
    6    2    3 1     
    7    2   24 1     
    8    3    4 1     
    9    3   25 1     
   10    3   26 1     
   11    4    5 1     
   12    4   27 1     
   13    4   28 1     
   14    5    6 1     
   15    5   29 1     
   16    5   30 1     
   17    6    7 1     
   18    6   20 1     
   19    6   44 1     
   20    7    8 1     
   21    7   31 1     
   22    7   32 1     
   23    8    9 1     
   24    8   33 1     
   25    8   34 1     
   26    9   10 am    
   27    9   35 1     
   28   10   11 2     
   29   10   12 1     
   30   12   13 1     
   31   12   36 1     
   32   12   37 1     
   33   13   18 am    
   34   13   14 1     
   35   14   15 2     
   36   14   38 1     
   37   15   16 1     
   38   15   39 1     
   39   16   17 2     
   40   16   40 1     
   41   17   18 1     
   42   17   41 1     
   43   18   19 2     
   44   20   42 1     
   45   20   43 1     
   46   11   45 1     
   47   11   46 1     
   48   19   47 1     
   49   19   48 1     
@<TRIPOS>SUBSTRUCTURE
      1 S1             1
@<TRIPOS>SET
LONE_PAIRS      STATIC     ATOMS    <user>   **** ""
4 45 46 47 48
DONOR_HYDROGENS      STATIC     ATOMS    <user>   **** ""
2 44 35
ATOM$BLUE        STATIC     ATOMS    COLORGROUP SYSTEM
4 45 46 47 48
ATOM$RED        STATIC     ATOMS    COLORGROUP SYSTEM
2 44 35
