AV-unprocessed.smi:102|AV-procd|sdf|968|dock6
  -GOLD-   2262017513D 1   1.00000     0.00000
 Structure written by MMmdl.
 43 44  0  0  0  0  0  0  0  0  2 V2000
  147.3970  134.9957  162.6845 C   0  0  0  0  0  0  0  0  0  0  0  0
  147.6482  136.0544  161.6182 C   0  0  0  0  0  0  0  0  0  0  0  0
  147.4888  137.2521  161.8545 O   0  0  0  0  0  0  0  0  0  0  0  0
  148.0451  135.5267  160.4500 O   0  0  0  0  0  0  0  0  0  0  0  0
  147.7612  136.2105  159.2407 C   0  0  0  0  0  0  0  0  0  0  0  0
  148.5608  137.5276  159.1981 C   0  0  1  0  0  0  0  0  0  0  0  0
  149.9139  137.2553  159.5393 O   0  0  0  0  0  0  0  0  0  0  0  0
  150.6168  136.8649  158.3971 C   0  0  2  0  0  0  0  0  0  0  0  0
  152.0218  137.4217  158.4816 N   0  0  0  0  0  0  0  0  0  0  0  0
  152.2588  138.6304  159.1131 C   0  0  0  0  0  0  0  0  0  0  0  0
  153.4997  139.1551  159.1735 C   0  0  0  0  0  0  0  0  0  0  0  0
  153.6990  140.3321  159.7911 F   0  0  0  0  0  0  0  0  0  0  0  0
  154.6173  138.4406  158.5591 C   0  0  0  0  0  0  0  0  0  0  0  0
  155.7485  138.9192  158.6253 O   0  0  0  0  0  0  0  0  0  0  0  0
  154.3505  137.2601  157.9281 N   0  5  0  0  0  0  0  0  0  0  0  0
  153.0942  136.7301  157.8554 C   0  0  0  0  0  0  0  0  0  0  0  0
  152.8390  135.6830  157.2605 O   0  0  0  0  0  0  0  0  0  0  0  0
  149.8381  137.3765  157.1651 C   0  0  2  0  0  0  0  0  0  0  0  0
  150.6244  138.2327  156.3416 O   0  0  0  0  0  0  0  0  0  0  0  0
  151.4743  137.7174  155.4402 C   0  0  0  0  0  0  0  0  0  0  0  0
  152.2664  138.7954  154.7133 C   0  0  0  0  0  0  0  0  0  0  0  0
  151.6299  136.5224  155.1879 O   0  0  0  0  0  0  0  0  0  0  0  0
  148.6902  138.1481  157.8009 C   0  0  1  0  0  0  0  0  0  0  0  0
  147.5107  138.0201  157.0165 O   0  0  0  0  0  0  0  0  0  0  0  0
  146.3946  138.6833  157.3602 C   0  0  0  0  0  0  0  0  0  0  0  0
  145.2425  138.4122  156.4025 C   0  0  0  0  0  0  0  0  0  0  0  0
  146.2643  139.4305  158.3298 O   0  0  0  0  0  0  0  0  0  0  0  0
  147.8462  134.0433  162.4013 H   0  0  0  0  0  0  0  0  0  0  0  0
  146.3260  134.8463  162.8211 H   0  0  0  0  0  0  0  0  0  0  0  0
  147.8265  135.3092  163.6360 H   0  0  0  0  0  0  0  0  0  0  0  0
  147.9923  135.5798  158.3814 H   0  0  0  0  0  0  0  0  0  0  0  0
  146.6915  136.4223  159.2104 H   0  0  0  0  0  0  0  0  0  0  0  0
  148.1269  138.2457  159.8947 H   0  0  0  0  0  0  0  0  0  0  0  0
  150.7077  135.7779  158.4168 H   0  0  0  0  0  0  0  0  0  0  0  0
  151.4394  139.1736  159.5598 H   0  0  0  0  0  0  0  0  0  0  0  0
  149.4771  136.5012  156.6222 H   0  0  0  0  0  0  0  0  0  0  0  0
  152.7311  139.4722  155.4307 H   0  0  0  0  0  0  0  0  0  0  0  0
  151.6087  139.3749  154.0655 H   0  0  0  0  0  0  0  0  0  0  0  0
  153.0505  138.3487  154.1019 H   0  0  0  0  0  0  0  0  0  0  0  0
  148.9879  139.1935  157.9021 H   0  0  0  0  0  0  0  0  0  0  0  0
  145.5285  138.6728  155.3834 H   0  0  0  0  0  0  0  0  0  0  0  0
  144.3680  139.0022  156.6776 H   0  0  0  0  0  0  0  0  0  0  0  0
  144.9699  137.3572  156.4275 H   0  0  0  0  0  0  0  0  0  0  0  0
  1  2  1  0  0  0  0
  1 28  1  0  0  0  0
  1 29  1  0  0  0  0
  1 30  1  0  0  0  0
  2  3  2  0  0  0  0
  2  4  1  0  0  0  0
  4  5  1  0  0  0  0
  5  6  1  0  0  0  0
  5 31  1  0  0  0  0
  5 32  1  0  0  0  0
  6 23  1  0  0  0  0
  6  7  1  0  0  0  0
  6 33  1  0  0  0  0
  7  8  1  0  0  0  0
  8  9  1  0  0  0  0
  8 18  1  0  0  0  0
  8 34  1  0  0  0  0
  9 16  1  0  0  0  0
  9 10  1  0  0  0  0
 10 11  2  0  0  0  0
 10 35  1  0  0  0  0
 11 12  1  0  0  0  0
 11 13  1  0  0  0  0
 13 14  2  0  0  0  0
 13 15  1  0  0  0  0
 15 16  1  0  0  0  0
 16 17  2  0  0  0  0
 18 19  1  0  0  0  0
 18 23  1  0  0  0  0
 18 36  1  0  0  0  0
 19 20  1  0  0  0  0
 20 21  1  0  0  0  0
 20 22  2  0  0  0  0
 21 37  1  0  0  0  0
 21 38  1  0  0  0  0
 21 39  1  0  0  0  0
 23 24  1  0  0  0  0
 23 40  1  0  0  0  0
 24 25  1  0  0  0  0
 25 26  1  0  0  0  0
 25 27  2  0  0  0  0
 26 41  1  0  0  0  0
 26 42  1  0  0  0  0
 26 43  1  0  0  0  0
M  CHG  1  15  -1
M  END
> <s_m_source_file>
AV-unprocessed.smi

> <i_m_source_file_index>
102

> <i_lp_mmshare_version>
43012

> <i_f3d_flags>
0

> <s_epik_input>
W0NIM11DKD1PKU9bQ0gyXVtDQEBIXTFPW0NASF0oW0NAQEhdKE9DKD1PKVtDSDNdKVtDQEhdMU9DKD1PKVtDSDNdKW4yW2NIXWMoRiljKD1PKVtuSF1jMj1P

> <s_epik_cmdline>
J2VwaWtfcHl0aG9uJywgJy1waCcsICc3LjAnLCAnLXRuJywgJzgnLCAnLW1hJywgJzIwMCcsICctbWV0YWxfYmluZGluZycsICctaW1hZScsICc8aW5maWxlLm1hZT4nLCAnLW9tYWUnLCAnPG91dGZpbGUubWFlPic=

> <r_epik_Ionization_Penalty>
1.40304

> <r_epik_Ionization_Penalty_Charging>
1.43915e-08

> <r_epik_Ionization_Penalty_Neutral>
1.40304

> <r_epik_State_Penalty>
1.48536

> <r_epik_Charging_Adjusted_Penalty>
1.48536

> <i_epik_Tot_Q>
-1

> <i_epik_Tot_abs_Q>
1

> <r_epik_Metal_State_Penalty>
0.00663881

> <b_epik_Metal_Only>
0

> <s_epik_Chemistry_Notes>
This compound has an ester and may undergo hydrolysis at high or low pH. This compound contains an acetal/aminal-like group ( X-CH(R)-Y where X, Y are N, S, or O) that may be acid/base labile, releasing an aldehyde.

> <s_lp_Force_Field>
OPLS_2005

> <r_lp_Energy>
24.6661

> <b_lp_Chiralities_Consistent>
1

> <s_lp_Variant>
AV-unprocessed.smi:102-24

> <Gold.Version>
5.8.1

> <Gold.Id.Protein>
6NUR|6NUR_protein|mol2

> <Gold.PLP.Fitness>
40.0968

> <Gold.PLP.PLP>
-31.8806

> <Gold.PLP.part.hbond>
-6.4522

> <Gold.PLP.part.metal>
0.0000

> <Gold.PLP.part.buried>
-3.2125

> <Gold.PLP.part.nonpolar>
-21.8081

> <Gold.PLP.part.repulsive>
0.1172

> <Gold.PLP.ligand.clash>
0.0000

> <Gold.PLP.ligand.torsion>
1.4404

> <Gold.PLP.Chemscore.Hbond>
3.6414

> <Gold.PLP.Chemscore.CHOScore>
0.0000

> <Gold.PLP.Chemscore.Metal>
0.0000

> <Gold.Chemscore.Hbonds>
donor molecule, donor type, donor heavy atom, donor atom, acceptor molecule, acceptor atom, score
      P1  H  6931  6943       L1     3  0.91
      P1  H  6934  6947       L1     3  0.72
      P1  H  7997  8010       L1    14  0.85
      P1  H 10752 10765       L1    22  1.00

> <Gold.PLP.Chemscore.Internal.Correction>
0.1728

> <Gold.Rescore>
     Score         DG    S(hbond)    S(metal)    S(lipo)     H(rot)  DE(clash)    DE(int)     intcor
      7.57     -11.44       3.53        0.00      37.63       4.00       0.08       3.78       ----

> <Gold.Chemscore.Fitness>
7.5732

> <Gold.Chemscore.DG>
-11.4370

> <Gold.Chemscore.ZeroCoef>
-5.4800

> <Gold.Chemscore.Hbond>
3.5276

> <Gold.Chemscore.Metal>
0.0000

> <Gold.Chemscore.Lipo>
37.6262

> <Gold.Chemscore.Internal_Hbond>
0.0000

> <Gold.Chemscore.DEClash>
0.0799

> <Gold.Chemscore.DEInternal>
3.7840

> <Gold.Chemscore.Rot>
3.9951

> <Gold.Chemscore.Internal.Correction>
   9.000000E+99

> <Gold.Chemscore.Hbonds>
donor molecule, donor type, donor heavy atom, donor atom, acceptor molecule, acceptor atom, score
      P1  H  6931  6943       L1     3  0.83
      P1  H  6934  6947       L1     3  0.69
      P1  H  7997  8010       L1    14  0.15
      P1  H 10752 10765       L1    22  0.99

> <Gold.Chemscore.Hbond.Weighted>
-11.7821

> <Gold.Chemscore.Metal.Weighted>
-0.0000

> <Gold.Chemscore.Lipo.Weighted>
-4.4023

> <Gold.Chemscore.Internal_Hbond.Weighted>
0.0000

> <Gold.Chemscore.DEClash.Weighted>
0.0799

> <Gold.Chemscore.DEInternal.Weighted>
3.7840

> <Gold.Chemscore.Rot.Weighted>
10.2274

> <Gold.Chemscore.Internal.Correction.Weighted>
   9.000000E+99

> <Gold.Protein.RotatedTorsions>
[ 6907 6896 6895 6894 ] final  -19.50 input  -60.11 | X-H torsion
[ 7974 7965 7964 7962 ] final  156.36 input  175.53 | X-H torsion
[ 8008 7997 7996 7995 ] final  -27.49 input   59.86 | X-H torsion
[ 10167 10162 10161 10158 ] final -139.24 input  -65.29 | X-H torsion
[ 10718 10713 10712 10709 ] final    0.53 input   66.30 | X-H torsion
[ 10763 10752 10751 10750 ] final  168.96 input  -60.55 | X-H torsion
[ 11005 11000 10999 10996 ] final -141.65 input  -57.11 | X-H torsion

> <Gold.Protein.ActiveResidues>
 VAL166  LYS551  ARG553  GLY616  TRP617  ASP618  TYR619  PRO620  LYS621  CYS622 
 ASP623  PHE694  ASN695  SER759  ASP760  ASP761  ALA762  ILE779  LEU786  VAL792 
 PHE793  MET794  SER795  GLU796  ALA797  LYS798  CYS799  TRP800  GLU811  SER814 

> <Gold.Protein.RotatedAtoms>
  151.2621  135.0657  159.9101 H   0  0  0  0  0  0  0  0  0  0  0  0  # atno 6907 bound_to 6896
  152.5364  134.0220  159.7996 H   0  0  0  0  0  0  0  0  0  0  0  0  # atno 6908 bound_to 6896
  151.0444  133.5628  159.2679 H   0  0  0  0  0  0  0  0  0  0  0  0  # atno 6909 bound_to 6896
  144.7968  139.7193  143.6198 H   0  0  0  0  0  0  0  0  0  0  0  0  # atno 7974 bound_to 7965
  154.4375  140.1871  156.0941 H   0  0  0  0  0  0  0  0  0  0  0  0  # atno 8008 bound_to 7997
  156.0343  140.3327  155.7148 H   0  0  0  0  0  0  0  0  0  0  0  0  # atno 8009 bound_to 7997
  155.5793  140.0620  157.2778 H   0  0  0  0  0  0  0  0  0  0  0  0  # atno 8010 bound_to 7997
  139.8399  143.7336  152.2663 H   0  0  0  0  0  0  0  0  0  0  0  0  # atno 10167 bound_to 10162
  156.8347  130.5500  149.5683 H   0  0  0  0  0  0  0  0  0  0  0  0  # atno 10718 bound_to 10713
  154.3761  135.2753  155.2238 H   0  0  0  0  0  0  0  0  0  0  0  0  # atno 10763 bound_to 10752
  154.4365  135.5965  153.6105 H   0  0  0  0  0  0  0  0  0  0  0  0  # atno 10764 bound_to 10752
  152.9836  135.6008  154.3998 H   0  0  0  0  0  0  0  0  0  0  0  0  # atno 10765 bound_to 10752
  140.8303  134.2524  157.4859 H   0  0  0  0  0  0  0  0  0  0  0  0  # atno 11005 bound_to 11000
  146.2238  139.5685  142.9600 LP  0  0  0  0  0  0  0  0  0  0  0  0  # atno 17320 bound_to 7965
  145.5653  141.0400  143.2204 LP  0  0  0  0  0  0  0  0  0  0  0  0  # atno 17321 bound_to 7965
  139.7570  144.7518  151.0421 LP  0  0  0  0  0  0  0  0  0  0  0  0  # atno 17342 bound_to 10162
  140.7799  143.4795  151.0038 LP  0  0  0  0  0  0  0  0  0  0  0  0  # atno 17343 bound_to 10162
  156.0914  130.5899  150.9739 LP  0  0  0  0  0  0  0  0  0  0  0  0  # atno 17370 bound_to 10713
  157.6388  131.0913  150.8294 LP  0  0  0  0  0  0  0  0  0  0  0  0  # atno 17371 bound_to 10713
  139.8705  134.9583  156.4295 LP  0  0  0  0  0  0  0  0  0  0  0  0  # atno 17394 bound_to 11000
  140.9005  133.7783  155.9674 LP  0  0  0  0  0  0  0  0  0  0  0  0  # atno 17395 bound_to 11000

$$$$
