AV-unprocessed.smi:2602|AV-procd|sdf|10184|dock9
  -GOLD-   2272014193D 1   1.00000     0.00000
 Structure written by MMmdl.
 46 47  0  0  0  0  0  0  0  0  1 V2000
  146.5623  128.3597  152.6119 C   0  0  0  0  0  0  0  0  0  0  0  0
  146.3569  129.5085  153.4293 O   0  0  0  0  0  0  0  0  0  0  0  0
  146.4452  130.7333  152.8596 C   0  0  0  0  0  0  0  0  0  0  0  0
  145.6636  130.9036  151.7922 N   0  0  0  0  0  0  0  0  0  0  0  0
  145.7188  132.1074  151.1859 C   0  0  0  0  0  0  0  0  0  0  0  0
  146.5588  133.1383  151.6535 C   0  0  0  0  0  0  0  0  0  0  0  0
  147.3476  132.8625  152.7925 C   0  0  0  0  0  0  0  0  0  0  0  0
  148.1846  133.9188  153.2390 N   0  0  0  0  0  0  0  0  0  0  0  0
  148.8917  133.9861  154.3804 C   0  0  0  0  0  0  0  0  0  0  0  0
  148.9015  133.1264  155.2617 O   0  0  0  0  0  0  0  0  0  0  0  0
  149.6048  135.1204  154.4425 N   0  0  0  0  0  0  0  0  0  0  0  0
  150.5198  135.5000  155.5199 C   0  0  0  0  0  0  0  0  0  0  0  0
  150.7799  137.0374  155.5800 C   0  0  0  0  0  0  0  0  0  0  0  0
  149.4919  137.8456  155.9566 C   0  0  0  0  0  0  0  0  0  0  0  0
  149.0729  138.6765  155.1465 O   0  0  0  0  0  0  0  0  0  0  0  0
  148.8481  137.6776  157.1439 N   0  0  0  0  0  0  0  0  0  0  0  0
  147.7033  138.5346  157.4697 C   0  0  0  0  0  0  0  0  0  0  0  0
  149.1588  136.7242  158.2139 C   0  0  0  0  0  0  0  0  0  0  0  0
  151.9214  137.2889  156.6057 C   0  0  0  0  0  0  0  0  0  0  0  0
  152.5794  138.6224  156.2374 C   0  0  0  0  0  0  0  0  0  0  0  0
  152.2974  138.8172  154.7465 C   0  0  0  0  0  0  0  0  0  0  0  0
  151.4529  137.6124  154.3081 C   0  0  0  0  0  0  0  0  0  0  0  0
  147.2757  131.6452  153.3844 N   0  0  0  0  0  0  0  0  0  0  0  0
  146.4532  127.4610  153.2188 H   0  0  0  0  0  0  0  0  0  0  0  0
  147.5654  128.3489  152.1821 H   0  0  0  0  0  0  0  0  0  0  0  0
  145.8281  128.3052  151.8066 H   0  0  0  0  0  0  0  0  0  0  0  0
  145.0890  132.2508  150.3204 H   0  0  0  0  0  0  0  0  0  0  0  0
  146.5921  134.0962  151.1556 H   0  0  0  0  0  0  0  0  0  0  0  0
  148.2660  134.7049  152.6115 H   0  0  0  0  0  0  0  0  0  0  0  0
  149.5299  135.7664  153.6703 H   0  0  0  0  0  0  0  0  0  0  0  0
  150.0550  135.1746  156.4509 H   0  0  0  0  0  0  0  0  0  0  0  0
  151.4351  134.9159  155.4643 H   0  0  0  0  0  0  0  0  0  0  0  0
  147.9817  139.5885  157.4167 H   0  0  0  0  0  0  0  0  0  0  0  0
  147.3217  138.3565  158.4761 H   0  0  0  0  0  0  0  0  0  0  0  0
  146.8826  138.3611  156.7721 H   0  0  0  0  0  0  0  0  0  0  0  0
  149.8687  135.9449  157.9595 H   0  0  0  0  0  0  0  0  0  0  0  0
  148.2502  136.2120  158.5324 H   0  0  0  0  0  0  0  0  0  0  0  0
  149.5560  137.2562  159.0787 H   0  0  0  0  0  0  0  0  0  0  0  0
  151.5958  137.2669  157.6466 H   0  0  0  0  0  0  0  0  0  0  0  0
  152.6765  136.5064  156.5154 H   0  0  0  0  0  0  0  0  0  0  0  0
  152.1347  139.4375  156.8095 H   0  0  0  0  0  0  0  0  0  0  0  0
  153.6477  138.6155  156.4561 H   0  0  0  0  0  0  0  0  0  0  0  0
  151.7420  139.7436  154.5952 H   0  0  0  0  0  0  0  0  0  0  0  0
  153.2162  138.8894  154.1638 H   0  0  0  0  0  0  0  0  0  0  0  0
  152.1081  136.8587  153.8691 H   0  0  0  0  0  0  0  0  0  0  0  0
  150.7654  137.9202  153.5235 H   0  0  0  0  0  0  0  0  0  0  0  0
  1  2  1  0  0  0  0
  1 24  1  0  0  0  0
  1 25  1  0  0  0  0
  1 26  1  0  0  0  0
  2  3  1  0  0  0  0
  3 23  1  0  0  0  0
  3  4  2  0  0  0  0
  4  5  1  0  0  0  0
  5  6  2  0  0  0  0
  5 27  1  0  0  0  0
  6  7  1  0  0  0  0
  6 28  1  0  0  0  0
  7  8  1  0  0  0  0
  7 23  2  0  0  0  0
  8  9  1  0  0  0  0
  8 29  1  0  0  0  0
  9 10  2  0  0  0  0
  9 11  1  0  0  0  0
 11 12  1  0  0  0  0
 11 30  1  0  0  0  0
 12 13  1  0  0  0  0
 12 31  1  0  0  0  0
 12 32  1  0  0  0  0
 13 22  1  0  0  0  0
 13 14  1  0  0  0  0
 13 19  1  0  0  0  0
 14 15  2  0  0  0  0
 14 16  1  0  0  0  0
 16 17  1  0  0  0  0
 16 18  1  0  0  0  0
 17 33  1  0  0  0  0
 17 34  1  0  0  0  0
 17 35  1  0  0  0  0
 18 36  1  0  0  0  0
 18 37  1  0  0  0  0
 18 38  1  0  0  0  0
 19 20  1  0  0  0  0
 19 39  1  0  0  0  0
 19 40  1  0  0  0  0
 20 21  1  0  0  0  0
 20 41  1  0  0  0  0
 20 42  1  0  0  0  0
 21 22  1  0  0  0  0
 21 43  1  0  0  0  0
 21 44  1  0  0  0  0
 22 45  1  0  0  0  0
 22 46  1  0  0  0  0
M  END
> <s_m_source_file>
AV-unprocessed.smi

> <i_m_source_file_index>
2602

> <i_lp_mmshare_version>
43012

> <i_f3d_flags>
0

> <s_epik_input>
W0NIM11PYzFuW2NIXVtjSF1jKG4xKVtOSF1DKD1PKVtOSF1bQ0gyXUMyKEMoPU8pTihbQ0gzXSlbQ0gzXSlbQ0gyXVtDSDJdW0NIMl1bQ0gyXTI=

> <s_epik_cmdline>
J2VwaWtfcHl0aG9uJywgJy1waCcsICc3LjAnLCAnLXRuJywgJzgnLCAnLW1hJywgJzIwMCcsICctbWV0YWxfYmluZGluZycsICctaW1hZScsICc8aW5maWxlLm1hZT4nLCAnLW9tYWUnLCAnPG91dGZpbGUubWFlPic=

> <r_lp_tautomer_probability>
1

> <r_epik_Ionization_Penalty>
0.00154328

> <r_epik_Ionization_Penalty_Charging>
0

> <r_epik_Ionization_Penalty_Neutral>
0.00154328

> <r_epik_State_Penalty>
-0

> <r_epik_Charging_Adjusted_Penalty>
0

> <i_epik_Tot_Q>
0

> <i_epik_Tot_abs_Q>
0

> <r_epik_Metal_State_Penalty>
-0

> <b_epik_Metal_Only>
0

> <s_lp_Force_Field>
OPLS_2005

> <r_lp_Energy>
36.1441

> <b_lp_Chiralities_Consistent>
1

> <s_lp_Variant>
AV-unprocessed.smi:2602-1

> <Gold.Version>
5.8.1

> <Gold.Id.Protein>
6NUR|6NUR_protein|mol2

> <Gold.PLP.Fitness>
38.0339

> <Gold.PLP.PLP>
-32.5930

> <Gold.PLP.part.hbond>
-2.0000

> <Gold.PLP.part.metal>
0.0000

> <Gold.PLP.part.buried>
-4.4965

> <Gold.PLP.part.nonpolar>
-25.6410

> <Gold.PLP.part.repulsive>
0.4755

> <Gold.PLP.ligand.clash>
0.0000

> <Gold.PLP.ligand.torsion>
0.3381

> <Gold.PLP.Chemscore.Hbond>
1.9760

> <Gold.PLP.Chemscore.CHOScore>
0.0000

> <Gold.PLP.Chemscore.Metal>
0.0000

> <Gold.Chemscore.Hbonds>
donor molecule, donor type, donor heavy atom, donor atom, acceptor molecule, acceptor atom, score
      L1  H     8    29       P1  7948  1.00
      L1  H    11    30       P1  7948  1.00

> <Gold.PLP.Chemscore.Internal.Correction>
0.1892

> <Gold.Rescore>
     Score         DG    S(hbond)    S(metal)    S(lipo)     H(rot)  DE(clash)    DE(int)     intcor
     11.20     -12.90       1.45        0.00      63.66       1.91       0.01       1.69       ----

> <Gold.Chemscore.Fitness>
11.1984

> <Gold.Chemscore.DG>
-12.9039

> <Gold.Chemscore.ZeroCoef>
-5.4800

> <Gold.Chemscore.Hbond>
1.4546

> <Gold.Chemscore.Metal>
0.0000

> <Gold.Chemscore.Lipo>
63.6557

> <Gold.Chemscore.Internal_Hbond>
0.0000

> <Gold.Chemscore.DEClash>
0.0147

> <Gold.Chemscore.DEInternal>
1.6908

> <Gold.Chemscore.Rot>
1.9072

> <Gold.Chemscore.Internal.Correction>
   9.000000E+99

> <Gold.Chemscore.Hbonds>
donor molecule, donor type, donor heavy atom, donor atom, acceptor molecule, acceptor atom, score
      L1  H     8    29       P1  7948  0.39
      L1  H    11    30       P1  7948  0.29

> <Gold.Chemscore.Hbond.Weighted>
-4.8585

> <Gold.Chemscore.Metal.Weighted>
-0.0000

> <Gold.Chemscore.Lipo.Weighted>
-7.4477

> <Gold.Chemscore.Internal_Hbond.Weighted>
0.0000

> <Gold.Chemscore.DEClash.Weighted>
0.0147

> <Gold.Chemscore.DEInternal.Weighted>
1.6908

> <Gold.Chemscore.Rot.Weighted>
4.8824

> <Gold.Chemscore.Internal.Correction.Weighted>
   9.000000E+99

> <Gold.Protein.RotatedTorsions>
[ 6907 6896 6895 6894 ] final  164.21 input  -60.11 | X-H torsion
[ 7974 7965 7964 7962 ] final  114.23 input  175.53 | X-H torsion
[ 8008 7997 7996 7995 ] final -103.57 input   59.86 | X-H torsion
[ 10167 10162 10161 10158 ] final    4.69 input  -65.29 | X-H torsion
[ 10718 10713 10712 10709 ] final  -17.34 input   66.30 | X-H torsion
[ 10763 10752 10751 10750 ] final -174.75 input  -60.55 | X-H torsion
[ 11005 11000 10999 10996 ] final  145.16 input  -57.11 | X-H torsion

> <Gold.Protein.ActiveResidues>
 VAL166  LYS551  ARG553  GLY616  TRP617  ASP618  TYR619  PRO620  LYS621  CYS622 
 ASP623  PHE694  ASN695  SER759  ASP760  ASP761  ALA762  ILE779  LEU786  VAL792 
 PHE793  MET794  SER795  GLU796  ALA797  LYS798  CYS799  TRP800  GLU811  SER814 

> <Gold.Protein.RotatedAtoms>
  151.9134  133.3567  159.3871 H   0  0  0  0  0  0  0  0  0  0  0  0  # atno 6907 bound_to 6896
  150.7053  134.4709  159.5434 H   0  0  0  0  0  0  0  0  0  0  0  0  # atno 6908 bound_to 6896
  152.2319  134.8313  160.0523 H   0  0  0  0  0  0  0  0  0  0  0  0  # atno 6909 bound_to 6896
  145.2071  139.2924  143.4288 H   0  0  0  0  0  0  0  0  0  0  0  0  # atno 7974 bound_to 7965
  154.8728  140.0422  157.1735 H   0  0  0  0  0  0  0  0  0  0  0  0  # atno 8008 bound_to 7997
  154.8721  140.2960  155.5454 H   0  0  0  0  0  0  0  0  0  0  0  0  # atno 8009 bound_to 7997
  156.2999  140.2427  156.3711 H   0  0  0  0  0  0  0  0  0  0  0  0  # atno 8010 bound_to 7997
  140.6521  143.7518  150.7593 H   0  0  0  0  0  0  0  0  0  0  0  0  # atno 10167 bound_to 10162
  156.5750  130.4759  149.6346 H   0  0  0  0  0  0  0  0  0  0  0  0  # atno 10718 bound_to 10713
  154.5925  135.2846  155.0620 H   0  0  0  0  0  0  0  0  0  0  0  0  # atno 10763 bound_to 10752
  154.1915  135.6440  153.5065 H   0  0  0  0  0  0  0  0  0  0  0  0  # atno 10764 bound_to 10752
  153.0126  135.5447  154.6616 H   0  0  0  0  0  0  0  0  0  0  0  0  # atno 10765 bound_to 10752
  140.0690  134.9162  157.1313 H   0  0  0  0  0  0  0  0  0  0  0  0  # atno 11005 bound_to 11000
  146.3405  140.2334  142.8594 LP  0  0  0  0  0  0  0  0  0  0  0  0  # atno 17320 bound_to 7965
  144.9892  140.8531  143.5350 LP  0  0  0  0  0  0  0  0  0  0  0  0  # atno 17321 bound_to 7965
  140.1171  143.4646  152.2336 LP  0  0  0  0  0  0  0  0  0  0  0  0  # atno 17342 bound_to 10162
  139.5738  144.7477  151.3819 LP  0  0  0  0  0  0  0  0  0  0  0  0  # atno 17343 bound_to 10162
  156.2681  130.7001  151.1790 LP  0  0  0  0  0  0  0  0  0  0  0  0  # atno 17370 bound_to 10713
  157.7339  131.0586  150.5549 LP  0  0  0  0  0  0  0  0  0  0  0  0  # atno 17371 bound_to 10713
  140.3655  134.2447  155.7183 LP  0  0  0  0  0  0  0  0  0  0  0  0  # atno 17394 bound_to 11000
  141.2004  133.7987  157.0489 LP  0  0  0  0  0  0  0  0  0  0  0  0  # atno 17395 bound_to 11000

$$$$
