AV-unprocessed.smi:2540|AV-procd|sdf|9987|dock6
  -GOLD-   2272014 33D 1   1.00000     0.00000
 Structure written by MMmdl.
 28 29  0  0  0  0  0  0  0  0  2 V2000
  153.3329  138.6977  154.4128 C   0  0  0  0  0  0  0  0  0  0  0  0
  153.2337  139.2097  155.7299 O   0  0  0  0  0  0  0  0  0  0  0  0
  151.9696  138.9540  156.3203 C   0  0  0  0  0  0  0  0  0  0  0  0
  151.8195  139.7702  157.6121 C   0  0  0  0  0  0  0  0  0  0  0  0
  151.3937  141.1537  157.3533 N   0  0  0  0  0  0  0  0  0  0  0  0
  150.5611  141.6674  156.4119 C   0  0  0  0  0  0  0  0  0  0  0  0
  149.8950  140.9317  155.4336 N   0  0  0  0  0  0  0  0  0  0  0  0
  150.4740  143.0129  156.5636 N   0  3  0  0  0  0  0  0  0  0  0  0
  151.2840  143.3837  157.6413 C   0  0  0  0  0  0  0  0  0  0  0  0
  151.5397  144.6343  158.1956 C   0  0  0  0  0  0  0  0  0  0  0  0
  152.4247  144.6725  159.2930 C   0  0  0  0  0  0  0  0  0  0  0  0
  153.0187  143.4987  159.8001 C   0  0  0  0  0  0  0  0  0  0  0  0
  152.7521  142.2346  159.2344 C   0  0  0  0  0  0  0  0  0  0  0  0
  151.8759  142.2013  158.1498 C   0  0  0  0  0  0  0  0  0  0  0  0
  154.3195  138.9208  154.0065 H   0  0  0  0  0  0  0  0  0  0  0  0
  152.5887  139.1507  153.7567 H   0  0  0  0  0  0  0  0  0  0  0  0
  153.1996  137.6153  154.3993 H   0  0  0  0  0  0  0  0  0  0  0  0
  151.1728  139.2155  155.6221 H   0  0  0  0  0  0  0  0  0  0  0  0
  151.8710  137.8908  156.5435 H   0  0  0  0  0  0  0  0  0  0  0  0
  151.0721  139.3099  158.2589 H   0  0  0  0  0  0  0  0  0  0  0  0
  152.7502  139.7820  158.1790 H   0  0  0  0  0  0  0  0  0  0  0  0
  149.2883  141.3726  154.7572 H   0  0  0  0  0  0  0  0  0  0  0  0
  149.9982  139.9290  155.3683 H   0  0  0  0  0  0  0  0  0  0  0  0
  151.0886  145.5362  157.8089 H   0  0  0  0  0  0  0  0  0  0  0  0
  152.6546  145.6222  159.7540 H   0  0  0  0  0  0  0  0  0  0  0  0
  153.6945  143.5688  160.6401 H   0  0  0  0  0  0  0  0  0  0  0  0
  153.2183  141.3434  159.6276 H   0  0  0  0  0  0  0  0  0  0  0  0
  149.9143  143.6230  155.9819 H   0  0  0  0  0  0  0  0  0  0  0  0
  1  2  1  0  0  0  0
  1 15  1  0  0  0  0
  1 16  1  0  0  0  0
  1 17  1  0  0  0  0
  2  3  1  0  0  0  0
  3  4  1  0  0  0  0
  3 18  1  0  0  0  0
  3 19  1  0  0  0  0
  4  5  1  0  0  0  0
  4 20  1  0  0  0  0
  4 21  1  0  0  0  0
  5 14  1  0  0  0  0
  5  6  1  0  0  0  0
  6  7  1  0  0  0  0
  6  8  2  0  0  0  0
  7 22  1  0  0  0  0
  7 23  1  0  0  0  0
  8  9  1  0  0  0  0
  8 28  1  0  0  0  0
  9 14  2  0  0  0  0
  9 10  1  0  0  0  0
 10 11  2  0  0  0  0
 10 24  1  0  0  0  0
 11 12  1  0  0  0  0
 11 25  1  0  0  0  0
 12 13  2  0  0  0  0
 12 26  1  0  0  0  0
 13 14  1  0  0  0  0
 13 27  1  0  0  0  0
M  CHG  1   8   1
M  END
> <s_m_source_file>
AV-unprocessed.smi

> <i_m_source_file_index>
2540

> <i_lp_mmshare_version>
43012

> <i_f3d_flags>
0

> <s_epik_input>
W0NIM11PW0NIMl1bQ0gyXW4oYyhuMSlbTkgyXSljKGMxMilbY0hdW2NIXVtjSF1bY0hdMg==

> <s_epik_cmdline>
J2VwaWtfcHl0aG9uJywgJy1waCcsICc3LjAnLCAnLXRuJywgJzgnLCAnLW1hJywgJzIwMCcsICctbWV0YWxfYmluZGluZycsICctaW1hZScsICc8aW5maWxlLm1hZT4nLCAnLW9tYWUnLCAnPG91dGZpbGUubWFlPic=

> <r_epik_Ionization_Penalty>
0.266071

> <r_epik_Ionization_Penalty_Charging>
0.266069

> <r_epik_Ionization_Penalty_Neutral>
1.55827e-06

> <r_epik_State_Penalty>
0.258006

> <r_epik_Charging_Adjusted_Penalty>
0.524075

> <i_epik_Tot_Q>
1

> <i_epik_Tot_abs_Q>
1

> <r_epik_Metal_State_Penalty>
3.73495

> <b_epik_Metal_Only>
0

> <s_lp_Force_Field>
OPLS_2005

> <r_lp_Energy>
14.4512

> <b_lp_Chiralities_Consistent>
1

> <s_lp_Variant>
AV-unprocessed.smi:2540-1

> <Gold.Version>
5.8.1

> <Gold.Id.Protein>
6NUR|6NUR_protein|mol2

> <Gold.PLP.Fitness>
42.3704

> <Gold.PLP.PLP>
-34.3587

> <Gold.PLP.part.hbond>
-1.7845

> <Gold.PLP.part.metal>
0.0000

> <Gold.PLP.part.buried>
-5.3152

> <Gold.PLP.part.nonpolar>
-27.0810

> <Gold.PLP.part.repulsive>
0.1978

> <Gold.PLP.ligand.clash>
0.0000

> <Gold.PLP.ligand.torsion>
0.4959

> <Gold.PLP.Chemscore.Hbond>
3.0000

> <Gold.PLP.Chemscore.CHOScore>
0.0000

> <Gold.PLP.Chemscore.Metal>
0.0000

> <Gold.Chemscore.Hbonds>
donor molecule, donor type, donor heavy atom, donor atom, acceptor molecule, acceptor atom, score
      L1  H     8    28       P1  8028  2.00
      P1  H  7997  8010       L1     2  1.00

> <Gold.PLP.Chemscore.Internal.Correction>
0.0034

> <Gold.Rescore>
     Score         DG    S(hbond)    S(metal)    S(lipo)     H(rot)  DE(clash)    DE(int)     intcor
     18.53     -18.85       1.93        0.00      91.85       1.49       0.03       0.29       ----

> <Gold.Chemscore.Fitness>
18.5280

> <Gold.Chemscore.DG>
-18.8490

> <Gold.Chemscore.ZeroCoef>
-5.4800

> <Gold.Chemscore.Hbond>
1.9302

> <Gold.Chemscore.Metal>
0.0000

> <Gold.Chemscore.Lipo>
91.8536

> <Gold.Chemscore.Internal_Hbond>
0.0000

> <Gold.Chemscore.DEClash>
0.0263

> <Gold.Chemscore.DEInternal>
0.2947

> <Gold.Chemscore.Rot>
1.4940

> <Gold.Chemscore.Internal.Correction>
   9.000000E+99

> <Gold.Chemscore.Hbonds>
donor molecule, donor type, donor heavy atom, donor atom, acceptor molecule, acceptor atom, score
      L1  H     8    28       P1  8028  0.92
      P1  H  7997  8010       L1     2  0.91

> <Gold.Chemscore.Hbond.Weighted>
-6.4467

> <Gold.Chemscore.Metal.Weighted>
-0.0000

> <Gold.Chemscore.Lipo.Weighted>
-10.7469

> <Gold.Chemscore.Internal_Hbond.Weighted>
0.0000

> <Gold.Chemscore.DEClash.Weighted>
0.0263

> <Gold.Chemscore.DEInternal.Weighted>
0.2947

> <Gold.Chemscore.Rot.Weighted>
3.8247

> <Gold.Chemscore.Internal.Correction.Weighted>
   9.000000E+99

> <Gold.Protein.RotatedTorsions>
[ 6907 6896 6895 6894 ] final  136.50 input  -60.11 | X-H torsion
[ 7974 7965 7964 7962 ] final  -79.84 input  175.53 | X-H torsion
[ 8008 7997 7996 7995 ] final   77.57 input   59.86 | X-H torsion
[ 10167 10162 10161 10158 ] final   -2.02 input  -65.29 | X-H torsion
[ 10718 10713 10712 10709 ] final  157.14 input   66.30 | X-H torsion
[ 10763 10752 10751 10750 ] final  174.51 input  -60.55 | X-H torsion
[ 11005 11000 10999 10996 ] final  147.53 input  -57.11 | X-H torsion

> <Gold.Protein.ActiveResidues>
 VAL166  LYS551  ARG553  GLY616  TRP617  ASP618  TYR619  PRO620  LYS621  CYS622 
 ASP623  PHE694  ASN695  SER759  ASP760  ASP761  ALA762  ILE779  LEU786  VAL792 
 PHE793  MET794  SER795  GLU796  ALA797  LYS798  CYS799  TRP800  GLU811  SER814 

> <Gold.Protein.RotatedAtoms>
  152.2886  133.5539  159.5542 H   0  0  0  0  0  0  0  0  0  0  0  0  # atno 6907 bound_to 6896
  150.7226  134.0461  159.3791 H   0  0  0  0  0  0  0  0  0  0  0  0  # atno 6908 bound_to 6896
  151.8368  135.0603  160.0494 H   0  0  0  0  0  0  0  0  0  0  0  0  # atno 6909 bound_to 6896
  145.5678  140.9471  143.1412 H   0  0  0  0  0  0  0  0  0  0  0  0  # atno 7974 bound_to 7965
  155.8435  140.3461  155.5647 H   0  0  0  0  0  0  0  0  0  0  0  0  # atno 8008 bound_to 7997
  155.8115  140.0899  157.1920 H   0  0  0  0  0  0  0  0  0  0  0  0  # atno 8009 bound_to 7997
  154.4005  140.1447  156.3380 H   0  0  0  0  0  0  0  0  0  0  0  0  # atno 8010 bound_to 7997
  140.6834  143.6706  150.8188 H   0  0  0  0  0  0  0  0  0  0  0  0  # atno 10167 bound_to 10162
  157.1954  131.0664  151.2055 H   0  0  0  0  0  0  0  0  0  0  0  0  # atno 10718 bound_to 10713
  154.4549  135.2766  155.1755 H   0  0  0  0  0  0  0  0  0  0  0  0  # atno 10763 bound_to 10752
  154.3566  135.6138  153.5673 H   0  0  0  0  0  0  0  0  0  0  0  0  # atno 10764 bound_to 10752
  152.9850  135.5824  154.4900 H   0  0  0  0  0  0  0  0  0  0  0  0  # atno 10765 bound_to 10752
  140.0884  134.9056  157.1611 H   0  0  0  0  0  0  0  0  0  0  0  0  # atno 11005 bound_to 11000
  144.7452  139.7340  143.7295 LP  0  0  0  0  0  0  0  0  0  0  0  0  # atno 17320 bound_to 7965
  146.1805  139.4996  142.9869 LP  0  0  0  0  0  0  0  0  0  0  0  0  # atno 17321 bound_to 7965
  140.0409  143.5346  152.2718 LP  0  0  0  0  0  0  0  0  0  0  0  0  # atno 17342 bound_to 10162
  139.6174  144.7622  151.2817 LP  0  0  0  0  0  0  0  0  0  0  0  0  # atno 17343 bound_to 10162
  157.3819  130.7236  149.6636 LP  0  0  0  0  0  0  0  0  0  0  0  0  # atno 17370 bound_to 10713
  155.9706  130.4170  150.4258 LP  0  0  0  0  0  0  0  0  0  0  0  0  # atno 17371 bound_to 10713
  140.3388  134.2727  155.7215 LP  0  0  0  0  0  0  0  0  0  0  0  0  # atno 17394 bound_to 11000
  141.2070  133.7818  157.0145 LP  0  0  0  0  0  0  0  0  0  0  0  0  # atno 17395 bound_to 11000

$$$$
