AV-unprocessed.smi:3346|AV-procd|sdf|12907|dock9
  -GOLD-   2272019323D 1   1.00000     0.00000
 Structure written by MMmdl.
 48 49  0  0  0  0  0  0  0  0  2 V2000
  151.5883  145.2416  160.4448 C   0  0  0  0  0  0  0  0  0  0  0  0
  151.6053  143.8244  159.8476 C   0  0  0  0  0  0  0  0  0  0  0  0
  152.9804  143.1722  160.0592 C   0  0  0  0  0  0  0  0  0  0  0  0
  151.2351  143.8097  158.3490 C   0  0  0  0  0  0  0  0  0  0  0  0
  150.6760  142.4793  157.7918 C   0  0  2  0  0  0  0  0  0  0  0  0
  151.5187  141.2674  158.2187 C   0  0  0  0  0  0  0  0  0  0  0  0
  150.6308  142.5394  156.3153 N   0  3  0  0  0  0  0  0  0  0  0  0
  150.5766  141.2286  155.6350 C   0  0  0  0  0  0  0  0  0  0  0  0
  149.1978  141.0056  155.0369 C   0  0  0  0  0  0  0  0  0  0  0  0
  148.2768  142.0732  154.9828 C   0  0  0  0  0  0  0  0  0  0  0  0
  146.9961  141.8463  154.4473 C   0  0  0  0  0  0  0  0  0  0  0  0
  146.6846  140.5540  153.9859 C   0  0  0  0  0  0  0  0  0  0  0  0
  147.5548  139.5238  154.0324 N   0  0  0  0  0  0  0  0  0  0  0  0
  148.7902  139.7372  154.5463 C   0  0  0  0  0  0  0  0  0  0  0  0
  149.6826  138.6507  154.5666 N   0  0  0  0  0  0  0  0  0  0  0  0
  150.9269  138.8381  153.8283 C   0  0  0  0  0  0  0  0  0  0  0  0
  151.7292  137.5254  153.8127 C   0  0  0  0  0  0  0  0  0  0  0  0
  151.9597  137.0943  155.1507 O   0  0  0  0  0  0  0  0  0  0  0  0
  150.7455  136.8444  155.8528 C   0  0  0  0  0  0  0  0  0  0  0  0
  149.9028  138.1313  155.9109 C   0  0  0  0  0  0  0  0  0  0  0  0
  152.2586  145.9092  159.9022 H   0  0  0  0  0  0  0  0  0  0  0  0
  151.9062  145.2301  161.4876 H   0  0  0  0  0  0  0  0  0  0  0  0
  150.5894  145.6764  160.4224 H   0  0  0  0  0  0  0  0  0  0  0  0
  150.8826  143.2199  160.3956 H   0  0  0  0  0  0  0  0  0  0  0  0
  153.7652  143.7221  159.5385 H   0  0  0  0  0  0  0  0  0  0  0  0
  152.9922  142.1468  159.6880 H   0  0  0  0  0  0  0  0  0  0  0  0
  153.2430  143.1394  161.1171 H   0  0  0  0  0  0  0  0  0  0  0  0
  150.5142  144.6076  158.1758 H   0  0  0  0  0  0  0  0  0  0  0  0
  152.1154  144.0835  157.7656 H   0  0  0  0  0  0  0  0  0  0  0  0
  149.6571  142.3202  158.1461 H   0  0  0  0  0  0  0  0  0  0  0  0
  151.4920  141.1207  159.2982 H   0  0  0  0  0  0  0  0  0  0  0  0
  152.5618  141.3823  157.9217 H   0  0  0  0  0  0  0  0  0  0  0  0
  151.1433  140.3500  157.7640 H   0  0  0  0  0  0  0  0  0  0  0  0
  149.8195  143.0792  156.0502 H   0  0  0  0  0  0  0  0  0  0  0  0
  151.3380  141.2001  154.8551 H   0  0  0  0  0  0  0  0  0  0  0  0
  150.8139  140.4159  156.3208 H   0  0  0  0  0  0  0  0  0  0  0  0
  148.5445  143.0532  155.3501 H   0  0  0  0  0  0  0  0  0  0  0  0
  146.2688  142.6428  154.3928 H   0  0  0  0  0  0  0  0  0  0  0  0
  145.7112  140.3416  153.5692 H   0  0  0  0  0  0  0  0  0  0  0  0
  150.7073  139.1570  152.8088 H   0  0  0  0  0  0  0  0  0  0  0  0
  151.5222  139.6247  154.2943 H   0  0  0  0  0  0  0  0  0  0  0  0
  151.2019  136.7498  153.2553 H   0  0  0  0  0  0  0  0  0  0  0  0
  152.6885  137.6769  153.3180 H   0  0  0  0  0  0  0  0  0  0  0  0
  150.1949  136.0367  155.3690 H   0  0  0  0  0  0  0  0  0  0  0  0
  150.9823  136.5056  156.8615 H   0  0  0  0  0  0  0  0  0  0  0  0
  150.4165  138.8849  156.5098 H   0  0  0  0  0  0  0  0  0  0  0  0
  148.9483  137.9305  156.3988 H   0  0  0  0  0  0  0  0  0  0  0  0
  151.4556  143.0198  155.9852 H   0  0  0  0  0  0  0  0  0  0  0  0
  1  2  1  0  0  0  0
  1 21  1  0  0  0  0
  1 22  1  0  0  0  0
  1 23  1  0  0  0  0
  2  3  1  0  0  0  0
  2  4  1  0  0  0  0
  2 24  1  0  0  0  0
  3 25  1  0  0  0  0
  3 26  1  0  0  0  0
  3 27  1  0  0  0  0
  4  5  1  0  0  0  0
  4 28  1  0  0  0  0
  4 29  1  0  0  0  0
  5  6  1  0  0  0  0
  5  7  1  0  0  0  0
  5 30  1  0  0  0  0
  6 31  1  0  0  0  0
  6 32  1  0  0  0  0
  6 33  1  0  0  0  0
  7  8  1  0  0  0  0
  7 34  1  0  0  0  0
  7 48  1  0  0  0  0
  8  9  1  0  0  0  0
  8 35  1  0  0  0  0
  8 36  1  0  0  0  0
  9 14  1  0  0  0  0
  9 10  2  0  0  0  0
 10 11  1  0  0  0  0
 10 37  1  0  0  0  0
 11 12  2  0  0  0  0
 11 38  1  0  0  0  0
 12 13  1  0  0  0  0
 12 39  1  0  0  0  0
 13 14  2  0  0  0  0
 14 15  1  0  0  0  0
 15 20  1  0  0  0  0
 15 16  1  0  0  0  0
 16 17  1  0  0  0  0
 16 40  1  0  0  0  0
 16 41  1  0  0  0  0
 17 18  1  0  0  0  0
 17 42  1  0  0  0  0
 17 43  1  0  0  0  0
 18 19  1  0  0  0  0
 19 20  1  0  0  0  0
 19 44  1  0  0  0  0
 19 45  1  0  0  0  0
 20 46  1  0  0  0  0
 20 47  1  0  0  0  0
M  CHG  1   7   1
M  END
> <s_m_source_file>
AV-unprocessed.smi

> <i_m_source_file_index>
3346

> <i_lp_mmshare_version>
43012

> <i_f3d_flags>
0

> <s_epik_input>
W0NIM11bQ0hdKFtDSDNdKVtDSDJdW0NASF0oW0NIM10pW05IXVtDSDJdYzFbY0hdW2NIXVtjSF1uYzFOMltDSDJdW0NIMl1PW0NIMl1bQ0gyXTI=

> <s_epik_cmdline>
J2VwaWtfcHl0aG9uJywgJy1waCcsICc3LjAnLCAnLXRuJywgJzgnLCAnLW1hJywgJzIwMCcsICctbWV0YWxfYmluZGluZycsICctaW1hZScsICc8aW5maWxlLm1hZT4nLCAnLW9tYWUnLCAnPG91dGZpbGUubWFlPic=

> <r_lp_tautomer_probability>
1

> <r_epik_Ionization_Penalty>
0.0185938

> <r_epik_Ionization_Penalty_Charging>
0.0176519

> <r_epik_Ionization_Penalty_Neutral>
0.000941891

> <r_epik_State_Penalty>
0.0140027

> <r_epik_Charging_Adjusted_Penalty>
0.0316546

> <i_epik_Tot_Q>
1

> <i_epik_Tot_abs_Q>
1

> <r_epik_Metal_State_Penalty>
0.0141454

> <b_epik_Metal_Only>
0

> <s_lp_Force_Field>
OPLS_2005

> <r_lp_Energy>
22.6913

> <b_lp_Chiralities_Consistent>
1

> <s_lp_Variant>
AV-unprocessed.smi:3346-1

> <Gold.Version>
5.8.1

> <Gold.Id.Protein>
6NUR|6NUR_protein|mol2

> <Gold.PLP.Fitness>
45.2180

> <Gold.PLP.PLP>
-36.8322

> <Gold.PLP.part.hbond>
-2.0000

> <Gold.PLP.part.metal>
0.0000

> <Gold.PLP.part.buried>
1.1593

> <Gold.PLP.part.nonpolar>
-35.9994

> <Gold.PLP.part.repulsive>
0.4534

> <Gold.PLP.ligand.clash>
0.1863

> <Gold.PLP.ligand.torsion>
1.1141

> <Gold.PLP.Chemscore.Hbond>
2.5472

> <Gold.PLP.Chemscore.CHOScore>
1.0000

> <Gold.PLP.Chemscore.Metal>
0.0000

> <Gold.Chemscore.Hbonds>
donor molecule, donor type, donor heavy atom, donor atom, acceptor molecule, acceptor atom, score
      L1  H     7    34       P1  8028  2.00
      P1  H 10752 10764       L1    18  0.74
      L1  C    12    39       P1 10175  1.00

> <Gold.PLP.Chemscore.Internal.Correction>
0.1587

> <Gold.Rescore>
     Score         DG    S(hbond)    S(metal)    S(lipo)     H(rot)  DE(clash)    DE(int)     intcor
     14.82     -18.15       0.94        0.00     117.08       1.62       1.32       2.01       ----

> <Gold.Chemscore.Fitness>
14.8205

> <Gold.Chemscore.DG>
-18.1490

> <Gold.Chemscore.ZeroCoef>
-5.4800

> <Gold.Chemscore.Hbond>
0.9373

> <Gold.Chemscore.Metal>
0.0000

> <Gold.Chemscore.Lipo>
117.0775

> <Gold.Chemscore.Internal_Hbond>
0.0000

> <Gold.Chemscore.DEClash>
1.3203

> <Gold.Chemscore.DEInternal>
2.0082

> <Gold.Chemscore.Rot>
1.6248

> <Gold.Chemscore.Internal.Correction>
   9.000000E+99

> <Gold.Chemscore.Hbonds>
donor molecule, donor type, donor heavy atom, donor atom, acceptor molecule, acceptor atom, score
      L1  H     7    34       P1  8028  0.96
      P1  H 10752 10764       L1    18  0.29

> <Gold.Chemscore.Hbond.Weighted>
-3.1306

> <Gold.Chemscore.Metal.Weighted>
-0.0000

> <Gold.Chemscore.Lipo.Weighted>
-13.6981

> <Gold.Chemscore.Internal_Hbond.Weighted>
0.0000

> <Gold.Chemscore.DEClash.Weighted>
1.3203

> <Gold.Chemscore.DEInternal.Weighted>
2.0082

> <Gold.Chemscore.Rot.Weighted>
4.1596

> <Gold.Chemscore.Internal.Correction.Weighted>
   9.000000E+99

> <Gold.Protein.RotatedTorsions>
[ 6907 6896 6895 6894 ] final   -4.31 input  -60.11 | X-H torsion
[ 7974 7965 7964 7962 ] final   37.04 input  175.53 | X-H torsion
[ 8008 7997 7996 7995 ] final  -46.78 input   59.86 | X-H torsion
[ 10167 10162 10161 10158 ] final  118.36 input  -65.29 | X-H torsion
[ 10718 10713 10712 10709 ] final  -43.37 input   66.30 | X-H torsion
[ 10763 10752 10751 10750 ] final  -34.49 input  -60.55 | X-H torsion
[ 11005 11000 10999 10996 ] final -100.34 input  -57.11 | X-H torsion

> <Gold.Protein.ActiveResidues>
 VAL166  LYS551  ARG553  GLY616  TRP617  ASP618  TYR619  PRO620  LYS621  CYS622 
 ASP623  PHE694  ASN695  SER759  ASP760  ASP761  ALA762  ILE779  LEU786  VAL792 
 PHE793  MET794  SER795  GLU796  ALA797  LYS798  CYS799  TRP800  GLU811  SER814 

> <Gold.Protein.RotatedAtoms>
  151.4998  135.1061  159.9825 H   0  0  0  0  0  0  0  0  0  0  0  0  # atno 6907 bound_to 6896
  152.4706  133.8018  159.6967 H   0  0  0  0  0  0  0  0  0  0  0  0  # atno 6908 bound_to 6896
  150.8714  133.7437  159.2986 H   0  0  0  0  0  0  0  0  0  0  0  0  # atno 6909 bound_to 6896
  146.1167  139.5943  142.9317 H   0  0  0  0  0  0  0  0  0  0  0  0  # atno 7974 bound_to 7965
  154.4010  140.1363  156.4067 H   0  0  0  0  0  0  0  0  0  0  0  0  # atno 8008 bound_to 7997
  155.7773  140.3482  155.5258 H   0  0  0  0  0  0  0  0  0  0  0  0  # atno 8009 bound_to 7997
  155.8708  140.0971  157.1541 H   0  0  0  0  0  0  0  0  0  0  0  0  # atno 8010 bound_to 7997
  139.6117  144.7083  151.2830 H   0  0  0  0  0  0  0  0  0  0  0  0  # atno 10167 bound_to 10162
  156.2497  130.4187  149.8663 H   0  0  0  0  0  0  0  0  0  0  0  0  # atno 10718 bound_to 10713
  153.8475  135.6852  153.4796 H   0  0  0  0  0  0  0  0  0  0  0  0  # atno 10763 bound_to 10752
  153.1417  135.4655  154.9503 H   0  0  0  0  0  0  0  0  0  0  0  0  # atno 10764 bound_to 10752
  154.7817  135.3271  154.7922 H   0  0  0  0  0  0  0  0  0  0  0  0  # atno 10765 bound_to 10752
  141.1274  133.8391  157.1089 H   0  0  0  0  0  0  0  0  0  0  0  0  # atno 11005 bound_to 11000
  145.5552  141.0409  143.2256 LP  0  0  0  0  0  0  0  0  0  0  0  0  # atno 17320 bound_to 7965
  144.7559  139.7075  143.7254 LP  0  0  0  0  0  0  0  0  0  0  0  0  # atno 17321 bound_to 7965
  140.7323  143.6826  150.7988 LP  0  0  0  0  0  0  0  0  0  0  0  0  # atno 17342 bound_to 10162
  140.0422  143.5334  152.2712 LP  0  0  0  0  0  0  0  0  0  0  0  0  # atno 17343 bound_to 10162
  156.6216  130.8629  151.3476 LP  0  0  0  0  0  0  0  0  0  0  0  0  # atno 17370 bound_to 10713
  157.7209  130.9558  150.1437 LP  0  0  0  0  0  0  0  0  0  0  0  0  # atno 17371 bound_to 10713
  140.0287  134.9911  157.0738 LP  0  0  0  0  0  0  0  0  0  0  0  0  # atno 17394 bound_to 11000
  140.4320  134.1770  155.7168 LP  0  0  0  0  0  0  0  0  0  0  0  0  # atno 17395 bound_to 11000

$$$$
