AV-unprocessed.smi:912|AV-procd|sdf|4140|dock4
  -GOLD-   22720 2 43D 1   1.00000     0.00000
 Structure written by MMmdl.
 26 26  0  0  0  0  0  0  0  0  1 V2000
  147.9923  133.3813  153.2222 C   0  0  0  0  0  0  0  0  0  0  0  0
  147.4628  134.6251  152.6667 N   0  0  0  0  0  0  0  0  0  0  0  0
  146.0066  134.7238  152.4516 C   0  0  1  0  0  0  0  0  0  0  0  0
  145.3658  134.3197  153.8053 C   0  0  0  0  0  0  0  0  0  0  0  0
  145.5716  136.1550  152.0310 C   0  0  0  0  0  0  0  0  0  0  0  0
  146.5349  137.0695  151.8709 N   0  0  0  0  0  0  0  0  0  0  0  0
  144.3867  136.4379  151.8579 O   0  0  0  0  0  0  0  0  0  0  0  0
  145.5307  133.7520  151.3515 C   0  0  0  0  0  0  0  0  0  0  0  0
  144.1702  133.6492  150.9660 C   0  0  0  0  0  0  0  0  0  0  0  0
  143.8106  132.7342  149.9567 C   0  0  0  0  0  0  0  0  0  0  0  0
  144.6960  131.9345  149.3277 N   0  0  0  0  0  0  0  0  0  0  0  0
  145.9905  132.0241  149.6948 C   0  0  0  0  0  0  0  0  0  0  0  0
  146.4542  132.9056  150.6906 C   0  0  0  0  0  0  0  0  0  0  0  0
  149.0811  133.4173  153.1950 H   0  0  0  0  0  0  0  0  0  0  0  0
  147.6786  132.5101  152.6477 H   0  0  0  0  0  0  0  0  0  0  0  0
  147.7049  133.2382  154.2638 H   0  0  0  0  0  0  0  0  0  0  0  0
  147.8996  134.7384  151.7632 H   0  0  0  0  0  0  0  0  0  0  0  0
  144.2769  134.3675  153.7797 H   0  0  0  0  0  0  0  0  0  0  0  0
  145.6826  134.9642  154.6255 H   0  0  0  0  0  0  0  0  0  0  0  0
  145.6333  133.2975  154.0755 H   0  0  0  0  0  0  0  0  0  0  0  0
  146.2911  138.0100  151.5959 H   0  0  0  0  0  0  0  0  0  0  0  0
  147.4999  136.8151  152.0233 H   0  0  0  0  0  0  0  0  0  0  0  0
  143.3977  134.2483  151.4241 H   0  0  0  0  0  0  0  0  0  0  0  0
  142.7799  132.6411  149.6480 H   0  0  0  0  0  0  0  0  0  0  0  0
  146.6798  131.3704  149.1810 H   0  0  0  0  0  0  0  0  0  0  0  0
  147.5042  132.9188  150.9427 H   0  0  0  0  0  0  0  0  0  0  0  0
  1  2  1  0  0  0  0
  1 14  1  0  0  0  0
  1 15  1  0  0  0  0
  1 16  1  0  0  0  0
  2  3  1  0  0  0  0
  2 17  1  0  0  0  0
  3  4  1  0  0  0  0
  3  5  1  0  0  0  0
  3  8  1  0  0  0  0
  4 18  1  0  0  0  0
  4 19  1  0  0  0  0
  4 20  1  0  0  0  0
  5  6  1  0  0  0  0
  5  7  2  0  0  0  0
  6 21  1  0  0  0  0
  6 22  1  0  0  0  0
  8 13  1  0  0  0  0
  8  9  2  0  0  0  0
  9 10  1  0  0  0  0
  9 23  1  0  0  0  0
 10 11  2  0  0  0  0
 10 24  1  0  0  0  0
 11 12  1  0  0  0  0
 12 13  2  0  0  0  0
 12 25  1  0  0  0  0
 13 26  1  0  0  0  0
M  END
> <s_m_source_file>
AV-unprocessed.smi

> <i_m_source_file_index>
912

> <i_lp_mmshare_version>
43012

> <i_f3d_flags>
0

> <s_epik_input>
W0NIM11bTkhdW0NAQF0oW0NIM10pKEMoPU8pW05IMl0pYzFbY0hdW2NIXW5bY0hdW2NIXTE=

> <s_epik_cmdline>
J2VwaWtfcHl0aG9uJywgJy1waCcsICc3LjAnLCAnLXRuJywgJzgnLCAnLW1hJywgJzIwMCcsICctbWV0YWxfYmluZGluZycsICctaW1hZScsICc8aW5maWxlLm1hZT4nLCAnLW9tYWUnLCAnPG91dGZpbGUubWFlPic=

> <r_epik_Ionization_Penalty>
0.458428

> <r_epik_Ionization_Penalty_Charging>
0

> <r_epik_Ionization_Penalty_Neutral>
0.458428

> <r_epik_State_Penalty>
0.443707

> <r_epik_Charging_Adjusted_Penalty>
0.443707

> <i_epik_Tot_Q>
0

> <i_epik_Tot_abs_Q>
0

> <r_epik_Metal_State_Penalty>
0.312856

> <b_epik_Metal_Only>
0

> <s_lp_Force_Field>
OPLS_2005

> <r_lp_Energy>
10.7043

> <b_lp_Chiralities_Consistent>
1

> <s_lp_Variant>
AV-unprocessed.smi:912-1

> <Gold.Version>
5.8.1

> <Gold.Id.Protein>
6NUR|6NUR_protein|mol2

> <Gold.PLP.Fitness>
32.8669

> <Gold.PLP.PLP>
-23.4500

> <Gold.PLP.part.hbond>
-2.4555

> <Gold.PLP.part.metal>
0.0000

> <Gold.PLP.part.buried>
-3.7816

> <Gold.PLP.part.nonpolar>
-17.8823

> <Gold.PLP.part.repulsive>
0.4024

> <Gold.PLP.ligand.clash>
0.0000

> <Gold.PLP.ligand.torsion>
0.0733

> <Gold.PLP.Chemscore.Hbond>
1.3680

> <Gold.PLP.Chemscore.CHOScore>
1.8086

> <Gold.PLP.Chemscore.Metal>
0.0000

> <Gold.Chemscore.Hbonds>
donor molecule, donor type, donor heavy atom, donor atom, acceptor molecule, acceptor atom, score
      L1  H     2    17       P1  7948  0.17
      L1  H     6    22       P1  7948  1.00
      P1  H 10785 10796       L1    11  0.04
      L1  C    10    24       P1 10186  0.98
      L1  C    12    25       P1 10747  0.73

> <Gold.PLP.Chemscore.Internal.Correction>
0.0336

> <Gold.Rescore>
     Score         DG    S(hbond)    S(metal)    S(lipo)     H(rot)  DE(clash)    DE(int)     intcor
     11.60     -12.05       1.59        0.00      49.54       1.77       0.01       0.44       ----

> <Gold.Chemscore.Fitness>
11.6019

> <Gold.Chemscore.DG>
-12.0464

> <Gold.Chemscore.ZeroCoef>
-5.4800

> <Gold.Chemscore.Hbond>
1.5883

> <Gold.Chemscore.Metal>
0.0000

> <Gold.Chemscore.Lipo>
49.5373

> <Gold.Chemscore.Internal_Hbond>
0.0000

> <Gold.Chemscore.DEClash>
0.0069

> <Gold.Chemscore.DEInternal>
0.4377

> <Gold.Chemscore.Rot>
1.7712

> <Gold.Chemscore.Internal.Correction>
   9.000000E+99

> <Gold.Chemscore.Hbonds>
donor molecule, donor type, donor heavy atom, donor atom, acceptor molecule, acceptor atom, score
      L1  H     2    17       P1  7948  0.04
      L1  H     6    22       P1  7948  0.96
      P1  H 10785 10796       L1    11  0.01

> <Gold.Chemscore.Hbond.Weighted>
-5.3049

> <Gold.Chemscore.Metal.Weighted>
-0.0000

> <Gold.Chemscore.Lipo.Weighted>
-5.7959

> <Gold.Chemscore.Internal_Hbond.Weighted>
0.0000

> <Gold.Chemscore.DEClash.Weighted>
0.0069

> <Gold.Chemscore.DEInternal.Weighted>
0.4377

> <Gold.Chemscore.Rot.Weighted>
4.5343

> <Gold.Chemscore.Internal.Correction.Weighted>
   9.000000E+99

> <Gold.Protein.RotatedTorsions>
[ 6907 6896 6895 6894 ] final  108.14 input  -60.11 | X-H torsion
[ 7974 7965 7964 7962 ] final  -26.63 input  175.53 | X-H torsion
[ 8008 7997 7996 7995 ] final -174.45 input   59.86 | X-H torsion
[ 10167 10162 10161 10158 ] final   37.77 input  -65.29 | X-H torsion
[ 10718 10713 10712 10709 ] final   34.85 input   66.30 | X-H torsion
[ 10763 10752 10751 10750 ] final  164.00 input  -60.55 | X-H torsion
[ 11005 11000 10999 10996 ] final -100.80 input  -57.11 | X-H torsion

> <Gold.Protein.ActiveResidues>
 VAL166  LYS551  ARG553  GLY616  TRP617  ASP618  TYR619  PRO620  LYS621  CYS622 
 ASP623  PHE694  ASN695  SER759  ASP760  ASP761  ALA762  ILE779  LEU786  VAL792 
 PHE793  MET794  SER795  GLU796  ALA797  LYS798  CYS799  TRP800  GLU811  SER814 

> <Gold.Protein.RotatedAtoms>
  152.5125  133.9131  159.7497 H   0  0  0  0  0  0  0  0  0  0  0  0  # atno 6907 bound_to 6896
  150.9520  133.6530  159.2777 H   0  0  0  0  0  0  0  0  0  0  0  0  # atno 6908 bound_to 6896
  151.3805  135.0944  159.9547 H   0  0  0  0  0  0  0  0  0  0  0  0  # atno 6909 bound_to 6896
  146.1412  140.5045  142.8651 H   0  0  0  0  0  0  0  0  0  0  0  0  # atno 7974 bound_to 7965
  155.9703  140.1161  157.0818 H   0  0  0  0  0  0  0  0  0  0  0  0  # atno 8008 bound_to 7997
  154.4154  140.1164  156.5365 H   0  0  0  0  0  0  0  0  0  0  0  0  # atno 8009 bound_to 7997
  155.6605  140.3473  155.4783 H   0  0  0  0  0  0  0  0  0  0  0  0  # atno 8010 bound_to 7997
  140.4001  144.1735  150.6133 H   0  0  0  0  0  0  0  0  0  0  0  0  # atno 10167 bound_to 10162
  157.3155  130.7421  149.6751 H   0  0  0  0  0  0  0  0  0  0  0  0  # atno 10718 bound_to 10713
  154.3023  135.2759  155.2605 H   0  0  0  0  0  0  0  0  0  0  0  0  # atno 10763 bound_to 10752
  154.5037  135.5801  153.6554 H   0  0  0  0  0  0  0  0  0  0  0  0  # atno 10764 bound_to 10752
  152.9899  135.6164  154.3194 H   0  0  0  0  0  0  0  0  0  0  0  0  # atno 10765 bound_to 10752
  141.1256  133.8427  157.1149 H   0  0  0  0  0  0  0  0  0  0  0  0  # atno 11005 bound_to 11000
  144.7795  140.5810  143.6615 LP  0  0  0  0  0  0  0  0  0  0  0  0  # atno 17320 bound_to 7965
  145.5042  139.1482  143.3640 LP  0  0  0  0  0  0  0  0  0  0  0  0  # atno 17321 bound_to 7965
  140.4749  143.2399  151.9037 LP  0  0  0  0  0  0  0  0  0  0  0  0  # atno 17342 bound_to 10162
  139.4785  144.5331  151.8638 LP  0  0  0  0  0  0  0  0  0  0  0  0  # atno 17343 bound_to 10162
  155.9681  130.4239  150.4582 LP  0  0  0  0  0  0  0  0  0  0  0  0  # atno 17370 bound_to 10713
  157.2588  131.0562  151.2333 LP  0  0  0  0  0  0  0  0  0  0  0  0  # atno 17371 bound_to 10713
  140.0252  134.9927  157.0672 LP  0  0  0  0  0  0  0  0  0  0  0  0  # atno 17394 bound_to 11000
  140.4374  134.1717  155.7171 LP  0  0  0  0  0  0  0  0  0  0  0  0  # atno 17395 bound_to 11000

$$$$
