AV-unprocessed.smi:3166|AV-procd|sdf|12096|dock2
  -GOLD-   2272017533D 1   1.00000     0.00000
 Structure written by MMmdl.
 40 41  0  0  0  0  0  0  0  0  1 V2000
  151.9585  140.5249  158.1219 C   0  0  0  0  0  0  0  0  0  0  0  0
  150.7344  141.3184  157.6383 C   0  0  1  0  0  0  0  0  0  0  0  0
  151.0786  142.7915  157.3027 C   0  0  0  0  0  0  0  0  0  0  0  0
  151.3314  143.6158  158.4743 N   0  0  0  0  0  0  0  0  0  0  0  0
  150.7286  144.8041  158.8318 C   0  0  0  0  0  0  0  0  0  0  0  0
  151.2876  145.2067  160.0105 C   0  0  0  0  0  0  0  0  0  0  0  0
  152.2332  144.1844  160.3018 C   0  0  0  0  0  0  0  0  0  0  0  0
  152.2541  143.2317  159.3839 N   0  0  0  0  0  0  0  0  0  0  0  0
  150.1082  140.6078  156.5182 N   0  0  0  0  0  0  0  0  0  0  0  0
  149.1261  141.3750  155.7483 C   0  0  0  0  0  0  0  0  0  0  0  0
  148.7269  140.6681  154.4332 C   0  0  0  0  0  0  0  0  0  0  0  0
  149.7954  140.8511  153.5212 O   0  0  0  0  0  0  0  0  0  0  0  0
  148.5871  139.1486  154.6893 C   0  0  0  0  0  0  0  0  0  0  0  0
  148.0999  138.3694  153.4542 C   0  0  0  0  0  0  0  0  0  0  0  0
  146.7842  138.9473  152.9154 C   0  0  0  0  0  0  0  0  0  0  0  0
  146.9317  140.4420  152.5997 C   0  0  0  0  0  0  0  0  0  0  0  0
  147.4153  141.2321  153.8290 C   0  0  0  0  0  0  0  0  0  0  0  0
  152.4390  141.0223  158.9647 H   0  0  0  0  0  0  0  0  0  0  0  0
  152.7037  140.4098  157.3340 H   0  0  0  0  0  0  0  0  0  0  0  0
  151.6719  139.5257  158.4510 H   0  0  0  0  0  0  0  0  0  0  0  0
  150.0257  141.3359  158.4672 H   0  0  0  0  0  0  0  0  0  0  0  0
  151.9408  142.8593  156.6398 H   0  0  0  0  0  0  0  0  0  0  0  0
  150.2519  143.2347  156.7450 H   0  0  0  0  0  0  0  0  0  0  0  0
  149.9620  145.2599  158.2231 H   0  0  0  0  0  0  0  0  0  0  0  0
  151.0562  146.0958  160.5781 H   0  0  0  0  0  0  0  0  0  0  0  0
  152.8994  144.1056  161.1484 H   0  0  0  0  0  0  0  0  0  0  0  0
  149.6729  139.7556  156.8572 H   0  0  0  0  0  0  0  0  0  0  0  0
  148.2350  141.5509  156.3525 H   0  0  0  0  0  0  0  0  0  0  0  0
  149.5308  142.3568  155.5053 H   0  0  0  0  0  0  0  0  0  0  0  0
  149.7055  140.2173  152.8260 H   0  0  0  0  0  0  0  0  0  0  0  0
  149.5354  138.7335  155.0341 H   0  0  0  0  0  0  0  0  0  0  0  0
  147.8766  138.9861  155.5011 H   0  0  0  0  0  0  0  0  0  0  0  0
  148.8607  138.3974  152.6733 H   0  0  0  0  0  0  0  0  0  0  0  0
  147.9643  137.3185  153.7111 H   0  0  0  0  0  0  0  0  0  0  0  0
  146.4784  138.4056  152.0198 H   0  0  0  0  0  0  0  0  0  0  0  0
  145.9913  138.8042  153.6506 H   0  0  0  0  0  0  0  0  0  0  0  0
  147.6337  140.5748  151.7756 H   0  0  0  0  0  0  0  0  0  0  0  0
  145.9778  140.8429  152.2558 H   0  0  0  0  0  0  0  0  0  0  0  0
  146.6335  141.2098  154.5893 H   0  0  0  0  0  0  0  0  0  0  0  0
  147.5368  142.2798  153.5521 H   0  0  0  0  0  0  0  0  0  0  0  0
  1  2  1  0  0  0  0
  1 18  1  0  0  0  0
  1 19  1  0  0  0  0
  1 20  1  0  0  0  0
  2  3  1  0  0  0  0
  2  9  1  0  0  0  0
  2 21  1  0  0  0  0
  3  4  1  0  0  0  0
  3 22  1  0  0  0  0
  3 23  1  0  0  0  0
  4  8  1  0  0  0  0
  4  5  1  0  0  0  0
  5  6  2  0  0  0  0
  5 24  1  0  0  0  0
  6  7  1  0  0  0  0
  6 25  1  0  0  0  0
  7  8  2  0  0  0  0
  7 26  1  0  0  0  0
  9 10  1  0  0  0  0
  9 27  1  0  0  0  0
 10 11  1  0  0  0  0
 10 28  1  0  0  0  0
 10 29  1  0  0  0  0
 11 17  1  0  0  0  0
 11 12  1  0  0  0  0
 11 13  1  0  0  0  0
 12 30  1  0  0  0  0
 13 14  1  0  0  0  0
 13 31  1  0  0  0  0
 13 32  1  0  0  0  0
 14 15  1  0  0  0  0
 14 33  1  0  0  0  0
 14 34  1  0  0  0  0
 15 16  1  0  0  0  0
 15 35  1  0  0  0  0
 15 36  1  0  0  0  0
 16 17  1  0  0  0  0
 16 37  1  0  0  0  0
 16 38  1  0  0  0  0
 17 39  1  0  0  0  0
 17 40  1  0  0  0  0
M  END
> <s_m_source_file>
AV-unprocessed.smi

> <i_m_source_file_index>
3166

> <i_lp_mmshare_version>
43012

> <i_f3d_flags>
0

> <s_epik_input>
bjFbY0hdW2NIXVtjSF1uMVtDSDJdW0NAQEhdKFtDSDNdKVtOSF1bQ0gyXUMyKFtPSF0pW0NIMl1bQ0gyXVtDSDJdW0NIMl1bQ0gyXTI=

> <s_epik_cmdline>
J2VwaWtfcHl0aG9uJywgJy1waCcsICc3LjAnLCAnLXRuJywgJzgnLCAnLW1hJywgJzIwMCcsICctbWV0YWxfYmluZGluZycsICctaW1hZScsICc8aW5maWxlLm1hZT4nLCAnLW9tYWUnLCAnPG91dGZpbGUubWFlPic=

> <r_lp_tautomer_probability>
1

> <r_epik_Ionization_Penalty>
2.35964

> <r_epik_Ionization_Penalty_Charging>
0

> <r_epik_Ionization_Penalty_Neutral>
2.35964

> <r_epik_State_Penalty>
2.51455

> <r_epik_Charging_Adjusted_Penalty>
2.51455

> <i_epik_Tot_Q>
0

> <i_epik_Tot_abs_Q>
0

> <r_epik_Metal_State_Penalty>
2.51451

> <b_epik_Metal_Only>
0

> <s_lp_Force_Field>
OPLS_2005

> <r_lp_Energy>
22.3921

> <b_lp_Chiralities_Consistent>
1

> <s_lp_Variant>
AV-unprocessed.smi:3166-4

> <Gold.Version>
5.8.1

> <Gold.Id.Protein>
6NUR|6NUR_protein|mol2

> <Gold.PLP.Fitness>
43.3282

> <Gold.PLP.PLP>
-35.4902

> <Gold.PLP.part.hbond>
-2.3505

> <Gold.PLP.part.metal>
0.0000

> <Gold.PLP.part.buried>
-1.1097

> <Gold.PLP.part.nonpolar>
-31.3850

> <Gold.PLP.part.repulsive>
0.0000

> <Gold.PLP.ligand.clash>
0.0000

> <Gold.PLP.ligand.torsion>
0.5384

> <Gold.PLP.Chemscore.Hbond>
2.0700

> <Gold.PLP.Chemscore.CHOScore>
0.8902

> <Gold.PLP.Chemscore.Metal>
0.0000

> <Gold.Chemscore.Hbonds>
donor molecule, donor type, donor heavy atom, donor atom, acceptor molecule, acceptor atom, score
      L1  H    12    30       P1  7957  0.86
      P1  H  7989  7998       L1    12  0.25
      P1  H  8011  8017       L1    12  0.75
      L1  C     5    24       P1  8028  0.03
      L1  C     5    24       P1  8029  1.00

> <Gold.PLP.Chemscore.Internal.Correction>
0.0342

> <Gold.Rescore>
     Score         DG    S(hbond)    S(metal)    S(lipo)     H(rot)  DE(clash)    DE(int)     intcor
     14.54     -16.89       1.28        0.00     107.43       2.12       0.71       1.63       ----

> <Gold.Chemscore.Fitness>
14.5439

> <Gold.Chemscore.DG>
-16.8894

> <Gold.Chemscore.ZeroCoef>
-5.4800

> <Gold.Chemscore.Hbond>
1.2784

> <Gold.Chemscore.Metal>
0.0000

> <Gold.Chemscore.Lipo>
107.4295

> <Gold.Chemscore.Internal_Hbond>
0.0000

> <Gold.Chemscore.DEClash>
0.7149

> <Gold.Chemscore.DEInternal>
1.6306

> <Gold.Chemscore.Rot>
2.1209

> <Gold.Chemscore.Internal.Correction>
   9.000000E+99

> <Gold.Chemscore.Hbonds>
donor molecule, donor type, donor heavy atom, donor atom, acceptor molecule, acceptor atom, score
      L1  H    12    30       P1  7957  0.85
      P1  H  7989  7998       L1    12  0.03
      P1  H  8011  8017       L1    12  0.09

> <Gold.Chemscore.Hbond.Weighted>
-4.2697

> <Gold.Chemscore.Metal.Weighted>
-0.0000

> <Gold.Chemscore.Lipo.Weighted>
-12.5692

> <Gold.Chemscore.Internal_Hbond.Weighted>
0.0000

> <Gold.Chemscore.DEClash.Weighted>
0.7149

> <Gold.Chemscore.DEInternal.Weighted>
1.6306

> <Gold.Chemscore.Rot.Weighted>
5.4296

> <Gold.Chemscore.Internal.Correction.Weighted>
   9.000000E+99

> <Gold.Protein.RotatedTorsions>
[ 6907 6896 6895 6894 ] final  -94.86 input  -60.11 | X-H torsion
[ 7974 7965 7964 7962 ] final   30.05 input  175.53 | X-H torsion
[ 8008 7997 7996 7995 ] final -163.30 input   59.86 | X-H torsion
[ 10167 10162 10161 10158 ] final   65.82 input  -65.29 | X-H torsion
[ 10718 10713 10712 10709 ] final  -80.93 input   66.30 | X-H torsion
[ 10763 10752 10751 10750 ] final -170.91 input  -60.55 | X-H torsion
[ 11005 11000 10999 10996 ] final  100.08 input  -57.11 | X-H torsion

> <Gold.Protein.ActiveResidues>
 VAL166  LYS551  ARG553  GLY616  TRP617  ASP618  TYR619  PRO620  LYS621  CYS622 
 ASP623  PHE694  ASN695  SER759  ASP760  ASP761  ALA762  ILE779  LEU786  VAL792 
 PHE793  MET794  SER795  GLU796  ALA797  LYS798  CYS799  TRP800  GLU811  SER814 

> <Gold.Protein.RotatedAtoms>
  150.6951  134.1747  159.4225 H   0  0  0  0  0  0  0  0  0  0  0  0  # atno 6907 bound_to 6896
  151.9723  135.0068  160.0562 H   0  0  0  0  0  0  0  0  0  0  0  0  # atno 6908 bound_to 6896
  152.1830  133.4685  159.5005 H   0  0  0  0  0  0  0  0  0  0  0  0  # atno 6909 bound_to 6896
  146.1635  139.6840  142.9017 H   0  0  0  0  0  0  0  0  0  0  0  0  # atno 7974 bound_to 7965
  155.8192  140.0917  157.1859 H   0  0  0  0  0  0  0  0  0  0  0  0  # atno 8008 bound_to 7997
  154.3979  140.1440  156.3540 H   0  0  0  0  0  0  0  0  0  0  0  0  # atno 8009 bound_to 7997
  155.8284  140.3443  155.5559 H   0  0  0  0  0  0  0  0  0  0  0  0  # atno 8010 bound_to 7997
  140.1071  144.4851  150.7001 H   0  0  0  0  0  0  0  0  0  0  0  0  # atno 10167 bound_to 10162
  156.0060  130.4589  150.3875 H   0  0  0  0  0  0  0  0  0  0  0  0  # atno 10718 bound_to 10713
  154.6363  135.2893  155.0157 H   0  0  0  0  0  0  0  0  0  0  0  0  # atno 10763 bound_to 10752
  154.1300  135.6535  153.4924 H   0  0  0  0  0  0  0  0  0  0  0  0  # atno 10764 bound_to 10752
  153.0304  135.5308  154.7211 H   0  0  0  0  0  0  0  0  0  0  0  0  # atno 10765 bound_to 10752
  139.8771  134.9124  156.4702 H   0  0  0  0  0  0  0  0  0  0  0  0  # atno 11005 bound_to 11000
  145.4528  141.0429  143.2795 LP  0  0  0  0  0  0  0  0  0  0  0  0  # atno 17320 bound_to 7965
  144.8060  139.6051  143.7051 LP  0  0  0  0  0  0  0  0  0  0  0  0  # atno 17321 bound_to 7965
  140.6946  143.2396  151.5037 LP  0  0  0  0  0  0  0  0  0  0  0  0  # atno 17342 bound_to 10162
  139.5639  144.2089  152.1735 LP  0  0  0  0  0  0  0  0  0  0  0  0  # atno 17343 bound_to 10162
  157.1951  131.0425  151.2680 LP  0  0  0  0  0  0  0  0  0  0  0  0  # atno 17370 bound_to 10713
  157.4026  130.7341  149.6778 LP  0  0  0  0  0  0  0  0  0  0  0  0  # atno 17371 bound_to 10713
  140.8801  133.7924  155.9457 LP  0  0  0  0  0  0  0  0  0  0  0  0  # atno 17394 bound_to 11000
  140.8863  134.2550  157.5118 LP  0  0  0  0  0  0  0  0  0  0  0  0  # atno 17395 bound_to 11000

$$$$
