#       Name:                AV-unprocessed.smi:2505
#       Creating user name   scv26
#       Creation time:       Fri Mar 27 13:48:46 2020


#       File generated by GOLD software.
#

@<TRIPOS>MOLECULE
AV-unprocessed.smi:2505
    54    58     1
SMALL
NO_CHARGES


@<TRIPOS>ATOM
      1 ****         0.0007   3.0563   0.8984 O.2            1 S1                 0.0000
      2 ****        -0.3228   1.8722   0.8529 C.2            1 S1                 0.0000
      3 ****         0.5364   0.8375   0.7859 N.am           1 S1                 0.0000
      4 ****         1.9566   0.8416   0.7608 C.ar           1 S1                 0.0000
      5 ****         2.6265  -0.3886   0.5952 C.ar           1 S1                 0.0000
      6 ****         3.9732  -0.4748   0.5698 N.ar           1 S1                 0.0000
      7 ****         4.6520   0.6679   0.7003 C.ar           1 S1                 0.0000
      8 ****         6.1456   0.5637   0.7121 C.3            1 S1                 0.0000
      9 ****         6.9891   1.3811  -0.2450 C.3            1 S1                 0.0000
     10 ****         6.8841  -0.1074  -0.4280 C.3            1 S1                 0.0000
     11 ****         4.1334   1.8862   0.8763 N.ar           1 S1                 0.0000
     12 ****         2.7861   1.9820   0.9033 C.ar           1 S1                 0.0000
     13 ****        -1.6157   1.5037   0.8534 N.am           1 S1                 0.0000
     14 ****        -2.7905   2.3757   0.9168 C.3            1 S1                 0.0000
     15 ****        -4.0995   1.5962   0.7094 C.3            1 S1                 0.0000
     16 ****        -4.9452   1.8630  -0.5064 C.3            1 S1                 0.0000
     17 ****        -5.9786   2.8669   0.0114 C.3            1 S1                 0.0000
     18 ****        -5.3661   3.4530   1.1576 O.3            1 S1                 0.0000
     19 ****        -4.6763   2.4168   1.8527 C.3            1 S1                 0.0000
     20 ****        -3.2516   2.7434   2.3489 C.3            1 S1                 0.0000
     21 ****        -2.7641   1.9116   3.5386 C.3            1 S1                 0.0000
     22 ****        -3.1642   2.6760   4.8021 C.3            1 S1                 0.0000
     23 ****        -3.2817   4.1422   4.3732 C.3            1 S1                 0.0000
     24 ****        -3.0054   4.1586   2.8662 C.3            1 S1                 0.0000
     25 ****         0.1100  -0.0762   0.7319 H              1 S1                 0.0000
     26 ****         2.0788  -1.3132   0.4850 H              1 S1                 0.0000
     27 ****         6.5237   0.4125   1.7214 H              1 S1                 0.0000
     28 ****         6.4723   2.0119  -0.9657 H              1 S1                 0.0000
     29 ****         7.9305   1.7771   0.1299 H              1 S1                 0.0000
     30 ****         7.7546  -0.7091  -0.1751 H              1 S1                 0.0000
     31 ****         6.2981  -0.4671  -1.2716 H              1 S1                 0.0000
     32 ****         2.4012   2.9783   1.0494 H              1 S1                 0.0000
     33 ****        -1.8037   0.5131   0.7970 H              1 S1                 0.0000
     34 ****        -2.7382   3.2492   0.2627 H              1 S1                 0.0000
     35 ****        -4.0104   0.5428   0.9818 H              1 S1                 0.0000
     36 ****        -4.3482   2.2993  -1.3076 H              1 S1                 0.0000
     37 ****        -5.4201   0.9619  -0.8952 H              1 S1                 0.0000
     38 ****        -6.2446   3.6194  -0.7312 H              1 S1                 0.0000
     39 ****        -6.8904   2.3532   0.3198 H              1 S1                 0.0000
     40 ****        -5.3103   1.8496   2.5359 H              1 S1                 0.0000
     41 ****        -3.1687   0.8989   3.5378 H              1 S1                 0.0000
     42 ****        -1.6775   1.8184   3.5210 H              1 S1                 0.0000
     43 ****        -4.1286   2.3197   5.1661 H              1 S1                 0.0000
     44 ****        -2.4380   2.5375   5.6038 H              1 S1                 0.0000
     45 ****        -4.2879   4.5092   4.5795 H              1 S1                 0.0000
     46 ****        -2.5819   4.7824   4.9116 H              1 S1                 0.0000
     47 ****        -1.9658   4.4403   2.6966 H              1 S1                 0.0000
     48 ****        -3.6151   4.9067   2.3592 H              1 S1                 0.0000
     49 ****         0.9676   3.3112   0.8868 LP             1 S1                 0.0000
     50 ****        -0.7028   3.7653   0.9471 LP             1 S1                 0.0000
     51 ****         4.4402  -1.3521   0.4587 LP             1 S1                 0.0000
     52 ****         4.7165   2.6915   0.9834 LP             1 S1                 0.0000
     53 ****        -6.0645   3.8548   1.7499 LP             1 S1                 0.0000
     54 ****        -4.7207   4.1624   0.8746 LP             1 S1                 0.0000
@<TRIPOS>BOND
    1    1    2 2     
    2    2    3 am    
    3    2   13 am    
    4    3    4 1     
    5    3   25 1     
    6    4   12 ar    
    7    4    5 ar    
    8    5    6 ar    
    9    5   26 1     
   10    6    7 ar    
   11    7    8 1     
   12    7   11 ar    
   13    8   10 1     
   14    8    9 1     
   15    8   27 1     
   16    9   10 1     
   17    9   28 1     
   18    9   29 1     
   19   10   30 1     
   20   10   31 1     
   21   11   12 ar    
   22   12   32 1     
   23   13   14 1     
   24   13   33 1     
   25   14   20 1     
   26   14   15 1     
   27   14   34 1     
   28   15   19 1     
   29   15   16 1     
   30   15   35 1     
   31   16   17 1     
   32   16   36 1     
   33   16   37 1     
   34   17   18 1     
   35   17   38 1     
   36   17   39 1     
   37   18   19 1     
   38   19   20 1     
   39   19   40 1     
   40   20   24 1     
   41   20   21 1     
   42   21   22 1     
   43   21   41 1     
   44   21   42 1     
   45   22   23 1     
   46   22   43 1     
   47   22   44 1     
   48   23   24 1     
   49   23   45 1     
   50   23   46 1     
   51   24   47 1     
   52   24   48 1     
   53    1   49 1     
   54    1   50 1     
   55    6   51 1     
   56   11   52 1     
   57   18   53 1     
   58   18   54 1     
@<TRIPOS>SUBSTRUCTURE
      1 S1             1
@<TRIPOS>SET
LONE_PAIRS      STATIC     ATOMS    <user>   **** ""
6 49 50 51 52 53 54
DONOR_HYDROGENS      STATIC     ATOMS    <user>   **** ""
2 25 33
ATOM$BLUE        STATIC     ATOMS    COLORGROUP SYSTEM
6 49 50 51 52 53 54
ATOM$RED        STATIC     ATOMS    COLORGROUP SYSTEM
2 25 33
