AV-unprocessed.smi:2906|AV-procd|sdf|11164|dock9
  -GOLD-   2272016 53D 1   1.00000     0.00000
 Structure written by MMmdl.
 39 40  0  0  0  0  0  0  0  0  2 V2000
  152.6043  144.4366  158.4210 C   0  0  0  0  0  0  0  0  0  0  0  0
  152.1982  143.8629  159.7884 C   0  0  0  0  0  0  0  0  0  0  0  0
  152.7798  142.4677  160.0724 C   0  0  0  0  0  0  0  0  0  0  0  0
  153.5223  142.2986  161.0414 O   0  0  0  0  0  0  0  0  0  0  0  0
  152.4507  141.4582  159.2395 N   0  0  0  0  0  0  0  0  0  0  0  0
  151.5894  141.6278  158.0724 C   0  0  0  0  0  0  0  0  0  0  0  0
  151.6645  140.3122  157.2987 C   0  0  0  0  0  0  0  0  0  0  0  0
  152.0731  139.2716  158.3409 C   0  0  1  0  0  0  0  0  0  0  0  0
  152.8589  138.1822  157.7681 N   0  0  0  0  0  0  0  0  0  0  0  0
  152.5547  136.8784  157.8410 C   0  0  0  0  0  0  0  0  0  0  0  0
  151.5376  136.5176  158.4381 O   0  0  0  0  0  0  0  0  0  0  0  0
  153.4439  136.0740  157.2144 N   0  5  0  0  0  0  0  0  0  0  0  0
  154.3400  135.3784  157.9333 C   0  0  0  0  0  0  0  0  0  0  0  0
  154.0965  134.9334  159.1710 N   0  0  0  0  0  0  0  0  0  0  0  0
  155.1655  134.2312  159.7339 C   0  0  0  0  0  0  0  0  0  0  0  0
  155.0447  133.6638  161.1156 C   0  0  0  0  0  0  0  0  0  0  0  0
  154.7614  134.7441  162.1654 C   0  0  0  0  0  0  0  0  0  0  0  0
  156.2545  134.1549  158.9048 C   0  0  0  0  0  0  0  0  0  0  0  0
  155.9664  134.9605  157.3894 S   0  0  0  0  0  0  0  0  0  0  0  0
  152.8866  140.0682  159.3674 C   0  0  0  0  0  0  0  0  0  0  0  0
  152.1752  145.4284  158.2777 H   0  0  0  0  0  0  0  0  0  0  0  0
  152.2519  143.8060  157.6036 H   0  0  0  0  0  0  0  0  0  0  0  0
  153.6872  144.5310  158.3331 H   0  0  0  0  0  0  0  0  0  0  0  0
  152.5239  144.5477  160.5721 H   0  0  0  0  0  0  0  0  0  0  0  0
  151.1105  143.8099  159.8422 H   0  0  0  0  0  0  0  0  0  0  0  0
  150.5688  141.8147  158.4092 H   0  0  0  0  0  0  0  0  0  0  0  0
  151.9015  142.4692  157.4520 H   0  0  0  0  0  0  0  0  0  0  0  0
  150.7268  140.0627  156.8007 H   0  0  0  0  0  0  0  0  0  0  0  0
  152.4341  140.3948  156.5293 H   0  0  0  0  0  0  0  0  0  0  0  0
  151.1794  138.8793  158.8304 H   0  0  0  0  0  0  0  0  0  0  0  0
  153.7004  138.4352  157.2713 H   0  0  0  0  0  0  0  0  0  0  0  0
  154.2491  132.9185  161.1435 H   0  0  0  0  0  0  0  0  0  0  0  0
  155.9595  133.1340  161.3835 H   0  0  0  0  0  0  0  0  0  0  0  0
  154.6807  134.3074  163.1610 H   0  0  0  0  0  0  0  0  0  0  0  0
  153.8268  135.2640  161.9533 H   0  0  0  0  0  0  0  0  0  0  0  0
  155.5594  135.4868  162.1902 H   0  0  0  0  0  0  0  0  0  0  0  0
  157.2048  133.6787  159.0921 H   0  0  0  0  0  0  0  0  0  0  0  0
  153.9548  140.0177  159.1489 H   0  0  0  0  0  0  0  0  0  0  0  0
  152.7279  139.6767  160.3730 H   0  0  0  0  0  0  0  0  0  0  0  0
  1  2  1  0  0  0  0
  1 21  1  0  0  0  0
  1 22  1  0  0  0  0
  1 23  1  0  0  0  0
  2  3  1  0  0  0  0
  2 24  1  0  0  0  0
  2 25  1  0  0  0  0
  3  4  2  0  0  0  0
  3  5  1  0  0  0  0
  5 20  1  0  0  0  0
  5  6  1  0  0  0  0
  6  7  1  0  0  0  0
  6 26  1  0  0  0  0
  6 27  1  0  0  0  0
  7  8  1  0  0  0  0
  7 28  1  0  0  0  0
  7 29  1  0  0  0  0
  8  9  1  0  0  0  0
  8 20  1  0  0  0  0
  8 30  1  0  0  0  0
  9 10  1  0  0  0  0
  9 31  1  0  0  0  0
 10 11  2  0  0  0  0
 10 12  1  0  0  0  0
 12 13  1  0  0  0  0
 13 19  1  0  0  0  0
 13 14  2  0  0  0  0
 14 15  1  0  0  0  0
 15 16  1  0  0  0  0
 15 18  2  0  0  0  0
 16 17  1  0  0  0  0
 16 32  1  0  0  0  0
 16 33  1  0  0  0  0
 17 34  1  0  0  0  0
 17 35  1  0  0  0  0
 17 36  1  0  0  0  0
 18 19  1  0  0  0  0
 18 37  1  0  0  0  0
 20 38  1  0  0  0  0
 20 39  1  0  0  0  0
M  CHG  1  12  -1
M  END
> <s_m_source_file>
AV-unprocessed.smi

> <i_m_source_file_index>
2906

> <i_lp_mmshare_version>
43012

> <i_f3d_flags>
0

> <s_epik_input>
W0NIM11bQ0gyXUMoPU8pTjFbQ0gyXVtDSDJdW0NASF0oW0NIMl0xKVtOSF1DKD1PKVtOSF1jMm5jKFtjSF1zMilbQ0gyXVtDSDNd

> <s_epik_cmdline>
J2VwaWtfcHl0aG9uJywgJy1waCcsICc3LjAnLCAnLXRuJywgJzgnLCAnLW1hJywgJzIwMCcsICctbWV0YWxfYmluZGluZycsICctaW1hZScsICc8aW5maWxlLm1hZT4nLCAnLW9tYWUnLCAnPG91dGZpbGUubWFlPic=

> <r_lp_tautomer_probability>
1

> <r_epik_Ionization_Penalty>
7.20119

> <r_epik_Ionization_Penalty_Charging>
5.87168

> <r_epik_Ionization_Penalty_Neutral>
1.32951

> <r_epik_State_Penalty>
5.87165

> <r_epik_Charging_Adjusted_Penalty>
11.7433

> <i_epik_Tot_Q>
-1

> <i_epik_Tot_abs_Q>
1

> <r_epik_Metal_State_Penalty>
1.83511

> <b_epik_Metal_Only>
1

> <s_lp_Force_Field>
OPLS_2005

> <r_lp_Energy>
20.3379

> <b_lp_Chiralities_Consistent>
1

> <s_lp_Variant>
AV-unprocessed.smi:2906-3

> <Gold.Version>
5.8.1

> <Gold.Id.Protein>
6NUR|6NUR_protein|mol2

> <Gold.PLP.Fitness>
41.0691

> <Gold.PLP.PLP>
-32.0696

> <Gold.PLP.part.hbond>
-3.0000

> <Gold.PLP.part.metal>
0.0000

> <Gold.PLP.part.buried>
-4.7124

> <Gold.PLP.part.nonpolar>
-25.1879

> <Gold.PLP.part.repulsive>
0.1039

> <Gold.PLP.ligand.clash>
0.0000

> <Gold.PLP.ligand.torsion>
0.9229

> <Gold.PLP.Chemscore.Hbond>
3.6080

> <Gold.PLP.Chemscore.CHOScore>
0.0000

> <Gold.PLP.Chemscore.Metal>
0.0000

> <Gold.Chemscore.Hbonds>
donor molecule, donor type, donor heavy atom, donor atom, acceptor molecule, acceptor atom, score
      P1  H  6896  6907       L1    11  0.62
      P1  H  6896  6908       L1    14  0.99
      P1  H 10752 10763       L1    12  1.90

> <Gold.PLP.Chemscore.Internal.Correction>
0.0213

> <Gold.Rescore>
     Score         DG    S(hbond)    S(metal)    S(lipo)     H(rot)  DE(clash)    DE(int)     intcor
     15.98     -17.18       2.27        0.00      65.64       1.39       0.14       1.06       ----

> <Gold.Chemscore.Fitness>
15.9816

> <Gold.Chemscore.DG>
-17.1815

> <Gold.Chemscore.ZeroCoef>
-5.4800

> <Gold.Chemscore.Hbond>
2.2662

> <Gold.Chemscore.Metal>
0.0000

> <Gold.Chemscore.Lipo>
65.6361

> <Gold.Chemscore.Internal_Hbond>
0.0000

> <Gold.Chemscore.DEClash>
0.1382

> <Gold.Chemscore.DEInternal>
1.0617

> <Gold.Chemscore.Rot>
1.3856

> <Gold.Chemscore.Internal.Correction>
   9.000000E+99

> <Gold.Chemscore.Hbonds>
donor molecule, donor type, donor heavy atom, donor atom, acceptor molecule, acceptor atom, score
      P1  H  6896  6907       L1    11  0.58
      P1  H  6896  6908       L1    14  0.47
      P1  H 10752 10763       L1    12  0.21

> <Gold.Chemscore.Hbond.Weighted>
-7.5692

> <Gold.Chemscore.Metal.Weighted>
-0.0000

> <Gold.Chemscore.Lipo.Weighted>
-7.6794

> <Gold.Chemscore.Internal_Hbond.Weighted>
0.0000

> <Gold.Chemscore.DEClash.Weighted>
0.1382

> <Gold.Chemscore.DEInternal.Weighted>
1.0617

> <Gold.Chemscore.Rot.Weighted>
3.5471

> <Gold.Chemscore.Internal.Correction.Weighted>
   9.000000E+99

> <Gold.Protein.RotatedTorsions>
[ 6907 6896 6895 6894 ] final  -24.36 input  -60.11 | X-H torsion
[ 7974 7965 7964 7962 ] final    4.11 input  175.53 | X-H torsion
[ 8008 7997 7996 7995 ] final -119.11 input   59.86 | X-H torsion
[ 10167 10162 10161 10158 ] final  108.26 input  -65.29 | X-H torsion
[ 10718 10713 10712 10709 ] final -168.38 input   66.30 | X-H torsion
[ 10763 10752 10751 10750 ] final  136.57 input  -60.55 | X-H torsion
[ 11005 11000 10999 10996 ] final  155.52 input  -57.11 | X-H torsion

> <Gold.Protein.ActiveResidues>
 VAL166  LYS551  ARG553  GLY616  TRP617  ASP618  TYR619  PRO620  LYS621  CYS622 
 ASP623  PHE694  ASN695  SER759  ASP760  ASP761  ALA762  ILE779  LEU786  VAL792 
 PHE793  MET794  SER795  GLU796  ALA797  LYS798  CYS799  TRP800  GLU811  SER814 

> <Gold.Protein.RotatedAtoms>
  151.1907  135.0401  159.8831 H   0  0  0  0  0  0  0  0  0  0  0  0  # atno 6907 bound_to 6896
  152.5439  134.0959  159.8307 H   0  0  0  0  0  0  0  0  0  0  0  0  # atno 6908 bound_to 6896
  151.1087  133.5142  159.2639 H   0  0  0  0  0  0  0  0  0  0  0  0  # atno 6909 bound_to 6896
  146.2444  140.0583  142.8370 H   0  0  0  0  0  0  0  0  0  0  0  0  # atno 7974 bound_to 7965
  155.1105  140.0397  157.2722 H   0  0  0  0  0  0  0  0  0  0  0  0  # atno 8008 bound_to 7997
  154.6689  140.2608  155.7003 H   0  0  0  0  0  0  0  0  0  0  0  0  # atno 8009 bound_to 7997
  156.2650  140.2802  156.1190 H   0  0  0  0  0  0  0  0  0  0  0  0  # atno 8010 bound_to 7997
  139.6860  144.7113  151.1431 H   0  0  0  0  0  0  0  0  0  0  0  0  # atno 10167 bound_to 10162
  156.6961  130.9178  151.3074 H   0  0  0  0  0  0  0  0  0  0  0  0  # atno 10718 bound_to 10713
  153.8587  135.3070  155.3436 H   0  0  0  0  0  0  0  0  0  0  0  0  # atno 10763 bound_to 10752
  154.7859  135.4810  153.9947 H   0  0  0  0  0  0  0  0  0  0  0  0  # atno 10764 bound_to 10752
  153.1475  135.6836  153.9027 H   0  0  0  0  0  0  0  0  0  0  0  0  # atno 10765 bound_to 10752
  140.1589  134.8623  157.2549 H   0  0  0  0  0  0  0  0  0  0  0  0  # atno 11005 bound_to 11000
  145.0922  140.9292  143.4762 LP  0  0  0  0  0  0  0  0  0  0  0  0  # atno 17320 bound_to 7965
  145.0759  139.2996  143.5808 LP  0  0  0  0  0  0  0  0  0  0  0  0  # atno 17321 bound_to 7965
  140.7668  143.5628  150.9080 LP  0  0  0  0  0  0  0  0  0  0  0  0  # atno 17342 bound_to 10162
  139.9303  143.6501  152.3077 LP  0  0  0  0  0  0  0  0  0  0  0  0  # atno 17343 bound_to 10162
  157.6991  130.9313  150.0731 LP  0  0  0  0  0  0  0  0  0  0  0  0  # atno 17370 bound_to 10713
  156.1762  130.3648  149.9096 LP  0  0  0  0  0  0  0  0  0  0  0  0  # atno 17371 bound_to 10713
  140.2513  134.3679  155.7441 LP  0  0  0  0  0  0  0  0  0  0  0  0  # atno 17394 bound_to 11000
  141.2207  133.7318  156.8940 LP  0  0  0  0  0  0  0  0  0  0  0  0  # atno 17395 bound_to 11000

$$$$
