#       Name:                AV-unprocessed.smi:1690
#       Creating user name   scv26
#       Creation time:       Fri Mar 27 07:53:16 2020


#       File generated by GOLD software.
#

@<TRIPOS>MOLECULE
AV-unprocessed.smi:1690
    40    41     1
SMALL
NO_CHARGES


@<TRIPOS>ATOM
      1 ****        -3.1605   2.0887   2.7225 C.3            1 S1                 0.0000
      2 ****        -2.9981   2.0015   1.1980 C.3            1 S1                 0.0000
      3 ****        -3.3907   0.6307   0.6276 C.3            1 S1                 0.0000
      4 ****        -1.6344   2.4247   0.7512 C.2            1 S1                 0.0000
      5 ****        -0.5135   1.7727   1.0743 N.2            1 S1                 0.0000
      6 ****         0.6314   2.3537   0.5188 C.2            1 S1                 0.0000
      7 ****         1.9786   1.7361   0.7625 C.3            1 S1                 0.0000
      8 ****         2.3305   0.7576  -0.3606 C.2            1 S1                 0.0000
      9 ****         3.2912   0.9838  -1.0962 O.2            1 S1                 0.0000
     10 ****         1.5503  -0.3290  -0.4750 N.am           1 S1                 0.0000
     11 ****         1.6986  -1.3768  -1.4805 C.3            1 S1                 0.0000
     12 ****         0.3560  -2.0955  -1.7179 C.3            1 S1                 0.0000
     13 ****         0.6479  -3.5931  -1.6029 C.3            1 S1                 0.0000
     14 ****         1.8375  -3.6767  -0.6517 C.3            1 S1                 0.0000
     15 ****         2.6898  -2.4610  -1.0158 C.3            1 S1                 0.0000
     16 ****         0.3603   3.4767  -0.2231 C.2            1 S1                 0.0000
     17 ****        -1.3443   3.8340  -0.2630 S.3            1 S1                 0.0000
     18 ****        -2.9536   3.0974   3.0816 H              1 S1                 0.0000
     19 ****        -2.4804   1.4067   3.2337 H              1 S1                 0.0000
     20 ****        -4.1762   1.8324   3.0247 H              1 S1                 0.0000
     21 ****        -3.6975   2.7226   0.7731 H              1 S1                 0.0000
     22 ****        -3.3448   0.6319  -0.4619 H              1 S1                 0.0000
     23 ****        -4.4072   0.3618   0.9153 H              1 S1                 0.0000
     24 ****        -2.7253  -0.1544   0.9882 H              1 S1                 0.0000
     25 ****         2.7467   2.5081   0.8246 H              1 S1                 0.0000
     26 ****         1.9984   1.2052   1.7152 H              1 S1                 0.0000
     27 ****         0.7853  -0.4295   0.1768 H              1 S1                 0.0000
     28 ****         2.0474  -0.9414  -2.4190 H              1 S1                 0.0000
     29 ****        -0.3729  -1.8148  -0.9554 H              1 S1                 0.0000
     30 ****        -0.0795  -1.8417  -2.6848 H              1 S1                 0.0000
     31 ****        -0.2131  -4.1624  -1.2517 H              1 S1                 0.0000
     32 ****         0.9324  -3.9881  -2.5791 H              1 S1                 0.0000
     33 ****         1.4917  -3.5884   0.3791 H              1 S1                 0.0000
     34 ****         2.3841  -4.6158  -0.7421 H              1 S1                 0.0000
     35 ****         3.3492  -2.7217  -1.8449 H              1 S1                 0.0000
     36 ****         3.3273  -2.1438  -0.1893 H              1 S1                 0.0000
     37 ****         1.0577   4.1084  -0.7532 H              1 S1                 0.0000
     38 ****        -0.4951   0.9564   1.6517 LP             1 S1                 0.0000
     39 ****         3.8421   1.8072  -0.9601 LP             1 S1                 0.0000
     40 ****         3.5207   0.3442  -1.8298 LP             1 S1                 0.0000
@<TRIPOS>BOND
    1    1    2 1     
    2    1   18 1     
    3    1   19 1     
    4    1   20 1     
    5    2    3 1     
    6    2    4 1     
    7    2   21 1     
    8    3   22 1     
    9    3   23 1     
   10    3   24 1     
   11    4   17 1     
   12    4    5 2     
   13    5    6 1     
   14    6    7 1     
   15    6   16 2     
   16    7    8 1     
   17    7   25 1     
   18    7   26 1     
   19    8    9 2     
   20    8   10 am    
   21   10   11 1     
   22   10   27 1     
   23   11   15 1     
   24   11   12 1     
   25   11   28 1     
   26   12   13 1     
   27   12   29 1     
   28   12   30 1     
   29   13   14 1     
   30   13   31 1     
   31   13   32 1     
   32   14   15 1     
   33   14   33 1     
   34   14   34 1     
   35   15   35 1     
   36   15   36 1     
   37   16   17 1     
   38   16   37 1     
   39    5   38 1     
   40    9   39 1     
   41    9   40 1     
@<TRIPOS>SUBSTRUCTURE
      1 S1             1
@<TRIPOS>SET
LONE_PAIRS      STATIC     ATOMS    <user>   **** ""
3 38 39 40
DONOR_HYDROGENS      STATIC     ATOMS    <user>   **** ""
1 27
ATOM$BLUE        STATIC     ATOMS    COLORGROUP SYSTEM
3 38 39 40
ATOM$RED        STATIC     ATOMS    COLORGROUP SYSTEM
1 27
