AV-unprocessed.smi:39|AV-procd|sdf|364|dock1
  -GOLD-   2262016203D 1   1.00000     0.00000
 Structure written by MMmdl.
 31 32  0  0  0  0  0  0  0  0  4 V2000
  149.4828  136.5956  158.3598 C   0  0  0  0  0  0  0  0  0  0  0  0
  150.5412  137.1645  157.4311 C   0  0  0  0  0  0  0  0  0  0  0  0
  150.5206  138.4510  157.0183 C   0  0  0  0  0  0  0  0  0  0  0  0
  151.4895  138.9688  156.1757 N   0  0  0  0  0  0  0  0  0  0  0  0
  151.4529  140.4164  155.7323 C   0  0  2  0  0  0  0  0  0  0  0  0
  151.0430  141.3348  156.8991 C   0  0  0  0  0  0  0  0  0  0  0  0
  149.5691  141.6044  156.6389 C   0  0  2  0  0  0  0  0  0  0  0  0
  148.7430  140.5812  157.2917 N   0  0  0  0  0  0  0  0  0  0  0  0
  147.9066  140.9791  158.1126 N   0  3  0  0  0  0  0  0  0  0  0  0
  147.0666  141.3788  158.7681 N   0  5  0  0  0  0  0  0  0  0  0  0
  149.5595  141.5555  155.1002 C   0  0  2  0  0  0  0  0  0  0  0  0
  148.2279  141.4334  154.3298 C   0  0  0  0  0  0  0  0  0  0  0  0
  147.3994  142.5707  154.4524 O   0  0  0  0  0  0  0  0  0  0  0  0
  150.5045  140.5662  154.7147 O   0  0  0  0  0  0  0  0  0  0  0  0
  152.5511  138.1360  155.7353 C   0  0  0  0  0  0  0  0  0  0  0  0
  153.4114  138.6314  155.0064 O   0  0  0  0  0  0  0  0  0  0  0  0
  152.5759  136.8340  156.1395 N   0  5  0  0  0  0  0  0  0  0  0  0
  151.6280  136.2976  156.9607 C   0  0  0  0  0  0  0  0  0  0  0  0
  151.6600  135.1190  157.3138 O   0  0  0  0  0  0  0  0  0  0  0  0
  152.4457  140.6307  155.3337 H   0  0  0  0  0  0  0  0  0  0  0  0
  149.3053  142.6028  156.9945 H   0  0  0  0  0  0  0  0  0  0  0  0
  150.0030  142.4971  154.7702 H   0  0  0  0  0  0  0  0  0  0  0  0
  148.7641  137.3601  158.6561 H   0  0  0  0  0  0  0  0  0  0  0  0
  149.9431  136.1970  159.2645 H   0  0  0  0  0  0  0  0  0  0  0  0
  148.9372  135.7908  157.8664 H   0  0  0  0  0  0  0  0  0  0  0  0
  149.7242  139.0893  157.3694 H   0  0  0  0  0  0  0  0  0  0  0  0
  151.2553  140.8919  157.8733 H   0  0  0  0  0  0  0  0  0  0  0  0
  151.6136  142.2606  156.8159 H   0  0  0  0  0  0  0  0  0  0  0  0
  148.4304  141.2747  153.2705 H   0  0  0  0  0  0  0  0  0  0  0  0
  147.6743  140.5624  154.6808 H   0  0  0  0  0  0  0  0  0  0  0  0
  147.8805  143.2469  154.9041 H   0  0  0  0  0  0  0  0  0  0  0  0
  1  2  1  0  0  0  0
  1 23  1  0  0  0  0
  1 24  1  0  0  0  0
  1 25  1  0  0  0  0
  2 18  1  0  0  0  0
  2  3  2  0  0  0  0
  3  4  1  0  0  0  0
  3 26  1  0  0  0  0
  4  5  1  0  0  0  0
  4 15  1  0  0  0  0
  5 20  1  0  0  0  0
  5 14  1  0  0  0  0
  5  6  1  0  0  0  0
  6  7  1  0  0  0  0
  6 27  1  0  0  0  0
  6 28  1  0  0  0  0
  7 21  1  0  0  0  0
  7  8  1  0  0  0  0
  7 11  1  0  0  0  0
  8  9  2  0  0  0  0
  9 10  2  0  0  0  0
 11 22  1  0  0  0  0
 11 12  1  0  0  0  0
 11 14  1  0  0  0  0
 12 13  1  0  0  0  0
 12 29  1  0  0  0  0
 12 30  1  0  0  0  0
 13 31  1  0  0  0  0
 15 16  2  0  0  0  0
 15 17  1  0  0  0  0
 17 18  1  0  0  0  0
 18 19  2  0  0  0  0
M  CHG  1   9   1
M  CHG  1  10  -1
M  CHG  1  17  -1
M  END
> <s_m_source_file>
AV-unprocessed.smi

> <i_m_source_file_index>
39

> <i_lp_mmshare_version>
43012

> <i_f3d_flags>
0

> <s_epik_input>
Tz1jMVtuSF1jKD1PKW4oW2NIXWMxW0NIM10pW0NASF0yW0NIMl1bQ0BIXShOPVtOK109W04tXSlbQ0BIXShPMilbQ0gyXVtPSF0=

> <s_epik_cmdline>
J2VwaWtfcHl0aG9uJywgJy1waCcsICc3LjAnLCAnLXRuJywgJzgnLCAnLW1hJywgJzIwMCcsICctbWV0YWxfYmluZGluZycsICctaW1hZScsICc8aW5maWxlLm1hZT4nLCAnLW9tYWUnLCAnPG91dGZpbGUubWFlPic=

> <r_lp_tautomer_probability>
0.999537

> <r_epik_Ionization_Penalty>
3.6393

> <r_epik_Ionization_Penalty_Charging>
9.76484e-08

> <r_epik_Ionization_Penalty_Neutral>
3.6393

> <r_epik_State_Penalty>
3.63887

> <r_epik_Charging_Adjusted_Penalty>
3.63887

> <i_epik_Tot_Q>
-1

> <i_epik_Tot_abs_Q>
3

> <r_epik_Metal_State_Penalty>
0.225911

> <b_epik_Metal_Only>
1

> <s_epik_Chemistry_Notes>
This compound contains an acetal/aminal-like group ( X-CH(R)-Y where X, Y are N, S, or O) that may be acid/base labile, releasing an aldehyde.

> <s_lp_Force_Field>
OPLS_2005

> <r_lp_Energy>
40.5793

> <b_lp_Chiralities_Consistent>
1

> <s_lp_Variant>
AV-unprocessed.smi:39-14

> <Gold.Version>
5.8.1

> <Gold.Id.Protein>
6NUR|6NUR_protein|mol2

> <Gold.PLP.Fitness>
41.9657

> <Gold.PLP.PLP>
-27.4253

> <Gold.PLP.part.hbond>
-6.6223

> <Gold.PLP.part.metal>
0.0000

> <Gold.PLP.part.buried>
-4.0258

> <Gold.PLP.part.nonpolar>
-17.0670

> <Gold.PLP.part.repulsive>
0.1562

> <Gold.PLP.ligand.clash>
0.0000

> <Gold.PLP.ligand.torsion>
0.5832

> <Gold.PLP.Chemscore.Hbond>
5.2159

> <Gold.PLP.Chemscore.CHOScore>
0.0000

> <Gold.PLP.Chemscore.Metal>
0.0000

> <Gold.Chemscore.Hbonds>
donor molecule, donor type, donor heavy atom, donor atom, acceptor molecule, acceptor atom, score
      L1  H    13    31       P1  8028  1.00
      P1  H  6934  6946       L1    10  0.38
      P1  H  7989  7998       L1    14  0.78
      P1  H  7997  8010       L1    16  0.77
      P1  H 10752 10765       L1    17  1.89

> <Gold.PLP.Chemscore.Internal.Correction>
0.0593

> <Gold.Rescore>
     Score         DG    S(hbond)    S(metal)    S(lipo)     H(rot)  DE(clash)    DE(int)     intcor
     12.23     -14.18       3.46        0.00      34.93       2.72       0.03       1.92       ----

> <Gold.Chemscore.Fitness>
12.2266

> <Gold.Chemscore.DG>
-14.1761

> <Gold.Chemscore.ZeroCoef>
-5.4800

> <Gold.Chemscore.Hbond>
3.4612

> <Gold.Chemscore.Metal>
0.0000

> <Gold.Chemscore.Lipo>
34.9316

> <Gold.Chemscore.Internal_Hbond>
0.0000

> <Gold.Chemscore.DEClash>
0.0310

> <Gold.Chemscore.DEInternal>
1.9185

> <Gold.Chemscore.Rot>
2.7153

> <Gold.Chemscore.Internal.Correction>
   9.000000E+99

> <Gold.Chemscore.Hbonds>
donor molecule, donor type, donor heavy atom, donor atom, acceptor molecule, acceptor atom, score
      L1  H    13    31       P1  8028  0.74
      P1  H  6934  6946       L1    10  0.36
      P1  H  7989  7998       L1    14  0.11
      P1  H  7997  8010       L1    16  0.52
      P1  H 10752 10765       L1    17  0.54

> <Gold.Chemscore.Hbond.Weighted>
-11.5603

> <Gold.Chemscore.Metal.Weighted>
-0.0000

> <Gold.Chemscore.Lipo.Weighted>
-4.0870

> <Gold.Chemscore.Internal_Hbond.Weighted>
0.0000

> <Gold.Chemscore.DEClash.Weighted>
0.0310

> <Gold.Chemscore.DEInternal.Weighted>
1.9185

> <Gold.Chemscore.Rot.Weighted>
6.9512

> <Gold.Chemscore.Internal.Correction.Weighted>
   9.000000E+99

> <Gold.Protein.RotatedTorsions>
[ 6907 6896 6895 6894 ] final   26.19 input  -60.11 | X-H torsion
[ 7974 7965 7964 7962 ] final  128.86 input  175.53 | X-H torsion
[ 8008 7997 7996 7995 ] final   91.83 input   59.86 | X-H torsion
[ 10167 10162 10161 10158 ] final  116.11 input  -65.29 | X-H torsion
[ 10718 10713 10712 10709 ] final  -45.81 input   66.30 | X-H torsion
[ 10763 10752 10751 10750 ] final -145.36 input  -60.55 | X-H torsion
[ 11005 11000 10999 10996 ] final -109.20 input  -57.11 | X-H torsion

> <Gold.Protein.ActiveResidues>
 VAL166  LYS551  ARG553  GLY616  TRP617  ASP618  TYR619  PRO620  LYS621  CYS622 
 ASP623  PHE694  ASN695  SER759  ASP760  ASP761  ALA762  ILE779  LEU786  VAL792 
 PHE793  MET794  SER795  GLU796  ALA797  LYS798  CYS799  TRP800  GLU811  SER814 

> <Gold.Protein.RotatedAtoms>
  151.9837  135.0015  160.0558 H   0  0  0  0  0  0  0  0  0  0  0  0  # atno 6907 bound_to 6896
  152.1672  133.4615  159.4899 H   0  0  0  0  0  0  0  0  0  0  0  0  # atno 6908 bound_to 6896
  150.6896  134.1915  159.4330 H   0  0  0  0  0  0  0  0  0  0  0  0  # atno 6909 bound_to 6896
  145.0349  139.4013  143.5131 H   0  0  0  0  0  0  0  0  0  0  0  0  # atno 7974 bound_to 7965
  156.0283  140.3333  155.7112 H   0  0  0  0  0  0  0  0  0  0  0  0  # atno 8008 bound_to 7997
  155.5922  140.0647  157.2773 H   0  0  0  0  0  0  0  0  0  0  0  0  # atno 8009 bound_to 7997
  154.4343  140.1825  156.1074 H   0  0  0  0  0  0  0  0  0  0  0  0  # atno 8010 bound_to 7997
  139.6270  144.7110  151.2513 H   0  0  0  0  0  0  0  0  0  0  0  0  # atno 10167 bound_to 10162
  156.2246  130.4168  149.8950 H   0  0  0  0  0  0  0  0  0  0  0  0  # atno 10718 bound_to 10713
  154.8386  135.3415  154.6493 H   0  0  0  0  0  0  0  0  0  0  0  0  # atno 10763 bound_to 10752
  153.7105  135.6964  153.5043 H   0  0  0  0  0  0  0  0  0  0  0  0  # atno 10764 bound_to 10752
  153.2455  135.4370  155.0696 H   0  0  0  0  0  0  0  0  0  0  0  0  # atno 10765 bound_to 10752
  141.0860  133.9137  157.2184 H   0  0  0  0  0  0  0  0  0  0  0  0  # atno 11005 bound_to 11000
  146.3503  139.9919  142.8685 LP  0  0  0  0  0  0  0  0  0  0  0  0  # atno 17320 bound_to 7965
  145.1722  140.9726  143.4315 LP  0  0  0  0  0  0  0  0  0  0  0  0  # atno 17321 bound_to 7965
  140.7417  143.6550  150.8215 LP  0  0  0  0  0  0  0  0  0  0  0  0  # atno 17342 bound_to 10162
  140.0169  143.5583  152.2816 LP  0  0  0  0  0  0  0  0  0  0  0  0  # atno 17343 bound_to 10162
  156.6585  130.8772  151.3543 LP  0  0  0  0  0  0  0  0  0  0  0  0  # atno 17370 bound_to 10713
  157.7104  130.9433  150.1070 LP  0  0  0  0  0  0  0  0  0  0  0  0  # atno 17371 bound_to 10713
  139.9679  135.0137  156.9435 LP  0  0  0  0  0  0  0  0  0  0  0  0  # atno 17394 bound_to 11000
  140.5361  134.0766  155.7328 LP  0  0  0  0  0  0  0  0  0  0  0  0  # atno 17395 bound_to 11000

$$$$
