#       Name:                AV-unprocessed.smi:1033
#       Creating user name   scv26
#       Creation time:       Fri Mar 27 02:50:16 2020


#       File generated by GOLD software.
#

@<TRIPOS>MOLECULE
AV-unprocessed.smi:1033
    62    64     1
SMALL
NO_CHARGES


@<TRIPOS>ATOM
      1 ****        -6.6795   0.3218   1.2430 C.3            1 S1                 0.0000
      2 ****        -5.4666   0.7079   0.4134 C.ar           1 S1                 0.0000
      3 ****        -5.6742   1.2152  -0.8894 C.ar           1 S1                 0.0000
      4 ****        -4.5455   1.5603  -1.6231 C.ar           1 S1                 0.0000
      5 ****        -4.4146   2.0776  -2.9139 N.pl3          1 S1                 1.0000
      6 ****        -3.0950   2.2560  -3.2003 C.2            1 S1                 0.0000
      7 ****        -2.3825   1.8590  -2.1112 N.pl3          1 S1                 0.0000
      8 ****        -0.9310   1.8381  -1.8893 C.3            1 S1                 0.0000
      9 ****        -0.3123   0.4425  -2.1001 C.3            1 S1                 0.0000
     10 ****        -0.5820   0.0141  -3.4205 O.3            1 S1                 0.0000
     11 ****         1.2148   0.4681  -1.8939 C.3            1 S1                 0.0000
     12 ****         1.8707  -0.8453  -1.8631 N.3            1 S1                 0.0000
     13 ****         3.3269  -0.7487  -1.9599 C.3            1 S1                 0.0000
     14 ****         3.9871  -0.1908  -0.6824 C.3            1 S1                 0.0000
     15 ****         3.6274  -1.0233   0.4943 N.4            1 S1                 1.0000
     16 ****         4.2956  -0.5625   1.7383 C.3            1 S1                 0.0000
     17 ****         4.4046  -1.6723   2.8026 C.3            1 S1                 0.0000
     18 ****         4.9859  -1.1492   4.1223 C.3            1 S1                 0.0000
     19 ****         5.2531  -2.6962   2.3235 O.3            1 S1                 0.0000
     20 ****         2.1499  -1.1454   0.6193 C.3            1 S1                 0.0000
     21 ****         1.5413  -1.6708  -0.6972 C.3            1 S1                 0.0000
     22 ****        -3.2447   1.4171  -1.1030 C.ar           1 S1                 0.0000
     23 ****        -3.0214   0.9181   0.1778 C.ar           1 S1                 0.0000
     24 ****        -4.1567   0.5602   0.9395 C.ar           1 S1                 0.0000
     25 ****        -3.9452   0.0116   2.3404 C.3            1 S1                 0.0000
     26 ****        -7.6084   0.5078   0.7031 H              1 S1                 0.0000
     27 ****        -6.7109   0.8991   2.1674 H              1 S1                 0.0000
     28 ****        -6.6480  -0.7381   1.4966 H              1 S1                 0.0000
     29 ****        -6.6681   1.3293  -1.2971 H              1 S1                 0.0000
     30 ****        -2.6870   2.6390  -4.1247 H              1 S1                 0.0000
     31 ****        -0.4852   2.5584  -2.5768 H              1 S1                 0.0000
     32 ****        -0.7318   2.2071  -0.8825 H              1 S1                 0.0000
     33 ****        -0.7862  -0.2540  -1.4104 H              1 S1                 0.0000
     34 ****        -0.1851  -0.8346  -3.5464 H              1 S1                 0.0000
     35 ****         1.6504   1.0678  -2.6946 H              1 S1                 0.0000
     36 ****         1.4357   1.0117  -0.9760 H              1 S1                 0.0000
     37 ****         3.7358  -1.7393  -2.1641 H              1 S1                 0.0000
     38 ****         3.6016  -0.1337  -2.8179 H              1 S1                 0.0000
     39 ****         5.0701  -0.1907  -0.8108 H              1 S1                 0.0000
     40 ****         3.6916   0.8453  -0.5108 H              1 S1                 0.0000
     41 ****         5.3003  -0.2061   1.5049 H              1 S1                 0.0000
     42 ****         3.7545   0.2974   2.1363 H              1 S1                 0.0000
     43 ****         3.4272  -2.1067   3.0093 H              1 S1                 0.0000
     44 ****         4.3549  -0.3666   4.5446 H              1 S1                 0.0000
     45 ****         5.9836  -0.7315   3.9819 H              1 S1                 0.0000
     46 ****         5.0595  -1.9464   4.8630 H              1 S1                 0.0000
     47 ****         6.1342  -2.3583   2.2627 H              1 S1                 0.0000
     48 ****         1.8970  -1.8383   1.4206 H              1 S1                 0.0000
     49 ****         1.7147  -0.1836   0.8926 H              1 S1                 0.0000
     50 ****         0.4632  -1.7784  -0.5906 H              1 S1                 0.0000
     51 ****         1.9125  -2.6821  -0.8692 H              1 S1                 0.0000
     52 ****        -2.0244   0.8068   0.5773 H              1 S1                 0.0000
     53 ****        -2.8850  -0.0537   2.5874 H              1 S1                 0.0000
     54 ****        -4.3694  -0.9889   2.4285 H              1 S1                 0.0000
     55 ****        -4.4206   0.6564   3.0797 H              1 S1                 0.0000
     56 ****         3.9850  -1.9487   0.3032 H              1 S1                 0.0000
     57 ****        -5.1672   2.2932  -3.5549 H              1 S1                 0.0000
     58 ****        -0.1967   0.6670  -4.0726 LP             1 S1                 0.0000
     59 ****        -1.5702  -0.0515  -3.5589 LP             1 S1                 0.0000
     60 ****         1.4998  -1.2999  -2.6730 LP             1 S1                 0.0000
     61 ****         4.9441  -2.9936   1.4201 LP             1 S1                 0.0000
     62 ****         5.2334  -3.4718   2.9545 LP             1 S1                 0.0000
@<TRIPOS>BOND
    1    1    2 1     
    2    1   26 1     
    3    1   27 1     
    4    1   28 1     
    5    2   24 ar    
    6    2    3 ar    
    7    3    4 ar    
    8    3   29 1     
    9    4   22 ar    
   10    4    5 1     
   11    5    6 2     
   12    5   57 1     
   13    6    7 1     
   14    6   30 1     
   15    7    8 1     
   16    7   22 1     
   17    8    9 1     
   18    8   31 1     
   19    8   32 1     
   20    9   10 1     
   21    9   11 1     
   22    9   33 1     
   23   10   34 1     
   24   11   12 1     
   25   11   35 1     
   26   11   36 1     
   27   12   21 1     
   28   12   13 1     
   29   13   14 1     
   30   13   37 1     
   31   13   38 1     
   32   14   15 1     
   33   14   39 1     
   34   14   40 1     
   35   15   16 1     
   36   15   20 1     
   37   15   56 1     
   38   16   17 1     
   39   16   41 1     
   40   16   42 1     
   41   17   18 1     
   42   17   19 1     
   43   17   43 1     
   44   18   44 1     
   45   18   45 1     
   46   18   46 1     
   47   19   47 1     
   48   20   21 1     
   49   20   48 1     
   50   20   49 1     
   51   21   50 1     
   52   21   51 1     
   53   22   23 ar    
   54   23   24 ar    
   55   23   52 1     
   56   24   25 1     
   57   25   53 1     
   58   25   54 1     
   59   25   55 1     
   60   10   58 1     
   61   10   59 1     
   62   12   60 1     
   63   19   61 1     
   64   19   62 1     
@<TRIPOS>SUBSTRUCTURE
      1 S1             1
@<TRIPOS>SET
LONE_PAIRS      STATIC     ATOMS    <user>   **** ""
5 58 59 60 61 62
DONOR_HYDROGENS      STATIC     ATOMS    <user>   **** ""
4 57 34 56 47
ATOM$BLUE        STATIC     ATOMS    COLORGROUP SYSTEM
5 58 59 60 61 62
ATOM$RED        STATIC     ATOMS    COLORGROUP SYSTEM
4 57 34 56 47
