AV-unprocessed.smi:1421|AV-procd|sdf|5791|dock8
  -GOLD-   22720 5443D 1   1.00000     0.00000
 Structure written by MMmdl.
 44 45  0  0  0  0  0  0  0  0  2 V2000
  147.0278  134.8100  161.0672 C   0  0  0  0  0  0  0  0  0  0  0  0
  148.1930  136.1733  160.6384 S   0  0  0  0  0  0  0  0  0  0  0  0
  148.7276  136.6336  161.9286 O   0  0  0  0  0  0  0  0  0  0  0  0
  149.1607  135.6032  159.6858 O   0  0  0  0  0  0  0  0  0  0  0  0
  147.2040  137.2885  159.9871 N   0  5  0  0  0  0  0  0  0  0  0  0
  146.2918  136.9500  158.9041 C   0  0  0  0  0  0  0  0  0  0  0  0
  146.9871  137.1865  157.5457 C   0  0  0  0  0  0  0  0  0  0  0  0
  147.6514  138.5664  157.4249 C   0  0  0  0  0  0  0  0  0  0  0  0
  148.8313  138.6724  157.0823 O   0  0  0  0  0  0  0  0  0  0  0  0
  146.8896  139.6233  157.7470 N   0  0  0  0  0  0  0  0  0  0  0  0
  147.3293  141.0108  157.6882 C   0  0  0  0  0  0  0  0  0  0  0  0
  146.9882  141.6813  156.3596 C   0  0  0  0  0  0  0  0  0  0  0  0
  145.8190  142.4692  156.2588 C   0  0  0  0  0  0  0  0  0  0  0  0
  145.4872  143.0609  155.0272 C   0  0  0  0  0  0  0  0  0  0  0  0
  146.3374  142.8353  153.9309 C   0  0  0  0  0  0  0  0  0  0  0  0
  147.4532  142.0816  154.0060 N   0  0  0  0  0  0  0  0  0  0  0  0
  147.7802  141.5101  155.1910 C   0  0  0  0  0  0  0  0  0  0  0  0
  148.9661  140.7554  155.2320 N   0  0  0  0  0  0  0  0  0  0  0  0
  149.2836  139.9588  154.0517 C   0  0  0  0  0  0  0  0  0  0  0  0
  150.4893  139.0504  154.3479 C   0  0  0  0  0  0  0  0  0  0  0  0
  151.5917  139.8462  154.7754 O   0  0  0  0  0  0  0  0  0  0  0  0
  151.2998  140.5738  155.9658 C   0  0  0  0  0  0  0  0  0  0  0  0
  150.1097  141.5168  155.7186 C   0  0  0  0  0  0  0  0  0  0  0  0
  147.5698  134.0356  161.6085 H   0  0  0  0  0  0  0  0  0  0  0  0
  146.6044  134.3798  160.1605 H   0  0  0  0  0  0  0  0  0  0  0  0
  146.2288  135.1989  161.6975 H   0  0  0  0  0  0  0  0  0  0  0  0
  145.9667  135.9106  158.9608 H   0  0  0  0  0  0  0  0  0  0  0  0
  145.3820  137.5502  158.9498 H   0  0  0  0  0  0  0  0  0  0  0  0
  147.7381  136.4130  157.3746 H   0  0  0  0  0  0  0  0  0  0  0  0
  146.2611  137.0885  156.7374 H   0  0  0  0  0  0  0  0  0  0  0  0
  145.9377  139.4542  158.0378 H   0  0  0  0  0  0  0  0  0  0  0  0
  146.9004  141.5375  158.5397 H   0  0  0  0  0  0  0  0  0  0  0  0
  148.4125  141.0532  157.8113 H   0  0  0  0  0  0  0  0  0  0  0  0
  145.1751  142.6166  157.1136 H   0  0  0  0  0  0  0  0  0  0  0  0
  144.6001  143.6681  154.9241 H   0  0  0  0  0  0  0  0  0  0  0  0
  146.1164  143.2703  152.9675 H   0  0  0  0  0  0  0  0  0  0  0  0
  148.4198  139.3574  153.7661 H   0  0  0  0  0  0  0  0  0  0  0  0
  149.5171  140.6151  153.2120 H   0  0  0  0  0  0  0  0  0  0  0  0
  150.2416  138.3122  155.1126 H   0  0  0  0  0  0  0  0  0  0  0  0
  150.7745  138.4990  153.4520 H   0  0  0  0  0  0  0  0  0  0  0  0
  151.0848  139.8833  156.7830 H   0  0  0  0  0  0  0  0  0  0  0  0
  152.1797  141.1477  156.2568 H   0  0  0  0  0  0  0  0  0  0  0  0
  150.3788  142.2714  154.9781 H   0  0  0  0  0  0  0  0  0  0  0  0
  149.8548  142.0469  156.6370 H   0  0  0  0  0  0  0  0  0  0  0  0
  1  2  1  0  0  0  0
  1 24  1  0  0  0  0
  1 25  1  0  0  0  0
  1 26  1  0  0  0  0
  2  3  2  0  0  0  0
  2  4  2  0  0  0  0
  2  5  1  0  0  0  0
  5  6  1  0  0  0  0
  6  7  1  0  0  0  0
  6 27  1  0  0  0  0
  6 28  1  0  0  0  0
  7  8  1  0  0  0  0
  7 29  1  0  0  0  0
  7 30  1  0  0  0  0
  8  9  2  0  0  0  0
  8 10  1  0  0  0  0
 10 11  1  0  0  0  0
 10 31  1  0  0  0  0
 11 12  1  0  0  0  0
 11 32  1  0  0  0  0
 11 33  1  0  0  0  0
 12 17  1  0  0  0  0
 12 13  2  0  0  0  0
 13 14  1  0  0  0  0
 13 34  1  0  0  0  0
 14 15  2  0  0  0  0
 14 35  1  0  0  0  0
 15 16  1  0  0  0  0
 15 36  1  0  0  0  0
 16 17  2  0  0  0  0
 17 18  1  0  0  0  0
 18 23  1  0  0  0  0
 18 19  1  0  0  0  0
 19 20  1  0  0  0  0
 19 37  1  0  0  0  0
 19 38  1  0  0  0  0
 20 21  1  0  0  0  0
 20 39  1  0  0  0  0
 20 40  1  0  0  0  0
 21 22  1  0  0  0  0
 22 23  1  0  0  0  0
 22 41  1  0  0  0  0
 22 42  1  0  0  0  0
 23 43  1  0  0  0  0
 23 44  1  0  0  0  0
M  CHG  1   5  -1
M  END
> <s_m_source_file>
AV-unprocessed.smi

> <i_m_source_file_index>
1421

> <i_lp_mmshare_version>
43012

> <i_f3d_flags>
0

> <s_epik_input>
W0NIM11TKD1PKSg9TylbTkhdW0NIMl1bQ0gyXUMoPU8pW05IXVtDSDJdYzFbY0hdW2NIXVtjSF1uYzFOMltDSDJdW0NIMl1PW0NIMl1bQ0gyXTI=

> <s_epik_cmdline>
J2VwaWtfcHl0aG9uJywgJy1waCcsICc3LjAnLCAnLXRuJywgJzgnLCAnLW1hJywgJzIwMCcsICctbWV0YWxfYmluZGluZycsICctaW1hZScsICc8aW5maWxlLm1hZT4nLCAnLW9tYWUnLCAnPG91dGZpbGUubWFlPic=

> <r_lp_tautomer_probability>
1

> <r_epik_Ionization_Penalty>
6.31253

> <r_epik_Ionization_Penalty_Charging>
6.30704

> <r_epik_Ionization_Penalty_Neutral>
0.00548981

> <r_epik_State_Penalty>
6.31049

> <r_epik_Charging_Adjusted_Penalty>
12.6175

> <i_epik_Tot_Q>
-1

> <i_epik_Tot_abs_Q>
1

> <r_epik_Metal_State_Penalty>
2.24651

> <b_epik_Metal_Only>
1

> <s_lp_Force_Field>
OPLS_2005

> <r_lp_Energy>
12.571

> <b_lp_Chiralities_Consistent>
1

> <s_lp_Variant>
AV-unprocessed.smi:1421-2

> <Gold.Version>
5.8.1

> <Gold.Id.Protein>
6NUR|6NUR_protein|mol2

> <Gold.PLP.Fitness>
43.8956

> <Gold.PLP.PLP>
-31.8709

> <Gold.PLP.part.hbond>
-4.0000

> <Gold.PLP.part.metal>
0.0000

> <Gold.PLP.part.buried>
-4.2704

> <Gold.PLP.part.nonpolar>
-24.5319

> <Gold.PLP.part.repulsive>
0.4048

> <Gold.PLP.ligand.clash>
0.0000

> <Gold.PLP.ligand.torsion>
2.0022

> <Gold.PLP.Chemscore.Hbond>
4.9262

> <Gold.PLP.Chemscore.CHOScore>
0.0000

> <Gold.PLP.Chemscore.Metal>
0.0000

> <Gold.Chemscore.Hbonds>
donor molecule, donor type, donor heavy atom, donor atom, acceptor molecule, acceptor atom, score
      P1  H  6896  6909       L1     4  1.00
      P1  H  6931  6943       L1     3  1.00
      P1  H  6934  6947       L1     5  2.00
      P1  H  7989  7998       L1    21  0.90

> <Gold.PLP.Chemscore.Internal.Correction>
1.2502

> <Gold.Rescore>
     Score         DG    S(hbond)    S(metal)    S(lipo)     H(rot)  DE(clash)    DE(int)     intcor
     10.84     -14.42       2.69        0.00      53.57       2.46       0.27       3.32       ----

> <Gold.Chemscore.Fitness>
10.8362

> <Gold.Chemscore.DG>
-14.4207

> <Gold.Chemscore.ZeroCoef>
-5.4800

> <Gold.Chemscore.Hbond>
2.6878

> <Gold.Chemscore.Metal>
0.0000

> <Gold.Chemscore.Lipo>
53.5689

> <Gold.Chemscore.Internal_Hbond>
0.0000

> <Gold.Chemscore.DEClash>
0.2656

> <Gold.Chemscore.DEInternal>
3.3189

> <Gold.Chemscore.Rot>
2.4625

> <Gold.Chemscore.Internal.Correction>
   9.000000E+99

> <Gold.Chemscore.Hbonds>
donor molecule, donor type, donor heavy atom, donor atom, acceptor molecule, acceptor atom, score
      P1  H  6896  6909       L1     4  0.99
      P1  H  6931  6943       L1     3  0.82
      P1  H  6934  6947       L1     5  0.86
      P1  H  7989  7998       L1    21  0.13

> <Gold.Chemscore.Hbond.Weighted>
-8.9771

> <Gold.Chemscore.Metal.Weighted>
-0.0000

> <Gold.Chemscore.Lipo.Weighted>
-6.2676

> <Gold.Chemscore.Internal_Hbond.Weighted>
0.0000

> <Gold.Chemscore.DEClash.Weighted>
0.2656

> <Gold.Chemscore.DEInternal.Weighted>
3.3189

> <Gold.Chemscore.Rot.Weighted>
6.3040

> <Gold.Chemscore.Internal.Correction.Weighted>
   9.000000E+99

> <Gold.Protein.RotatedTorsions>
[ 6907 6896 6895 6894 ] final   53.32 input  -60.11 | X-H torsion
[ 7974 7965 7964 7962 ] final  -36.95 input  175.53 | X-H torsion
[ 8008 7997 7996 7995 ] final  178.60 input   59.86 | X-H torsion
[ 10167 10162 10161 10158 ] final  158.44 input  -65.29 | X-H torsion
[ 10718 10713 10712 10709 ] final -167.03 input   66.30 | X-H torsion
[ 10763 10752 10751 10750 ] final   66.77 input  -60.55 | X-H torsion
[ 11005 11000 10999 10996 ] final   38.30 input  -57.11 | X-H torsion

> <Gold.Protein.ActiveResidues>
 VAL166  LYS551  ARG553  GLY616  TRP617  ASP618  TYR619  PRO620  LYS621  CYS622 
 ASP623  PHE694  ASN695  SER759  ASP760  ASP761  ALA762  ILE779  LEU786  VAL792 
 PHE793  MET794  SER795  GLU796  ALA797  LYS798  CYS799  TRP800  GLU811  SER814 

> <Gold.Protein.RotatedAtoms>
  152.3325  134.7241  160.0285 H   0  0  0  0  0  0  0  0  0  0  0  0  # atno 6907 bound_to 6896
  151.7653  133.3331  159.3437 H   0  0  0  0  0  0  0  0  0  0  0  0  # atno 6908 bound_to 6896
  150.7431  134.6000  159.6076 H   0  0  0  0  0  0  0  0  0  0  0  0  # atno 6909 bound_to 6896
  146.0617  140.6338  142.8994 H   0  0  0  0  0  0  0  0  0  0  0  0  # atno 7974 bound_to 7965
  156.0529  140.1329  157.0030 H   0  0  0  0  0  0  0  0  0  0  0  0  # atno 8008 bound_to 7997
  154.4443  140.1007  156.6473 H   0  0  0  0  0  0  0  0  0  0  0  0  # atno 8009 bound_to 7997
  155.5496  140.3462  155.4467 H   0  0  0  0  0  0  0  0  0  0  0  0  # atno 8010 bound_to 7997
  139.4827  144.4824  151.8425 H   0  0  0  0  0  0  0  0  0  0  0  0  # atno 10167 bound_to 10162
  156.6765  130.9105  151.3051 H   0  0  0  0  0  0  0  0  0  0  0  0  # atno 10718 bound_to 10713
  153.0155  135.5308  154.6876 H   0  0  0  0  0  0  0  0  0  0  0  0  # atno 10763 bound_to 10752
  154.6019  135.2869  155.0528 H   0  0  0  0  0  0  0  0  0  0  0  0  # atno 10764 bound_to 10752
  154.1582  135.6552  153.5032 H   0  0  0  0  0  0  0  0  0  0  0  0  # atno 10765 bound_to 10752
  140.2140  134.3721  155.8035 H   0  0  0  0  0  0  0  0  0  0  0  0  # atno 11005 bound_to 11000
  144.7179  140.4273  143.7030 LP  0  0  0  0  0  0  0  0  0  0  0  0  # atno 17320 bound_to 7965
  145.6548  139.1571  143.2842 LP  0  0  0  0  0  0  0  0  0  0  0  0  # atno 17321 bound_to 7965
  140.4301  144.2127  150.5888 LP  0  0  0  0  0  0  0  0  0  0  0  0  # atno 17342 bound_to 10162
  140.4788  143.2386  151.8985 LP  0  0  0  0  0  0  0  0  0  0  0  0  # atno 17343 bound_to 10162
  157.7059  130.9384  150.0929 LP  0  0  0  0  0  0  0  0  0  0  0  0  # atno 17370 bound_to 10713
  156.1899  130.3654  149.8923 LP  0  0  0  0  0  0  0  0  0  0  0  0  # atno 17371 bound_to 10713
  141.2225  133.7158  156.8465 LP  0  0  0  0  0  0  0  0  0  0  0  0  # atno 17394 bound_to 11000
  140.1920  134.8958  157.3071 LP  0  0  0  0  0  0  0  0  0  0  0  0  # atno 17395 bound_to 11000

$$$$
