AV-unprocessed.smi:2124|AV-procd|sdf|8660|dock2
  -GOLD-   2272011413D 1   1.00000     0.00000
 Structure written by MMmdl.
 47 49  0  0  0  0  0  0  0  0  1 V2000
  143.6467  139.2069  156.4875 C   0  0  0  0  0  0  0  0  0  0  0  0
  144.9245  139.8881  156.0477 C   0  0  0  0  0  0  0  0  0  0  0  0
  145.2920  139.5928  154.7453 N   0  0  0  0  0  0  0  0  0  0  0  0
  146.4576  140.1567  154.2575 C   0  0  0  0  0  0  0  0  0  0  0  0
  146.7941  139.7723  152.8273 C   0  0  0  0  0  0  0  0  0  0  0  0
  147.2116  140.9843  155.0247 C   0  0  0  0  0  0  0  0  0  0  0  0
  148.5043  141.6296  154.5261 C   0  0  0  0  0  0  0  0  0  0  0  0
  149.7798  141.2846  155.2996 C   0  0  0  0  0  0  0  0  0  0  0  0
  150.5604  140.4317  154.8758 O   0  0  0  0  0  0  0  0  0  0  0  0
  149.9757  141.9721  156.4356 N   0  0  0  0  0  0  0  0  0  0  0  0
  151.1215  141.8421  157.3348 C   0  0  2  0  0  0  0  0  0  0  0  0
  151.2072  140.3786  157.7998 C   0  0  0  0  0  0  0  0  0  0  0  0
  150.9853  142.8297  158.5207 C   0  0  1  0  0  0  0  0  0  0  0  0
  152.1033  142.6788  159.5819 C   0  0  0  0  0  0  0  0  0  0  0  0
  152.6689  144.1043  159.7087 C   0  0  2  0  0  0  0  0  0  0  0  0
  151.6306  145.0126  160.3912 C   0  0  0  0  0  0  0  0  0  0  0  0
  150.5651  145.1894  159.2938 C   0  0  0  0  0  0  0  0  0  0  0  0
  151.1169  144.3286  158.1415 C   0  0  1  0  0  0  0  0  0  0  0  0
  152.6150  144.5845  158.2646 C   0  0  0  0  0  0  0  0  0  0  0  0
  146.7549  141.2815  156.4028 C   0  0  0  0  0  0  0  0  0  0  0  0
  147.3803  142.0452  157.1374 O   0  0  0  0  0  0  0  0  0  0  0  0
  145.5753  140.6685  156.8561 N   0  0  0  0  0  0  0  0  0  0  0  0
  144.7593  138.9852  154.1396 H   0  0  0  0  0  0  0  0  0  0  0  0
  143.4823  139.3399  157.5577 H   0  0  0  0  0  0  0  0  0  0  0  0
  143.6927  138.1369  156.2818 H   0  0  0  0  0  0  0  0  0  0  0  0
  142.7926  139.6264  155.9552 H   0  0  0  0  0  0  0  0  0  0  0  0
  147.7429  139.2368  152.7894 H   0  0  0  0  0  0  0  0  0  0  0  0
  146.8738  140.6622  152.2022 H   0  0  0  0  0  0  0  0  0  0  0  0
  146.0288  139.1269  152.3940 H   0  0  0  0  0  0  0  0  0  0  0  0
  148.3863  142.7129  154.5522 H   0  0  0  0  0  0  0  0  0  0  0  0
  148.6593  141.3934  153.4725 H   0  0  0  0  0  0  0  0  0  0  0  0
  149.2770  142.6535  156.6948 H   0  0  0  0  0  0  0  0  0  0  0  0
  152.0438  142.0701  156.7981 H   0  0  0  0  0  0  0  0  0  0  0  0
  152.0698  140.2100  158.4443 H   0  0  0  0  0  0  0  0  0  0  0  0
  151.3032  139.7031  156.9491 H   0  0  0  0  0  0  0  0  0  0  0  0
  150.3165  140.0857  158.3566 H   0  0  0  0  0  0  0  0  0  0  0  0
  150.0123  142.6618  158.9858 H   0  0  0  0  0  0  0  0  0  0  0  0
  151.7263  142.2946  160.5303 H   0  0  0  0  0  0  0  0  0  0  0  0
  152.8895  142.0030  159.2433 H   0  0  0  0  0  0  0  0  0  0  0  0
  153.6556  144.1433  160.1711 H   0  0  0  0  0  0  0  0  0  0  0  0
  151.2242  144.5647  161.2987 H   0  0  0  0  0  0  0  0  0  0  0  0
  152.0698  145.9745  160.6586 H   0  0  0  0  0  0  0  0  0  0  0  0
  149.5737  144.8709  159.6179 H   0  0  0  0  0  0  0  0  0  0  0  0
  150.4961  146.2360  158.9941 H   0  0  0  0  0  0  0  0  0  0  0  0
  150.6877  144.5973  157.1766 H   0  0  0  0  0  0  0  0  0  0  0  0
  152.8852  145.6354  158.1476 H   0  0  0  0  0  0  0  0  0  0  0  0
  153.2184  143.9831  157.5827 H   0  0  0  0  0  0  0  0  0  0  0  0
  1 24  1  0  0  0  0
  1 25  1  0  0  0  0
  1 26  1  0  0  0  0
  1  2  1  0  0  0  0
  2  3  1  0  0  0  0
  2 22  2  0  0  0  0
  3  4  1  0  0  0  0
  3 23  1  0  0  0  0
  4  6  2  0  0  0  0
  4  5  1  0  0  0  0
  5 27  1  0  0  0  0
  5 28  1  0  0  0  0
  5 29  1  0  0  0  0
  6 20  1  0  0  0  0
  6  7  1  0  0  0  0
  7  8  1  0  0  0  0
  7 30  1  0  0  0  0
  7 31  1  0  0  0  0
  8  9  2  0  0  0  0
  8 10  1  0  0  0  0
 10 11  1  0  0  0  0
 10 32  1  0  0  0  0
 11 12  1  0  0  0  0
 11 13  1  0  0  0  0
 11 33  1  0  0  0  0
 12 34  1  0  0  0  0
 12 35  1  0  0  0  0
 12 36  1  0  0  0  0
 13 18  1  0  0  0  0
 13 14  1  0  0  0  0
 13 37  1  0  0  0  0
 14 15  1  0  0  0  0
 14 38  1  0  0  0  0
 14 39  1  0  0  0  0
 15 19  1  0  0  0  0
 15 16  1  0  0  0  0
 15 40  1  0  0  0  0
 16 17  1  0  0  0  0
 16 41  1  0  0  0  0
 16 42  1  0  0  0  0
 17 18  1  0  0  0  0
 17 43  1  0  0  0  0
 17 44  1  0  0  0  0
 18 19  1  0  0  0  0
 18 45  1  0  0  0  0
 19 46  1  0  0  0  0
 19 47  1  0  0  0  0
 20 21  2  0  0  0  0
 20 22  1  0  0  0  0
M  END
> <s_m_source_file>
AV-unprocessed.smi

> <i_m_source_file_index>
2124

> <i_lp_mmshare_version>
43012

> <i_f3d_flags>
0

> <s_epik_input>
W0NIM11jMW5jKFtDSDNdKWMoYyg9TylbbkhdMSlbQ0gyXUMoPU8pW05IXVtDQEhdKFtDSDNdKVtDQEhdKFtDSDJdW0NASF0yMylbQ0BIXShbQ0gyXTMpW0NIMl1bQ0gyXTI=

> <s_epik_cmdline>
J2VwaWtfcHl0aG9uJywgJy1waCcsICc3LjAnLCAnLXRuJywgJzgnLCAnLW1hJywgJzIwMCcsICctbWV0YWxfYmluZGluZycsICctaW1hZScsICc8aW5maWxlLm1hZT4nLCAnLW9tYWUnLCAnPG91dGZpbGUubWFlPic=

> <r_lp_tautomer_probability>
0.156392

> <r_epik_Ionization_Penalty>
0.0139374

> <r_epik_Ionization_Penalty_Charging>
0.0138122

> <r_epik_Ionization_Penalty_Neutral>
0.000125146

> <r_epik_State_Penalty>
1.15342

> <r_epik_Charging_Adjusted_Penalty>
1.16723

> <i_epik_Tot_Q>
0

> <i_epik_Tot_abs_Q>
0

> <r_epik_Metal_State_Penalty>
1.3173

> <b_epik_Metal_Only>
0

> <s_lp_Force_Field>
OPLS_2005

> <r_lp_Energy>
56.0933

> <b_lp_Chiralities_Consistent>
1

> <s_lp_Variant>
AV-unprocessed.smi:2124-11

> <Gold.Version>
5.8.1

> <Gold.Id.Protein>
6NUR|6NUR_protein|mol2

> <Gold.PLP.Fitness>
47.9549

> <Gold.PLP.PLP>
-43.6149

> <Gold.PLP.part.hbond>
-3.0000

> <Gold.PLP.part.metal>
0.0000

> <Gold.PLP.part.buried>
-2.5287

> <Gold.PLP.part.nonpolar>
-38.8034

> <Gold.PLP.part.repulsive>
0.8910

> <Gold.PLP.ligand.clash>
0.0000

> <Gold.PLP.ligand.torsion>
0.3450

> <Gold.PLP.Chemscore.Hbond>
1.6716

> <Gold.PLP.Chemscore.CHOScore>
0.0000

> <Gold.PLP.Chemscore.Metal>
0.0000

> <Gold.Chemscore.Hbonds>
donor molecule, donor type, donor heavy atom, donor atom, acceptor molecule, acceptor atom, score
      L1  H    10    32       P1  8028  0.12
      P1  H  7989  7998       L1     9  1.00

> <Gold.PLP.Chemscore.Internal.Correction>
0.0152

> <Gold.Rescore>
     Score         DG    S(hbond)    S(metal)    S(lipo)     H(rot)  DE(clash)    DE(int)     intcor
     17.36     -20.21       1.37        0.00     123.02       1.65       0.23       2.62       ----

> <Gold.Chemscore.Fitness>
17.3610

> <Gold.Chemscore.DG>
-20.2134

> <Gold.Chemscore.ZeroCoef>
-5.4800

> <Gold.Chemscore.Hbond>
1.3691

> <Gold.Chemscore.Metal>
0.0000

> <Gold.Chemscore.Lipo>
123.0190

> <Gold.Chemscore.Internal_Hbond>
0.0000

> <Gold.Chemscore.DEClash>
0.2287

> <Gold.Chemscore.DEInternal>
2.6237

> <Gold.Chemscore.Rot>
1.6534

> <Gold.Chemscore.Internal.Correction>
   9.000000E+99

> <Gold.Chemscore.Hbonds>
donor molecule, donor type, donor heavy atom, donor atom, acceptor molecule, acceptor atom, score
      L1  H    10    32       P1  8028  0.12
      P1  H  7989  7998       L1     9  0.93

> <Gold.Chemscore.Hbond.Weighted>
-4.5728

> <Gold.Chemscore.Metal.Weighted>
-0.0000

> <Gold.Chemscore.Lipo.Weighted>
-14.3932

> <Gold.Chemscore.Internal_Hbond.Weighted>
0.0000

> <Gold.Chemscore.DEClash.Weighted>
0.2287

> <Gold.Chemscore.DEInternal.Weighted>
2.6237

> <Gold.Chemscore.Rot.Weighted>
4.2326

> <Gold.Chemscore.Internal.Correction.Weighted>
   9.000000E+99

> <Gold.Protein.RotatedTorsions>
[ 6907 6896 6895 6894 ] final  143.39 input  -60.11 | X-H torsion
[ 7974 7965 7964 7962 ] final   72.20 input  175.53 | X-H torsion
[ 8008 7997 7996 7995 ] final -137.23 input   59.86 | X-H torsion
[ 10167 10162 10161 10158 ] final  114.36 input  -65.29 | X-H torsion
[ 10718 10713 10712 10709 ] final   14.11 input   66.30 | X-H torsion
[ 10763 10752 10751 10750 ] final  -98.74 input  -60.55 | X-H torsion
[ 11005 11000 10999 10996 ] final  -26.01 input  -57.11 | X-H torsion

> <Gold.Protein.ActiveResidues>
 VAL166  LYS551  ARG553  GLY616  TRP617  ASP618  TYR619  PRO620  LYS621  CYS622 
 ASP623  PHE694  ASN695  SER759  ASP760  ASP761  ALA762  ILE779  LEU786  VAL792 
 PHE793  MET794  SER795  GLU796  ALA797  LYS798  CYS799  TRP800  GLU811  SER814 

> <Gold.Protein.RotatedAtoms>
  152.2069  133.4882  159.5088 H   0  0  0  0  0  0  0  0  0  0  0  0  # atno 6907 bound_to 6896
  150.6981  134.1518  159.4152 H   0  0  0  0  0  0  0  0  0  0  0  0  # atno 6908 bound_to 6896
  151.9437  135.0201  160.0588 H   0  0  0  0  0  0  0  0  0  0  0  0  # atno 6909 bound_to 6896
  145.7563  139.2781  143.1402 H   0  0  0  0  0  0  0  0  0  0  0  0  # atno 7974 bound_to 7965
  155.4083  140.0510  157.3033 H   0  0  0  0  0  0  0  0  0  0  0  0  # atno 8008 bound_to 7997
  154.4958  140.2138  155.9410 H   0  0  0  0  0  0  0  0  0  0  0  0  # atno 8009 bound_to 7997
  156.1403  140.3155  155.8490 H   0  0  0  0  0  0  0  0  0  0  0  0  # atno 8010 bound_to 7997
  139.6394  144.7122  151.2268 H   0  0  0  0  0  0  0  0  0  0  0  0  # atno 10167 bound_to 10162
  157.0344  130.6206  149.5740 H   0  0  0  0  0  0  0  0  0  0  0  0  # atno 10718 bound_to 10713
  154.7440  135.4998  153.9172 H   0  0  0  0  0  0  0  0  0  0  0  0  # atno 10763 bound_to 10752
  153.1072  135.6700  153.9572 H   0  0  0  0  0  0  0  0  0  0  0  0  # atno 10764 bound_to 10752
  153.9342  135.3074  155.3424 H   0  0  0  0  0  0  0  0  0  0  0  0  # atno 10765 bound_to 10752
  140.8990  133.7537  156.0519 H   0  0  0  0  0  0  0  0  0  0  0  0  # atno 11005 bound_to 11000
  146.0308  140.8260  142.9877 LP  0  0  0  0  0  0  0  0  0  0  0  0  # atno 17320 bound_to 7965
  144.6839  140.2766  143.7298 LP  0  0  0  0  0  0  0  0  0  0  0  0  # atno 17321 bound_to 7965
  140.7483  143.6339  150.8398 LP  0  0  0  0  0  0  0  0  0  0  0  0  # atno 17342 bound_to 10162
  139.9974  143.5781  152.2888 LP  0  0  0  0  0  0  0  0  0  0  0  0  # atno 17343 bound_to 10162
  156.0059  130.5145  150.7826 LP  0  0  0  0  0  0  0  0  0  0  0  0  # atno 17370 bound_to 10713
  157.5153  131.0928  151.0148 LP  0  0  0  0  0  0  0  0  0  0  0  0  # atno 17371 bound_to 10713
  140.8254  134.3241  157.5367 LP  0  0  0  0  0  0  0  0  0  0  0  0  # atno 17394 bound_to 11000
  139.8739  134.9333  156.3576 LP  0  0  0  0  0  0  0  0  0  0  0  0  # atno 17395 bound_to 11000

$$$$
