AV-unprocessed.smi:1554|AV-procd|sdf|6258|dock10
  -GOLD-   22720 6443D 1   1.00000     0.00000
 Structure written by MMmdl.
 49 51  0  0  0  0  0  0  0  0  3 V2000
  152.5579  143.3121  160.4290 C   0  0  0  0  0  0  0  0  0  0  0  0
  152.1838  142.3734  159.2944 C   0  0  0  0  0  0  0  0  0  0  0  0
  151.3039  142.8429  158.2929 C   0  0  0  0  0  0  0  0  0  0  0  0
  150.9845  141.9627  157.2658 C   0  0  0  0  0  0  0  0  0  0  0  0
  150.1629  142.1189  156.1472 N   0  3  0  0  0  0  0  0  0  0  0  0
  150.1640  140.9690  155.4175 C   0  0  0  0  0  0  0  0  0  0  0  0
  150.9769  140.0812  156.0530 N   0  0  0  0  0  0  0  0  0  0  0  0
  151.3398  138.7032  155.6955 C   0  0  0  0  0  0  0  0  0  0  0  0
  150.1279  137.7505  155.6965 C   0  0  2  0  0  0  0  0  0  0  0  0
  149.5692  137.7138  156.9958 O   0  0  0  0  0  0  0  0  0  0  0  0
  150.5160  136.3189  155.2759 C   0  0  0  0  0  0  0  0  0  0  0  0
  149.3926  135.5946  154.6210 N   0  3  2  0  0  0  0  0  0  0  0  0
  148.1470  135.5722  155.4261 C   0  0  0  0  0  0  0  0  0  0  0  0
  148.2293  134.5229  156.5491 C   0  0  0  0  0  0  0  0  0  0  0  0
  148.4968  133.2455  155.9832 O   0  0  0  0  0  0  0  0  0  0  0  0
  149.7428  133.2029  155.2962 C   0  0  1  0  0  0  0  0  0  0  0  0
  149.9603  131.7726  154.7907 C   0  0  0  0  0  0  0  0  0  0  0  0
  149.7242  134.2277  154.1407 C   0  0  0  0  0  0  0  0  0  0  0  0
  151.5070  140.6560  157.2129 C   0  0  0  0  0  0  0  0  0  0  0  0
  152.3718  140.1759  158.1932 C   0  0  0  0  0  0  0  0  0  0  0  0
  152.7100  141.0564  159.2455 C   0  0  0  0  0  0  0  0  0  0  0  0
  153.6534  140.5614  160.3287 C   0  0  0  0  0  0  0  0  0  0  0  0
  152.0619  144.2778  160.3282 H   0  0  0  0  0  0  0  0  0  0  0  0
  153.6336  143.4897  160.4389 H   0  0  0  0  0  0  0  0  0  0  0  0
  152.2678  142.8871  161.3900 H   0  0  0  0  0  0  0  0  0  0  0  0
  150.8989  143.8439  158.3242 H   0  0  0  0  0  0  0  0  0  0  0  0
  149.6224  140.7963  154.4986 H   0  0  0  0  0  0  0  0  0  0  0  0
  151.8236  138.7208  154.7180 H   0  0  0  0  0  0  0  0  0  0  0  0
  152.0934  138.3648  156.4082 H   0  0  0  0  0  0  0  0  0  0  0  0
  149.3736  138.1493  155.0199 H   0  0  0  0  0  0  0  0  0  0  0  0
  149.7692  136.8779  157.3893 H   0  0  0  0  0  0  0  0  0  0  0  0
  151.3804  136.3419  154.6123 H   0  0  0  0  0  0  0  0  0  0  0  0
  150.8371  135.7746  156.1652 H   0  0  0  0  0  0  0  0  0  0  0  0
  147.9296  136.5609  155.8314 H   0  0  0  0  0  0  0  0  0  0  0  0
  147.3157  135.3249  154.7644 H   0  0  0  0  0  0  0  0  0  0  0  0
  148.9965  134.7827  157.2800 H   0  0  0  0  0  0  0  0  0  0  0  0
  147.2824  134.4765  157.0870 H   0  0  0  0  0  0  0  0  0  0  0  0
  150.5442  133.4381  155.9976 H   0  0  0  0  0  0  0  0  0  0  0  0
  150.9135  131.6813  154.2691 H   0  0  0  0  0  0  0  0  0  0  0  0
  149.1710  131.4717  154.1012 H   0  0  0  0  0  0  0  0  0  0  0  0
  149.9665  131.0637  155.6189 H   0  0  0  0  0  0  0  0  0  0  0  0
  148.9637  133.9372  153.4144 H   0  0  0  0  0  0  0  0  0  0  0  0
  150.6719  134.2163  153.6042 H   0  0  0  0  0  0  0  0  0  0  0  0
  152.7726  139.1740  158.1557 H   0  0  0  0  0  0  0  0  0  0  0  0
  153.9762  139.5371  160.1396 H   0  0  0  0  0  0  0  0  0  0  0  0
  153.1622  140.5812  161.3019 H   0  0  0  0  0  0  0  0  0  0  0  0
  154.5446  141.1875  160.3771 H   0  0  0  0  0  0  0  0  0  0  0  0
  149.1773  136.1436  153.8003 H   0  0  0  0  0  0  0  0  0  0  0  0
  149.6404  142.9489  155.8968 H   0  0  0  0  0  0  0  0  0  0  0  0
  1  2  1  0  0  0  0
  1 23  1  0  0  0  0
  1 24  1  0  0  0  0
  1 25  1  0  0  0  0
  2 21  1  0  0  0  0
  2  3  2  0  0  0  0
  3  4  1  0  0  0  0
  3 26  1  0  0  0  0
  4 19  2  0  0  0  0
  4  5  1  0  0  0  0
  5  6  2  0  0  0  0
  5 49  1  0  0  0  0
  6  7  1  0  0  0  0
  6 27  1  0  0  0  0
  7  8  1  0  0  0  0
  7 19  1  0  0  0  0
  8  9  1  0  0  0  0
  8 28  1  0  0  0  0
  8 29  1  0  0  0  0
  9 10  1  0  0  0  0
  9 11  1  0  0  0  0
  9 30  1  0  0  0  0
 10 31  1  0  0  0  0
 11 12  1  0  0  0  0
 11 32  1  0  0  0  0
 11 33  1  0  0  0  0
 12 18  1  0  0  0  0
 12 13  1  0  0  0  0
 12 48  1  0  0  0  0
 13 14  1  0  0  0  0
 13 34  1  0  0  0  0
 13 35  1  0  0  0  0
 14 15  1  0  0  0  0
 14 36  1  0  0  0  0
 14 37  1  0  0  0  0
 15 16  1  0  0  0  0
 16 17  1  0  0  0  0
 16 18  1  0  0  0  0
 16 38  1  0  0  0  0
 17 39  1  0  0  0  0
 17 40  1  0  0  0  0
 17 41  1  0  0  0  0
 18 42  1  0  0  0  0
 18 43  1  0  0  0  0
 19 20  1  0  0  0  0
 20 21  2  0  0  0  0
 20 44  1  0  0  0  0
 21 22  1  0  0  0  0
 22 45  1  0  0  0  0
 22 46  1  0  0  0  0
 22 47  1  0  0  0  0
M  CHG  1   5   1
M  CHG  1  12   1
M  END
> <s_m_source_file>
AV-unprocessed.smi

> <i_m_source_file_index>
1554

> <i_lp_mmshare_version>
43012

> <i_f3d_flags>
0

> <s_epik_input>
W0NIM11jKFtjSF0xKWMoW0NIM10pW2NIXWMoYzEyKW4oW2NIXW4yKVtDSDJdW0NASF0oW09IXSlbQ0gyXU4zW0NIMl1bQ0gyXU9bQ0BASF0oW0NIM10pW0NIMl0z

> <s_epik_cmdline>
J2VwaWtfcHl0aG9uJywgJy1waCcsICc3LjAnLCAnLXRuJywgJzgnLCAnLW1hJywgJzIwMCcsICctbWV0YWxfYmluZGluZycsICctaW1hZScsICc8aW5maWxlLm1hZT4nLCAnLW9tYWUnLCAnPG91dGZpbGUubWFlPic=

> <r_epik_Ionization_Penalty>
1.8848

> <r_epik_Ionization_Penalty_Charging>
1.88479

> <r_epik_Ionization_Penalty_Neutral>
1.42224e-05

> <r_epik_State_Penalty>
1.94551

> <r_epik_Charging_Adjusted_Penalty>
3.8303

> <i_epik_Tot_Q>
2

> <i_epik_Tot_abs_Q>
2

> <r_epik_Metal_State_Penalty>
5.95849

> <b_epik_Metal_Only>
0

> <s_lp_Force_Field>
OPLS_2005

> <r_lp_Energy>
31.481

> <b_lp_Chiralities_Consistent>
1

> <s_lp_Variant>
AV-unprocessed.smi:1554-19

> <Gold.Version>
5.8.1

> <Gold.Id.Protein>
6NUR|6NUR_protein|mol2

> <Gold.PLP.Fitness>
49.4877

> <Gold.PLP.PLP>
-38.1954

> <Gold.PLP.part.hbond>
-2.0000

> <Gold.PLP.part.metal>
0.0000

> <Gold.PLP.part.buried>
-3.2111

> <Gold.PLP.part.nonpolar>
-32.6786

> <Gold.PLP.part.repulsive>
0.1641

> <Gold.PLP.ligand.clash>
0.0000

> <Gold.PLP.ligand.torsion>
0.3655

> <Gold.PLP.Chemscore.Hbond>
4.0000

> <Gold.PLP.Chemscore.CHOScore>
0.0000

> <Gold.PLP.Chemscore.Metal>
0.0000

> <Gold.Chemscore.Hbonds>
donor molecule, donor type, donor heavy atom, donor atom, acceptor molecule, acceptor atom, score
      L1  H     5    49       P1  8028  2.00
      L1  H    12    48       P1  7948  1.92

> <Gold.PLP.Chemscore.Internal.Correction>
0.0233

> <Gold.Rescore>
     Score         DG    S(hbond)    S(metal)    S(lipo)     H(rot)  DE(clash)    DE(int)     intcor
     17.98     -18.51       1.87        0.00     104.23       2.11       0.04       0.49       ----

> <Gold.Chemscore.Fitness>
17.9829

> <Gold.Chemscore.DG>
-18.5081

> <Gold.Chemscore.ZeroCoef>
-5.4800

> <Gold.Chemscore.Hbond>
1.8683

> <Gold.Chemscore.Metal>
0.0000

> <Gold.Chemscore.Lipo>
104.2337

> <Gold.Chemscore.Internal_Hbond>
0.0000

> <Gold.Chemscore.DEClash>
0.0398

> <Gold.Chemscore.DEInternal>
0.4854

> <Gold.Chemscore.Rot>
2.1122

> <Gold.Chemscore.Internal.Correction>
   9.000000E+99

> <Gold.Chemscore.Hbonds>
donor molecule, donor type, donor heavy atom, donor atom, acceptor molecule, acceptor atom, score
      L1  H     5    49       P1  8028  0.99
      L1  H    12    48       P1  7948  0.85

> <Gold.Chemscore.Hbond.Weighted>
-6.2401

> <Gold.Chemscore.Metal.Weighted>
-0.0000

> <Gold.Chemscore.Lipo.Weighted>
-12.1953

> <Gold.Chemscore.Internal_Hbond.Weighted>
0.0000

> <Gold.Chemscore.DEClash.Weighted>
0.0398

> <Gold.Chemscore.DEInternal.Weighted>
0.4854

> <Gold.Chemscore.Rot.Weighted>
5.4073

> <Gold.Chemscore.Internal.Correction.Weighted>
   9.000000E+99

> <Gold.Protein.RotatedTorsions>
[ 6907 6896 6895 6894 ] final   30.80 input  -60.11 | X-H torsion
[ 7974 7965 7964 7962 ] final   36.28 input  175.53 | X-H torsion
[ 8008 7997 7996 7995 ] final  163.00 input   59.86 | X-H torsion
[ 10167 10162 10161 10158 ] final   -7.42 input  -65.29 | X-H torsion
[ 10718 10713 10712 10709 ] final -162.15 input   66.30 | X-H torsion
[ 10763 10752 10751 10750 ] final   36.38 input  -60.55 | X-H torsion
[ 11005 11000 10999 10996 ] final  -86.29 input  -57.11 | X-H torsion

> <Gold.Protein.ActiveResidues>
 VAL166  LYS551  ARG553  GLY616  TRP617  ASP618  TYR619  PRO620  LYS621  CYS622 
 ASP623  PHE694  ASN695  SER759  ASP760  ASP761  ALA762  ILE779  LEU786  VAL792 
 PHE793  MET794  SER795  GLU796  ALA797  LYS798  CYS799  TRP800  GLU811  SER814 

> <Gold.Protein.RotatedAtoms>
  152.0512  134.9652  160.0574 H   0  0  0  0  0  0  0  0  0  0  0  0  # atno 6907 bound_to 6896
  152.1053  133.4266  159.4614 H   0  0  0  0  0  0  0  0  0  0  0  0  # atno 6908 bound_to 6896
  150.6841  134.2632  159.4601 H   0  0  0  0  0  0  0  0  0  0  0  0  # atno 6909 bound_to 6896
  146.1223  139.6037  142.9282 H   0  0  0  0  0  0  0  0  0  0  0  0  # atno 7974 bound_to 7965
  156.1989  140.1735  156.7940 H   0  0  0  0  0  0  0  0  0  0  0  0  # atno 8008 bound_to 7997
  154.5566  140.0707  156.8784 H   0  0  0  0  0  0  0  0  0  0  0  0  # atno 8009 bound_to 7997
  155.2927  140.3356  155.4254 H   0  0  0  0  0  0  0  0  0  0  0  0  # atno 8010 bound_to 7997
  140.7028  143.6083  150.8729 H   0  0  0  0  0  0  0  0  0  0  0  0  # atno 10167 bound_to 10162
  156.6064  130.8832  151.2926 H   0  0  0  0  0  0  0  0  0  0  0  0  # atno 10718 bound_to 10713
  153.0079  135.6307  154.1977 H   0  0  0  0  0  0  0  0  0  0  0  0  # atno 10763 bound_to 10752
  154.1720  135.2818  155.3080 H   0  0  0  0  0  0  0  0  0  0  0  0  # atno 10764 bound_to 10752
  154.5901  135.5620  153.7330 H   0  0  0  0  0  0  0  0  0  0  0  0  # atno 10765 bound_to 10752
  141.1632  133.7446  156.9140 H   0  0  0  0  0  0  0  0  0  0  0  0  # atno 11005 bound_to 11000
  145.5440  141.0418  143.2315 LP  0  0  0  0  0  0  0  0  0  0  0  0  # atno 17320 bound_to 7965
  144.7608  139.6961  143.7235 LP  0  0  0  0  0  0  0  0  0  0  0  0  # atno 17321 bound_to 7965
  139.9806  143.5955  152.2944 LP  0  0  0  0  0  0  0  0  0  0  0  0  # atno 17342 bound_to 10162
  139.6575  144.7662  151.2028 LP  0  0  0  0  0  0  0  0  0  0  0  0  # atno 17343 bound_to 10162
  157.7266  130.9631  150.1663 LP  0  0  0  0  0  0  0  0  0  0  0  0  # atno 17370 bound_to 10713
  156.2426  130.3692  149.8320 LP  0  0  0  0  0  0  0  0  0  0  0  0  # atno 17371 bound_to 10713
  140.1497  134.9238  157.2576 LP  0  0  0  0  0  0  0  0  0  0  0  0  # atno 17394 bound_to 11000
  140.2737  134.3430  155.7365 LP  0  0  0  0  0  0  0  0  0  0  0  0  # atno 17395 bound_to 11000

$$$$
