AV-unprocessed.smi:485|AV-procd|sdf|2692|dock5
  -GOLD-   2262023123D 1   1.00000     0.00000
 Structure written by MMmdl.
 36 38  0  0  0  0  0  0  0  0  1 V2000
  151.9493  137.0773  159.5457 O   0  0  0  0  0  0  0  0  0  0  0  0
  152.2460  137.8543  158.4053 C   0  0  0  0  0  0  0  0  0  0  0  0
  152.2479  139.3253  158.6912 C   0  0  0  0  0  0  0  0  0  0  0  0
  153.0980  139.8731  159.5603 N   0  0  0  0  0  0  0  0  0  0  0  0
  152.7682  141.2132  159.5045 C   0  0  0  0  0  0  0  0  0  0  0  0
  153.3108  142.3216  160.1933 C   0  0  0  0  0  0  0  0  0  0  0  0
  152.8042  143.6187  159.9704 C   0  0  0  0  0  0  0  0  0  0  0  0
  151.7499  143.8260  159.0573 C   0  0  0  0  0  0  0  0  0  0  0  0
  151.1952  142.7355  158.3601 C   0  0  0  0  0  0  0  0  0  0  0  0
  151.7048  141.4425  158.5861 C   0  0  0  0  0  0  0  0  0  0  0  0
  151.3938  140.1841  158.0795 N   0  0  0  0  0  0  0  0  0  0  0  0
  150.3654  139.8800  157.0935 C   0  0  0  0  0  0  0  0  0  0  0  0
  150.6073  140.5750  155.7385 C   0  0  1  0  0  0  0  0  0  0  0  0
  151.7744  140.0585  155.1275 O   0  0  0  0  0  0  0  0  0  0  0  0
  149.3835  140.4651  154.8423 C   0  0  0  0  0  0  0  0  0  0  0  0
  148.6679  141.6178  154.4476 C   0  0  0  0  0  0  0  0  0  0  0  0
  147.5435  141.5020  153.6070 C   0  0  0  0  0  0  0  0  0  0  0  0
  147.1311  140.2349  153.1520 C   0  0  0  0  0  0  0  0  0  0  0  0
  147.8435  139.0832  153.5378 C   0  0  0  0  0  0  0  0  0  0  0  0
  148.9669  139.1984  154.3795 C   0  0  0  0  0  0  0  0  0  0  0  0
  152.1010  137.6038  160.3154 H   0  0  0  0  0  0  0  0  0  0  0  0
  153.2116  137.5509  158.0024 H   0  0  0  0  0  0  0  0  0  0  0  0
  151.5051  137.6385  157.6347 H   0  0  0  0  0  0  0  0  0  0  0  0
  154.1187  142.1732  160.8944 H   0  0  0  0  0  0  0  0  0  0  0  0
  153.2262  144.4585  160.5030 H   0  0  0  0  0  0  0  0  0  0  0  0
  151.3669  144.8226  158.8926 H   0  0  0  0  0  0  0  0  0  0  0  0
  150.3856  142.8897  157.6622 H   0  0  0  0  0  0  0  0  0  0  0  0
  150.3205  138.7982  156.9604 H   0  0  0  0  0  0  0  0  0  0  0  0
  149.3962  140.1712  157.4989 H   0  0  0  0  0  0  0  0  0  0  0  0
  150.8005  141.6339  155.9112 H   0  0  0  0  0  0  0  0  0  0  0  0
  152.5265  140.3720  155.6061 H   0  0  0  0  0  0  0  0  0  0  0  0
  148.9804  142.5954  154.7846 H   0  0  0  0  0  0  0  0  0  0  0  0
  146.9986  142.3857  153.3094 H   0  0  0  0  0  0  0  0  0  0  0  0
  146.2704  140.1465  152.5056 H   0  0  0  0  0  0  0  0  0  0  0  0
  147.5293  138.1114  153.1865 H   0  0  0  0  0  0  0  0  0  0  0  0
  149.5104  138.3097  154.6658 H   0  0  0  0  0  0  0  0  0  0  0  0
  1  2  1  0  0  0  0
  1 21  1  0  0  0  0
  2  3  1  0  0  0  0
  2 22  1  0  0  0  0
  2 23  1  0  0  0  0
  3 11  1  0  0  0  0
  3  4  2  0  0  0  0
  4  5  1  0  0  0  0
  5 10  2  0  0  0  0
  5  6  1  0  0  0  0
  6  7  2  0  0  0  0
  6 24  1  0  0  0  0
  7  8  1  0  0  0  0
  7 25  1  0  0  0  0
  8  9  2  0  0  0  0
  8 26  1  0  0  0  0
  9 10  1  0  0  0  0
  9 27  1  0  0  0  0
 10 11  1  0  0  0  0
 11 12  1  0  0  0  0
 12 13  1  0  0  0  0
 12 28  1  0  0  0  0
 12 29  1  0  0  0  0
 13 14  1  0  0  0  0
 13 15  1  0  0  0  0
 13 30  1  0  0  0  0
 14 31  1  0  0  0  0
 15 20  1  0  0  0  0
 15 16  2  0  0  0  0
 16 17  1  0  0  0  0
 16 32  1  0  0  0  0
 17 18  2  0  0  0  0
 17 33  1  0  0  0  0
 18 19  1  0  0  0  0
 18 34  1  0  0  0  0
 19 20  2  0  0  0  0
 19 35  1  0  0  0  0
 20 36  1  0  0  0  0
M  END
> <s_m_source_file>
AV-unprocessed.smi

> <i_m_source_file_index>
485

> <i_lp_mmshare_version>
43012

> <i_f3d_flags>
0

> <s_epik_input>
W2NIXTFbY0hdW2NIXVtjSF1jKGMxMiluKGMobjIpW0NIMl1bT0hdKVtDSDJdW0NASF0oW09IXSljM1tjSF1bY0hdW2NIXVtjSF1bY0hdMw==

> <s_epik_cmdline>
J2VwaWtfcHl0aG9uJywgJy1waCcsICc3LjAnLCAnLXRuJywgJzgnLCAnLW1hJywgJzIwMCcsICctbWV0YWxfYmluZGluZycsICctaW1hZScsICc8aW5maWxlLm1hZT4nLCAnLW9tYWUnLCAnPG91dGZpbGUubWFlPic=

> <r_epik_Ionization_Penalty>
0.0634722

> <r_epik_Ionization_Penalty_Charging>
0

> <r_epik_Ionization_Penalty_Neutral>
0.0634722

> <r_epik_State_Penalty>
0.0551572

> <r_epik_Charging_Adjusted_Penalty>
0.0551572

> <i_epik_Tot_Q>
0

> <i_epik_Tot_abs_Q>
0

> <r_epik_Metal_State_Penalty>
5.78034e-05

> <b_epik_Metal_Only>
0

> <s_lp_Force_Field>
OPLS_2005

> <r_lp_Energy>
11.9135

> <b_lp_Chiralities_Consistent>
1

> <s_lp_Variant>
AV-unprocessed.smi:485-2

> <Gold.Version>
5.8.1

> <Gold.Id.Protein>
6NUR|6NUR_protein|mol2

> <Gold.PLP.Fitness>
49.1392

> <Gold.PLP.PLP>
-43.4418

> <Gold.PLP.part.hbond>
-2.0000

> <Gold.PLP.part.metal>
0.0000

> <Gold.PLP.part.buried>
-5.1303

> <Gold.PLP.part.nonpolar>
-36.4445

> <Gold.PLP.part.repulsive>
0.0000

> <Gold.PLP.ligand.clash>
0.0000

> <Gold.PLP.ligand.torsion>
0.0721

> <Gold.PLP.Chemscore.Hbond>
1.9353

> <Gold.PLP.Chemscore.CHOScore>
0.0000

> <Gold.PLP.Chemscore.Metal>
0.0000

> <Gold.Chemscore.Hbonds>
donor molecule, donor type, donor heavy atom, donor atom, acceptor molecule, acceptor atom, score
      P1  H  6896  6909       L1     1  1.00
      P1  H  7989  7998       L1    14  0.93

> <Gold.PLP.Chemscore.Internal.Correction>
0.0357

> <Gold.Rescore>
     Score         DG    S(hbond)    S(metal)    S(lipo)     H(rot)  DE(clash)    DE(int)     intcor
     17.65     -17.85       1.71        0.00     114.20       2.62       0.07       0.13       ----

> <Gold.Chemscore.Fitness>
17.6504

> <Gold.Chemscore.DG>
-17.8485

> <Gold.Chemscore.ZeroCoef>
-5.4800

> <Gold.Chemscore.Hbond>
1.7132

> <Gold.Chemscore.Metal>
0.0000

> <Gold.Chemscore.Lipo>
114.2039

> <Gold.Chemscore.Internal_Hbond>
0.0000

> <Gold.Chemscore.DEClash>
0.0689

> <Gold.Chemscore.DEInternal>
0.1292

> <Gold.Chemscore.Rot>
2.6232

> <Gold.Chemscore.Internal.Correction>
   9.000000E+99

> <Gold.Chemscore.Hbonds>
donor molecule, donor type, donor heavy atom, donor atom, acceptor molecule, acceptor atom, score
      P1  H  6896  6909       L1     1  0.80
      P1  H  7989  7998       L1    14  0.17

> <Gold.Chemscore.Hbond.Weighted>
-5.7221

> <Gold.Chemscore.Metal.Weighted>
-0.0000

> <Gold.Chemscore.Lipo.Weighted>
-13.3619

> <Gold.Chemscore.Internal_Hbond.Weighted>
0.0000

> <Gold.Chemscore.DEClash.Weighted>
0.0689

> <Gold.Chemscore.DEInternal.Weighted>
0.1292

> <Gold.Chemscore.Rot.Weighted>
6.7154

> <Gold.Chemscore.Internal.Correction.Weighted>
   9.000000E+99

> <Gold.Protein.RotatedTorsions>
[ 6907 6896 6895 6894 ] final  108.71 input  -60.11 | X-H torsion
[ 7974 7965 7964 7962 ] final -179.51 input  175.53 | X-H torsion
[ 8008 7997 7996 7995 ] final  107.82 input   59.86 | X-H torsion
[ 10167 10162 10161 10158 ] final   43.76 input  -65.29 | X-H torsion
[ 10718 10713 10712 10709 ] final -119.69 input   66.30 | X-H torsion
[ 10763 10752 10751 10750 ] final -150.32 input  -60.55 | X-H torsion
[ 11005 11000 10999 10996 ] final  178.79 input  -57.11 | X-H torsion

> <Gold.Protein.ActiveResidues>
 VAL166  LYS551  ARG553  GLY616  TRP617  ASP618  TYR619  PRO620  LYS621  CYS622 
 ASP623  PHE694  ASN695  SER759  ASP760  ASP761  ALA762  ILE779  LEU786  VAL792 
 PHE793  MET794  SER795  GLU796  ALA797  LYS798  CYS799  TRP800  GLU811  SER814 

> <Gold.Protein.RotatedAtoms>
  152.5100  133.9050  159.7459 H   0  0  0  0  0  0  0  0  0  0  0  0  # atno 6907 bound_to 6896
  150.9456  133.6598  159.2789 H   0  0  0  0  0  0  0  0  0  0  0  0  # atno 6908 bound_to 6896
  151.3894  135.0958  159.9574 H   0  0  0  0  0  0  0  0  0  0  0  0  # atno 6909 bound_to 6896
  144.7137  140.0707  143.6429 H   0  0  0  0  0  0  0  0  0  0  0  0  # atno 7974 bound_to 7965
  156.1855  140.3087  155.9230 H   0  0  0  0  0  0  0  0  0  0  0  0  # atno 8008 bound_to 7997
  155.3291  140.0460  157.3059 H   0  0  0  0  0  0  0  0  0  0  0  0  # atno 8009 bound_to 7997
  154.5391  140.2255  155.8682 H   0  0  0  0  0  0  0  0  0  0  0  0  # atno 8010 bound_to 7997
  140.3412  144.2468  150.6155 H   0  0  0  0  0  0  0  0  0  0  0  0  # atno 10167 bound_to 10162
  156.1201  130.6316  150.9448 H   0  0  0  0  0  0  0  0  0  0  0  0  # atno 10718 bound_to 10713
  154.8126  135.3287  154.7265 H   0  0  0  0  0  0  0  0  0  0  0  0  # atno 10763 bound_to 10752
  153.7911  135.6911  153.4876 H   0  0  0  0  0  0  0  0  0  0  0  0  # atno 10764 bound_to 10752
  153.1916  135.4549  155.0103 H   0  0  0  0  0  0  0  0  0  0  0  0  # atno 10765 bound_to 10752
  140.3990  134.6794  157.4551 H   0  0  0  0  0  0  0  0  0  0  0  0  # atno 11005 bound_to 11000
  145.9786  139.2923  143.1056 LP  0  0  0  0  0  0  0  0  0  0  0  0  # atno 17320 bound_to 7965
  145.9036  140.9226  143.0490 LP  0  0  0  0  0  0  0  0  0  0  0  0  # atno 17321 bound_to 7965
  140.5307  143.2244  151.8242 LP  0  0  0  0  0  0  0  0  0  0  0  0  # atno 17342 bound_to 10162
  139.4840  144.4723  151.9410 LP  0  0  0  0  0  0  0  0  0  0  0  0  # atno 17343 bound_to 10162
  157.6384  131.0913  150.8301 LP  0  0  0  0  0  0  0  0  0  0  0  0  # atno 17370 bound_to 10713
  156.8399  130.5044  149.5322 LP  0  0  0  0  0  0  0  0  0  0  0  0  # atno 17371 bound_to 10713
  140.0350  134.6350  155.9056 LP  0  0  0  0  0  0  0  0  0  0  0  0  # atno 17394 bound_to 11000
  141.1863  133.6557  156.5235 LP  0  0  0  0  0  0  0  0  0  0  0  0  # atno 17395 bound_to 11000

$$$$
