AV-unprocessed.smi:2101|AV-procd|sdf|8580|dock8
  -GOLD-   2272011313D 1   1.00000     0.00000
 Structure written by MMmdl.
 42 43  0  0  0  0  0  0  0  0  2 V2000
  150.4910  141.3281  156.4401 C   0  0  0  0  0  0  0  0  0  0  0  0
  151.5533  139.8324  156.3066 S   0  0  0  0  0  0  0  0  0  0  0  0
  152.3889  139.9666  155.1034 O   0  0  0  0  0  0  0  0  0  0  0  0
  152.1878  139.5985  157.6130 O   0  0  0  0  0  0  0  0  0  0  0  0
  150.4182  138.5451  156.0263 N   0  0  0  0  0  0  0  0  0  0  0  0
  150.3155  137.9512  154.6733 C   0  0  0  0  0  0  0  0  0  0  0  0
  150.9834  136.5637  154.6092 C   0  0  0  0  0  0  0  0  0  0  0  0
  150.4112  135.7150  155.6624 N   0  0  0  0  0  0  0  0  0  0  0  0
  149.4890  134.7349  155.4968 C   0  0  0  0  0  0  0  0  0  0  0  0
  149.1875  133.9352  156.3842 O   0  0  0  0  0  0  0  0  0  0  0  0
  148.9518  134.6696  154.2662 N   0  0  0  0  0  0  0  0  0  0  0  0
  147.9525  133.6962  153.8410 C   0  0  0  0  0  0  0  0  0  0  0  0
  148.1088  133.3424  152.3524 C   0  0  0  0  0  0  0  0  0  0  0  0
  146.7788  133.0315  151.6948 C   0  0  0  0  0  0  0  0  0  0  0  0
  145.5445  133.3482  152.3028 C   0  0  0  0  0  0  0  0  0  0  0  0
  144.3449  133.0358  151.6292 C   0  0  0  0  0  0  0  0  0  0  0  0
  144.4049  132.4136  150.3646 C   0  0  0  0  0  0  0  0  0  0  0  0
  145.6649  132.1209  149.8039 C   0  0  0  0  0  0  0  0  0  0  0  0
  146.7915  132.4372  150.4795 N   0  3  0  0  0  0  0  0  0  0  0  0
  150.7478  136.2587  156.9794 C   0  0  0  0  0  0  0  0  0  0  0  0
  150.0703  137.6334  157.1405 C   0  0  0  0  0  0  0  0  0  0  0  0
  151.1214  142.1986  156.6199 H   0  0  0  0  0  0  0  0  0  0  0  0
  149.7954  141.2148  157.2701 H   0  0  0  0  0  0  0  0  0  0  0  0
  149.9409  141.4743  155.5117 H   0  0  0  0  0  0  0  0  0  0  0  0
  149.2590  137.8602  154.4182 H   0  0  0  0  0  0  0  0  0  0  0  0
  150.7545  138.6161  153.9302 H   0  0  0  0  0  0  0  0  0  0  0  0
  150.8737  136.1519  153.6060 H   0  0  0  0  0  0  0  0  0  0  0  0
  152.0589  136.6514  154.7641 H   0  0  0  0  0  0  0  0  0  0  0  0
  149.2575  135.3432  153.5789 H   0  0  0  0  0  0  0  0  0  0  0  0
  148.0674  132.7994  154.4507 H   0  0  0  0  0  0  0  0  0  0  0  0
  146.9515  134.0815  154.0428 H   0  0  0  0  0  0  0  0  0  0  0  0
  148.5778  134.1666  151.8126 H   0  0  0  0  0  0  0  0  0  0  0  0
  148.7741  132.4853  152.2407 H   0  0  0  0  0  0  0  0  0  0  0  0
  145.5149  133.8266  153.2711 H   0  0  0  0  0  0  0  0  0  0  0  0
  143.3900  133.2709  152.0765 H   0  0  0  0  0  0  0  0  0  0  0  0
  143.4978  132.1653  149.8329 H   0  0  0  0  0  0  0  0  0  0  0  0
  145.8052  131.6473  148.8430 H   0  0  0  0  0  0  0  0  0  0  0  0
  150.4456  135.5974  157.7925 H   0  0  0  0  0  0  0  0  0  0  0  0
  151.8303  136.3510  157.0684 H   0  0  0  0  0  0  0  0  0  0  0  0
  150.3421  138.0787  158.0970 H   0  0  0  0  0  0  0  0  0  0  0  0
  148.9870  137.5078  157.1567 H   0  0  0  0  0  0  0  0  0  0  0  0
  147.6929  132.2172  150.0546 H   0  0  0  0  0  0  0  0  0  0  0  0
  1  2  1  0  0  0  0
  1 22  1  0  0  0  0
  1 23  1  0  0  0  0
  1 24  1  0  0  0  0
  2  3  2  0  0  0  0
  2  4  2  0  0  0  0
  2  5  1  0  0  0  0
  5 21  1  0  0  0  0
  5  6  1  0  0  0  0
  6  7  1  0  0  0  0
  6 25  1  0  0  0  0
  6 26  1  0  0  0  0
  7  8  1  0  0  0  0
  7 27  1  0  0  0  0
  7 28  1  0  0  0  0
  8  9  1  0  0  0  0
  8 20  1  0  0  0  0
  9 10  2  0  0  0  0
  9 11  1  0  0  0  0
 11 12  1  0  0  0  0
 11 29  1  0  0  0  0
 12 13  1  0  0  0  0
 12 30  1  0  0  0  0
 12 31  1  0  0  0  0
 13 14  1  0  0  0  0
 13 32  1  0  0  0  0
 13 33  1  0  0  0  0
 14 19  1  0  0  0  0
 14 15  2  0  0  0  0
 15 16  1  0  0  0  0
 15 34  1  0  0  0  0
 16 17  2  0  0  0  0
 16 35  1  0  0  0  0
 17 18  1  0  0  0  0
 17 36  1  0  0  0  0
 18 19  2  0  0  0  0
 18 37  1  0  0  0  0
 19 42  1  0  0  0  0
 20 21  1  0  0  0  0
 20 38  1  0  0  0  0
 20 39  1  0  0  0  0
 21 40  1  0  0  0  0
 21 41  1  0  0  0  0
M  CHG  1  19   1
M  END
> <s_m_source_file>
AV-unprocessed.smi

> <i_m_source_file_index>
2101

> <i_lp_mmshare_version>
43012

> <i_f3d_flags>
0

> <s_epik_input>
W0NIM11TKD1PKSg9TylOMVtDSDJdW0NIMl1OKFtDSDJdW0NIMl0xKUMoPU8pW05IXVtDSDJdW0NIMl1jMltjSF1bY0hdW2NIXVtjSF1uMg==

> <s_epik_cmdline>
J2VwaWtfcHl0aG9uJywgJy1waCcsICc3LjAnLCAnLXRuJywgJzgnLCAnLW1hJywgJzIwMCcsICctbWV0YWxfYmluZGluZycsICctaW1hZScsICc8aW5maWxlLm1hZT4nLCAnLW9tYWUnLCAnPG91dGZpbGUubWFlPic=

> <r_epik_Ionization_Penalty>
1.56137

> <r_epik_Ionization_Penalty_Charging>
1.56133

> <r_epik_Ionization_Penalty_Neutral>
3.86464e-05

> <r_epik_State_Penalty>
1.65637

> <r_epik_Charging_Adjusted_Penalty>
3.2177

> <i_epik_Tot_Q>
1

> <i_epik_Tot_abs_Q>
1

> <r_epik_Metal_State_Penalty>
1.69784

> <b_epik_Metal_Only>
0

> <s_lp_Force_Field>
OPLS_2005

> <r_lp_Energy>
29.4976

> <b_lp_Chiralities_Consistent>
1

> <s_lp_Variant>
AV-unprocessed.smi:2101-2

> <Gold.Version>
5.8.1

> <Gold.Id.Protein>
6NUR|6NUR_protein|mol2

> <Gold.PLP.Fitness>
43.0914

> <Gold.PLP.PLP>
-34.6705

> <Gold.PLP.part.hbond>
-3.7583

> <Gold.PLP.part.metal>
0.0000

> <Gold.PLP.part.buried>
-4.2417

> <Gold.PLP.part.nonpolar>
-26.3692

> <Gold.PLP.part.repulsive>
0.1140

> <Gold.PLP.ligand.clash>
0.0000

> <Gold.PLP.ligand.torsion>
1.7287

> <Gold.PLP.Chemscore.Hbond>
3.2520

> <Gold.PLP.Chemscore.CHOScore>
0.0000

> <Gold.PLP.Chemscore.Metal>
0.0000

> <Gold.Chemscore.Hbonds>
donor molecule, donor type, donor heavy atom, donor atom, acceptor molecule, acceptor atom, score
      L1  H    11    29       P1  7948  0.98
      L1  H    19    42       P1 10747  0.74
      P1  H  7989  7998       L1     3  0.64
      P1  H  7997  8008       L1     3  0.45

> <Gold.PLP.Chemscore.Internal.Correction>
2.1224

> <Gold.Rescore>
     Score         DG    S(hbond)    S(metal)    S(lipo)     H(rot)  DE(clash)    DE(int)     intcor
     16.92     -18.56       2.49        0.00      72.91       1.47       0.00       1.64       ----

> <Gold.Chemscore.Fitness>
16.9228

> <Gold.Chemscore.DG>
-18.5619

> <Gold.Chemscore.ZeroCoef>
-5.4800

> <Gold.Chemscore.Hbond>
2.4903

> <Gold.Chemscore.Metal>
0.0000

> <Gold.Chemscore.Lipo>
72.9130

> <Gold.Chemscore.Internal_Hbond>
0.0000

> <Gold.Chemscore.DEClash>
0.0004

> <Gold.Chemscore.DEInternal>
1.6386

> <Gold.Chemscore.Rot>
1.4714

> <Gold.Chemscore.Internal.Correction>
   9.000000E+99

> <Gold.Chemscore.Hbonds>
donor molecule, donor type, donor heavy atom, donor atom, acceptor molecule, acceptor atom, score
      L1  H    11    29       P1  7948  0.32
      L1  H    19    42       P1 10747  0.72
      P1  H  7989  7998       L1     3  0.61
      P1  H  7997  8008       L1     3  0.09

> <Gold.Chemscore.Hbond.Weighted>
-8.3177

> <Gold.Chemscore.Metal.Weighted>
-0.0000

> <Gold.Chemscore.Lipo.Weighted>
-8.5308

> <Gold.Chemscore.Internal_Hbond.Weighted>
0.0000

> <Gold.Chemscore.DEClash.Weighted>
0.0004

> <Gold.Chemscore.DEInternal.Weighted>
1.6386

> <Gold.Chemscore.Rot.Weighted>
3.7667

> <Gold.Chemscore.Internal.Correction.Weighted>
   9.000000E+99

> <Gold.Protein.RotatedTorsions>
[ 6907 6896 6895 6894 ] final   79.78 input  -60.11 | X-H torsion
[ 7974 7965 7964 7962 ] final   44.30 input  175.53 | X-H torsion
[ 8008 7997 7996 7995 ] final  -31.09 input   59.86 | X-H torsion
[ 10167 10162 10161 10158 ] final   45.93 input  -65.29 | X-H torsion
[ 10718 10713 10712 10709 ] final   -5.87 input   66.30 | X-H torsion
[ 10763 10752 10751 10750 ] final  -98.42 input  -60.55 | X-H torsion
[ 11005 11000 10999 10996 ] final -140.73 input  -57.11 | X-H torsion

> <Gold.Protein.ActiveResidues>
 VAL166  LYS551  ARG553  GLY616  TRP617  ASP618  TYR619  PRO620  LYS621  CYS622 
 ASP623  PHE694  ASN695  SER759  ASP760  ASP761  ALA762  ILE779  LEU786  VAL792 
 PHE793  MET794  SER795  GLU796  ALA797  LYS798  CYS799  TRP800  GLU811  SER814 

> <Gold.Protein.RotatedAtoms>
  152.5211  134.3458  159.9233 H   0  0  0  0  0  0  0  0  0  0  0  0  # atno 6907 bound_to 6896
  151.3409  133.3956  159.2679 H   0  0  0  0  0  0  0  0  0  0  0  0  # atno 6908 bound_to 6896
  150.9804  134.9179  159.7899 H   0  0  0  0  0  0  0  0  0  0  0  0  # atno 6909 bound_to 6896
  146.0580  139.5090  142.9676 H   0  0  0  0  0  0  0  0  0  0  0  0  # atno 7974 bound_to 7965
  154.4226  140.1773  156.1511 H   0  0  0  0  0  0  0  0  0  0  0  0  # atno 8008 bound_to 7997
  155.9914  140.3368  155.6732 H   0  0  0  0  0  0  0  0  0  0  0  0  # atno 8009 bound_to 7997
  155.6367  140.0675  157.2622 H   0  0  0  0  0  0  0  0  0  0  0  0  # atno 8010 bound_to 7997
  140.3191  144.2727  150.6186 H   0  0  0  0  0  0  0  0  0  0  0  0  # atno 10167 bound_to 10162
  156.7403  130.5207  149.5825 H   0  0  0  0  0  0  0  0  0  0  0  0  # atno 10718 bound_to 10713
  154.7412  135.5010  153.9126 H   0  0  0  0  0  0  0  0  0  0  0  0  # atno 10763 bound_to 10752
  153.1045  135.6694  153.9619 H   0  0  0  0  0  0  0  0  0  0  0  0  # atno 10764 bound_to 10752
  153.9396  135.3069  155.3422 H   0  0  0  0  0  0  0  0  0  0  0  0  # atno 10765 bound_to 10752
  140.8394  134.2420  157.4818 H   0  0  0  0  0  0  0  0  0  0  0  0  # atno 11005 bound_to 11000
  145.6609  141.0241  143.1709 LP  0  0  0  0  0  0  0  0  0  0  0  0  # atno 17320 bound_to 7965
  144.7159  139.8199  143.7399 LP  0  0  0  0  0  0  0  0  0  0  0  0  # atno 17321 bound_to 7965
  140.5500  143.2208  151.7943 LP  0  0  0  0  0  0  0  0  0  0  0  0  # atno 17342 bound_to 10162
  139.4878  144.4489  151.9677 LP  0  0  0  0  0  0  0  0  0  0  0  0  # atno 17343 bound_to 10162
  156.1469  130.6283  151.0543 LP  0  0  0  0  0  0  0  0  0  0  0  0  # atno 17370 bound_to 10713
  157.6821  131.0835  150.7341 LP  0  0  0  0  0  0  0  0  0  0  0  0  # atno 17371 bound_to 10713
  139.8703  134.9627  156.4439 LP  0  0  0  0  0  0  0  0  0  0  0  0  # atno 17394 bound_to 11000
  140.8912  133.7847  155.9574 LP  0  0  0  0  0  0  0  0  0  0  0  0  # atno 17395 bound_to 11000

$$$$
