AV-unprocessed.smi:858|AV-procd|sdf|3962|dock3
  -GOLD-   22720 1433D 1   1.00000     0.00000
 Structure written by MMmdl.
 44 45  0  0  0  0  0  0  0  0  1 V2000
  147.2395  135.0019  162.7898 C   0  0  0  0  0  0  0  0  0  0  0  0
  147.4696  135.6955  161.4439 C   0  0  0  0  0  0  0  0  0  0  0  0
  147.8048  136.8806  161.4522 O   0  0  0  0  0  0  0  0  0  0  0  0
  147.2982  134.9947  160.2962 N   0  0  0  0  0  0  0  0  0  0  0  0
  146.8791  133.5913  160.3544 C   0  0  0  0  0  0  0  0  0  0  0  0
  147.5080  135.5567  158.9516 C   0  0  0  0  0  0  0  0  0  0  0  0
  148.3929  134.6808  158.0535 C   0  0  0  0  0  0  0  0  0  0  0  0
  148.9212  133.6576  158.4907 O   0  0  0  0  0  0  0  0  0  0  0  0
  148.5558  135.1111  156.7931 N   0  0  0  0  0  0  0  0  0  0  0  0
  149.3760  134.4559  155.7810 C   0  0  0  0  0  0  0  0  0  0  0  0
  148.5485  133.9095  154.6324 C   0  0  0  0  0  0  0  0  0  0  0  0
  149.0076  132.8245  153.8610 C   0  0  0  0  0  0  0  0  0  0  0  0
  148.1980  132.3411  152.8154 C   0  0  0  0  0  0  0  0  0  0  0  0
  146.9463  132.9550  152.5709 C   0  0  0  0  0  0  0  0  0  0  0  0
  146.1172  132.4818  151.5316 N   0  0  0  0  0  0  0  0  0  0  0  0
  146.7158  132.4783  150.1993 C   0  0  0  0  0  0  0  0  0  0  0  0
  145.8457  131.6665  149.2240 C   0  0  0  0  0  0  0  0  0  0  0  0
  144.5131  132.1681  149.2323 O   0  0  0  0  0  0  0  0  0  0  0  0
  143.9132  132.0571  150.5187 C   0  0  0  0  0  0  0  0  0  0  0  0
  144.7133  132.8880  151.5359 C   0  0  0  0  0  0  0  0  0  0  0  0
  146.5068  133.9956  153.3216 N   0  0  0  0  0  0  0  0  0  0  0  0
  147.2887  134.4579  154.3199 C   0  0  0  0  0  0  0  0  0  0  0  0
  146.1927  134.7221  162.9076 H   0  0  0  0  0  0  0  0  0  0  0  0
  147.4980  135.6695  163.6127 H   0  0  0  0  0  0  0  0  0  0  0  0
  147.8574  134.1089  162.8832 H   0  0  0  0  0  0  0  0  0  0  0  0
  147.6942  132.9660  160.7213 H   0  0  0  0  0  0  0  0  0  0  0  0
  146.5804  133.2118  159.3764 H   0  0  0  0  0  0  0  0  0  0  0  0
  146.0226  133.4623  161.0185 H   0  0  0  0  0  0  0  0  0  0  0  0
  146.5560  135.7468  158.4548 H   0  0  0  0  0  0  0  0  0  0  0  0
  147.9798  136.5368  159.0333 H   0  0  0  0  0  0  0  0  0  0  0  0
  148.0875  135.9626  156.5184 H   0  0  0  0  0  0  0  0  0  0  0  0
  150.1370  135.1379  155.3971 H   0  0  0  0  0  0  0  0  0  0  0  0
  149.9156  133.6358  156.2557 H   0  0  0  0  0  0  0  0  0  0  0  0
  149.9624  132.3643  154.0685 H   0  0  0  0  0  0  0  0  0  0  0  0
  148.5353  131.5000  152.2283 H   0  0  0  0  0  0  0  0  0  0  0  0
  146.8030  133.5084  149.8514 H   0  0  0  0  0  0  0  0  0  0  0  0
  147.7219  132.0614  150.2099 H   0  0  0  0  0  0  0  0  0  0  0  0
  146.2460  131.7419  148.2129 H   0  0  0  0  0  0  0  0  0  0  0  0
  145.8489  130.6080  149.4891 H   0  0  0  0  0  0  0  0  0  0  0  0
  142.8860  132.4177  150.4645 H   0  0  0  0  0  0  0  0  0  0  0  0
  143.8676  131.0097  150.8219 H   0  0  0  0  0  0  0  0  0  0  0  0
  144.2849  132.7537  152.5299 H   0  0  0  0  0  0  0  0  0  0  0  0
  144.6425  133.9484  151.2895 H   0  0  0  0  0  0  0  0  0  0  0  0
  146.8928  135.2861  154.8890 H   0  0  0  0  0  0  0  0  0  0  0  0
  1  2  1  0  0  0  0
  1 23  1  0  0  0  0
  1 24  1  0  0  0  0
  1 25  1  0  0  0  0
  2  3  2  0  0  0  0
  2  4  1  0  0  0  0
  4  5  1  0  0  0  0
  4  6  1  0  0  0  0
  5 26  1  0  0  0  0
  5 27  1  0  0  0  0
  5 28  1  0  0  0  0
  6  7  1  0  0  0  0
  6 29  1  0  0  0  0
  6 30  1  0  0  0  0
  7  8  2  0  0  0  0
  7  9  1  0  0  0  0
  9 10  1  0  0  0  0
  9 31  1  0  0  0  0
 10 11  1  0  0  0  0
 10 32  1  0  0  0  0
 10 33  1  0  0  0  0
 11 22  1  0  0  0  0
 11 12  2  0  0  0  0
 12 13  1  0  0  0  0
 12 34  1  0  0  0  0
 13 14  2  0  0  0  0
 13 35  1  0  0  0  0
 14 15  1  0  0  0  0
 14 21  1  0  0  0  0
 15 20  1  0  0  0  0
 15 16  1  0  0  0  0
 16 17  1  0  0  0  0
 16 36  1  0  0  0  0
 16 37  1  0  0  0  0
 17 18  1  0  0  0  0
 17 38  1  0  0  0  0
 17 39  1  0  0  0  0
 18 19  1  0  0  0  0
 19 20  1  0  0  0  0
 19 40  1  0  0  0  0
 19 41  1  0  0  0  0
 20 42  1  0  0  0  0
 20 43  1  0  0  0  0
 21 22  2  0  0  0  0
 22 44  1  0  0  0  0
M  END
> <s_m_source_file>
AV-unprocessed.smi

> <i_m_source_file_index>
858

> <i_lp_mmshare_version>
43012

> <i_f3d_flags>
0

> <s_epik_input>
W0NIM11DKD1PKU4oW0NIM10pW0NIMl1DKD1PKVtOSF1bQ0gyXWMxW2NIXVtjSF1jKG5bY0hdMSlOMltDSDJdW0NIMl1PW0NIMl1bQ0gyXTI=

> <s_epik_cmdline>
J2VwaWtfcHl0aG9uJywgJy1waCcsICc3LjAnLCAnLXRuJywgJzgnLCAnLW1hJywgJzIwMCcsICctbWV0YWxfYmluZGluZycsICctaW1hZScsICc8aW5maWxlLm1hZT4nLCAnLW9tYWUnLCAnPG91dGZpbGUubWFlPic=

> <r_lp_tautomer_probability>
1

> <r_epik_Ionization_Penalty>
0.00462928

> <r_epik_Ionization_Penalty_Charging>
0

> <r_epik_Ionization_Penalty_Neutral>
0.00462928

> <r_epik_State_Penalty>
0.00334737

> <r_epik_Charging_Adjusted_Penalty>
0.00334737

> <i_epik_Tot_Q>
0

> <i_epik_Tot_abs_Q>
0

> <r_epik_Metal_State_Penalty>
-0

> <b_epik_Metal_Only>
0

> <s_lp_Force_Field>
OPLS_2005

> <r_lp_Energy>
20.1823

> <b_lp_Chiralities_Consistent>
1

> <s_lp_Variant>
AV-unprocessed.smi:858-1

> <Gold.Version>
5.8.1

> <Gold.Id.Protein>
6NUR|6NUR_protein|mol2

> <Gold.PLP.Fitness>
45.6322

> <Gold.PLP.PLP>
-38.2926

> <Gold.PLP.part.hbond>
-3.5718

> <Gold.PLP.part.metal>
0.0000

> <Gold.PLP.part.buried>
-3.7347

> <Gold.PLP.part.nonpolar>
-31.9323

> <Gold.PLP.part.repulsive>
0.4149

> <Gold.PLP.ligand.clash>
0.0000

> <Gold.PLP.ligand.torsion>
0.7030

> <Gold.PLP.Chemscore.Hbond>
2.7920

> <Gold.PLP.Chemscore.CHOScore>
0.0000

> <Gold.PLP.Chemscore.Metal>
0.0000

> <Gold.Chemscore.Hbonds>
donor molecule, donor type, donor heavy atom, donor atom, acceptor molecule, acceptor atom, score
      P1  H  6896  6909       L1     8  1.00
      P1  H  6931  6943       L1     3  1.00
      P1  H  6934  6947       L1     3  0.29

> <Gold.PLP.Chemscore.Internal.Correction>
0.3697

> <Gold.Rescore>
     Score         DG    S(hbond)    S(metal)    S(lipo)     H(rot)  DE(clash)    DE(int)     intcor
     16.04     -18.61       2.74        0.00      77.73       2.00       0.34       2.23       ----

> <Gold.Chemscore.Fitness>
16.0411

> <Gold.Chemscore.DG>
-18.6113

> <Gold.Chemscore.ZeroCoef>
-5.4800

> <Gold.Chemscore.Hbond>
2.7383

> <Gold.Chemscore.Metal>
0.0000

> <Gold.Chemscore.Lipo>
77.7261

> <Gold.Chemscore.Internal_Hbond>
0.0000

> <Gold.Chemscore.DEClash>
0.3398

> <Gold.Chemscore.DEInternal>
2.2304

> <Gold.Chemscore.Rot>
1.9956

> <Gold.Chemscore.Internal.Correction>
   9.000000E+99

> <Gold.Chemscore.Hbonds>
donor molecule, donor type, donor heavy atom, donor atom, acceptor molecule, acceptor atom, score
      P1  H  6896  6909       L1     8  0.90
      P1  H  6931  6943       L1     3  0.99
      P1  H  6934  6947       L1     3  0.30

> <Gold.Chemscore.Hbond.Weighted>
-9.1460

> <Gold.Chemscore.Metal.Weighted>
-0.0000

> <Gold.Chemscore.Lipo.Weighted>
-9.0940

> <Gold.Chemscore.Internal_Hbond.Weighted>
0.0000

> <Gold.Chemscore.DEClash.Weighted>
0.3398

> <Gold.Chemscore.DEInternal.Weighted>
2.2304

> <Gold.Chemscore.Rot.Weighted>
5.1087

> <Gold.Chemscore.Internal.Correction.Weighted>
   9.000000E+99

> <Gold.Protein.RotatedTorsions>
[ 6907 6896 6895 6894 ] final    2.89 input  -60.11 | X-H torsion
[ 7974 7965 7964 7962 ] final   88.57 input  175.53 | X-H torsion
[ 8008 7997 7996 7995 ] final  -35.92 input   59.86 | X-H torsion
[ 10167 10162 10161 10158 ] final   10.38 input  -65.29 | X-H torsion
[ 10718 10713 10712 10709 ] final  -51.54 input   66.30 | X-H torsion
[ 10763 10752 10751 10750 ] final -155.18 input  -60.55 | X-H torsion
[ 11005 11000 10999 10996 ] final  -35.07 input  -57.11 | X-H torsion

> <Gold.Protein.ActiveResidues>
 VAL166  LYS551  ARG553  GLY616  TRP617  ASP618  TYR619  PRO620  LYS621  CYS622 
 ASP623  PHE694  ASN695  SER759  ASP760  ASP761  ALA762  ILE779  LEU786  VAL792 
 PHE793  MET794  SER795  GLU796  ALA797  LYS798  CYS799  TRP800  GLU811  SER814 

> <Gold.Protein.RotatedAtoms>
  151.6161  135.1036  160.0091 H   0  0  0  0  0  0  0  0  0  0  0  0  # atno 6907 bound_to 6896
  152.4182  133.7069  159.6467 H   0  0  0  0  0  0  0  0  0  0  0  0  # atno 6908 bound_to 6896
  150.8070  133.8418  159.3222 H   0  0  0  0  0  0  0  0  0  0  0  0  # atno 6909 bound_to 6896
  145.5439  139.2290  143.2550 H   0  0  0  0  0  0  0  0  0  0  0  0  # atno 7974 bound_to 7965
  154.4084  140.1644  156.2290 H   0  0  0  0  0  0  0  0  0  0  0  0  # atno 8008 bound_to 7997
  155.9299  140.3415  155.6218 H   0  0  0  0  0  0  0  0  0  0  0  0  # atno 8009 bound_to 7997
  155.7119  140.0757  157.2358 H   0  0  0  0  0  0  0  0  0  0  0  0  # atno 8010 bound_to 7997
  140.6198  143.8229  150.7161 H   0  0  0  0  0  0  0  0  0  0  0  0  # atno 10167 bound_to 10162
  156.1701  130.4149  149.9661 H   0  0  0  0  0  0  0  0  0  0  0  0  # atno 10718 bound_to 10713
  154.7805  135.3173  154.7999 H   0  0  0  0  0  0  0  0  0  0  0  0  # atno 10763 bound_to 10752
  153.8711  135.6844  153.4778 H   0  0  0  0  0  0  0  0  0  0  0  0  # atno 10764 bound_to 10752
  153.1441  135.4727  154.9477 H   0  0  0  0  0  0  0  0  0  0  0  0  # atno 10765 bound_to 10752
  140.9767  133.7079  156.1614 H   0  0  0  0  0  0  0  0  0  0  0  0  # atno 11005 bound_to 11000
  146.1962  140.6260  142.9123 LP  0  0  0  0  0  0  0  0  0  0  0  0  # atno 17320 bound_to 7965
  144.7563  140.5314  143.6767 LP  0  0  0  0  0  0  0  0  0  0  0  0  # atno 17321 bound_to 7965
  140.1817  143.4109  152.1928 LP  0  0  0  0  0  0  0  0  0  0  0  0  # atno 17342 bound_to 10162
  139.5429  144.7272  151.4676 LP  0  0  0  0  0  0  0  0  0  0  0  0  # atno 17343 bound_to 10162
  156.7464  130.9099  151.3635 LP  0  0  0  0  0  0  0  0  0  0  0  0  # atno 17370 bound_to 10713
  157.6796  130.9127  150.0235 LP  0  0  0  0  0  0  0  0  0  0  0  0  # atno 17371 bound_to 10713
  140.7248  134.4318  157.5571 LP  0  0  0  0  0  0  0  0  0  0  0  0  # atno 17394 bound_to 11000
  139.8933  134.8733  156.2229 LP  0  0  0  0  0  0  0  0  0  0  0  0  # atno 17395 bound_to 11000

$$$$
