#       Name:                AV-unprocessed.smi:2009
#       Creating user name   scv26
#       Creation time:       Fri Mar 27 10:38:56 2020


#       File generated by GOLD software.
#

@<TRIPOS>MOLECULE
AV-unprocessed.smi:2009
    40    41     1
SMALL
NO_CHARGES


@<TRIPOS>ATOM
      1 ****        -2.9377  -1.6046  -1.6428 C.3            1 S1                 0.0000
      2 ****        -2.4436  -0.8503  -0.4010 C.3            1 S1                 0.0000
      3 ****        -2.6188  -1.6848   0.8925 C.3            1 S1                 0.0000
      4 ****        -2.3350  -0.9496   2.1222 N.pl3          1 S1                 0.0000
      5 ****        -1.1184  -0.7619   2.7510 C.2            1 S1                 0.0000
      6 ****        -1.3463  -0.0202   3.8741 C.2            1 S1                 0.0000
      7 ****        -2.7526   0.1929   3.8573 C.2            1 S1                 0.0000
      8 ****        -3.3434  -0.3704   2.8161 N.2            1 S1                 0.0000
      9 ****        -1.0388  -0.5125  -0.5842 N.pl3          1 S1                -1.0000
     10 ****        -0.6018   1.0450  -0.6958 S.o2           1 S1                 0.0000
     11 ****        -1.0059   1.6833  -1.9590 O.2            1 S1                 0.0000
     12 ****        -0.8268   1.7910   0.5534 O.2            1 S1                 0.0000
     13 ****         1.1143   0.7894  -0.8159 N.3            1 S1                 0.0000
     14 ****         1.9886   1.9085  -0.4068 C.3            1 S1                 0.0000
     15 ****         3.4374   1.4431  -0.1833 C.3            1 S1                 0.0000
     16 ****         3.9889   0.7255  -1.4176 C.3            1 S1                 0.0000
     17 ****         3.0627  -0.4387  -1.7770 C.3            1 S1                 0.0000
     18 ****         1.6196   0.0453  -1.9930 C.3            1 S1                 0.0000
     19 ****        -3.9922  -1.8643  -1.5473 H              1 S1                 0.0000
     20 ****        -2.3804  -2.5295  -1.7961 H              1 S1                 0.0000
     21 ****        -2.8303  -0.9963  -2.5418 H              1 S1                 0.0000
     22 ****        -3.0620   0.0433  -0.3038 H              1 S1                 0.0000
     23 ****        -3.6423  -2.0584   0.9507 H              1 S1                 0.0000
     24 ****        -1.9773  -2.5669   0.8654 H              1 S1                 0.0000
     25 ****        -0.2016  -1.1602   2.3412 H              1 S1                 0.0000
     26 ****        -0.6186   0.3192   4.5959 H              1 S1                 0.0000
     27 ****        -3.3584   0.7348   4.5684 H              1 S1                 0.0000
     28 ****         1.9501   2.6851  -1.1717 H              1 S1                 0.0000
     29 ****         1.6159   2.3540   0.5151 H              1 S1                 0.0000
     30 ****         4.0677   2.2978   0.0629 H              1 S1                 0.0000
     31 ****         3.4757   0.7736   0.6773 H              1 S1                 0.0000
     32 ****         4.0572   1.4211  -2.2549 H              1 S1                 0.0000
     33 ****         4.9981   0.3611  -1.2245 H              1 S1                 0.0000
     34 ****         3.4243  -0.9385  -2.6759 H              1 S1                 0.0000
     35 ****         3.0810  -1.1832  -0.9798 H              1 S1                 0.0000
     36 ****         0.9851  -0.8149  -2.2031 H              1 S1                 0.0000
     37 ****         1.5642   0.6925  -2.8690 H              1 S1                 0.0000
     38 ****        -4.3178  -0.3688   2.5915 LP             1 S1                 0.0000
     39 ****        -0.3496  -1.2349  -0.6407 LP             1 S1                 0.0000
     40 ****         1.2037   0.1248  -0.0740 LP             1 S1                 0.0000
@<TRIPOS>BOND
    1    1    2 1     
    2    1   19 1     
    3    1   20 1     
    4    1   21 1     
    5    2    3 1     
    6    2    9 1     
    7    2   22 1     
    8    3    4 1     
    9    3   23 1     
   10    3   24 1     
   11    4    8 1     
   12    4    5 1     
   13    5    6 2     
   14    5   25 1     
   15    6    7 1     
   16    6   26 1     
   17    7    8 2     
   18    7   27 1     
   19    9   10 1     
   20   10   11 2     
   21   10   12 2     
   22   10   13 1     
   23   13   18 1     
   24   13   14 1     
   25   14   15 1     
   26   14   28 1     
   27   14   29 1     
   28   15   16 1     
   29   15   30 1     
   30   15   31 1     
   31   16   17 1     
   32   16   32 1     
   33   16   33 1     
   34   17   18 1     
   35   17   34 1     
   36   17   35 1     
   37   18   36 1     
   38   18   37 1     
   39    8   38 1     
   40    9   39 1     
   41   13   40 1     
@<TRIPOS>SUBSTRUCTURE
      1 S1             1
@<TRIPOS>SET
LONE_PAIRS      STATIC     ATOMS    <user>   **** ""
5 38 39 11 12 40
ATOM$BLUE        STATIC     ATOMS    COLORGROUP SYSTEM
5 38 39 11 12 40
