AV-unprocessed.smi:1207|AV-procd|sdf|5057|dock8
  -GOLD-   22720 4 93D 1   1.00000     0.00000
 Structure written by MMmdl.
 53 55  0  0  0  0  0  0  0  0  3 V2000
  152.0572  142.6172  160.5066 C   0  0  0  0  0  0  0  0  0  0  0  0
  151.7474  141.9420  159.1811 C   0  0  0  0  0  0  0  0  0  0  0  0
  150.8285  142.5640  158.3059 C   0  0  0  0  0  0  0  0  0  0  0  0
  150.5657  141.9226  157.1013 C   0  0  0  0  0  0  0  0  0  0  0  0
  149.7231  142.2701  156.0429 N   0  3  0  0  0  0  0  0  0  0  0  0
  149.7985  141.3197  155.0702 C   0  0  0  0  0  0  0  0  0  0  0  0
  150.6820  140.3730  155.4899 N   0  0  0  0  0  0  0  0  0  0  0  0
  151.1266  139.1365  154.8330 C   0  0  0  0  0  0  0  0  0  0  0  0
  150.0583  138.0256  154.8563 C   0  0  2  0  0  0  0  0  0  0  0  0
  150.5121  136.9292  154.0865 O   0  0  0  0  0  0  0  0  0  0  0  0
  148.7150  138.5148  154.2781 C   0  0  0  0  0  0  0  0  0  0  0  0
  147.7452  137.4082  154.0621 N   0  3  1  0  0  0  0  0  0  0  0  0
  147.5903  136.5415  155.2573 C   0  0  0  0  0  0  0  0  0  0  0  0
  146.4441  137.8954  153.5339 C   0  0  0  0  0  0  0  0  0  0  0  0
  145.4547  136.7727  153.3515 C   0  0  0  0  0  0  0  0  0  0  0  0
  145.1421  136.0521  152.1620 C   0  0  0  0  0  0  0  0  0  0  0  0
  145.7127  136.2202  150.7827 C   0  0  0  0  0  0  0  0  0  0  0  0
  144.2223  135.1264  152.3742 N   0  0  0  0  0  0  0  0  0  0  0  0
  143.9014  135.2073  153.7324 O   0  0  0  0  0  0  0  0  0  0  0  0
  144.6490  136.1917  154.2919 C   0  0  0  0  0  0  0  0  0  0  0  0
  144.4546  136.4337  155.7506 C   0  0  0  0  0  0  0  0  0  0  0  0
  151.1816  140.7046  156.7540 C   0  0  0  0  0  0  0  0  0  0  0  0
  152.0881  140.0769  157.6048 C   0  0  0  0  0  0  0  0  0  0  0  0
  152.3690  140.7139  158.8349 C   0  0  0  0  0  0  0  0  0  0  0  0
  153.3548  140.0542  159.7840 C   0  0  0  0  0  0  0  0  0  0  0  0
  151.4911  143.5416  160.6254 H   0  0  0  0  0  0  0  0  0  0  0  0
  153.1169  142.8649  160.5723 H   0  0  0  0  0  0  0  0  0  0  0  0
  151.8020  141.9620  161.3399 H   0  0  0  0  0  0  0  0  0  0  0  0
  150.3506  143.4980  158.5637 H   0  0  0  0  0  0  0  0  0  0  0  0
  149.2565  141.3186  154.1352 H   0  0  0  0  0  0  0  0  0  0  0  0
  151.4173  139.3781  153.8097 H   0  0  0  0  0  0  0  0  0  0  0  0
  152.0331  138.8038  155.3411 H   0  0  0  0  0  0  0  0  0  0  0  0
  149.9319  137.6868  155.8834 H   0  0  0  0  0  0  0  0  0  0  0  0
  150.0601  136.9377  153.2562 H   0  0  0  0  0  0  0  0  0  0  0  0
  148.2645  139.2618  154.9334 H   0  0  0  0  0  0  0  0  0  0  0  0
  148.9202  139.0261  153.3363 H   0  0  0  0  0  0  0  0  0  0  0  0
  147.1305  137.0914  156.0791 H   0  0  0  0  0  0  0  0  0  0  0  0
  148.5481  136.1574  155.6045 H   0  0  0  0  0  0  0  0  0  0  0  0
  146.9680  135.6738  155.0396 H   0  0  0  0  0  0  0  0  0  0  0  0
  146.0550  138.6699  154.1960 H   0  0  0  0  0  0  0  0  0  0  0  0
  146.6070  138.3833  152.5723 H   0  0  0  0  0  0  0  0  0  0  0  0
  145.9764  137.2590  150.5865 H   0  0  0  0  0  0  0  0  0  0  0  0
  145.0014  135.9133  150.0152 H   0  0  0  0  0  0  0  0  0  0  0  0
  146.6142  135.6198  150.6589 H   0  0  0  0  0  0  0  0  0  0  0  0
  144.5341  137.4959  155.9827 H   0  0  0  0  0  0  0  0  0  0  0  0
  145.2084  135.9028  156.3321 H   0  0  0  0  0  0  0  0  0  0  0  0
  143.4723  136.0915  156.0770 H   0  0  0  0  0  0  0  0  0  0  0  0
  152.5596  139.1416  157.3428 H   0  0  0  0  0  0  0  0  0  0  0  0
  153.7358  139.1169  159.3770 H   0  0  0  0  0  0  0  0  0  0  0  0
  152.8773  139.8322  160.7385 H   0  0  0  0  0  0  0  0  0  0  0  0
  154.2074  140.7089  159.9666 H   0  0  0  0  0  0  0  0  0  0  0  0
  148.1422  136.8362  153.3300 H   0  0  0  0  0  0  0  0  0  0  0  0
  149.1361  143.0926  155.9876 H   0  0  0  0  0  0  0  0  0  0  0  0
  1  2  1  0  0  0  0
  1 26  1  0  0  0  0
  1 27  1  0  0  0  0
  1 28  1  0  0  0  0
  2 24  1  0  0  0  0
  2  3  2  0  0  0  0
  3  4  1  0  0  0  0
  3 29  1  0  0  0  0
  4 22  2  0  0  0  0
  4  5  1  0  0  0  0
  5  6  2  0  0  0  0
  5 53  1  0  0  0  0
  6  7  1  0  0  0  0
  6 30  1  0  0  0  0
  7  8  1  0  0  0  0
  7 22  1  0  0  0  0
  8  9  1  0  0  0  0
  8 31  1  0  0  0  0
  8 32  1  0  0  0  0
  9 10  1  0  0  0  0
  9 11  1  0  0  0  0
  9 33  1  0  0  0  0
 10 34  1  0  0  0  0
 11 12  1  0  0  0  0
 11 35  1  0  0  0  0
 11 36  1  0  0  0  0
 12 13  1  0  0  0  0
 12 14  1  0  0  0  0
 12 52  1  0  0  0  0
 13 37  1  0  0  0  0
 13 38  1  0  0  0  0
 13 39  1  0  0  0  0
 14 15  1  0  0  0  0
 14 40  1  0  0  0  0
 14 41  1  0  0  0  0
 15 20  2  0  0  0  0
 15 16  1  0  0  0  0
 16 17  1  0  0  0  0
 16 18  2  0  0  0  0
 17 42  1  0  0  0  0
 17 43  1  0  0  0  0
 17 44  1  0  0  0  0
 18 19  1  0  0  0  0
 19 20  1  0  0  0  0
 20 21  1  0  0  0  0
 21 45  1  0  0  0  0
 21 46  1  0  0  0  0
 21 47  1  0  0  0  0
 22 23  1  0  0  0  0
 23 24  2  0  0  0  0
 23 48  1  0  0  0  0
 24 25  1  0  0  0  0
 25 49  1  0  0  0  0
 25 50  1  0  0  0  0
 25 51  1  0  0  0  0
M  CHG  1   5   1
M  CHG  1  12   1
M  END
> <s_m_source_file>
AV-unprocessed.smi

> <i_m_source_file_index>
1207

> <i_lp_mmshare_version>
43012

> <i_f3d_flags>
0

> <s_epik_input>
W0NIM11jKFtjSF0xKWMoW0NIM10pW2NIXWMoYzEyKW4oW2NIXW4yKVtDSDJdW0NASF0oW09IXSlbQ0gyXU4oW0NIM10pW0NIMl1jM2MoW0NIM10pbm9jM1tDSDNd

> <s_epik_cmdline>
J2VwaWtfcHl0aG9uJywgJy1waCcsICc3LjAnLCAnLXRuJywgJzgnLCAnLW1hJywgJzIwMCcsICctbWV0YWxfYmluZGluZycsICctaW1hZScsICc8aW5maWxlLm1hZT4nLCAnLW9tYWUnLCAnPG91dGZpbGUubWFlPic=

> <r_epik_Ionization_Penalty>
1.77463

> <r_epik_Ionization_Penalty_Charging>
1.77463

> <r_epik_Ionization_Penalty_Neutral>
3.70885e-06

> <r_epik_State_Penalty>
1.85225

> <r_epik_Charging_Adjusted_Penalty>
3.62688

> <i_epik_Tot_Q>
2

> <i_epik_Tot_abs_Q>
2

> <r_epik_Metal_State_Penalty>
1.92674

> <b_epik_Metal_Only>
0

> <s_lp_Force_Field>
OPLS_2005

> <r_lp_Energy>
17.578

> <b_lp_Chiralities_Consistent>
1

> <s_lp_Variant>
AV-unprocessed.smi:1207-9

> <Gold.Version>
5.8.1

> <Gold.Id.Protein>
6NUR|6NUR_protein|mol2

> <Gold.PLP.Fitness>
52.3149

> <Gold.PLP.PLP>
-38.8813

> <Gold.PLP.part.hbond>
-4.0000

> <Gold.PLP.part.metal>
0.0000

> <Gold.PLP.part.buried>
-2.7411

> <Gold.PLP.part.nonpolar>
-32.1935

> <Gold.PLP.part.repulsive>
0.2841

> <Gold.PLP.ligand.clash>
0.0000

> <Gold.PLP.ligand.torsion>
0.6192

> <Gold.PLP.Chemscore.Hbond>
4.8500

> <Gold.PLP.Chemscore.CHOScore>
0.0000

> <Gold.PLP.Chemscore.Metal>
0.0000

> <Gold.Chemscore.Hbonds>
donor molecule, donor type, donor heavy atom, donor atom, acceptor molecule, acceptor atom, score
      L1  H     5    53       P1  8028  2.00
      L1  H    10    34       P1  7948  0.80
      L1  H    12    52       P1  7948  2.00

> <Gold.PLP.Chemscore.Internal.Correction>
0.1221

> <Gold.Rescore>
     Score         DG    S(hbond)    S(metal)    S(lipo)     H(rot)  DE(clash)    DE(int)     intcor
     16.73     -17.74       2.02        0.00     102.58       2.54       0.43       0.58       ----

> <Gold.Chemscore.Fitness>
16.7271

> <Gold.Chemscore.DG>
-17.7403

> <Gold.Chemscore.ZeroCoef>
-5.4800

> <Gold.Chemscore.Hbond>
2.0205

> <Gold.Chemscore.Metal>
0.0000

> <Gold.Chemscore.Lipo>
102.5792

> <Gold.Chemscore.Internal_Hbond>
0.0000

> <Gold.Chemscore.DEClash>
0.4335

> <Gold.Chemscore.DEInternal>
0.5797

> <Gold.Chemscore.Rot>
2.5351

> <Gold.Chemscore.Internal.Correction>
   9.000000E+99

> <Gold.Chemscore.Hbonds>
donor molecule, donor type, donor heavy atom, donor atom, acceptor molecule, acceptor atom, score
      L1  H     5    53       P1  8028  0.97
      L1  H    10    34       P1  7948  0.12
      L1  H    12    52       P1  7948  1.00

> <Gold.Chemscore.Hbond.Weighted>
-6.7485

> <Gold.Chemscore.Metal.Weighted>
-0.0000

> <Gold.Chemscore.Lipo.Weighted>
-12.0018

> <Gold.Chemscore.Internal_Hbond.Weighted>
0.0000

> <Gold.Chemscore.DEClash.Weighted>
0.4335

> <Gold.Chemscore.DEInternal.Weighted>
0.5797

> <Gold.Chemscore.Rot.Weighted>
6.4900

> <Gold.Chemscore.Internal.Correction.Weighted>
   9.000000E+99

> <Gold.Protein.RotatedTorsions>
[ 6907 6896 6895 6894 ] final -156.13 input  -60.11 | X-H torsion
[ 7974 7965 7964 7962 ] final  -80.49 input  175.53 | X-H torsion
[ 8008 7997 7996 7995 ] final  -56.47 input   59.86 | X-H torsion
[ 10167 10162 10161 10158 ] final  123.38 input  -65.29 | X-H torsion
[ 10718 10713 10712 10709 ] final -143.39 input   66.30 | X-H torsion
[ 10763 10752 10751 10750 ] final  169.38 input  -60.55 | X-H torsion
[ 11005 11000 10999 10996 ] final   83.15 input  -57.11 | X-H torsion

> <Gold.Protein.ActiveResidues>
 VAL166  LYS551  ARG553  GLY616  TRP617  ASP618  TYR619  PRO620  LYS621  CYS622 
 ASP623  PHE694  ASN695  SER759  ASP760  ASP761  ALA762  ILE779  LEU786  VAL792 
 PHE793  MET794  SER795  GLU796  ALA797  LYS798  CYS799  TRP800  GLU811  SER814 

> <Gold.Protein.RotatedAtoms>
  151.2830  133.4201  159.2627 H   0  0  0  0  0  0  0  0  0  0  0  0  # atno 6907 bound_to 6896
  151.0344  134.9563  159.8139 H   0  0  0  0  0  0  0  0  0  0  0  0  # atno 6908 bound_to 6896
  152.5352  134.2789  159.9052 H   0  0  0  0  0  0  0  0  0  0  0  0  # atno 6909 bound_to 6896
  145.5592  140.9485  143.1456 H   0  0  0  0  0  0  0  0  0  0  0  0  # atno 7974 bound_to 7965
  154.4231  140.1129  156.5642 H   0  0  0  0  0  0  0  0  0  0  0  0  # atno 8008 bound_to 7997
  155.6280  140.3495  155.4654 H   0  0  0  0  0  0  0  0  0  0  0  0  # atno 8009 bound_to 7997
  155.9971  140.1191  157.0573 H   0  0  0  0  0  0  0  0  0  0  0  0  # atno 8010 bound_to 7997
  139.5803  144.6983  151.3547 H   0  0  0  0  0  0  0  0  0  0  0  0  # atno 10167 bound_to 10162
  156.3574  130.7720  151.1882 H   0  0  0  0  0  0  0  0  0  0  0  0  # atno 10718 bound_to 10713
  154.3823  135.2753  155.2204 H   0  0  0  0  0  0  0  0  0  0  0  0  # atno 10763 bound_to 10752
  154.4305  135.5978  153.6069 H   0  0  0  0  0  0  0  0  0  0  0  0  # atno 10764 bound_to 10752
  152.9834  135.5994  154.4068 H   0  0  0  0  0  0  0  0  0  0  0  0  # atno 10765 bound_to 10752
  139.9040  134.8123  156.2270 H   0  0  0  0  0  0  0  0  0  0  0  0  # atno 11005 bound_to 11000
  144.7491  139.7241  143.7280 LP  0  0  0  0  0  0  0  0  0  0  0  0  # atno 17320 bound_to 7965
  146.1863  139.5080  142.9834 LP  0  0  0  0  0  0  0  0  0  0  0  0  # atno 17321 bound_to 7965
  140.7081  143.7460  150.7518 LP  0  0  0  0  0  0  0  0  0  0  0  0  # atno 17342 bound_to 10162
  140.0991  143.4805  152.2435 LP  0  0  0  0  0  0  0  0  0  0  0  0  # atno 17343 bound_to 10162
  157.7469  131.0410  150.4624 LP  0  0  0  0  0  0  0  0  0  0  0  0  # atno 17370 bound_to 10713
  156.4830  130.4078  149.6451 LP  0  0  0  0  0  0  0  0  0  0  0  0  # atno 17371 bound_to 10713
  141.0369  133.6958  156.1529 LP  0  0  0  0  0  0  0  0  0  0  0  0  # atno 17394 bound_to 11000
  140.7013  134.4561  157.5586 LP  0  0  0  0  0  0  0  0  0  0  0  0  # atno 17395 bound_to 11000

$$$$
