AV-unprocessed.smi:1278|AV-procd|sdf|5354|dock3
  -GOLD-   22720 4493D 1   1.00000     0.00000
 Structure written by MMmdl.
 38 39  0  0  0  0  0  0  0  0  3 V2000
  146.2963  132.6342  150.5714 C   0  0  0  0  0  0  0  0  0  0  0  0
  146.6940  133.5832  151.7108 C   0  0  1  0  0  0  0  0  0  0  0  0
  145.5351  133.7887  152.7003 C   0  0  0  0  0  0  0  0  0  0  0  0
  145.9689  134.7188  153.8399 C   0  0  0  0  0  0  0  0  0  0  0  0
  147.2359  134.1893  154.5296 C   0  0  0  0  0  0  0  0  0  0  0  0
  148.3398  134.0014  153.5529 N   0  3  1  0  0  0  0  0  0  0  0  0
  149.6107  133.6132  154.2128 C   0  0  0  0  0  0  0  0  0  0  0  0
  150.1113  134.6887  155.1956 C   0  0  0  0  0  0  0  0  0  0  0  0
  150.0155  136.0225  154.6148 N   0  0  0  0  0  0  0  0  0  0  0  0
  150.7293  137.0932  154.9909 C   0  0  0  0  0  0  0  0  0  0  0  0
  151.5383  136.9979  155.9168 O   0  0  0  0  0  0  0  0  0  0  0  0
  150.4671  138.2026  154.2651 N   0  5  0  0  0  0  0  0  0  0  0  0
  150.0015  139.3069  154.8713 C   0  0  0  0  0  0  0  0  0  0  0  0
  149.8753  140.4845  154.2488 N   0  0  0  0  0  0  0  0  0  0  0  0
  149.3773  141.4965  155.0719 C   0  0  0  0  0  0  0  0  0  0  0  0
  149.1247  141.0812  156.3522 C   0  0  0  0  0  0  0  0  0  0  0  0
  149.5104  139.3973  156.5650 S   0  0  0  0  0  0  0  0  0  0  0  0
  147.9474  133.0783  152.4541 C   0  0  0  0  0  0  0  0  0  0  0  0
  146.0452  131.6425  150.9494 H   0  0  0  0  0  0  0  0  0  0  0  0
  147.1090  132.5199  149.8533 H   0  0  0  0  0  0  0  0  0  0  0  0
  145.4295  133.0133  150.0289 H   0  0  0  0  0  0  0  0  0  0  0  0
  146.9334  134.5495  151.2641 H   0  0  0  0  0  0  0  0  0  0  0  0
  144.6682  134.2083  152.1884 H   0  0  0  0  0  0  0  0  0  0  0  0
  145.2203  132.8281  153.1110 H   0  0  0  0  0  0  0  0  0  0  0  0
  146.1566  135.7187  153.4463 H   0  0  0  0  0  0  0  0  0  0  0  0
  145.1625  134.8185  154.5671 H   0  0  0  0  0  0  0  0  0  0  0  0
  147.5417  134.8968  155.3016 H   0  0  0  0  0  0  0  0  0  0  0  0
  147.0261  133.2428  155.0305 H   0  0  0  0  0  0  0  0  0  0  0  0
  149.4522  132.6879  154.7680 H   0  0  0  0  0  0  0  0  0  0  0  0
  150.3687  133.3906  153.4599 H   0  0  0  0  0  0  0  0  0  0  0  0
  149.5162  134.6910  156.1080 H   0  0  0  0  0  0  0  0  0  0  0  0
  151.1410  134.4867  155.4960 H   0  0  0  0  0  0  0  0  0  0  0  0
  149.3592  136.1475  153.8578 H   0  0  0  0  0  0  0  0  0  0  0  0
  149.2340  142.4852  154.6625 H   0  0  0  0  0  0  0  0  0  0  0  0
  148.7402  141.6588  157.1791 H   0  0  0  0  0  0  0  0  0  0  0  0
  147.7668  132.0833  152.8645 H   0  0  0  0  0  0  0  0  0  0  0  0
  148.7653  132.9789  151.7413 H   0  0  0  0  0  0  0  0  0  0  0  0
  148.5029  134.9072  153.1371 H   0  0  0  0  0  0  0  0  0  0  0  0
  1  2  1  0  0  0  0
  1 19  1  0  0  0  0
  1 20  1  0  0  0  0
  1 21  1  0  0  0  0
  2 18  1  0  0  0  0
  2  3  1  0  0  0  0
  2 22  1  0  0  0  0
  3  4  1  0  0  0  0
  3 23  1  0  0  0  0
  3 24  1  0  0  0  0
  4  5  1  0  0  0  0
  4 25  1  0  0  0  0
  4 26  1  0  0  0  0
  5  6  1  0  0  0  0
  5 27  1  0  0  0  0
  5 28  1  0  0  0  0
  6  7  1  0  0  0  0
  6 18  1  0  0  0  0
  6 38  1  0  0  0  0
  7  8  1  0  0  0  0
  7 29  1  0  0  0  0
  7 30  1  0  0  0  0
  8  9  1  0  0  0  0
  8 31  1  0  0  0  0
  8 32  1  0  0  0  0
  9 10  1  0  0  0  0
  9 33  1  0  0  0  0
 10 11  2  0  0  0  0
 10 12  1  0  0  0  0
 12 13  1  0  0  0  0
 13 17  1  0  0  0  0
 13 14  2  0  0  0  0
 14 15  1  0  0  0  0
 15 16  2  0  0  0  0
 15 34  1  0  0  0  0
 16 17  1  0  0  0  0
 16 35  1  0  0  0  0
 18 36  1  0  0  0  0
 18 37  1  0  0  0  0
M  CHG  1   6   1
M  CHG  1  12  -1
M  END
> <s_m_source_file>
AV-unprocessed.smi

> <i_m_source_file_index>
1278

> <i_lp_mmshare_version>
43012

> <i_f3d_flags>
0

> <s_epik_input>
W0NIM11bQ0BASF0xW0NIMl1bQ0gyXVtDSDJdTihbQ0gyXTEpW0NIMl1bQ0gyXVtOSF1DKD1PKVtOSF1jMm5bY0hdW2NIXXMy

> <s_epik_cmdline>
J2VwaWtfcHl0aG9uJywgJy1waCcsICc3LjAnLCAnLXRuJywgJzgnLCAnLW1hJywgJzIwMCcsICctbWV0YWxfYmluZGluZycsICctaW1hZScsICc8aW5maWxlLm1hZT4nLCAnLW9tYWUnLCAnPG91dGZpbGUubWFlPic=

> <r_lp_tautomer_probability>
0.999

> <r_epik_Ionization_Penalty>
6.22019

> <r_epik_Ionization_Penalty_Charging>
5.38911

> <r_epik_Ionization_Penalty_Neutral>
0.831074

> <r_epik_State_Penalty>
5.38904

> <r_epik_Charging_Adjusted_Penalty>
10.7782

> <i_epik_Tot_Q>
0

> <i_epik_Tot_abs_Q>
2

> <r_epik_Metal_State_Penalty>
1.41502

> <b_epik_Metal_Only>
1

> <s_lp_Force_Field>
OPLS_2005

> <r_lp_Energy>
5.28715

> <b_lp_Chiralities_Consistent>
1

> <s_lp_Variant>
AV-unprocessed.smi:1278-8

> <Gold.Version>
5.8.1

> <Gold.Id.Protein>
6NUR|6NUR_protein|mol2

> <Gold.PLP.Fitness>
44.4832

> <Gold.PLP.PLP>
-28.6512

> <Gold.PLP.part.hbond>
-4.8193

> <Gold.PLP.part.metal>
0.0000

> <Gold.PLP.part.buried>
-3.0731

> <Gold.PLP.part.nonpolar>
-20.1821

> <Gold.PLP.part.repulsive>
1.0663

> <Gold.PLP.ligand.clash>
0.0000

> <Gold.PLP.ligand.torsion>
0.8157

> <Gold.PLP.Chemscore.Hbond>
4.7920

> <Gold.PLP.Chemscore.CHOScore>
1.0000

> <Gold.PLP.Chemscore.Metal>
0.0000

> <Gold.Chemscore.Hbonds>
donor molecule, donor type, donor heavy atom, donor atom, acceptor molecule, acceptor atom, score
      L1  H     6    38       P1  7948  2.00
      L1  H     9    33       P1  7948  0.98
      P1  H  7989  7998       L1    14  0.78
      P1  H 10752 10765       L1    11  0.22
      L1  C    15    34       P1  8028  1.00

> <Gold.PLP.Chemscore.Internal.Correction>
0.0873

> <Gold.Rescore>
     Score         DG    S(hbond)    S(metal)    S(lipo)     H(rot)  DE(clash)    DE(int)     intcor
     16.99     -17.95       3.15        0.00      50.91       1.57       0.02       0.94       ----

> <Gold.Chemscore.Fitness>
16.9922

> <Gold.Chemscore.DG>
-17.9499

> <Gold.Chemscore.ZeroCoef>
-5.4800

> <Gold.Chemscore.Hbond>
3.1518

> <Gold.Chemscore.Metal>
0.0000

> <Gold.Chemscore.Lipo>
50.9067

> <Gold.Chemscore.Internal_Hbond>
0.0000

> <Gold.Chemscore.DEClash>
0.0224

> <Gold.Chemscore.DEInternal>
0.9354

> <Gold.Chemscore.Rot>
1.5676

> <Gold.Chemscore.Internal.Correction>
   9.000000E+99

> <Gold.Chemscore.Hbonds>
donor molecule, donor type, donor heavy atom, donor atom, acceptor molecule, acceptor atom, score
      L1  H     6    38       P1  7948  0.65
      L1  H     9    33       P1  7948  0.70
      P1  H  7989  7998       L1    14  0.41
      P1  H 10752 10765       L1    11  0.04

> <Gold.Chemscore.Hbond.Weighted>
-10.5269

> <Gold.Chemscore.Metal.Weighted>
-0.0000

> <Gold.Chemscore.Lipo.Weighted>
-5.9561

> <Gold.Chemscore.Internal_Hbond.Weighted>
0.0000

> <Gold.Chemscore.DEClash.Weighted>
0.0224

> <Gold.Chemscore.DEInternal.Weighted>
0.9354

> <Gold.Chemscore.Rot.Weighted>
4.0130

> <Gold.Chemscore.Internal.Correction.Weighted>
   9.000000E+99

> <Gold.Protein.RotatedTorsions>
[ 6907 6896 6895 6894 ] final -149.35 input  -60.11 | X-H torsion
[ 7974 7965 7964 7962 ] final  -52.17 input  175.53 | X-H torsion
[ 8008 7997 7996 7995 ] final  -87.80 input   59.86 | X-H torsion
[ 10167 10162 10161 10158 ] final  -99.69 input  -65.29 | X-H torsion
[ 10718 10713 10712 10709 ] final  120.18 input   66.30 | X-H torsion
[ 10763 10752 10751 10750 ] final -162.68 input  -60.55 | X-H torsion
[ 11005 11000 10999 10996 ] final  156.17 input  -57.11 | X-H torsion

> <Gold.Protein.ActiveResidues>
 VAL166  LYS551  ARG553  GLY616  TRP617  ASP618  TYR619  PRO620  LYS621  CYS622 
 ASP623  PHE694  ASN695  SER759  ASP760  ASP761  ALA762  ILE779  LEU786  VAL792 
 PHE793  MET794  SER795  GLU796  ALA797  LYS798  CYS799  TRP800  GLU811  SER814 

> <Gold.Protein.RotatedAtoms>
  151.1829  133.4714  159.2593 H   0  0  0  0  0  0  0  0  0  0  0  0  # atno 6907 bound_to 6896
  151.1241  135.0095  159.8562 H   0  0  0  0  0  0  0  0  0  0  0  0  # atno 6908 bound_to 6896
  152.5457  134.1738  159.8660 H   0  0  0  0  0  0  0  0  0  0  0  0  # atno 6909 bound_to 6896
  145.9109  140.7915  142.9695 H   0  0  0  0  0  0  0  0  0  0  0  0  # atno 7974 bound_to 7965
  154.6675  140.0561  157.0129 H   0  0  0  0  0  0  0  0  0  0  0  0  # atno 8008 bound_to 7997
  155.1138  140.3241  155.4496 H   0  0  0  0  0  0  0  0  0  0  0  0  # atno 8009 bound_to 7997
  156.2644  140.2009  156.6262 H   0  0  0  0  0  0  0  0  0  0  0  0  # atno 8010 bound_to 7997
  140.2597  143.3415  152.0637 H   0  0  0  0  0  0  0  0  0  0  0  0  # atno 10167 bound_to 10162
  157.5909  131.1064  150.8000 H   0  0  0  0  0  0  0  0  0  0  0  0  # atno 10718 bound_to 10713
  154.7192  135.3022  154.9074 H   0  0  0  0  0  0  0  0  0  0  0  0  # atno 10763 bound_to 10752
  153.9951  135.6714  153.4760 H   0  0  0  0  0  0  0  0  0  0  0  0  # atno 10764 bound_to 10752
  153.0820  135.5004  154.8438 H   0  0  0  0  0  0  0  0  0  0  0  0  # atno 10765 bound_to 10752
  140.1650  134.8583  157.2621 H   0  0  0  0  0  0  0  0  0  0  0  0  # atno 11005 bound_to 11000
  144.6743  140.1825  143.7404 LP  0  0  0  0  0  0  0  0  0  0  0  0  # atno 17320 bound_to 7965
  145.8672  139.2253  143.1682 LP  0  0  0  0  0  0  0  0  0  0  0  0  # atno 17321 bound_to 7965
  139.5020  144.6726  151.6205 LP  0  0  0  0  0  0  0  0  0  0  0  0  # atno 17342 bound_to 10162
  140.5975  143.9669  150.6364 LP  0  0  0  0  0  0  0  0  0  0  0  0  # atno 17343 bound_to 10162
  156.8422  130.5052  149.5320 LP  0  0  0  0  0  0  0  0  0  0  0  0  # atno 17370 bound_to 10713
  156.0964  130.5935  150.9820 LP  0  0  0  0  0  0  0  0  0  0  0  0  # atno 17371 bound_to 10713
  140.2444  134.3757  155.7467 LP  0  0  0  0  0  0  0  0  0  0  0  0  # atno 17394 bound_to 11000
  141.2213  133.7283  156.8839 LP  0  0  0  0  0  0  0  0  0  0  0  0  # atno 17395 bound_to 11000

$$$$
