AV-unprocessed.smi:2849|AV-procd|sdf|10962|dock10
  -GOLD-   2272015413D 1   1.00000     0.00000
 Structure written by MMmdl.
 56 59  0  0  0  0  0  0  0  0  3 V2000
  144.7207  134.5884  155.9882 C   0  0  0  0  0  0  0  0  0  0  0  0
  144.0557  134.4386  154.6718 N   0  3  2  0  0  0  0  0  0  0  0  0
  144.9739  134.4130  153.5071 C   0  0  1  0  0  0  0  0  0  0  0  0
  144.2223  133.8251  152.2895 C   0  0  0  0  0  0  0  0  0  0  0  0
  142.8834  134.5272  151.9822 C   0  0  0  0  0  0  0  0  0  0  0  0
  142.0793  134.8493  153.2588 C   0  0  0  0  0  0  0  0  0  0  0  0
  142.9430  135.3873  154.4238 C   0  0  2  0  0  0  0  0  0  0  0  0
  143.4674  136.8332  154.2328 C   0  0  0  0  0  0  0  0  0  0  0  0
  144.6084  136.9737  153.1982 C   0  0  1  0  0  0  0  0  0  0  0  0
  145.3170  138.2327  153.4267 N   0  0  0  0  0  0  0  0  0  0  0  0
  146.2964  138.4338  154.3212 C   0  0  0  0  0  0  0  0  0  0  0  0
  146.7245  137.5593  155.0739 O   0  0  0  0  0  0  0  0  0  0  0  0
  146.7212  139.7089  154.2974 N   0  0  0  0  0  0  0  0  0  0  0  0
  147.7788  140.2993  155.0408 C   0  0  0  0  0  0  0  0  0  0  0  0
  148.5250  139.4669  155.9028 C   0  0  0  0  0  0  0  0  0  0  0  0
  149.5676  140.0162  156.6765 C   0  0  0  0  0  0  0  0  0  0  0  0
  149.8429  141.4005  156.5875 C   0  0  0  0  0  0  0  0  0  0  0  0
  150.8563  142.0442  157.3118 N   0  0  0  0  0  0  0  0  0  0  0  0
  150.4097  143.0826  158.2259 C   0  0  0  0  0  0  0  0  0  0  0  0
  151.5856  143.3241  159.1751 C   0  0  0  0  0  0  0  0  0  0  0  0
  152.4142  142.0356  159.1112 C   0  0  0  0  0  0  0  0  0  0  0  0
  151.6901  141.1481  158.0947 C   0  0  0  0  0  0  0  0  0  0  0  0
  149.1015  142.1651  155.7567 N   0  3  0  0  0  0  0  0  0  0  0  0
  148.0967  141.6789  154.9961 C   0  0  0  0  0  0  0  0  0  0  0  0
  145.6152  135.8022  153.2651 C   0  0  0  0  0  0  0  0  0  0  0  0
  145.2194  135.5515  156.0928 H   0  0  0  0  0  0  0  0  0  0  0  0
  145.4660  133.8052  156.1287 H   0  0  0  0  0  0  0  0  0  0  0  0
  143.9916  134.4968  156.7938 H   0  0  0  0  0  0  0  0  0  0  0  0
  145.7831  133.7175  153.7356 H   0  0  0  0  0  0  0  0  0  0  0  0
  144.8611  133.8349  151.4057 H   0  0  0  0  0  0  0  0  0  0  0  0
  144.0151  132.7738  152.4938 H   0  0  0  0  0  0  0  0  0  0  0  0
  143.0520  135.4302  151.4017 H   0  0  0  0  0  0  0  0  0  0  0  0
  142.2845  133.8935  151.3274 H   0  0  0  0  0  0  0  0  0  0  0  0
  141.2727  135.5460  153.0274 H   0  0  0  0  0  0  0  0  0  0  0  0
  141.5922  133.9323  153.5928 H   0  0  0  0  0  0  0  0  0  0  0  0
  142.3025  135.3886  155.3071 H   0  0  0  0  0  0  0  0  0  0  0  0
  142.6435  137.4955  153.9645 H   0  0  0  0  0  0  0  0  0  0  0  0
  143.8203  137.1939  155.1997 H   0  0  0  0  0  0  0  0  0  0  0  0
  144.1661  136.9951  152.2059 H   0  0  0  0  0  0  0  0  0  0  0  0
  145.0326  139.0182  152.8596 H   0  0  0  0  0  0  0  0  0  0  0  0
  146.2086  140.3382  153.6972 H   0  0  0  0  0  0  0  0  0  0  0  0
  148.3066  138.4110  155.9696 H   0  0  0  0  0  0  0  0  0  0  0  0
  150.1458  139.3759  157.3267 H   0  0  0  0  0  0  0  0  0  0  0  0
  150.1405  143.9907  157.6853 H   0  0  0  0  0  0  0  0  0  0  0  0
  149.5357  142.7564  158.7904 H   0  0  0  0  0  0  0  0  0  0  0  0
  152.1851  144.1667  158.8283 H   0  0  0  0  0  0  0  0  0  0  0  0
  151.2471  143.5520  160.1863 H   0  0  0  0  0  0  0  0  0  0  0  0
  153.4256  142.2601  158.7704 H   0  0  0  0  0  0  0  0  0  0  0  0
  152.4924  141.5458  160.0822 H   0  0  0  0  0  0  0  0  0  0  0  0
  151.0757  140.4086  158.6105 H   0  0  0  0  0  0  0  0  0  0  0  0
  152.3950  140.6136  157.4570 H   0  0  0  0  0  0  0  0  0  0  0  0
  147.5834  142.4167  154.3982 H   0  0  0  0  0  0  0  0  0  0  0  0
  146.3233  135.9908  154.0733 H   0  0  0  0  0  0  0  0  0  0  0  0
  146.2179  135.7815  152.3562 H   0  0  0  0  0  0  0  0  0  0  0  0
  143.6306  133.5227  154.7027 H   0  0  0  0  0  0  0  0  0  0  0  0
  149.3072  143.1630  155.7038 H   0  0  0  0  0  0  0  0  0  0  0  0
  1  2  1  0  0  0  0
  1 26  1  0  0  0  0
  1 27  1  0  0  0  0
  1 28  1  0  0  0  0
  2  7  1  0  0  0  0
  2  3  1  0  0  0  0
  2 55  1  0  0  0  0
  3 25  1  0  0  0  0
  3  4  1  0  0  0  0
  3 29  1  0  0  0  0
  4  5  1  0  0  0  0
  4 30  1  0  0  0  0
  4 31  1  0  0  0  0
  5  6  1  0  0  0  0
  5 32  1  0  0  0  0
  5 33  1  0  0  0  0
  6  7  1  0  0  0  0
  6 34  1  0  0  0  0
  6 35  1  0  0  0  0
  7  8  1  0  0  0  0
  7 36  1  0  0  0  0
  8  9  1  0  0  0  0
  8 37  1  0  0  0  0
  8 38  1  0  0  0  0
  9 10  1  0  0  0  0
  9 25  1  0  0  0  0
  9 39  1  0  0  0  0
 10 11  1  0  0  0  0
 10 40  1  0  0  0  0
 11 12  2  0  0  0  0
 11 13  1  0  0  0  0
 13 14  1  0  0  0  0
 13 41  1  0  0  0  0
 14 24  1  0  0  0  0
 14 15  2  0  0  0  0
 15 16  1  0  0  0  0
 15 42  1  0  0  0  0
 16 17  2  0  0  0  0
 16 43  1  0  0  0  0
 17 18  1  0  0  0  0
 17 23  1  0  0  0  0
 18 22  1  0  0  0  0
 18 19  1  0  0  0  0
 19 20  1  0  0  0  0
 19 44  1  0  0  0  0
 19 45  1  0  0  0  0
 20 21  1  0  0  0  0
 20 46  1  0  0  0  0
 20 47  1  0  0  0  0
 21 22  1  0  0  0  0
 21 48  1  0  0  0  0
 21 49  1  0  0  0  0
 22 50  1  0  0  0  0
 22 51  1  0  0  0  0
 23 24  2  0  0  0  0
 23 56  1  0  0  0  0
 24 52  1  0  0  0  0
 25 53  1  0  0  0  0
 25 54  1  0  0  0  0
M  CHG  1   2   1
M  CHG  1  23   1
M  END
> <s_m_source_file>
AV-unprocessed.smi

> <i_m_source_file_index>
2849

> <i_lp_mmshare_version>
43012

> <i_f3d_flags>
0

> <s_epik_input>
W0NIMl0xW0NIMl1bQ0gyXVtDQEhdKE4oW0NIM10pW0NIXTEyKVtDSDJdW0NASF0oW0NIMl0yKVtOSF1DKD1PKVtOSF1jM1tjSF1bY0hdYyhuW2NIXTMpTjRbQ0gyXVtDSDJdW0NIMl1bQ0gyXTQ=

> <s_epik_cmdline>
J2VwaWtfcHl0aG9uJywgJy1waCcsICc3LjAnLCAnLXRuJywgJzgnLCAnLW1hJywgJzIwMCcsICctbWV0YWxfYmluZGluZycsICctaW1hZScsICc8aW5maWxlLm1hZT4nLCAnLW9tYWUnLCAnPG91dGZpbGUubWFlPic=

> <r_lp_tautomer_probability>
0.999994

> <r_epik_Ionization_Penalty>
1.2404

> <r_epik_Ionization_Penalty_Charging>
1.24038

> <r_epik_Ionization_Penalty_Neutral>
1.86921e-05

> <r_epik_State_Penalty>
1.30821

> <r_epik_Charging_Adjusted_Penalty>
2.54859

> <i_epik_Tot_Q>
2

> <i_epik_Tot_abs_Q>
2

> <r_epik_Metal_State_Penalty>
1.37823

> <b_epik_Metal_Only>
0

> <s_lp_Force_Field>
OPLS_2005

> <r_lp_Energy>
73.3774

> <b_lp_Chiralities_Consistent>
1

> <s_lp_Variant>
AV-unprocessed.smi:2849-6

> <Gold.Version>
5.8.1

> <Gold.Id.Protein>
6NUR|6NUR_protein|mol2

> <Gold.PLP.Fitness>
41.9502

> <Gold.PLP.PLP>
-27.7652

> <Gold.PLP.part.hbond>
-2.9890

> <Gold.PLP.part.metal>
0.0000

> <Gold.PLP.part.buried>
-4.8959

> <Gold.PLP.part.nonpolar>
-21.1935

> <Gold.PLP.part.repulsive>
0.2525

> <Gold.PLP.ligand.clash>
0.0000

> <Gold.PLP.ligand.torsion>
0.3334

> <Gold.PLP.Chemscore.Hbond>
4.9440

> <Gold.PLP.Chemscore.CHOScore>
0.0000

> <Gold.PLP.Chemscore.Metal>
0.0000

> <Gold.Chemscore.Hbonds>
donor molecule, donor type, donor heavy atom, donor atom, acceptor molecule, acceptor atom, score
      L1  H     2    55       P1 10957  2.00
      L1  H    10    40       P1 10175  0.98
      L1  H    23    56       P1  8028  2.00

> <Gold.PLP.Chemscore.Internal.Correction>
0.0197

> <Gold.Rescore>
     Score         DG    S(hbond)    S(metal)    S(lipo)     H(rot)  DE(clash)    DE(int)     intcor
     18.99     -21.55       2.95        0.00      79.20       1.19       0.09       2.47       ----

> <Gold.Chemscore.Fitness>
18.9948

> <Gold.Chemscore.DG>
-21.5545

> <Gold.Chemscore.ZeroCoef>
-5.4800

> <Gold.Chemscore.Hbond>
2.9489

> <Gold.Chemscore.Metal>
0.0000

> <Gold.Chemscore.Lipo>
79.1979

> <Gold.Chemscore.Internal_Hbond>
0.0000

> <Gold.Chemscore.DEClash>
0.0888

> <Gold.Chemscore.DEInternal>
2.4708

> <Gold.Chemscore.Rot>
1.1879

> <Gold.Chemscore.Internal.Correction>
   9.000000E+99

> <Gold.Chemscore.Hbonds>
donor molecule, donor type, donor heavy atom, donor atom, acceptor molecule, acceptor atom, score
      L1  H     2    55       P1 10957  0.95
      L1  H    10    40       P1 10175  0.88
      L1  H    23    56       P1  8028  0.96

> <Gold.Chemscore.Hbond.Weighted>
-9.8494

> <Gold.Chemscore.Metal.Weighted>
-0.0000

> <Gold.Chemscore.Lipo.Weighted>
-9.2662

> <Gold.Chemscore.Internal_Hbond.Weighted>
0.0000

> <Gold.Chemscore.DEClash.Weighted>
0.0888

> <Gold.Chemscore.DEInternal.Weighted>
2.4708

> <Gold.Chemscore.Rot.Weighted>
3.0410

> <Gold.Chemscore.Internal.Correction.Weighted>
   9.000000E+99

> <Gold.Protein.RotatedTorsions>
[ 6907 6896 6895 6894 ] final  110.05 input  -60.11 | X-H torsion
[ 7974 7965 7964 7962 ] final   71.07 input  175.53 | X-H torsion
[ 8008 7997 7996 7995 ] final  129.33 input   59.86 | X-H torsion
[ 10167 10162 10161 10158 ] final   -1.38 input  -65.29 | X-H torsion
[ 10718 10713 10712 10709 ] final   92.88 input   66.30 | X-H torsion
[ 10763 10752 10751 10750 ] final  125.85 input  -60.55 | X-H torsion
[ 11005 11000 10999 10996 ] final  111.40 input  -57.11 | X-H torsion

> <Gold.Protein.ActiveResidues>
 VAL166  LYS551  ARG553  GLY616  TRP617  ASP618  TYR619  PRO620  LYS621  CYS622 
 ASP623  PHE694  ASN695  SER759  ASP760  ASP761  ALA762  ILE779  LEU786  VAL792 
 PHE793  MET794  SER795  GLU796  ALA797  LYS798  CYS799  TRP800  GLU811  SER814 

> <Gold.Protein.RotatedAtoms>
  152.5038  133.8856  159.7367 H   0  0  0  0  0  0  0  0  0  0  0  0  # atno 6907 bound_to 6896
  150.9307  133.6761  159.2818 H   0  0  0  0  0  0  0  0  0  0  0  0  # atno 6908 bound_to 6896
  151.4106  135.0989  159.9636 H   0  0  0  0  0  0  0  0  0  0  0  0  # atno 6909 bound_to 6896
  145.7703  139.2840  143.1325 H   0  0  0  0  0  0  0  0  0  0  0  0  # atno 7974 bound_to 7965
  156.2934  140.2623  156.2581 H   0  0  0  0  0  0  0  0  0  0  0  0  # atno 8008 bound_to 7997
  154.9816  140.0389  157.2298 H   0  0  0  0  0  0  0  0  0  0  0  0  # atno 8009 bound_to 7997
  154.7766  140.2787  155.6100 H   0  0  0  0  0  0  0  0  0  0  0  0  # atno 8010 bound_to 7997
  140.6808  143.6782  150.8128 H   0  0  0  0  0  0  0  0  0  0  0  0  # atno 10167 bound_to 10162
  157.6957  131.0459  150.3950 H   0  0  0  0  0  0  0  0  0  0  0  0  # atno 10718 bound_to 10713
  153.6839  135.3310  155.3185 H   0  0  0  0  0  0  0  0  0  0  0  0  # atno 10763 bound_to 10752
  154.8458  135.4415  154.1578 H   0  0  0  0  0  0  0  0  0  0  0  0  # atno 10764 bound_to 10752
  153.2602  135.6990  153.7664 H   0  0  0  0  0  0  0  0  0  0  0  0  # atno 10765 bound_to 10752
  139.8903  134.9507  156.6426 H   0  0  0  0  0  0  0  0  0  0  0  0  # atno 11005 bound_to 11000
  146.0176  140.8378  142.9939 LP  0  0  0  0  0  0  0  0  0  0  0  0  # atno 17320 bound_to 7965
  144.6814  140.2581  143.7322 LP  0  0  0  0  0  0  0  0  0  0  0  0  # atno 17321 bound_to 7965
  140.0482  143.5277  152.2686 LP  0  0  0  0  0  0  0  0  0  0  0  0  # atno 17342 bound_to 10162
  139.6129  144.7613  151.2912 LP  0  0  0  0  0  0  0  0  0  0  0  0  # atno 17343 bound_to 10162
  156.4349  130.3979  149.6735 LP  0  0  0  0  0  0  0  0  0  0  0  0  # atno 17370 bound_to 10713
  156.3940  130.7641  151.2644 LP  0  0  0  0  0  0  0  0  0  0  0  0  # atno 17371 bound_to 10713
  140.7582  133.8840  155.8398 LP  0  0  0  0  0  0  0  0  0  0  0  0  # atno 17394 bound_to 11000
  140.9944  134.1235  157.4377 LP  0  0  0  0  0  0  0  0  0  0  0  0  # atno 17395 bound_to 11000

$$$$
