AV-unprocessed.smi:102|AV-procd|sdf|953|dock3
  -GOLD-   2262017483D 1   1.00000     0.00000
 Structure written by MMmdl.
 44 45  0  0  0  0  0  0  0  0  1 V2000
  147.6776  144.9467  160.9171 C   0  0  0  0  0  0  0  0  0  0  0  0
  146.6507  143.8750  160.5730 C   0  0  0  0  0  0  0  0  0  0  0  0
  146.5138  142.8711  161.2724 O   0  0  0  0  0  0  0  0  0  0  0  0
  145.9550  144.1630  159.4621 O   0  0  0  0  0  0  0  0  0  0  0  0
  144.8834  143.3209  159.0707 C   0  0  0  0  0  0  0  0  0  0  0  0
  145.3716  142.3291  158.0057 C   0  0  2  0  0  0  0  0  0  0  0  0
  146.3853  142.9150  157.1922 O   0  0  0  0  0  0  0  0  0  0  0  0
  146.3284  142.4087  155.8914 C   0  0  1  0  0  0  0  0  0  0  0  0
  147.6517  141.7489  155.5354 N   0  0  0  0  0  0  0  0  0  0  0  0
  148.6499  141.6638  156.4979 C   0  0  0  0  0  0  0  0  0  0  0  0
  149.8493  141.0767  156.2751 C   0  0  0  0  0  0  0  0  0  0  0  0
  150.7647  141.0431  157.2581 F   0  0  0  0  0  0  0  0  0  0  0  0
  150.1556  140.4791  154.9798 C   0  0  0  0  0  0  0  0  0  0  0  0
  151.2137  139.9297  154.6797 O   0  0  0  0  0  0  0  0  0  0  0  0
  149.1202  140.5687  154.0463 N   0  0  0  0  0  0  0  0  0  0  0  0
  147.8785  141.1685  154.2640 C   0  0  0  0  0  0  0  0  0  0  0  0
  147.0474  141.1789  153.3601 O   0  0  0  0  0  0  0  0  0  0  0  0
  145.0657  141.5247  155.7590 C   0  0  1  0  0  0  0  0  0  0  0  0
  145.3267  140.1268  155.6837 O   0  0  0  0  0  0  0  0  0  0  0  0
  144.3177  139.2385  155.7464 C   0  0  0  0  0  0  0  0  0  0  0  0
  144.7903  137.8094  155.5182 C   0  0  0  0  0  0  0  0  0  0  0  0
  143.1311  139.5003  155.9425 O   0  0  0  0  0  0  0  0  0  0  0  0
  144.2920  141.8485  157.0294 C   0  0  2  0  0  0  0  0  0  0  0  0
  143.3306  142.8678  156.7711 O   0  0  0  0  0  0  0  0  0  0  0  0
  142.4039  142.7007  155.8105 C   0  0  0  0  0  0  0  0  0  0  0  0
  141.4966  143.9147  155.6615 C   0  0  0  0  0  0  0  0  0  0  0  0
  142.2673  141.7038  155.1013 O   0  0  0  0  0  0  0  0  0  0  0  0
  149.2838  140.1628  153.1363 H   0  0  0  0  0  0  0  0  0  0  0  0
  147.6459  145.7648  160.1969 H   0  0  0  0  0  0  0  0  0  0  0  0
  148.6812  144.5214  160.9116 H   0  0  0  0  0  0  0  0  0  0  0  0
  147.4803  145.3530  161.9092 H   0  0  0  0  0  0  0  0  0  0  0  0
  144.5287  142.7755  159.9465 H   0  0  0  0  0  0  0  0  0  0  0  0
  144.0494  143.9128  158.6905 H   0  0  0  0  0  0  0  0  0  0  0  0
  145.7813  141.4516  158.5041 H   0  0  0  0  0  0  0  0  0  0  0  0
  146.2535  143.2794  155.2393 H   0  0  0  0  0  0  0  0  0  0  0  0
  148.4807  142.0916  157.4755 H   0  0  0  0  0  0  0  0  0  0  0  0
  144.5018  141.8456  154.8815 H   0  0  0  0  0  0  0  0  0  0  0  0
  145.4332  137.7583  154.6391 H   0  0  0  0  0  0  0  0  0  0  0  0
  143.9402  137.1449  155.3631 H   0  0  0  0  0  0  0  0  0  0  0  0
  145.3533  137.4557  156.3819 H   0  0  0  0  0  0  0  0  0  0  0  0
  143.7881  140.9689  157.4342 H   0  0  0  0  0  0  0  0  0  0  0  0
  141.0839  144.2016  156.6287 H   0  0  0  0  0  0  0  0  0  0  0  0
  140.6698  143.6939  154.9859 H   0  0  0  0  0  0  0  0  0  0  0  0
  142.0567  144.7584  155.2584 H   0  0  0  0  0  0  0  0  0  0  0  0
  1  2  1  0  0  0  0
  1 29  1  0  0  0  0
  1 30  1  0  0  0  0
  1 31  1  0  0  0  0
  2  3  2  0  0  0  0
  2  4  1  0  0  0  0
  4  5  1  0  0  0  0
  5  6  1  0  0  0  0
  5 32  1  0  0  0  0
  5 33  1  0  0  0  0
  6 23  1  0  0  0  0
  6  7  1  0  0  0  0
  6 34  1  0  0  0  0
  7  8  1  0  0  0  0
  8  9  1  0  0  0  0
  8 18  1  0  0  0  0
  8 35  1  0  0  0  0
  9 16  1  0  0  0  0
  9 10  1  0  0  0  0
 10 11  2  0  0  0  0
 10 36  1  0  0  0  0
 11 12  1  0  0  0  0
 11 13  1  0  0  0  0
 13 14  2  0  0  0  0
 13 15  1  0  0  0  0
 15 28  1  0  0  0  0
 15 16  1  0  0  0  0
 16 17  2  0  0  0  0
 18 19  1  0  0  0  0
 18 23  1  0  0  0  0
 18 37  1  0  0  0  0
 19 20  1  0  0  0  0
 20 21  1  0  0  0  0
 20 22  2  0  0  0  0
 21 38  1  0  0  0  0
 21 39  1  0  0  0  0
 21 40  1  0  0  0  0
 23 24  1  0  0  0  0
 23 41  1  0  0  0  0
 24 25  1  0  0  0  0
 25 26  1  0  0  0  0
 25 27  2  0  0  0  0
 26 42  1  0  0  0  0
 26 43  1  0  0  0  0
 26 44  1  0  0  0  0
M  END
> <s_m_source_file>
AV-unprocessed.smi

> <i_m_source_file_index>
102

> <i_lp_mmshare_version>
43012

> <i_f3d_flags>
0

> <s_epik_input>
W0NIM11DKD1PKU9bQ0gyXVtDQEBIXTFPW0NASF0oW0NAQEhdKE9DKD1PKVtDSDNdKVtDQEhdMU9DKD1PKVtDSDNdKW4yW2NIXWMoRiljKD1PKVtuSF1jMj1P

> <s_epik_cmdline>
J2VwaWtfcHl0aG9uJywgJy1waCcsICc3LjAnLCAnLXRuJywgJzgnLCAnLW1hJywgJzIwMCcsICctbWV0YWxfYmluZGluZycsICctaW1hZScsICc8aW5maWxlLm1hZT4nLCAnLW9tYWUnLCAnPG91dGZpbGUubWFlPic=

> <r_lp_tautomer_probability>
0.999537

> <r_epik_Ionization_Penalty>
0.058267

> <r_epik_Ionization_Penalty_Charging>
0.058267

> <r_epik_Ionization_Penalty_Neutral>
6.57791e-16

> <r_epik_State_Penalty>
0.0503774

> <r_epik_Charging_Adjusted_Penalty>
0.108644

> <i_epik_Tot_Q>
0

> <i_epik_Tot_abs_Q>
0

> <r_epik_Metal_State_Penalty>
2.6644

> <b_epik_Metal_Only>
0

> <s_epik_Chemistry_Notes>
This compound has an ester and may undergo hydrolysis at high or low pH. This compound contains an acetal/aminal-like group ( X-CH(R)-Y where X, Y are N, S, or O) that may be acid/base labile, releasing an aldehyde.

> <s_lp_Force_Field>
OPLS_2005

> <r_lp_Energy>
10.5548

> <b_lp_Chiralities_Consistent>
1

> <s_lp_Variant>
AV-unprocessed.smi:102-9

> <Gold.Version>
5.8.1

> <Gold.Id.Protein>
6NUR|6NUR_protein|mol2

> <Gold.PLP.Fitness>
34.7432

> <Gold.PLP.PLP>
-25.6366

> <Gold.PLP.part.hbond>
-4.0000

> <Gold.PLP.part.metal>
0.0000

> <Gold.PLP.part.buried>
-5.4556

> <Gold.PLP.part.nonpolar>
-17.4509

> <Gold.PLP.part.repulsive>
1.0668

> <Gold.PLP.ligand.clash>
0.0000

> <Gold.PLP.ligand.torsion>
0.7059

> <Gold.PLP.Chemscore.Hbond>
3.4400

> <Gold.PLP.Chemscore.CHOScore>
0.0000

> <Gold.PLP.Chemscore.Metal>
0.0000

> <Gold.Chemscore.Hbonds>
donor molecule, donor type, donor heavy atom, donor atom, acceptor molecule, acceptor atom, score
      L1  H    15    28       P1  7957  1.00
      P1  H  6933  6944       L1     3  0.76
      P1  H  6934  6946       L1     3  0.64
      P1  H  7989  7998       L1    14  0.95

> <Gold.PLP.Chemscore.Internal.Correction>
0.1985

> <Gold.Rescore>
     Score         DG    S(hbond)    S(metal)    S(lipo)     H(rot)  DE(clash)    DE(int)     intcor
      1.72      -7.42       2.93        0.00      21.72       4.05       0.53       5.16       ----

> <Gold.Chemscore.Fitness>
1.7208

> <Gold.Chemscore.DG>
-7.4199

> <Gold.Chemscore.ZeroCoef>
-5.4800

> <Gold.Chemscore.Hbond>
2.9258

> <Gold.Chemscore.Metal>
0.0000

> <Gold.Chemscore.Lipo>
21.7155

> <Gold.Chemscore.Internal_Hbond>
0.0000

> <Gold.Chemscore.DEClash>
0.5347

> <Gold.Chemscore.DEInternal>
5.1644

> <Gold.Chemscore.Rot>
4.0520

> <Gold.Chemscore.Internal.Correction>
   9.000000E+99

> <Gold.Chemscore.Hbonds>
donor molecule, donor type, donor heavy atom, donor atom, acceptor molecule, acceptor atom, score
      L1  H    15    28       P1  7957  0.95
      P1  H  6933  6944       L1     3  0.16
      P1  H  6934  6946       L1     3  0.62
      P1  H  7989  7998       L1    14  0.21

> <Gold.Chemscore.Hbond.Weighted>
-9.7723

> <Gold.Chemscore.Metal.Weighted>
-0.0000

> <Gold.Chemscore.Lipo.Weighted>
-2.5407

> <Gold.Chemscore.Internal_Hbond.Weighted>
0.0000

> <Gold.Chemscore.DEClash.Weighted>
0.5347

> <Gold.Chemscore.DEInternal.Weighted>
5.1644

> <Gold.Chemscore.Rot.Weighted>
10.3732

> <Gold.Chemscore.Internal.Correction.Weighted>
   9.000000E+99

> <Gold.Protein.RotatedTorsions>
[ 6907 6896 6895 6894 ] final -120.74 input  -60.11 | X-H torsion
[ 7974 7965 7964 7962 ] final  168.03 input  175.53 | X-H torsion
[ 8008 7997 7996 7995 ] final  108.20 input   59.86 | X-H torsion
[ 10167 10162 10161 10158 ] final -125.89 input  -65.29 | X-H torsion
[ 10718 10713 10712 10709 ] final -122.61 input   66.30 | X-H torsion
[ 10763 10752 10751 10750 ] final -153.43 input  -60.55 | X-H torsion
[ 11005 11000 10999 10996 ] final   13.27 input  -57.11 | X-H torsion

> <Gold.Protein.ActiveResidues>
 VAL166  LYS551  ARG553  GLY616  TRP617  ASP618  TYR619  PRO620  LYS621  CYS622 
 ASP623  PHE694  ASN695  SER759  ASP760  ASP761  ALA762  ILE779  LEU786  VAL792 
 PHE793  MET794  SER795  GLU796  ALA797  LYS798  CYS799  TRP800  GLU811  SER814 

> <Gold.Protein.RotatedAtoms>
  150.8420  133.7920  159.3056 H   0  0  0  0  0  0  0  0  0  0  0  0  # atno 6907 bound_to 6896
  151.5619  135.1063  159.9984 H   0  0  0  0  0  0  0  0  0  0  0  0  # atno 6908 bound_to 6896
  152.4482  133.7535  159.6763 H   0  0  0  0  0  0  0  0  0  0  0  0  # atno 6909 bound_to 6896
  144.7403  139.8848  143.6399 H   0  0  0  0  0  0  0  0  0  0  0  0  # atno 7974 bound_to 7965
  156.1884  140.3081  155.9284 H   0  0  0  0  0  0  0  0  0  0  0  0  # atno 8008 bound_to 7997
  155.3229  140.0456  157.3057 H   0  0  0  0  0  0  0  0  0  0  0  0  # atno 8009 bound_to 7997
  154.5423  140.2265  155.8630 H   0  0  0  0  0  0  0  0  0  0  0  0  # atno 8010 bound_to 7997
  139.9773  143.5780  152.2391 H   0  0  0  0  0  0  0  0  0  0  0  0  # atno 10167 bound_to 10162
  156.1432  130.6481  150.9803 H   0  0  0  0  0  0  0  0  0  0  0  0  # atno 10718 bound_to 10713
  154.7928  135.3213  154.7737 H   0  0  0  0  0  0  0  0  0  0  0  0  # atno 10763 bound_to 10752
  153.8423  135.6870  153.4806 H   0  0  0  0  0  0  0  0  0  0  0  0  # atno 10764 bound_to 10752
  153.1605  135.4662  154.9707 H   0  0  0  0  0  0  0  0  0  0  0  0  # atno 10765 bound_to 10752
  140.4826  134.0920  155.7754 H   0  0  0  0  0  0  0  0  0  0  0  0  # atno 11005 bound_to 11000
  146.1185  139.4199  143.0243 LP  0  0  0  0  0  0  0  0  0  0  0  0  # atno 17320 bound_to 7965
  145.7339  141.0032  143.1337 LP  0  0  0  0  0  0  0  0  0  0  0  0  # atno 17321 bound_to 7965
  139.6436  144.7656  151.2289 LP  0  0  0  0  0  0  0  0  0  0  0  0  # atno 17342 bound_to 10162
  140.7501  143.6276  150.8453 LP  0  0  0  0  0  0  0  0  0  0  0  0  # atno 17343 bound_to 10162
  157.6594  131.0883  150.7873 LP  0  0  0  0  0  0  0  0  0  0  0  0  # atno 17370 bound_to 10713
  156.7946  130.4901  149.5379 LP  0  0  0  0  0  0  0  0  0  0  0  0  # atno 17371 bound_to 10713
  141.1524  133.8945  157.2065 LP  0  0  0  0  0  0  0  0  0  0  0  0  # atno 17394 bound_to 11000
  139.9817  135.0096  156.9766 LP  0  0  0  0  0  0  0  0  0  0  0  0  # atno 17395 bound_to 11000

$$$$
