#       Name:                AV-unprocessed.smi:1487
#       Creating user name   scv26
#       Creation time:       Fri Mar 27 06:11:45 2020


#       File generated by GOLD software.
#

@<TRIPOS>MOLECULE
AV-unprocessed.smi:1487
    53    55     1
SMALL
NO_CHARGES


@<TRIPOS>ATOM
      1 ****        -3.9270   3.4241   2.1867 C.3            1 S1                 0.0000
      2 ****        -3.4375   2.3100   1.2769 C.ar           1 S1                 0.0000
      3 ****        -3.4729   2.5156  -0.1207 C.ar           1 S1                 0.0000
      4 ****        -3.0165   1.4790  -0.9262 C.ar           1 S1                 0.0000
      5 ****        -2.9227   1.3762  -2.3154 N.pl3          1 S1                 1.0000
      6 ****        -2.4109   0.1591  -2.6479 C.2            1 S1                 0.0000
      7 ****        -2.1717  -0.5166  -1.4909 N.pl3          1 S1                 0.0000
      8 ****        -1.6362  -1.8715  -1.2947 C.3            1 S1                 0.0000
      9 ****        -0.0978  -1.9357  -1.3809 C.3            1 S1                 0.0000
     10 ****         0.2705  -3.2902  -1.2157 O.3            1 S1                 0.0000
     11 ****         0.6172  -1.0784  -0.3114 C.3            1 S1                 0.0000
     12 ****         2.0996  -1.1448  -0.3954 N.4            1 S1                 1.0000
     13 ****         2.6644  -0.3937  -1.5497 C.3            1 S1                 0.0000
     14 ****         4.1851  -0.5997  -1.6565 C.3            1 S1                 0.0000
     15 ****         4.8879  -0.1980  -0.3539 C.3            1 S1                 0.0000
     16 ****         4.2703  -0.9624   0.8257 C.3            1 S1                 0.0000
     17 ****         4.8499  -0.5153   2.0322 O.3            1 S1                 0.0000
     18 ****         2.7470  -0.7469   0.8821 C.3            1 S1                 0.0000
     19 ****        -2.5392   0.2671  -0.3891 C.ar           1 S1                 0.0000
     20 ****        -2.5003   0.0484   0.9866 C.ar           1 S1                 0.0000
     21 ****        -2.9569   1.0920   1.8230 C.ar           1 S1                 0.0000
     22 ****        -2.9215   0.8825   3.3275 C.3            1 S1                 0.0000
     23 ****        -4.2452   4.2963   1.6149 H              1 S1                 0.0000
     24 ****        -3.1343   3.7422   2.8644 H              1 S1                 0.0000
     25 ****        -4.7768   3.0873   2.7810 H              1 S1                 0.0000
     26 ****        -3.8393   3.4397  -0.5437 H              1 S1                 0.0000
     27 ****        -2.2320  -0.2055  -3.6494 H              1 S1                 0.0000
     28 ****        -1.9966  -2.2701  -0.3463 H              1 S1                 0.0000
     29 ****        -2.0757  -2.4995  -2.0711 H              1 S1                 0.0000
     30 ****         0.1968  -1.6253  -2.3828 H              1 S1                 0.0000
     31 ****         1.1728  -3.3992  -1.4750 H              1 S1                 0.0000
     32 ****         0.3125  -0.0338  -0.3826 H              1 S1                 0.0000
     33 ****         0.2941  -1.4242   0.6719 H              1 S1                 0.0000
     34 ****         2.2038  -0.7198  -2.4809 H              1 S1                 0.0000
     35 ****         2.4375   0.6680  -1.4408 H              1 S1                 0.0000
     36 ****         4.3990  -1.6454  -1.8816 H              1 S1                 0.0000
     37 ****         4.5829  -0.0169  -2.4878 H              1 S1                 0.0000
     38 ****         5.9568  -0.4037  -0.4250 H              1 S1                 0.0000
     39 ****         4.7847   0.8775  -0.2003 H              1 S1                 0.0000
     40 ****         4.4833  -2.0274   0.7226 H              1 S1                 0.0000
     41 ****         5.7802  -0.6803   2.0009 H              1 S1                 0.0000
     42 ****         2.5173   0.2994   1.0926 H              1 S1                 0.0000
     43 ****         2.3321  -1.3342   1.7027 H              1 S1                 0.0000
     44 ****        -2.1369  -0.8769   1.4081 H              1 S1                 0.0000
     45 ****        -2.5367  -0.1049   3.5847 H              1 S1                 0.0000
     46 ****        -3.9224   0.9698   3.7508 H              1 S1                 0.0000
     47 ****        -2.2784   1.6241   3.8019 H              1 S1                 0.0000
     48 ****         2.3328  -2.1177  -0.5325 H              1 S1                 0.0000
     49 ****        -3.1934   2.0811  -2.9896 H              1 S1                 0.0000
     50 ****        -0.3138  -3.8680  -1.7855 LP             1 S1                 0.0000
     51 ****         0.1639  -3.5516  -0.2564 LP             1 S1                 0.0000
     52 ****         4.4463  -1.0089   2.8026 LP             1 S1                 0.0000
     53 ****         4.6855   0.4650   2.1415 LP             1 S1                 0.0000
@<TRIPOS>BOND
    1    1    2 1     
    2    1   23 1     
    3    1   24 1     
    4    1   25 1     
    5    2   21 ar    
    6    2    3 ar    
    7    3    4 ar    
    8    3   26 1     
    9    4   19 ar    
   10    4    5 1     
   11    5    6 2     
   12    5   49 1     
   13    6    7 1     
   14    6   27 1     
   15    7    8 1     
   16    7   19 1     
   17    8    9 1     
   18    8   28 1     
   19    8   29 1     
   20    9   10 1     
   21    9   11 1     
   22    9   30 1     
   23   10   31 1     
   24   11   12 1     
   25   11   32 1     
   26   11   33 1     
   27   12   18 1     
   28   12   13 1     
   29   12   48 1     
   30   13   14 1     
   31   13   34 1     
   32   13   35 1     
   33   14   15 1     
   34   14   36 1     
   35   14   37 1     
   36   15   16 1     
   37   15   38 1     
   38   15   39 1     
   39   16   17 1     
   40   16   18 1     
   41   16   40 1     
   42   17   41 1     
   43   18   42 1     
   44   18   43 1     
   45   19   20 ar    
   46   20   21 ar    
   47   20   44 1     
   48   21   22 1     
   49   22   45 1     
   50   22   46 1     
   51   22   47 1     
   52   10   50 1     
   53   10   51 1     
   54   17   52 1     
   55   17   53 1     
@<TRIPOS>SUBSTRUCTURE
      1 S1             1
@<TRIPOS>SET
LONE_PAIRS      STATIC     ATOMS    <user>   **** ""
4 50 51 52 53
DONOR_HYDROGENS      STATIC     ATOMS    <user>   **** ""
4 49 31 48 41
ATOM$BLUE        STATIC     ATOMS    COLORGROUP SYSTEM
4 50 51 52 53
ATOM$RED        STATIC     ATOMS    COLORGROUP SYSTEM
4 49 31 48 41
