AV-unprocessed.smi:1377|AV-procd|sdf|5594|dock3
  -GOLD-   22720 5193D 1   1.00000     0.00000
 Structure written by MMmdl.
 29 30  0  0  0  0  0  0  0  0  1 V2000
  153.1154  137.8147  156.2046 N   0  0  0  0  0  0  0  0  0  0  0  0
  152.7674  138.5845  155.1698 C   0  0  0  0  0  0  0  0  0  0  0  0
  153.5257  139.4277  154.6953 O   0  0  0  0  0  0  0  0  0  0  0  0
  151.3687  138.3796  154.5841 C   0  0  0  0  0  0  0  0  0  0  0  0
  150.5403  139.6176  154.7712 C   0  0  0  0  0  0  0  0  0  0  0  0
  149.3536  139.9205  154.1469 C   0  0  0  0  0  0  0  0  0  0  0  0
  148.7197  141.4621  154.6572 S   0  0  0  0  0  0  0  0  0  0  0  0
  150.1163  141.6457  155.7068 C   0  0  0  0  0  0  0  0  0  0  0  0
  150.2952  142.7899  156.5275 N   0  0  0  0  0  0  0  0  0  0  0  0
  151.1262  142.9429  157.5753 C   0  0  0  0  0  0  0  0  0  0  0  0
  151.8976  142.0749  157.9863 O   0  0  0  0  0  0  0  0  0  0  0  0
  151.0681  144.3128  158.2653 C   0  0  0  0  0  0  0  0  0  0  0  0
  152.4422  144.9528  158.5307 C   0  0  0  0  0  0  0  0  0  0  0  0
  151.9549  145.3245  159.9341 C   0  0  0  0  0  0  0  0  0  0  0  0
  150.8673  144.2562  159.7905 C   0  0  0  0  0  0  0  0  0  0  0  0
  150.9674  140.6150  155.6541 N   0  0  0  0  0  0  0  0  0  0  0  0
  154.0303  137.9189  156.6193 H   0  0  0  0  0  0  0  0  0  0  0  0
  152.4661  137.1326  156.5684 H   0  0  0  0  0  0  0  0  0  0  0  0
  151.4626  138.1308  153.5259 H   0  0  0  0  0  0  0  0  0  0  0  0
  150.8894  137.5219  155.0580 H   0  0  0  0  0  0  0  0  0  0  0  0
  148.8131  139.3283  153.4235 H   0  0  0  0  0  0  0  0  0  0  0  0
  149.7243  143.5879  156.2904 H   0  0  0  0  0  0  0  0  0  0  0  0
  150.3776  145.0124  157.7899 H   0  0  0  0  0  0  0  0  0  0  0  0
  153.2731  144.2448  158.5470 H   0  0  0  0  0  0  0  0  0  0  0  0
  152.6667  145.8120  157.8983 H   0  0  0  0  0  0  0  0  0  0  0  0
  152.6749  145.1354  160.7308 H   0  0  0  0  0  0  0  0  0  0  0  0
  151.5487  146.3358  159.9854 H   0  0  0  0  0  0  0  0  0  0  0  0
  149.8816  144.5803  160.1258 H   0  0  0  0  0  0  0  0  0  0  0  0
  151.1487  143.3063  160.2487 H   0  0  0  0  0  0  0  0  0  0  0  0
  1  2  1  0  0  0  0
  1 17  1  0  0  0  0
  1 18  1  0  0  0  0
  2  3  2  0  0  0  0
  2  4  1  0  0  0  0
  4  5  1  0  0  0  0
  4 19  1  0  0  0  0
  4 20  1  0  0  0  0
  5 16  1  0  0  0  0
  5  6  2  0  0  0  0
  6  7  1  0  0  0  0
  6 21  1  0  0  0  0
  7  8  1  0  0  0  0
  8  9  1  0  0  0  0
  8 16  2  0  0  0  0
  9 10  1  0  0  0  0
  9 22  1  0  0  0  0
 10 11  2  0  0  0  0
 10 12  1  0  0  0  0
 12 15  1  0  0  0  0
 12 13  1  0  0  0  0
 12 23  1  0  0  0  0
 13 14  1  0  0  0  0
 13 24  1  0  0  0  0
 13 25  1  0  0  0  0
 14 15  1  0  0  0  0
 14 26  1  0  0  0  0
 14 27  1  0  0  0  0
 15 28  1  0  0  0  0
 15 29  1  0  0  0  0
M  END
> <s_m_source_file>
AV-unprocessed.smi

> <i_m_source_file_index>
1377

> <i_lp_mmshare_version>
43012

> <i_f3d_flags>
0

> <s_epik_input>
W05IMl1DKD1PKVtDSDJdYzFbY0hdc2MobjEpW05IXUMoPU8pW0NIXTJbQ0gyXVtDSDJdW0NIMl0y

> <s_epik_cmdline>
J2VwaWtfcHl0aG9uJywgJy1waCcsICc3LjAnLCAnLXRuJywgJzgnLCAnLW1hJywgJzIwMCcsICctbWV0YWxfYmluZGluZycsICctaW1hZScsICc8aW5maWxlLm1hZT4nLCAnLW9tYWUnLCAnPG91dGZpbGUubWFlPic=

> <r_lp_tautomer_probability>
1

> <r_epik_Ionization_Penalty>
0.000217978

> <r_epik_Ionization_Penalty_Charging>
0

> <r_epik_Ionization_Penalty_Neutral>
0.000217978

> <r_epik_State_Penalty>
-0

> <r_epik_Charging_Adjusted_Penalty>
0

> <i_epik_Tot_Q>
0

> <i_epik_Tot_abs_Q>
0

> <r_epik_Metal_State_Penalty>
0.13268

> <b_epik_Metal_Only>
0

> <s_lp_Force_Field>
OPLS_2005

> <r_lp_Energy>
11.3529

> <b_lp_Chiralities_Consistent>
1

> <s_lp_Variant>
AV-unprocessed.smi:1377-1

> <Gold.Version>
5.8.1

> <Gold.Id.Protein>
6NUR|6NUR_protein|mol2

> <Gold.PLP.Fitness>
46.1606

> <Gold.PLP.PLP>
-38.9847

> <Gold.PLP.part.hbond>
-3.3375

> <Gold.PLP.part.metal>
0.0000

> <Gold.PLP.part.buried>
-3.2332

> <Gold.PLP.part.nonpolar>
-33.4271

> <Gold.PLP.part.repulsive>
0.3113

> <Gold.PLP.ligand.clash>
0.0000

> <Gold.PLP.ligand.torsion>
0.4537

> <Gold.PLP.Chemscore.Hbond>
2.0000

> <Gold.PLP.Chemscore.CHOScore>
0.5578

> <Gold.PLP.Chemscore.Metal>
0.0000

> <Gold.Chemscore.Hbonds>
donor molecule, donor type, donor heavy atom, donor atom, acceptor molecule, acceptor atom, score
      L1  H     9    22       P1  8028  1.00
      P1  H  7997  8008       L1     3  1.00
      L1  C     6    21       P1  7957  0.55

> <Gold.PLP.Chemscore.Internal.Correction>
0.4097

> <Gold.Rescore>
     Score         DG    S(hbond)    S(metal)    S(lipo)     H(rot)  DE(clash)    DE(int)     intcor
     14.31     -16.16       1.96        0.00      77.60       1.92       0.02       1.83       ----

> <Gold.Chemscore.Fitness>
14.3122

> <Gold.Chemscore.DG>
-16.1646

> <Gold.Chemscore.ZeroCoef>
-5.4800

> <Gold.Chemscore.Hbond>
1.9554

> <Gold.Chemscore.Metal>
0.0000

> <Gold.Chemscore.Lipo>
77.5963

> <Gold.Chemscore.Internal_Hbond>
0.0000

> <Gold.Chemscore.DEClash>
0.0180

> <Gold.Chemscore.DEInternal>
1.8345

> <Gold.Chemscore.Rot>
1.9239

> <Gold.Chemscore.Internal.Correction>
   9.000000E+99

> <Gold.Chemscore.Hbonds>
donor molecule, donor type, donor heavy atom, donor atom, acceptor molecule, acceptor atom, score
      L1  H     9    22       P1  8028  0.94
      P1  H  7997  8008       L1     3  0.98

> <Gold.Chemscore.Hbond.Weighted>
-6.5312

> <Gold.Chemscore.Metal.Weighted>
-0.0000

> <Gold.Chemscore.Lipo.Weighted>
-9.0788

> <Gold.Chemscore.Internal_Hbond.Weighted>
0.0000

> <Gold.Chemscore.DEClash.Weighted>
0.0180

> <Gold.Chemscore.DEInternal.Weighted>
1.8345

> <Gold.Chemscore.Rot.Weighted>
4.9253

> <Gold.Chemscore.Internal.Correction.Weighted>
   9.000000E+99

> <Gold.Protein.RotatedTorsions>
[ 6907 6896 6895 6894 ] final  -75.78 input  -60.11 | X-H torsion
[ 7974 7965 7964 7962 ] final   60.17 input  175.53 | X-H torsion
[ 8008 7997 7996 7995 ] final    9.67 input   59.86 | X-H torsion
[ 10167 10162 10161 10158 ] final -160.79 input  -65.29 | X-H torsion
[ 10718 10713 10712 10709 ] final   99.40 input   66.30 | X-H torsion
[ 10763 10752 10751 10750 ] final  100.74 input  -60.55 | X-H torsion
[ 11005 11000 10999 10996 ] final  133.22 input  -57.11 | X-H torsion

> <Gold.Protein.ActiveResidues>
 VAL166  LYS551  ARG553  GLY616  TRP617  ASP618  TYR619  PRO620  LYS621  CYS622 
 ASP623  PHE694  ASN695  SER759  ASP760  ASP761  ALA762  ILE779  LEU786  VAL792 
 PHE793  MET794  SER795  GLU796  ALA797  LYS798  CYS799  TRP800  GLU811  SER814 

> <Gold.Protein.RotatedAtoms>
  150.7048  134.4671  159.5407 H   0  0  0  0  0  0  0  0  0  0  0  0  # atno 6907 bound_to 6896
  152.2334  134.8297  160.0479 H   0  0  0  0  0  0  0  0  0  0  0  0  # atno 6908 bound_to 6896
  151.9104  133.3525  159.3898 H   0  0  0  0  0  0  0  0  0  0  0  0  # atno 6909 bound_to 6896
  145.8990  139.3567  143.0604 H   0  0  0  0  0  0  0  0  0  0  0  0  # atno 7974 bound_to 7965
  154.7831  140.2822  155.6048 H   0  0  0  0  0  0  0  0  0  0  0  0  # atno 8008 bound_to 7997
  156.2953  140.2619  156.2589 H   0  0  0  0  0  0  0  0  0  0  0  0  # atno 8009 bound_to 7997
  154.9760  140.0375  157.2246 H   0  0  0  0  0  0  0  0  0  0  0  0  # atno 8010 bound_to 7997
  139.6513  144.0079  152.2163 H   0  0  0  0  0  0  0  0  0  0  0  0  # atno 10167 bound_to 10162
  157.6877  131.0668  150.4942 H   0  0  0  0  0  0  0  0  0  0  0  0  # atno 10718 bound_to 10713
  153.3178  135.4068  155.1391 H   0  0  0  0  0  0  0  0  0  0  0  0  # atno 10763 bound_to 10752
  154.8592  135.3580  154.5637 H   0  0  0  0  0  0  0  0  0  0  0  0  # atno 10764 bound_to 10752
  153.6069  135.7069  153.5421 H   0  0  0  0  0  0  0  0  0  0  0  0  # atno 10765 bound_to 10752
  139.9838  134.9539  156.9694 H   0  0  0  0  0  0  0  0  0  0  0  0  # atno 11005 bound_to 11000
  145.8815  140.9360  143.0599 LP  0  0  0  0  0  0  0  0  0  0  0  0  # atno 17320 bound_to 7965
  144.6734  140.0786  143.7470 LP  0  0  0  0  0  0  0  0  0  0  0  0  # atno 17321 bound_to 7965
  139.9794  144.6439  150.7915 LP  0  0  0  0  0  0  0  0  0  0  0  0  # atno 17342 bound_to 10162
  140.7539  143.3016  151.3065 LP  0  0  0  0  0  0  0  0  0  0  0  0  # atno 17343 bound_to 10162
  156.5267  130.4175  149.6222 LP  0  0  0  0  0  0  0  0  0  0  0  0  # atno 17370 bound_to 10713
  156.3105  130.7226  151.2118 LP  0  0  0  0  0  0  0  0  0  0  0  0  # atno 17371 bound_to 10713
  140.5043  134.1066  155.7257 LP  0  0  0  0  0  0  0  0  0  0  0  0  # atno 17394 bound_to 11000
  141.1506  133.8975  157.2106 LP  0  0  0  0  0  0  0  0  0  0  0  0  # atno 17395 bound_to 11000

$$$$
