AV-unprocessed.smi:1040|AV-procd|sdf|4524|dock2
  -GOLD-   22720 2543D 1   1.00000     0.00000
 Structure written by MMmdl.
 54 55  0  0  0  0  0  0  0  0  1 V2000
  152.1518  138.2469  154.1543 C   0  0  0  0  0  0  0  0  0  0  0  0
  151.0734  137.6445  155.0706 C   0  0  2  0  0  0  0  0  0  0  0  0
  150.4185  136.5571  154.3451 N   0  0  0  0  0  0  0  0  0  0  0  0
  150.4458  135.2631  154.6979 C   0  0  0  0  0  0  0  0  0  0  0  0
  151.0505  134.8450  155.6847 O   0  0  0  0  0  0  0  0  0  0  0  0
  149.7282  134.5194  153.8391 N   0  0  0  0  0  0  0  0  0  0  0  0
  149.4804  133.1139  153.8169 C   0  0  0  0  0  0  0  0  0  0  0  0
  150.4267  132.1404  154.2249 C   0  0  0  0  0  0  0  0  0  0  0  0
  150.0771  130.7788  154.1782 C   0  0  0  0  0  0  0  0  0  0  0  0
  148.7929  130.4323  153.7252 C   0  0  0  0  0  0  0  0  0  0  0  0
  147.8824  131.3425  153.3267 N   0  0  0  0  0  0  0  0  0  0  0  0
  148.2117  132.6569  153.3653 C   0  0  0  0  0  0  0  0  0  0  0  0
  147.2423  133.5758  152.9164 N   0  0  0  0  0  0  0  0  0  0  0  0
  146.8902  133.4062  151.5080 C   0  0  0  0  0  0  0  0  0  0  0  0
  146.1152  134.6296  150.9892 C   0  0  0  0  0  0  0  0  0  0  0  0
  144.8916  134.9216  151.8728 C   0  0  0  0  0  0  0  0  0  0  0  0
  145.3156  135.0585  153.3443 C   0  0  0  0  0  0  0  0  0  0  0  0
  146.1081  133.8235  153.8060 C   0  0  0  0  0  0  0  0  0  0  0  0
  150.0629  138.7514  155.4101 C   0  0  0  0  0  0  0  0  0  0  0  0
  148.8883  138.6513  155.0527 O   0  0  0  0  0  0  0  0  0  0  0  0
  150.5539  139.8044  156.0874 N   0  0  0  0  0  0  0  0  0  0  0  0
  149.8466  141.0065  156.5442 C   0  0  0  0  0  0  0  0  0  0  0  0
  149.1067  141.5815  155.3237 C   0  0  0  0  0  0  0  0  0  0  0  0
  150.8436  142.0624  157.0673 C   0  0  0  0  0  0  0  0  0  0  0  0
  148.8143  140.6462  157.6328 C   0  0  0  0  0  0  0  0  0  0  0  0
  152.6733  139.0701  154.6447 H   0  0  0  0  0  0  0  0  0  0  0  0
  151.7285  138.6289  153.2239 H   0  0  0  0  0  0  0  0  0  0  0  0
  152.9011  137.4998  153.8917 H   0  0  0  0  0  0  0  0  0  0  0  0
  151.5388  137.2598  155.9803 H   0  0  0  0  0  0  0  0  0  0  0  0
  149.8897  136.8146  153.5250 H   0  0  0  0  0  0  0  0  0  0  0  0
  149.2713  135.0338  153.1001 H   0  0  0  0  0  0  0  0  0  0  0  0
  151.4143  132.3968  154.5709 H   0  0  0  0  0  0  0  0  0  0  0  0
  150.7788  130.0171  154.4844 H   0  0  0  0  0  0  0  0  0  0  0  0
  148.4895  129.3970  153.6774 H   0  0  0  0  0  0  0  0  0  0  0  0
  147.7832  133.2524  150.9014 H   0  0  0  0  0  0  0  0  0  0  0  0
  146.2812  132.5071  151.4032 H   0  0  0  0  0  0  0  0  0  0  0  0
  146.7736  135.4993  150.9776 H   0  0  0  0  0  0  0  0  0  0  0  0
  145.8019  134.4640  149.9581 H   0  0  0  0  0  0  0  0  0  0  0  0
  144.3926  135.8311  151.5375 H   0  0  0  0  0  0  0  0  0  0  0  0
  144.1673  134.1120  151.7743 H   0  0  0  0  0  0  0  0  0  0  0  0
  145.9300  135.9515  153.4659 H   0  0  0  0  0  0  0  0  0  0  0  0
  144.4383  135.1970  153.9766 H   0  0  0  0  0  0  0  0  0  0  0  0
  145.4555  132.9493  153.8162 H   0  0  0  0  0  0  0  0  0  0  0  0
  146.4641  133.9725  154.8264 H   0  0  0  0  0  0  0  0  0  0  0  0
  151.5358  139.7668  156.3198 H   0  0  0  0  0  0  0  0  0  0  0  0
  148.5596  142.4890  155.5819 H   0  0  0  0  0  0  0  0  0  0  0  0
  148.3854  140.8686  154.9221 H   0  0  0  0  0  0  0  0  0  0  0  0
  149.8000  141.8350  154.5206 H   0  0  0  0  0  0  0  0  0  0  0  0
  151.6021  142.2971  156.3194 H   0  0  0  0  0  0  0  0  0  0  0  0
  151.3600  141.7306  157.9680 H   0  0  0  0  0  0  0  0  0  0  0  0
  150.3331  142.9926  157.3188 H   0  0  0  0  0  0  0  0  0  0  0  0
  148.2187  141.5160  157.9119 H   0  0  0  0  0  0  0  0  0  0  0  0
  149.2889  140.2794  158.5429 H   0  0  0  0  0  0  0  0  0  0  0  0
  148.1252  139.8750  157.2864 H   0  0  0  0  0  0  0  0  0  0  0  0
  1  2  1  0  0  0  0
  1 26  1  0  0  0  0
  1 27  1  0  0  0  0
  1 28  1  0  0  0  0
  2  3  1  0  0  0  0
  2 19  1  0  0  0  0
  2 29  1  0  0  0  0
  3  4  1  0  0  0  0
  3 30  1  0  0  0  0
  4  5  2  0  0  0  0
  4  6  1  0  0  0  0
  6  7  1  0  0  0  0
  6 31  1  0  0  0  0
  7 12  1  0  0  0  0
  7  8  2  0  0  0  0
  8  9  1  0  0  0  0
  8 32  1  0  0  0  0
  9 10  2  0  0  0  0
  9 33  1  0  0  0  0
 10 11  1  0  0  0  0
 10 34  1  0  0  0  0
 11 12  2  0  0  0  0
 12 13  1  0  0  0  0
 13 18  1  0  0  0  0
 13 14  1  0  0  0  0
 14 15  1  0  0  0  0
 14 35  1  0  0  0  0
 14 36  1  0  0  0  0
 15 16  1  0  0  0  0
 15 37  1  0  0  0  0
 15 38  1  0  0  0  0
 16 17  1  0  0  0  0
 16 39  1  0  0  0  0
 16 40  1  0  0  0  0
 17 18  1  0  0  0  0
 17 41  1  0  0  0  0
 17 42  1  0  0  0  0
 18 43  1  0  0  0  0
 18 44  1  0  0  0  0
 19 20  2  0  0  0  0
 19 21  1  0  0  0  0
 21 22  1  0  0  0  0
 21 45  1  0  0  0  0
 22 23  1  0  0  0  0
 22 24  1  0  0  0  0
 22 25  1  0  0  0  0
 23 46  1  0  0  0  0
 23 47  1  0  0  0  0
 23 48  1  0  0  0  0
 24 49  1  0  0  0  0
 24 50  1  0  0  0  0
 24 51  1  0  0  0  0
 25 52  1  0  0  0  0
 25 53  1  0  0  0  0
 25 54  1  0  0  0  0
M  END
> <s_m_source_file>
AV-unprocessed.smi

> <i_m_source_file_index>
1040

> <i_lp_mmshare_version>
43012

> <i_f3d_flags>
0

> <s_epik_input>
W0NIM11DKFtDSDNdKShbQ0gzXSlbTkhdQyg9TylbQ0BIXShbQ0gzXSlbTkhdQyg9TylbTkhdYzFbY0hdW2NIXVtjSF1uYzFOMltDSDJdW0NIMl1bQ0gyXVtDSDJdW0NIMl0y

> <s_epik_cmdline>
J2VwaWtfcHl0aG9uJywgJy1waCcsICc3LjAnLCAnLXRuJywgJzgnLCAnLW1hJywgJzIwMCcsICctbWV0YWxfYmluZGluZycsICctaW1hZScsICc8aW5maWxlLm1hZT4nLCAnLW9tYWUnLCAnPG91dGZpbGUubWFlPic=

> <r_lp_tautomer_probability>
1

> <r_epik_Ionization_Penalty>
0.0878593

> <r_epik_Ionization_Penalty_Charging>
0

> <r_epik_Ionization_Penalty_Neutral>
0.0878593

> <r_epik_State_Penalty>
0.07381

> <r_epik_Charging_Adjusted_Penalty>
0.07381

> <i_epik_Tot_Q>
0

> <i_epik_Tot_abs_Q>
0

> <r_epik_Metal_State_Penalty>
0.0646628

> <b_epik_Metal_Only>
0

> <s_lp_Force_Field>
OPLS_2005

> <r_lp_Energy>
21.1097

> <b_lp_Chiralities_Consistent>
1

> <s_lp_Variant>
AV-unprocessed.smi:1040-1

> <Gold.Version>
5.8.1

> <Gold.Id.Protein>
6NUR|6NUR_protein|mol2

> <Gold.PLP.Fitness>
42.5250

> <Gold.PLP.PLP>
-38.3986

> <Gold.PLP.part.hbond>
-2.9323

> <Gold.PLP.part.metal>
0.0000

> <Gold.PLP.part.buried>
-4.7376

> <Gold.PLP.part.nonpolar>
-29.6482

> <Gold.PLP.part.repulsive>
0.5418

> <Gold.PLP.ligand.clash>
0.0000

> <Gold.PLP.ligand.torsion>
0.5546

> <Gold.PLP.Chemscore.Hbond>
1.6500

> <Gold.PLP.Chemscore.CHOScore>
0.0000

> <Gold.PLP.Chemscore.Metal>
0.0000

> <Gold.Chemscore.Hbonds>
donor molecule, donor type, donor heavy atom, donor atom, acceptor molecule, acceptor atom, score
      L1  H     3    30       P1  7948  0.96
      L1  H     6    31       P1  7948  0.55

> <Gold.PLP.Chemscore.Internal.Correction>
0.2856

> <Gold.Rescore>
     Score         DG    S(hbond)    S(metal)    S(lipo)     H(rot)  DE(clash)    DE(int)     intcor
     13.19     -15.04       1.48        0.00      74.78       1.61       0.09       1.76       ----

> <Gold.Chemscore.Fitness>
13.1885

> <Gold.Chemscore.DG>
-15.0431

> <Gold.Chemscore.ZeroCoef>
-5.4800

> <Gold.Chemscore.Hbond>
1.4810

> <Gold.Chemscore.Metal>
0.0000

> <Gold.Chemscore.Lipo>
74.7794

> <Gold.Chemscore.Internal_Hbond>
0.0000

> <Gold.Chemscore.DEClash>
0.0897

> <Gold.Chemscore.DEInternal>
1.7649

> <Gold.Chemscore.Rot>
1.6143

> <Gold.Chemscore.Internal.Correction>
   9.000000E+99

> <Gold.Chemscore.Hbonds>
donor molecule, donor type, donor heavy atom, donor atom, acceptor molecule, acceptor atom, score
      L1  H     3    30       P1  7948  0.32
      L1  H     6    31       P1  7948  0.03

> <Gold.Chemscore.Hbond.Weighted>
-4.9465

> <Gold.Chemscore.Metal.Weighted>
-0.0000

> <Gold.Chemscore.Lipo.Weighted>
-8.7492

> <Gold.Chemscore.Internal_Hbond.Weighted>
0.0000

> <Gold.Chemscore.DEClash.Weighted>
0.0897

> <Gold.Chemscore.DEInternal.Weighted>
1.7649

> <Gold.Chemscore.Rot.Weighted>
4.1326

> <Gold.Chemscore.Internal.Correction.Weighted>
   9.000000E+99

> <Gold.Protein.RotatedTorsions>
[ 6907 6896 6895 6894 ] final   28.90 input  -60.11 | X-H torsion
[ 7974 7965 7964 7962 ] final  -30.74 input  175.53 | X-H torsion
[ 8008 7997 7996 7995 ] final   28.20 input   59.86 | X-H torsion
[ 10167 10162 10161 10158 ] final  -15.86 input  -65.29 | X-H torsion
[ 10718 10713 10712 10709 ] final   25.71 input   66.30 | X-H torsion
[ 10763 10752 10751 10750 ] final    5.43 input  -60.55 | X-H torsion
[ 11005 11000 10999 10996 ] final  142.50 input  -57.11 | X-H torsion

> <Gold.Protein.ActiveResidues>
 VAL166  LYS551  ARG553  GLY616  TRP617  ASP618  TYR619  PRO620  LYS621  CYS622 
 ASP623  PHE694  ASN695  SER759  ASP760  ASP761  ALA762  ILE779  LEU786  VAL792 
 PHE793  MET794  SER795  GLU796  ALA797  LYS798  CYS799  TRP800  GLU811  SER814 

> <Gold.Protein.RotatedAtoms>
  152.0236  134.9808  160.0570 H   0  0  0  0  0  0  0  0  0  0  0  0  # atno 6907 bound_to 6896
  152.1313  133.4404  159.4730 H   0  0  0  0  0  0  0  0  0  0  0  0  # atno 6908 bound_to 6896
  150.6856  134.2336  159.4487 H   0  0  0  0  0  0  0  0  0  0  0  0  # atno 6909 bound_to 6896
  146.1120  140.5579  142.8774 H   0  0  0  0  0  0  0  0  0  0  0  0  # atno 7974 bound_to 7965
  155.0550  140.3184  155.4679 H   0  0  0  0  0  0  0  0  0  0  0  0  # atno 8008 bound_to 7997
  156.2826  140.2139  156.5620 H   0  0  0  0  0  0  0  0  0  0  0  0  # atno 8009 bound_to 7997
  154.7179  140.0492  157.0600 H   0  0  0  0  0  0  0  0  0  0  0  0  # atno 8010 bound_to 7997
  140.7225  143.5175  150.9674 H   0  0  0  0  0  0  0  0  0  0  0  0  # atno 10167 bound_to 10162
  157.1971  130.6873  149.6173 H   0  0  0  0  0  0  0  0  0  0  0  0  # atno 10718 bound_to 10713
  153.2595  135.6922  153.7593 H   0  0  0  0  0  0  0  0  0  0  0  0  # atno 10763 bound_to 10752
  153.6658  135.3352  155.3140 H   0  0  0  0  0  0  0  0  0  0  0  0  # atno 10764 bound_to 10752
  154.8425  135.4488  154.1580 H   0  0  0  0  0  0  0  0  0  0  0  0  # atno 10765 bound_to 10752
  140.0482  134.9269  157.0968 H   0  0  0  0  0  0  0  0  0  0  0  0  # atno 11005 bound_to 11000
  144.7520  140.5214  143.6795 LP  0  0  0  0  0  0  0  0  0  0  0  0  # atno 17320 bound_to 7965
  145.5644  139.1480  143.3323 LP  0  0  0  0  0  0  0  0  0  0  0  0  # atno 17321 bound_to 7965
  139.8891  143.6975  152.3147 LP  0  0  0  0  0  0  0  0  0  0  0  0  # atno 17342 bound_to 10162
  139.7285  144.7587  151.0840 LP  0  0  0  0  0  0  0  0  0  0  0  0  # atno 17343 bound_to 10162
  155.9705  130.4595  150.6039 LP  0  0  0  0  0  0  0  0  0  0  0  0  # atno 17370 bound_to 10713
  157.3804  131.0780  151.1482 LP  0  0  0  0  0  0  0  0  0  0  0  0  # atno 17371 bound_to 10713
  140.3960  134.2134  155.7164 LP  0  0  0  0  0  0  0  0  0  0  0  0  # atno 17394 bound_to 11000
  141.1917  133.8189  157.0867 LP  0  0  0  0  0  0  0  0  0  0  0  0  # atno 17395 bound_to 11000

$$$$
