AV-unprocessed.smi:1893|AV-procd|sdf|7671|dock3
  -GOLD-   22720 9403D 1   1.00000     0.00000
 Structure written by MMmdl.
 43 44  0  0  0  0  0  0  0  0  2 V2000
  153.3117  141.6133  158.9602 C   0  0  0  0  0  0  0  0  0  0  0  0
  152.6431  143.0046  158.9261 C   0  0  2  0  0  0  0  0  0  0  0  0
  152.6616  143.5863  160.3579 C   0  0  0  0  0  0  0  0  0  0  0  0
  152.0131  144.9702  160.4286 C   0  0  0  0  0  0  0  0  0  0  0  0
  150.5914  144.8879  159.8754 C   0  0  0  0  0  0  0  0  0  0  0  0
  150.6035  144.3251  158.4477 C   0  0  0  0  0  0  0  0  0  0  0  0
  151.2460  142.9801  158.3772 N   0  3  1  0  0  0  0  0  0  0  0  0
  151.1372  142.3952  157.0095 C   0  0  0  0  0  0  0  0  0  0  0  0
  150.2530  141.1310  156.9601 C   0  0  0  0  0  0  0  0  0  0  0  0
  149.1723  141.2811  155.9930 N   0  0  0  0  0  0  0  0  0  0  0  0
  149.2764  141.0258  154.6789 C   0  0  0  0  0  0  0  0  0  0  0  0
  150.3095  140.5995  154.1609 O   0  0  0  0  0  0  0  0  0  0  0  0
  148.0272  141.3092  153.8288 C   0  0  2  0  0  0  0  0  0  0  0  0
  146.9625  142.1330  154.5814 C   0  0  0  0  0  0  0  0  0  0  0  0
  147.4820  140.0626  153.3051 N   0  0  0  0  0  0  0  0  0  0  0  0
  147.3064  139.6653  152.0430 C   0  0  0  0  0  0  0  0  0  0  0  0
  146.8232  138.4365  151.9272 N   0  0  0  0  0  0  0  0  0  0  0  0
  146.7191  138.1066  153.2487 C   0  0  0  0  0  0  0  0  0  0  0  0
  147.1114  139.0398  154.1159 N   0  0  0  0  0  0  0  0  0  0  0  0
  154.2396  141.6420  159.5324 H   0  0  0  0  0  0  0  0  0  0  0  0
  153.5866  141.2554  157.9688 H   0  0  0  0  0  0  0  0  0  0  0  0
  152.6640  140.8703  159.4266 H   0  0  0  0  0  0  0  0  0  0  0  0
  153.2437  143.6539  158.2868 H   0  0  0  0  0  0  0  0  0  0  0  0
  152.1410  142.9091  161.0369 H   0  0  0  0  0  0  0  0  0  0  0  0
  153.6878  143.6540  160.7215 H   0  0  0  0  0  0  0  0  0  0  0  0
  151.9991  145.3298  161.4579 H   0  0  0  0  0  0  0  0  0  0  0  0
  152.5988  145.6875  159.8519 H   0  0  0  0  0  0  0  0  0  0  0  0
  149.9775  144.2547  160.5176 H   0  0  0  0  0  0  0  0  0  0  0  0
  150.1320  145.8768  159.8826 H   0  0  0  0  0  0  0  0  0  0  0  0
  149.5730  144.2805  158.1008 H   0  0  0  0  0  0  0  0  0  0  0  0
  151.1277  145.0129  157.7822 H   0  0  0  0  0  0  0  0  0  0  0  0
  150.7679  143.1508  156.3145 H   0  0  0  0  0  0  0  0  0  0  0  0
  152.1160  142.1007  156.6413 H   0  0  0  0  0  0  0  0  0  0  0  0
  150.8529  140.2518  156.7182 H   0  0  0  0  0  0  0  0  0  0  0  0
  149.7851  140.9346  157.9234 H   0  0  0  0  0  0  0  0  0  0  0  0
  148.2887  141.6239  156.3422 H   0  0  0  0  0  0  0  0  0  0  0  0
  148.3492  141.9042  152.9722 H   0  0  0  0  0  0  0  0  0  0  0  0
  147.3705  143.0846  154.9239 H   0  0  0  0  0  0  0  0  0  0  0  0
  146.5771  141.6052  155.4547 H   0  0  0  0  0  0  0  0  0  0  0  0
  146.1153  142.3571  153.9325 H   0  0  0  0  0  0  0  0  0  0  0  0
  147.5424  140.2855  151.1906 H   0  0  0  0  0  0  0  0  0  0  0  0
  146.3505  137.1473  153.5812 H   0  0  0  0  0  0  0  0  0  0  0  0
  150.7197  142.3721  158.9883 H   0  0  0  0  0  0  0  0  0  0  0  0
  1  2  1  0  0  0  0
  1 20  1  0  0  0  0
  1 21  1  0  0  0  0
  1 22  1  0  0  0  0
  2  7  1  0  0  0  0
  2  3  1  0  0  0  0
  2 23  1  0  0  0  0
  3  4  1  0  0  0  0
  3 24  1  0  0  0  0
  3 25  1  0  0  0  0
  4  5  1  0  0  0  0
  4 26  1  0  0  0  0
  4 27  1  0  0  0  0
  5  6  1  0  0  0  0
  5 28  1  0  0  0  0
  5 29  1  0  0  0  0
  6  7  1  0  0  0  0
  6 30  1  0  0  0  0
  6 31  1  0  0  0  0
  7  8  1  0  0  0  0
  7 43  1  0  0  0  0
  8  9  1  0  0  0  0
  8 32  1  0  0  0  0
  8 33  1  0  0  0  0
  9 10  1  0  0  0  0
  9 34  1  0  0  0  0
  9 35  1  0  0  0  0
 10 11  1  0  0  0  0
 10 36  1  0  0  0  0
 11 12  2  0  0  0  0
 11 13  1  0  0  0  0
 13 14  1  0  0  0  0
 13 15  1  0  0  0  0
 13 37  1  0  0  0  0
 14 38  1  0  0  0  0
 14 39  1  0  0  0  0
 14 40  1  0  0  0  0
 15 19  1  0  0  0  0
 15 16  1  0  0  0  0
 16 17  2  0  0  0  0
 16 41  1  0  0  0  0
 17 18  1  0  0  0  0
 18 19  2  0  0  0  0
 18 42  1  0  0  0  0
M  CHG  1   7   1
M  END
> <s_m_source_file>
AV-unprocessed.smi

> <i_m_source_file_index>
1893

> <i_lp_mmshare_version>
43012

> <i_f3d_flags>
0

> <s_epik_input>
W0NIM11bQ0BASF0xW0NIMl1bQ0gyXVtDSDJdW0NIMl1OMVtDSDJdW0NIMl1bTkhdQyg9TylbQ0BIXShbQ0gzXSluMltjSF1uW2NIXW4y

> <s_epik_cmdline>
J2VwaWtfcHl0aG9uJywgJy1waCcsICc3LjAnLCAnLXRuJywgJzgnLCAnLW1hJywgJzIwMCcsICctbWV0YWxfYmluZGluZycsICctaW1hZScsICc8aW5maWxlLm1hZT4nLCAnLW9tYWUnLCAnPG91dGZpbGUubWFlPic=

> <r_lp_tautomer_probability>
1

> <r_epik_Ionization_Penalty>
0.00266409

> <r_epik_Ionization_Penalty_Charging>
0.00265606

> <r_epik_Ionization_Penalty_Neutral>
8.02794e-06

> <r_epik_State_Penalty>
0.00184955

> <r_epik_Charging_Adjusted_Penalty>
0.00450561

> <i_epik_Tot_Q>
1

> <i_epik_Tot_abs_Q>
1

> <r_epik_Metal_State_Penalty>
-0

> <b_epik_Metal_Only>
0

> <s_lp_Force_Field>
OPLS_2005

> <r_lp_Energy>
24.7489

> <b_lp_Chiralities_Consistent>
1

> <s_lp_Variant>
AV-unprocessed.smi:1893-1

> <Gold.Version>
5.8.1

> <Gold.Id.Protein>
6NUR|6NUR_protein|mol2

> <Gold.PLP.Fitness>
41.2125

> <Gold.PLP.PLP>
-38.8856

> <Gold.PLP.part.hbond>
-1.0000

> <Gold.PLP.part.metal>
0.0000

> <Gold.PLP.part.buried>
-3.1713

> <Gold.PLP.part.nonpolar>
-36.3569

> <Gold.PLP.part.repulsive>
0.6368

> <Gold.PLP.ligand.clash>
0.0000

> <Gold.PLP.ligand.torsion>
1.5474

> <Gold.PLP.Chemscore.Hbond>
1.0000

> <Gold.PLP.Chemscore.CHOScore>
0.7602

> <Gold.PLP.Chemscore.Metal>
0.0000

> <Gold.Chemscore.Hbonds>
donor molecule, donor type, donor heavy atom, donor atom, acceptor molecule, acceptor atom, score
      P1  H  7989  7998       L1    12  0.74
      L1  C    16    41       P1  7957  0.41

> <Gold.PLP.Chemscore.Internal.Correction>
0.1412

> <Gold.Rescore>
     Score         DG    S(hbond)    S(metal)    S(lipo)     H(rot)  DE(clash)    DE(int)     intcor
     10.86     -12.80       0.92        0.00      91.82       2.54       0.21       1.73       ----

> <Gold.Chemscore.Fitness>
10.8621

> <Gold.Chemscore.DG>
-12.7981

> <Gold.Chemscore.ZeroCoef>
-5.4800

> <Gold.Chemscore.Hbond>
0.9195

> <Gold.Chemscore.Metal>
0.0000

> <Gold.Chemscore.Lipo>
91.8244

> <Gold.Chemscore.Internal_Hbond>
0.0000

> <Gold.Chemscore.DEClash>
0.2073

> <Gold.Chemscore.DEInternal>
1.7287

> <Gold.Chemscore.Rot>
2.5377

> <Gold.Chemscore.Internal.Correction>
   9.000000E+99

> <Gold.Chemscore.Hbonds>
donor molecule, donor type, donor heavy atom, donor atom, acceptor molecule, acceptor atom, score
      P1  H  7989  7998       L1    12  0.69

> <Gold.Chemscore.Hbond.Weighted>
-3.0712

> <Gold.Chemscore.Metal.Weighted>
-0.0000

> <Gold.Chemscore.Lipo.Weighted>
-10.7435

> <Gold.Chemscore.Internal_Hbond.Weighted>
0.0000

> <Gold.Chemscore.DEClash.Weighted>
0.2073

> <Gold.Chemscore.DEInternal.Weighted>
1.7287

> <Gold.Chemscore.Rot.Weighted>
6.4966

> <Gold.Chemscore.Internal.Correction.Weighted>
   9.000000E+99

> <Gold.Protein.RotatedTorsions>
[ 6907 6896 6895 6894 ] final   83.92 input  -60.11 | X-H torsion
[ 7974 7965 7964 7962 ] final  -48.21 input  175.53 | X-H torsion
[ 8008 7997 7996 7995 ] final   92.44 input   59.86 | X-H torsion
[ 10167 10162 10161 10158 ] final  173.41 input  -65.29 | X-H torsion
[ 10718 10713 10712 10709 ] final -170.32 input   66.30 | X-H torsion
[ 10763 10752 10751 10750 ] final -156.62 input  -60.55 | X-H torsion
[ 11005 11000 10999 10996 ] final   65.29 input  -57.11 | X-H torsion

> <Gold.Protein.ActiveResidues>
 VAL166  LYS551  ARG553  GLY616  TRP617  ASP618  TYR619  PRO620  LYS621  CYS622 
 ASP623  PHE694  ASN695  SER759  ASP760  ASP761  ALA762  ILE779  LEU786  VAL792 
 PHE793  MET794  SER795  GLU796  ALA797  LYS798  CYS799  TRP800  GLU811  SER814 

> <Gold.Protein.RotatedAtoms>
  152.5339  134.2821  159.9011 H   0  0  0  0  0  0  0  0  0  0  0  0  # atno 6907 bound_to 6896
  151.2775  133.4219  159.2632 H   0  0  0  0  0  0  0  0  0  0  0  0  # atno 6908 bound_to 6896
  151.0313  134.9556  159.8169 H   0  0  0  0  0  0  0  0  0  0  0  0  # atno 6909 bound_to 6896
  145.9535  140.7549  142.9493 H   0  0  0  0  0  0  0  0  0  0  0  0  # atno 7974 bound_to 7965
  156.0353  140.3325  155.7184 H   0  0  0  0  0  0  0  0  0  0  0  0  # atno 8008 bound_to 7997
  155.5824  140.0638  157.2797 H   0  0  0  0  0  0  0  0  0  0  0  0  # atno 8009 bound_to 7997
  154.4370  140.1841  156.0978 H   0  0  0  0  0  0  0  0  0  0  0  0  # atno 8010 bound_to 7997
  139.5107  144.3263  152.0154 H   0  0  0  0  0  0  0  0  0  0  0  0  # atno 10167 bound_to 10162
  156.7245  130.9282  151.3100 H   0  0  0  0  0  0  0  0  0  0  0  0  # atno 10718 bound_to 10713
  154.7698  135.3142  154.8211 H   0  0  0  0  0  0  0  0  0  0  0  0  # atno 10763 bound_to 10752
  153.8950  135.6821  153.4762 H   0  0  0  0  0  0  0  0  0  0  0  0  # atno 10764 bound_to 10752
  153.1310  135.4780  154.9283 H   0  0  0  0  0  0  0  0  0  0  0  0  # atno 10765 bound_to 10752
  139.9904  134.6601  156.0101 H   0  0  0  0  0  0  0  0  0  0  0  0  # atno 11005 bound_to 11000
  144.6800  140.2473  143.7336 LP  0  0  0  0  0  0  0  0  0  0  0  0  # atno 17320 bound_to 7965
  145.8138  139.2014  143.1977 LP  0  0  0  0  0  0  0  0  0  0  0  0  # atno 17321 bound_to 7965
  140.2704  144.3970  150.6153 LP  0  0  0  0  0  0  0  0  0  0  0  0  # atno 17342 bound_to 10162
  140.6092  143.2169  151.6919 LP  0  0  0  0  0  0  0  0  0  0  0  0  # atno 17343 bound_to 10162
  157.6884  130.9209  150.0449 LP  0  0  0  0  0  0  0  0  0  0  0  0  # atno 17370 bound_to 10713
  156.1572  130.3643  149.9352 LP  0  0  0  0  0  0  0  0  0  0  0  0  # atno 17371 bound_to 10713
  141.1561  133.6543  156.4165 LP  0  0  0  0  0  0  0  0  0  0  0  0  # atno 17394 bound_to 11000
  140.4920  134.6567  157.5214 LP  0  0  0  0  0  0  0  0  0  0  0  0  # atno 17395 bound_to 11000

$$$$
