AV-unprocessed.smi:190|AV-procd|sdf|1492|dock4
  -GOLD-   2262019313D 1   1.00000     0.00000
 Structure written by MMmdl.
 54 58  0  0  0  0  0  0  0  0  1 V2000
  144.9295  136.0195  149.5539 O   0  0  0  0  0  0  0  0  0  0  0  0
  145.3564  135.7617  150.8771 C   0  0  0  0  0  0  0  0  0  0  0  0
  145.2120  134.2650  151.2629 C   0  0  0  0  0  0  0  0  0  0  0  0
  145.4013  134.0598  152.8000 C   0  0  0  0  0  0  0  0  0  0  0  0
  144.5885  134.9258  153.6435 N   0  0  0  0  0  0  0  0  0  0  0  0
  145.0431  135.8547  154.5532 C   0  0  0  0  0  0  0  0  0  0  0  0
  144.1148  136.5096  155.1949 N   0  0  0  0  0  0  0  0  0  0  0  0
  142.9284  135.9716  154.7140 C   0  0  0  0  0  0  0  0  0  0  0  0
  141.5540  136.2083  154.9860 C   0  0  0  0  0  0  0  0  0  0  0  0
  141.1439  137.1220  155.9000 N   0  0  0  0  0  0  0  0  0  0  0  0
  142.1774  137.7895  156.6856 C   0  0  0  0  0  0  0  0  0  0  0  0
  141.5144  139.0333  157.2941 C   0  0  0  0  0  0  0  0  0  0  0  0
  140.0644  138.9835  156.8048 C   0  0  0  0  0  0  0  0  0  0  0  0
  140.1349  138.1238  155.5366 C   0  0  2  0  0  0  0  0  0  0  0  0
  138.7834  137.5561  155.1143 C   0  0  0  0  0  0  0  0  0  0  0  0
  138.8596  137.4630  153.5874 C   0  0  0  0  0  0  0  0  0  0  0  0
  140.0107  138.2021  153.1905 O   0  0  0  0  0  0  0  0  0  0  0  0
  140.5085  138.9487  154.2927 C   0  0  0  0  0  0  0  0  0  0  0  0
  140.6396  135.4818  154.2903 N   0  0  0  0  0  0  0  0  0  0  0  0
  141.0428  134.5666  153.4049 C   0  0  0  0  0  0  0  0  0  0  0  0
  142.2873  134.2310  153.0604 N   0  0  0  0  0  0  0  0  0  0  0  0
  143.2079  134.9718  153.7406 C   0  0  0  0  0  0  0  0  0  0  0  0
  143.8155  133.7908  150.7867 C   0  0  0  0  0  0  0  0  0  0  0  0
  143.6598  132.2596  150.8228 C   0  0  0  0  0  0  0  0  0  0  0  0
  144.6754  131.6524  150.0353 O   0  0  0  0  0  0  0  0  0  0  0  0
  145.9826  131.9209  150.5249 C   0  0  0  0  0  0  0  0  0  0  0  0
  146.2608  133.4348  150.4804 C   0  0  0  0  0  0  0  0  0  0  0  0
  144.4930  136.8576  149.5375 H   0  0  0  0  0  0  0  0  0  0  0  0
  146.3870  136.0991  150.9863 H   0  0  0  0  0  0  0  0  0  0  0  0
  144.7629  136.3876  151.5446 H   0  0  0  0  0  0  0  0  0  0  0  0
  145.1906  133.0307  153.0871 H   0  0  0  0  0  0  0  0  0  0  0  0
  146.4449  134.2218  153.0720 H   0  0  0  0  0  0  0  0  0  0  0  0
  146.0939  136.0394  154.7223 H   0  0  0  0  0  0  0  0  0  0  0  0
  142.5304  137.1156  157.4667 H   0  0  0  0  0  0  0  0  0  0  0  0
  143.0374  138.0795  156.0809 H   0  0  0  0  0  0  0  0  0  0  0  0
  141.5754  139.0446  158.3826 H   0  0  0  0  0  0  0  0  0  0  0  0
  142.0076  139.9328  156.9230 H   0  0  0  0  0  0  0  0  0  0  0  0
  139.4514  138.4818  157.5554 H   0  0  0  0  0  0  0  0  0  0  0  0
  139.6368  139.9732  156.6413 H   0  0  0  0  0  0  0  0  0  0  0  0
  138.5310  136.6129  155.5965 H   0  0  0  0  0  0  0  0  0  0  0  0
  137.9949  138.2633  155.3756 H   0  0  0  0  0  0  0  0  0  0  0  0
  138.9663  136.4302  153.2550 H   0  0  0  0  0  0  0  0  0  0  0  0
  137.9636  137.8739  153.1215 H   0  0  0  0  0  0  0  0  0  0  0  0
  139.9916  139.9093  154.2997 H   0  0  0  0  0  0  0  0  0  0  0  0
  141.5757  139.1517  154.1982 H   0  0  0  0  0  0  0  0  0  0  0  0
  140.2559  134.0265  152.8999 H   0  0  0  0  0  0  0  0  0  0  0  0
  143.0221  134.2630  151.3656 H   0  0  0  0  0  0  0  0  0  0  0  0
  143.6557  134.1143  149.7571 H   0  0  0  0  0  0  0  0  0  0  0  0
  143.6955  131.8719  151.8407 H   0  0  0  0  0  0  0  0  0  0  0  0
  142.6887  131.9772  150.4161 H   0  0  0  0  0  0  0  0  0  0  0  0
  146.0989  131.5192  151.5320 H   0  0  0  0  0  0  0  0  0  0  0  0
  146.7017  131.3945  149.8972 H   0  0  0  0  0  0  0  0  0  0  0  0
  146.2654  133.7451  149.4346 H   0  0  0  0  0  0  0  0  0  0  0  0
  147.2649  133.6335  150.8566 H   0  0  0  0  0  0  0  0  0  0  0  0
  1  2  1  0  0  0  0
  1 28  1  0  0  0  0
  2  3  1  0  0  0  0
  2 29  1  0  0  0  0
  2 30  1  0  0  0  0
  3 27  1  0  0  0  0
  3  4  1  0  0  0  0
  3 23  1  0  0  0  0
  4  5  1  0  0  0  0
  4 31  1  0  0  0  0
  4 32  1  0  0  0  0
  5 22  1  0  0  0  0
  5  6  1  0  0  0  0
  6  7  2  0  0  0  0
  6 33  1  0  0  0  0
  7  8  1  0  0  0  0
  8 22  2  0  0  0  0
  8  9  1  0  0  0  0
  9 10  1  0  0  0  0
  9 19  2  0  0  0  0
 10 14  1  0  0  0  0
 10 11  1  0  0  0  0
 11 12  1  0  0  0  0
 11 34  1  0  0  0  0
 11 35  1  0  0  0  0
 12 13  1  0  0  0  0
 12 36  1  0  0  0  0
 12 37  1  0  0  0  0
 13 14  1  0  0  0  0
 13 38  1  0  0  0  0
 13 39  1  0  0  0  0
 14 18  1  0  0  0  0
 14 15  1  0  0  0  0
 15 16  1  0  0  0  0
 15 40  1  0  0  0  0
 15 41  1  0  0  0  0
 16 17  1  0  0  0  0
 16 42  1  0  0  0  0
 16 43  1  0  0  0  0
 17 18  1  0  0  0  0
 18 44  1  0  0  0  0
 18 45  1  0  0  0  0
 19 20  1  0  0  0  0
 20 21  2  0  0  0  0
 20 46  1  0  0  0  0
 21 22  1  0  0  0  0
 23 24  1  0  0  0  0
 23 47  1  0  0  0  0
 23 48  1  0  0  0  0
 24 25  1  0  0  0  0
 24 49  1  0  0  0  0
 24 50  1  0  0  0  0
 25 26  1  0  0  0  0
 26 27  1  0  0  0  0
 26 51  1  0  0  0  0
 26 52  1  0  0  0  0
 27 53  1  0  0  0  0
 27 54  1  0  0  0  0
M  END
> <s_m_source_file>
AV-unprocessed.smi

> <i_m_source_file_index>
190

> <i_lp_mmshare_version>
43012

> <i_f3d_flags>
0

> <s_epik_input>
W0NIMl0xW0NIMl1PW0NIMl1bQ0gyXUMxKFtDSDJdW09IXSlbQ0gyXW4oW2NIXW4yKWMoYzIzKW5bY0hdbmMzTihbQ0gyXVtDSDJdW0NIMl00KVtDQF00NVtDSDJdW0NIMl1PW0NIMl01

> <s_epik_cmdline>
J2VwaWtfcHl0aG9uJywgJy1waCcsICc3LjAnLCAnLXRuJywgJzgnLCAnLW1hJywgJzIwMCcsICctbWV0YWxfYmluZGluZycsICctaW1hZScsICc8aW5maWxlLm1hZT4nLCAnLW9tYWUnLCAnPG91dGZpbGUubWFlPic=

> <r_lp_tautomer_probability>
1

> <r_epik_Ionization_Penalty>
0.00423054

> <r_epik_Ionization_Penalty_Charging>
0

> <r_epik_Ionization_Penalty_Neutral>
0.00423054

> <r_epik_State_Penalty>
0.00298851

> <r_epik_Charging_Adjusted_Penalty>
0.00298851

> <i_epik_Tot_Q>
0

> <i_epik_Tot_abs_Q>
0

> <r_epik_Metal_State_Penalty>
-0

> <b_epik_Metal_Only>
0

> <s_lp_Force_Field>
OPLS_2005

> <r_lp_Energy>
69.5451

> <b_lp_Chiralities_Consistent>
1

> <s_lp_Variant>
AV-unprocessed.smi:190-2

> <Gold.Version>
5.8.1

> <Gold.Id.Protein>
6NUR|6NUR_protein|mol2

> <Gold.PLP.Fitness>
38.5993

> <Gold.PLP.PLP>
-32.0394

> <Gold.PLP.part.hbond>
-3.5773

> <Gold.PLP.part.metal>
0.0000

> <Gold.PLP.part.buried>
-5.3732

> <Gold.PLP.part.nonpolar>
-25.0246

> <Gold.PLP.part.repulsive>
1.3389

> <Gold.PLP.ligand.clash>
0.0000

> <Gold.PLP.ligand.torsion>
0.2839

> <Gold.PLP.Chemscore.Hbond>
1.6304

> <Gold.PLP.Chemscore.CHOScore>
0.6744

> <Gold.PLP.Chemscore.Metal>
0.0000

> <Gold.Chemscore.Hbonds>
donor molecule, donor type, donor heavy atom, donor atom, acceptor molecule, acceptor atom, score
      L1  H     1    28       P1 10171  1.00
      P1  H 11000 11005       L1    19  0.60
      L1  C    20    46       P1 10187  0.42

> <Gold.PLP.Chemscore.Internal.Correction>
0.2133

> <Gold.Rescore>
     Score         DG    S(hbond)    S(metal)    S(lipo)     H(rot)  DE(clash)    DE(int)     intcor
      4.11     -10.93       1.00        0.00      69.68       2.37       0.43       6.40       ----

> <Gold.Chemscore.Fitness>
4.1071

> <Gold.Chemscore.DG>
-10.9309

> <Gold.Chemscore.ZeroCoef>
-5.4800

> <Gold.Chemscore.Hbond>
1.0049

> <Gold.Chemscore.Metal>
0.0000

> <Gold.Chemscore.Lipo>
69.6844

> <Gold.Chemscore.Internal_Hbond>
0.0000

> <Gold.Chemscore.DEClash>
0.4255

> <Gold.Chemscore.DEInternal>
6.3983

> <Gold.Chemscore.Rot>
2.3666

> <Gold.Chemscore.Internal.Correction>
   9.000000E+99

> <Gold.Chemscore.Hbonds>
donor molecule, donor type, donor heavy atom, donor atom, acceptor molecule, acceptor atom, score
      L1  H     1    28       P1 10171  1.00
      P1  H 11000 11005       L1    19  0.02

> <Gold.Chemscore.Hbond.Weighted>
-3.3564

> <Gold.Chemscore.Metal.Weighted>
-0.0000

> <Gold.Chemscore.Lipo.Weighted>
-8.1531

> <Gold.Chemscore.Internal_Hbond.Weighted>
0.0000

> <Gold.Chemscore.DEClash.Weighted>
0.4255

> <Gold.Chemscore.DEInternal.Weighted>
6.3983

> <Gold.Chemscore.Rot.Weighted>
6.0586

> <Gold.Chemscore.Internal.Correction.Weighted>
   9.000000E+99

> <Gold.Protein.RotatedTorsions>
[ 6907 6896 6895 6894 ] final  -14.22 input  -60.11 | X-H torsion
[ 7974 7965 7964 7962 ] final  -97.86 input  175.53 | X-H torsion
[ 8008 7997 7996 7995 ] final -119.79 input   59.86 | X-H torsion
[ 10167 10162 10161 10158 ] final  157.15 input  -65.29 | X-H torsion
[ 10718 10713 10712 10709 ] final  -42.47 input   66.30 | X-H torsion
[ 10763 10752 10751 10750 ] final  -96.90 input  -60.55 | X-H torsion
[ 11005 11000 10999 10996 ] final   50.38 input  -57.11 | X-H torsion

> <Gold.Protein.ActiveResidues>
 VAL166  LYS551  ARG553  GLY616  TRP617  ASP618  TYR619  PRO620  LYS621  CYS622 
 ASP623  PHE694  ASN695  SER759  ASP760  ASP761  ALA762  ILE779  LEU786  VAL792 
 PHE793  MET794  SER795  GLU796  ALA797  LYS798  CYS799  TRP800  GLU811  SER814 

> <Gold.Protein.RotatedAtoms>
  151.3428  135.0867  159.9376 H   0  0  0  0  0  0  0  0  0  0  0  0  # atno 6907 bound_to 6896
  152.5207  133.9430  159.7646 H   0  0  0  0  0  0  0  0  0  0  0  0  # atno 6908 bound_to 6896
  150.9791  133.6211  159.2755 H   0  0  0  0  0  0  0  0  0  0  0  0  # atno 6909 bound_to 6896
  145.3282  140.9436  143.2677 H   0  0  0  0  0  0  0  0  0  0  0  0  # atno 7974 bound_to 7965
  155.1214  140.0398  157.2751 H   0  0  0  0  0  0  0  0  0  0  0  0  # atno 8008 bound_to 7997
  154.6610  140.2591  155.7083 H   0  0  0  0  0  0  0  0  0  0  0  0  # atno 8009 bound_to 7997
  156.2619  140.2817  156.1082 H   0  0  0  0  0  0  0  0  0  0  0  0  # atno 8010 bound_to 7997
  139.4822  144.4943  151.8262 H   0  0  0  0  0  0  0  0  0  0  0  0  # atno 10167 bound_to 10162
  156.2592  130.4195  149.8561 H   0  0  0  0  0  0  0  0  0  0  0  0  # atno 10718 bound_to 10713
  154.7280  135.5066  153.8918 H   0  0  0  0  0  0  0  0  0  0  0  0  # atno 10763 bound_to 10752
  153.0923  135.6662  153.9838 H   0  0  0  0  0  0  0  0  0  0  0  0  # atno 10764 bound_to 10752
  153.9646  135.3044  155.3410 H   0  0  0  0  0  0  0  0  0  0  0  0  # atno 10765 bound_to 10752
  140.1022  134.5065  155.8752 H   0  0  0  0  0  0  0  0  0  0  0  0  # atno 11005 bound_to 11000
  144.8885  139.4807  143.6689 LP  0  0  0  0  0  0  0  0  0  0  0  0  # atno 17320 bound_to 7965
  146.3056  139.7568  142.9059 LP  0  0  0  0  0  0  0  0  0  0  0  0  # atno 17321 bound_to 7965
  140.4430  144.1960  150.5892 LP  0  0  0  0  0  0  0  0  0  0  0  0  # atno 17342 bound_to 10162
  140.4663  143.2429  151.9151 LP  0  0  0  0  0  0  0  0  0  0  0  0  # atno 17343 bound_to 10162
  156.6082  130.8575  151.3448 LP  0  0  0  0  0  0  0  0  0  0  0  0  # atno 17370 bound_to 10713
  157.7244  130.9602  150.1573 LP  0  0  0  0  0  0  0  0  0  0  0  0  # atno 17371 bound_to 10713
  141.2109  133.6700  156.6541 LP  0  0  0  0  0  0  0  0  0  0  0  0  # atno 17394 bound_to 11000
  140.3204  134.8012  157.4248 LP  0  0  0  0  0  0  0  0  0  0  0  0  # atno 17395 bound_to 11000

$$$$
