AV-unprocessed.smi:3129|AV-procd|sdf|11922|dock7
  -GOLD-   2272017303D 1   1.00000     0.00000
 Structure written by MMmdl.
 40 40  0  0  0  0  0  0  0  0  2 V2000
  144.4648  134.0151  150.5167 C   0  0  0  0  0  0  0  0  0  0  0  0
  144.7546  134.9695  151.6836 C   0  0  0  0  0  0  0  0  0  0  0  0
  143.4583  135.3231  152.4331 C   0  0  0  0  0  0  0  0  0  0  0  0
  145.5176  136.2195  151.1906 C   0  0  0  0  0  0  0  0  0  0  0  0
  146.1731  136.9510  152.2708 N   0  0  0  0  0  0  0  0  0  0  0  0
  146.7699  138.1454  152.1416 C   0  0  0  0  0  0  0  0  0  0  0  0
  146.8043  138.7736  151.0828 O   0  0  0  0  0  0  0  0  0  0  0  0
  147.4398  138.7215  153.3956 C   0  0  2  0  0  0  0  0  0  0  0  0
  146.9539  140.1575  153.6439 C   0  0  0  0  0  0  0  0  0  0  0  0
  148.9099  138.7061  153.2392 N   0  3  0  0  0  0  0  0  0  0  0  0
  149.6699  139.0265  154.4679 C   0  0  0  0  0  0  0  0  0  0  0  0
  149.7447  140.5441  154.6958 C   0  0  0  0  0  0  0  0  0  0  0  0
  150.3907  140.8701  155.9553 N   0  0  0  0  0  0  0  0  0  0  0  0
  150.7388  142.1104  156.4473 C   0  0  0  0  0  0  0  0  0  0  0  0
  151.3287  141.9141  157.6628 C   0  0  0  0  0  0  0  0  0  0  0  0
  151.2875  140.5026  157.8353 C   0  0  0  0  0  0  0  0  0  0  0  0
  150.7223  139.8812  156.8133 N   0  0  0  0  0  0  0  0  0  0  0  0
  143.8139  134.4801  149.7756 H   0  0  0  0  0  0  0  0  0  0  0  0
  143.9757  133.1052  150.8655 H   0  0  0  0  0  0  0  0  0  0  0  0
  145.3855  133.7196  150.0126 H   0  0  0  0  0  0  0  0  0  0  0  0
  145.3981  134.4307  152.3795 H   0  0  0  0  0  0  0  0  0  0  0  0
  142.7737  135.8848  151.7969 H   0  0  0  0  0  0  0  0  0  0  0  0
  143.6575  135.9227  153.3212 H   0  0  0  0  0  0  0  0  0  0  0  0
  142.9409  134.4225  152.7646 H   0  0  0  0  0  0  0  0  0  0  0  0
  146.2609  135.9394  150.4422 H   0  0  0  0  0  0  0  0  0  0  0  0
  144.8274  136.9031  150.6952 H   0  0  0  0  0  0  0  0  0  0  0  0
  146.1859  136.5055  153.1771 H   0  0  0  0  0  0  0  0  0  0  0  0
  147.1754  138.1196  154.2671 H   0  0  0  0  0  0  0  0  0  0  0  0
  145.8711  140.1920  153.7711 H   0  0  0  0  0  0  0  0  0  0  0  0
  147.2129  140.8202  152.8167 H   0  0  0  0  0  0  0  0  0  0  0  0
  147.4007  140.5694  154.5493 H   0  0  0  0  0  0  0  0  0  0  0  0
  149.1674  137.7784  152.9324 H   0  0  0  0  0  0  0  0  0  0  0  0
  149.1834  138.5376  155.3123 H   0  0  0  0  0  0  0  0  0  0  0  0
  150.6801  138.6177  154.4171 H   0  0  0  0  0  0  0  0  0  0  0  0
  150.2847  141.0304  153.8823 H   0  0  0  0  0  0  0  0  0  0  0  0
  148.7410  140.9708  154.7079 H   0  0  0  0  0  0  0  0  0  0  0  0
  150.5451  143.0192  155.8968 H   0  0  0  0  0  0  0  0  0  0  0  0
  151.7278  142.6646  158.3288 H   0  0  0  0  0  0  0  0  0  0  0  0
  151.6495  139.9146  158.6657 H   0  0  0  0  0  0  0  0  0  0  0  0
  149.1751  139.3682  152.5243 H   0  0  0  0  0  0  0  0  0  0  0  0
  1  2  1  0  0  0  0
  1 18  1  0  0  0  0
  1 19  1  0  0  0  0
  1 20  1  0  0  0  0
  2  3  1  0  0  0  0
  2  4  1  0  0  0  0
  2 21  1  0  0  0  0
  3 22  1  0  0  0  0
  3 23  1  0  0  0  0
  3 24  1  0  0  0  0
  4  5  1  0  0  0  0
  4 25  1  0  0  0  0
  4 26  1  0  0  0  0
  5  6  1  0  0  0  0
  5 27  1  0  0  0  0
  6  7  2  0  0  0  0
  6  8  1  0  0  0  0
  8  9  1  0  0  0  0
  8 10  1  0  0  0  0
  8 28  1  0  0  0  0
  9 29  1  0  0  0  0
  9 30  1  0  0  0  0
  9 31  1  0  0  0  0
 10 11  1  0  0  0  0
 10 32  1  0  0  0  0
 10 40  1  0  0  0  0
 11 12  1  0  0  0  0
 11 33  1  0  0  0  0
 11 34  1  0  0  0  0
 12 13  1  0  0  0  0
 12 35  1  0  0  0  0
 12 36  1  0  0  0  0
 13 17  1  0  0  0  0
 13 14  1  0  0  0  0
 14 15  2  0  0  0  0
 14 37  1  0  0  0  0
 15 16  1  0  0  0  0
 15 38  1  0  0  0  0
 16 17  2  0  0  0  0
 16 39  1  0  0  0  0
M  CHG  1  10   1
M  END
> <s_m_source_file>
AV-unprocessed.smi

> <i_m_source_file_index>
3129

> <i_lp_mmshare_version>
43012

> <i_f3d_flags>
0

> <s_epik_input>
W0NIM11bQ0hdKFtDSDNdKVtDSDJdW05IXUMoPU8pW0NASF0oW0NIM10pW05IXVtDSDJdW0NIMl1uMVtjSF1bY0hdW2NIXW4x

> <s_epik_cmdline>
J2VwaWtfcHl0aG9uJywgJy1waCcsICc3LjAnLCAnLXRuJywgJzgnLCAnLW1hJywgJzIwMCcsICctbWV0YWxfYmluZGluZycsICctaW1hZScsICc8aW5maWxlLm1hZT4nLCAnLW9tYWUnLCAnPG91dGZpbGUubWFlPic=

> <r_lp_tautomer_probability>
1

> <r_epik_Ionization_Penalty>
0.20724

> <r_epik_Ionization_Penalty_Charging>
0.207237

> <r_epik_Ionization_Penalty_Neutral>
3.32432e-06

> <r_epik_State_Penalty>
0.197234

> <r_epik_Charging_Adjusted_Penalty>
0.404471

> <i_epik_Tot_Q>
1

> <i_epik_Tot_abs_Q>
1

> <r_epik_Metal_State_Penalty>
0.197522

> <b_epik_Metal_Only>
0

> <s_lp_Force_Field>
OPLS_2005

> <r_lp_Energy>
5.48994

> <b_lp_Chiralities_Consistent>
1

> <s_lp_Variant>
AV-unprocessed.smi:3129-1

> <Gold.Version>
5.8.1

> <Gold.Id.Protein>
6NUR|6NUR_protein|mol2

> <Gold.PLP.Fitness>
46.9028

> <Gold.PLP.PLP>
-32.8824

> <Gold.PLP.part.hbond>
-4.0000

> <Gold.PLP.part.metal>
0.0000

> <Gold.PLP.part.buried>
-2.4686

> <Gold.PLP.part.nonpolar>
-28.3995

> <Gold.PLP.part.repulsive>
1.1347

> <Gold.PLP.ligand.clash>
0.0000

> <Gold.PLP.ligand.torsion>
0.4895

> <Gold.PLP.Chemscore.Hbond>
3.9440

> <Gold.PLP.Chemscore.CHOScore>
1.0000

> <Gold.PLP.Chemscore.Metal>
0.0000

> <Gold.Chemscore.Hbonds>
donor molecule, donor type, donor heavy atom, donor atom, acceptor molecule, acceptor atom, score
      L1  H    10    32       P1  7948  2.00
      L1  H    10    40       P1  7957  1.00
      P1  H  7954  7966       L1     7  0.94
      L1  C    14    37       P1  8028  1.00

> <Gold.PLP.Chemscore.Internal.Correction>
0.1675

> <Gold.Rescore>
     Score         DG    S(hbond)    S(metal)    S(lipo)     H(rot)  DE(clash)    DE(int)     intcor
     15.71     -17.25       2.95        0.00      64.99       2.22       1.20       0.35       ----

> <Gold.Chemscore.Fitness>
15.7094

> <Gold.Chemscore.DG>
-17.2530

> <Gold.Chemscore.ZeroCoef>
-5.4800

> <Gold.Chemscore.Hbond>
2.9537

> <Gold.Chemscore.Metal>
0.0000

> <Gold.Chemscore.Lipo>
64.9865

> <Gold.Chemscore.Internal_Hbond>
0.0000

> <Gold.Chemscore.DEClash>
1.1959

> <Gold.Chemscore.DEInternal>
0.3477

> <Gold.Chemscore.Rot>
2.2249

> <Gold.Chemscore.Internal.Correction>
   9.000000E+99

> <Gold.Chemscore.Hbonds>
donor molecule, donor type, donor heavy atom, donor atom, acceptor molecule, acceptor atom, score
      L1  H    10    32       P1  7948  0.96
      L1  H    10    40       P1  7957  0.97
      P1  H  7954  7966       L1     7  0.57

> <Gold.Chemscore.Hbond.Weighted>
-9.8653

> <Gold.Chemscore.Metal.Weighted>
-0.0000

> <Gold.Chemscore.Lipo.Weighted>
-7.6034

> <Gold.Chemscore.Internal_Hbond.Weighted>
0.0000

> <Gold.Chemscore.DEClash.Weighted>
1.1959

> <Gold.Chemscore.DEInternal.Weighted>
0.3477

> <Gold.Chemscore.Rot.Weighted>
5.6957

> <Gold.Chemscore.Internal.Correction.Weighted>
   9.000000E+99

> <Gold.Protein.RotatedTorsions>
[ 6907 6896 6895 6894 ] final   86.89 input  -60.11 | X-H torsion
[ 7974 7965 7964 7962 ] final   80.58 input  175.53 | X-H torsion
[ 8008 7997 7996 7995 ] final -128.44 input   59.86 | X-H torsion
[ 10167 10162 10161 10158 ] final  120.22 input  -65.29 | X-H torsion
[ 10718 10713 10712 10709 ] final  139.80 input   66.30 | X-H torsion
[ 10763 10752 10751 10750 ] final   79.51 input  -60.55 | X-H torsion
[ 11005 11000 10999 10996 ] final   53.37 input  -57.11 | X-H torsion

> <Gold.Protein.ActiveResidues>
 VAL166  LYS551  ARG553  GLY616  TRP617  ASP618  TYR619  PRO620  LYS621  CYS622 
 ASP623  PHE694  ASN695  SER759  ASP760  ASP761  ALA762  ILE779  LEU786  VAL792 
 PHE793  MET794  SER795  GLU796  ALA797  LYS798  CYS799  TRP800  GLU811  SER814 

> <Gold.Protein.RotatedAtoms>
  152.5402  134.2361  159.8843 H   0  0  0  0  0  0  0  0  0  0  0  0  # atno 6907 bound_to 6896
  151.2331  133.4433  159.2612 H   0  0  0  0  0  0  0  0  0  0  0  0  # atno 6908 bound_to 6896
  151.0697  134.9804  159.8358 H   0  0  0  0  0  0  0  0  0  0  0  0  # atno 6909 bound_to 6896
  145.6493  139.2444  143.1986 H   0  0  0  0  0  0  0  0  0  0  0  0  # atno 7974 bound_to 7965
  155.2628  140.0437  157.2999 H   0  0  0  0  0  0  0  0  0  0  0  0  # atno 8008 bound_to 7997
  154.5700  140.2371  155.8175 H   0  0  0  0  0  0  0  0  0  0  0  0  # atno 8009 bound_to 7997
  156.2115  140.2997  155.9751 H   0  0  0  0  0  0  0  0  0  0  0  0  # atno 8010 bound_to 7997
  139.5996  144.7052  151.3095 H   0  0  0  0  0  0  0  0  0  0  0  0  # atno 10167 bound_to 10162
  157.4104  131.1027  151.0460 H   0  0  0  0  0  0  0  0  0  0  0  0  # atno 10718 bound_to 10713
  153.0958  135.4837  154.8776 H   0  0  0  0  0  0  0  0  0  0  0  0  # atno 10763 bound_to 10752
  154.7323  135.3063  154.8873 H   0  0  0  0  0  0  0  0  0  0  0  0  # atno 10764 bound_to 10752
  153.9505  135.6824  153.4797 H   0  0  0  0  0  0  0  0  0  0  0  0  # atno 10765 bound_to 10752
  140.0772  134.5388  155.8984 H   0  0  0  0  0  0  0  0  0  0  0  0  # atno 11005 bound_to 11000
  146.1217  140.7301  142.9454 LP  0  0  0  0  0  0  0  0  0  0  0  0  # atno 17320 bound_to 7965
  144.7128  140.4103  143.7067 LP  0  0  0  0  0  0  0  0  0  0  0  0  # atno 17321 bound_to 7965
  140.7239  143.7059  150.7808 LP  0  0  0  0  0  0  0  0  0  0  0  0  # atno 17342 bound_to 10162
  140.0633  143.5133  152.2617 LP  0  0  0  0  0  0  0  0  0  0  0  0  # atno 17343 bound_to 10162
  157.1427  130.6150  149.5559 LP  0  0  0  0  0  0  0  0  0  0  0  0  # atno 17370 bound_to 10713
  155.9849  130.4876  150.7005 LP  0  0  0  0  0  0  0  0  0  0  0  0  # atno 17371 bound_to 10713
  141.2034  133.6631  156.6060 LP  0  0  0  0  0  0  0  0  0  0  0  0  # atno 17394 bound_to 11000
  140.3540  134.7744  157.4487 LP  0  0  0  0  0  0  0  0  0  0  0  0  # atno 17395 bound_to 11000

$$$$
