AV-unprocessed.smi:115|AV-procd|sdf|1125|dock4
  -GOLD-   2262018253D 1   1.00000     0.00000
 Structure written by MMmdl.
 55 57  0  0  0  0  0  0  0  0  1 V2000
  151.8895  144.9376  159.7628 C   0  0  0  0  0  0  0  0  0  0  0  0
  150.9181  144.5541  158.8009 O   0  0  0  0  0  0  0  0  0  0  0  0
  150.5338  143.1873  158.8789 C   0  0  0  0  0  0  0  0  0  0  0  0
  151.4073  142.2996  157.9614 C   0  0  2  0  0  0  0  0  0  0  0  0
  150.9911  142.3436  156.4812 C   0  0  0  0  0  0  0  0  0  0  0  0
  151.5524  140.9178  158.4497 N   0  0  0  0  0  0  0  0  0  0  0  0
  152.6646  140.4555  159.1511 C   0  0  0  0  0  0  0  0  0  0  0  0
  153.8475  141.3091  159.4848 C   0  0  0  0  0  0  0  0  0  0  0  0
  152.4535  139.1455  159.4570 C   0  0  0  0  0  0  0  0  0  0  0  0
  151.1978  138.7486  158.9231 C   0  0  0  0  0  0  0  0  0  0  0  0
  150.5192  137.4273  159.0296 C   0  0  0  0  0  0  0  0  0  0  0  0
  151.1290  136.3588  159.0578 O   0  0  0  0  0  0  0  0  0  0  0  0
  148.9820  137.4180  159.0996 C   0  0  0  0  0  0  0  0  0  0  0  0
  148.4831  136.1947  159.7137 N   0  0  0  0  0  0  0  0  0  0  0  0
  148.7462  134.9714  159.0467 C   0  0  0  0  0  0  0  0  0  0  0  0
  149.3696  134.9262  157.9846 O   0  0  0  0  0  0  0  0  0  0  0  0
  148.2134  133.7886  159.7142 C   0  0  0  0  0  0  0  0  0  0  0  0
  148.3977  132.5760  159.1652 F   0  0  0  0  0  0  0  0  0  0  0  0
  147.5337  133.8909  160.8764 C   0  0  0  0  0  0  0  0  0  0  0  0
  147.2967  135.0991  161.5092 N   0  0  0  0  0  0  0  0  0  0  0  0
  146.5226  135.1578  162.8059 C   0  0  1  0  0  0  0  0  0  0  0  0
  145.3020  136.0742  162.6574 C   0  0  0  0  0  0  0  0  0  0  0  0
  144.1842  135.0805  162.4235 C   0  0  0  0  0  0  0  0  0  0  0  0
  144.6454  133.8954  163.2628 C   0  0  0  0  0  0  0  0  0  0  0  0
  146.0610  133.8739  163.1142 O   0  0  0  0  0  0  0  0  0  0  0  0
  147.7550  136.2998  160.9243 C   0  0  0  0  0  0  0  0  0  0  0  0
  147.5140  137.3898  161.4482 O   0  0  0  0  0  0  0  0  0  0  0  0
  150.6660  139.8434  158.2766 C   0  0  0  0  0  0  0  0  0  0  0  0
  149.3822  139.9721  157.5032 C   0  0  0  0  0  0  0  0  0  0  0  0
  152.1345  145.9915  159.6304 H   0  0  0  0  0  0  0  0  0  0  0  0
  152.8133  144.3673  159.6653 H   0  0  0  0  0  0  0  0  0  0  0  0
  151.5080  144.8100  160.7767 H   0  0  0  0  0  0  0  0  0  0  0  0
  150.5679  142.8419  159.9140 H   0  0  0  0  0  0  0  0  0  0  0  0
  149.4904  143.1421  158.5737 H   0  0  0  0  0  0  0  0  0  0  0  0
  152.3967  142.7474  157.9926 H   0  0  0  0  0  0  0  0  0  0  0  0
  150.9938  143.3685  156.1095 H   0  0  0  0  0  0  0  0  0  0  0  0
  149.9956  141.9391  156.3101 H   0  0  0  0  0  0  0  0  0  0  0  0
  151.6869  141.7729  155.8655 H   0  0  0  0  0  0  0  0  0  0  0  0
  154.6321  140.7169  159.9563 H   0  0  0  0  0  0  0  0  0  0  0  0
  153.5735  142.1052  160.1776 H   0  0  0  0  0  0  0  0  0  0  0  0
  154.2710  141.7610  158.5875 H   0  0  0  0  0  0  0  0  0  0  0  0
  153.1459  138.5381  160.0201 H   0  0  0  0  0  0  0  0  0  0  0  0
  148.5616  138.2550  159.6554 H   0  0  0  0  0  0  0  0  0  0  0  0
  148.5545  137.5054  158.1002 H   0  0  0  0  0  0  0  0  0  0  0  0
  147.1584  132.9812  161.3212 H   0  0  0  0  0  0  0  0  0  0  0  0
  147.2233  135.4820  163.5766 H   0  0  0  0  0  0  0  0  0  0  0  0
  145.1507  136.6057  163.5978 H   0  0  0  0  0  0  0  0  0  0  0  0
  145.4239  136.8033  161.8550 H   0  0  0  0  0  0  0  0  0  0  0  0
  143.2055  135.4583  162.7201 H   0  0  0  0  0  0  0  0  0  0  0  0
  144.1390  134.8035  161.3698 H   0  0  0  0  0  0  0  0  0  0  0  0
  144.4028  134.0549  164.3143 H   0  0  0  0  0  0  0  0  0  0  0  0
  144.1954  132.9539  162.9475 H   0  0  0  0  0  0  0  0  0  0  0  0
  149.0918  139.0272  157.0471 H   0  0  0  0  0  0  0  0  0  0  0  0
  149.4620  140.6723  156.6771 H   0  0  0  0  0  0  0  0  0  0  0  0
  148.5689  140.2962  158.1524 H   0  0  0  0  0  0  0  0  0  0  0  0
  1  2  1  0  0  0  0
  1 30  1  0  0  0  0
  1 31  1  0  0  0  0
  1 32  1  0  0  0  0
  2  3  1  0  0  0  0
  3  4  1  0  0  0  0
  3 33  1  0  0  0  0
  3 34  1  0  0  0  0
  4  5  1  0  0  0  0
  4  6  1  0  0  0  0
  4 35  1  0  0  0  0
  5 36  1  0  0  0  0
  5 37  1  0  0  0  0
  5 38  1  0  0  0  0
  6 28  1  0  0  0  0
  6  7  1  0  0  0  0
  7  8  1  0  0  0  0
  7  9  2  0  0  0  0
  8 39  1  0  0  0  0
  8 40  1  0  0  0  0
  8 41  1  0  0  0  0
  9 10  1  0  0  0  0
  9 42  1  0  0  0  0
 10 11  1  0  0  0  0
 10 28  2  0  0  0  0
 11 12  2  0  0  0  0
 11 13  1  0  0  0  0
 13 14  1  0  0  0  0
 13 43  1  0  0  0  0
 13 44  1  0  0  0  0
 14 26  1  0  0  0  0
 14 15  1  0  0  0  0
 15 16  2  0  0  0  0
 15 17  1  0  0  0  0
 17 18  1  0  0  0  0
 17 19  2  0  0  0  0
 19 20  1  0  0  0  0
 19 45  1  0  0  0  0
 20 21  1  0  0  0  0
 20 26  1  0  0  0  0
 21 25  1  0  0  0  0
 21 22  1  0  0  0  0
 21 46  1  0  0  0  0
 22 23  1  0  0  0  0
 22 47  1  0  0  0  0
 22 48  1  0  0  0  0
 23 24  1  0  0  0  0
 23 49  1  0  0  0  0
 23 50  1  0  0  0  0
 24 25  1  0  0  0  0
 24 51  1  0  0  0  0
 24 52  1  0  0  0  0
 26 27  2  0  0  0  0
 28 29  1  0  0  0  0
 29 53  1  0  0  0  0
 29 54  1  0  0  0  0
 29 55  1  0  0  0  0
M  END
> <s_m_source_file>
AV-unprocessed.smi

> <i_m_source_file_index>
115

> <i_lp_mmshare_version>
43012

> <i_f3d_flags>
0

> <s_epik_input>
W0NIM11PW0NIMl1bQ0BIXShbQ0gzXSluMWMoW0NIM10pW2NIXWMoYzFbQ0gzXSlDKD1PKVtDSDJdbjJjKD1PKWMoRilbY0hdbihjMj1PKVtDQEBIXTNbQ0gyXVtDSDJdW0NIMl1PMw==

> <s_epik_cmdline>
J2VwaWtfcHl0aG9uJywgJy1waCcsICc3LjAnLCAnLXRuJywgJzgnLCAnLW1hJywgJzIwMCcsICctbWV0YWxfYmluZGluZycsICctaW1hZScsICc8aW5maWxlLm1hZT4nLCAnLW9tYWUnLCAnPG91dGZpbGUubWFlPic=

> <r_lp_tautomer_probability>
1

> <r_epik_Ionization_Penalty>
5.02611e-09

> <r_epik_Ionization_Penalty_Charging>
5.01743e-09

> <r_epik_Ionization_Penalty_Neutral>
8.68114e-12

> <r_epik_State_Penalty>
-0

> <r_epik_Charging_Adjusted_Penalty>
5.01743e-09

> <i_epik_Tot_Q>
0

> <i_epik_Tot_abs_Q>
0

> <r_epik_Metal_State_Penalty>
-0

> <b_epik_Metal_Only>
0

> <s_epik_Chemistry_Notes>
This compound contains an acetal/aminal-like group ( X-CH(R)-Y where X, Y are N, S, or O) that may be acid/base labile, releasing an aldehyde.

> <s_lp_Force_Field>
OPLS_2005

> <r_lp_Energy>
51.0988

> <b_lp_Chiralities_Consistent>
1

> <s_lp_Variant>
AV-unprocessed.smi:115-3

> <Gold.Version>
5.8.1

> <Gold.Id.Protein>
6NUR|6NUR_protein|mol2

> <Gold.PLP.Fitness>
54.3495

> <Gold.PLP.PLP>
-49.4181

> <Gold.PLP.part.hbond>
-4.2760

> <Gold.PLP.part.metal>
0.0000

> <Gold.PLP.part.buried>
-7.2164

> <Gold.PLP.part.nonpolar>
-38.5251

> <Gold.PLP.part.repulsive>
0.1803

> <Gold.PLP.ligand.clash>
0.0000

> <Gold.PLP.ligand.torsion>
1.7187

> <Gold.PLP.Chemscore.Hbond>
2.6637

> <Gold.PLP.Chemscore.CHOScore>
0.0000

> <Gold.PLP.Chemscore.Metal>
0.0000

> <Gold.Chemscore.Hbonds>
donor molecule, donor type, donor heavy atom, donor atom, acceptor molecule, acceptor atom, score
      P1  H  6896  6908       L1    12  0.84
      P1  H  6931  6943       L1    27  0.83
      P1  H  6934  6947       L1    27  0.83

> <Gold.PLP.Chemscore.Internal.Correction>
0.3775

> <Gold.Rescore>
     Score         DG    S(hbond)    S(metal)    S(lipo)     H(rot)  DE(clash)    DE(int)     intcor
     13.79     -20.36       2.63        0.00     100.10       2.19       0.01       6.56       ----

> <Gold.Chemscore.Fitness>
13.7896

> <Gold.Chemscore.DG>
-20.3575

> <Gold.Chemscore.ZeroCoef>
-5.4800

> <Gold.Chemscore.Hbond>
2.6294

> <Gold.Chemscore.Metal>
0.0000

> <Gold.Chemscore.Lipo>
100.0973

> <Gold.Chemscore.Internal_Hbond>
0.0000

> <Gold.Chemscore.DEClash>
0.0115

> <Gold.Chemscore.DEInternal>
6.5564

> <Gold.Chemscore.Rot>
2.1938

> <Gold.Chemscore.Internal.Correction>
   9.000000E+99

> <Gold.Chemscore.Hbonds>
donor molecule, donor type, donor heavy atom, donor atom, acceptor molecule, acceptor atom, score
      P1  H  6896  6908       L1    12  0.78
      P1  H  6931  6943       L1    27  0.68
      P1  H  6934  6947       L1    27  0.83

> <Gold.Chemscore.Hbond.Weighted>
-8.7821

> <Gold.Chemscore.Metal.Weighted>
-0.0000

> <Gold.Chemscore.Lipo.Weighted>
-11.7114

> <Gold.Chemscore.Internal_Hbond.Weighted>
0.0000

> <Gold.Chemscore.DEClash.Weighted>
0.0115

> <Gold.Chemscore.DEInternal.Weighted>
6.5564

> <Gold.Chemscore.Rot.Weighted>
5.6160

> <Gold.Chemscore.Internal.Correction.Weighted>
   9.000000E+99

> <Gold.Protein.RotatedTorsions>
[ 6907 6896 6895 6894 ] final -153.09 input  -60.11 | X-H torsion
[ 7974 7965 7964 7962 ] final -115.79 input  175.53 | X-H torsion
[ 8008 7997 7996 7995 ] final -166.67 input   59.86 | X-H torsion
[ 10167 10162 10161 10158 ] final  105.05 input  -65.29 | X-H torsion
[ 10718 10713 10712 10709 ] final -150.87 input   66.30 | X-H torsion
[ 10763 10752 10751 10750 ] final   99.38 input  -60.55 | X-H torsion
[ 11005 11000 10999 10996 ] final  -64.23 input  -57.11 | X-H torsion

> <Gold.Protein.ActiveResidues>
 VAL166  LYS551  ARG553  GLY616  TRP617  ASP618  TYR619  PRO620  LYS621  CYS622 
 ASP623  PHE694  ASN695  SER759  ASP760  ASP761  ALA762  ILE779  LEU786  VAL792 
 PHE793  MET794  SER795  GLU796  ALA797  LYS798  CYS799  TRP800  GLU811  SER814 

> <Gold.Protein.RotatedAtoms>
  151.2375  133.4417  159.2605 H   0  0  0  0  0  0  0  0  0  0  0  0  # atno 6907 bound_to 6896
  151.0737  134.9814  159.8331 H   0  0  0  0  0  0  0  0  0  0  0  0  # atno 6908 bound_to 6896
  152.5415  134.2318  159.8881 H   0  0  0  0  0  0  0  0  0  0  0  0  # atno 6909 bound_to 6896
  145.1043  140.8571  143.3908 H   0  0  0  0  0  0  0  0  0  0  0  0  # atno 7974 bound_to 7965
  155.8670  140.0987  157.1575 H   0  0  0  0  0  0  0  0  0  0  0  0  # atno 8008 bound_to 7997
  154.3994  140.1354  156.4094 H   0  0  0  0  0  0  0  0  0  0  0  0  # atno 8009 bound_to 7997
  155.7793  140.3459  155.5291 H   0  0  0  0  0  0  0  0  0  0  0  0  # atno 8010 bound_to 7997
  139.7125  144.7075  151.1003 H   0  0  0  0  0  0  0  0  0  0  0  0  # atno 10167 bound_to 10162
  156.4517  130.8171  151.2402 H   0  0  0  0  0  0  0  0  0  0  0  0  # atno 10718 bound_to 10713
  153.3007  135.4115  155.1250 H   0  0  0  0  0  0  0  0  0  0  0  0  # atno 10763 bound_to 10752
  154.8548  135.3540  154.5856 H   0  0  0  0  0  0  0  0  0  0  0  0  # atno 10764 bound_to 10752
  153.6281  135.7062  153.5344 H   0  0  0  0  0  0  0  0  0  0  0  0  # atno 10765 bound_to 10752
  141.1418  133.6663  156.5801 H   0  0  0  0  0  0  0  0  0  0  0  0  # atno 11005 bound_to 11000
  145.0920  139.2883  143.5730 LP  0  0  0  0  0  0  0  0  0  0  0  0  # atno 17320 bound_to 7965
  146.3529  140.0460  142.8639 LP  0  0  0  0  0  0  0  0  0  0  0  0  # atno 17321 bound_to 7965
  140.7736  143.5273  150.9465 LP  0  0  0  0  0  0  0  0  0  0  0  0  # atno 17342 bound_to 10162
  139.8958  143.6896  152.3139 LP  0  0  0  0  0  0  0  0  0  0  0  0  # atno 17343 bound_to 10162
  157.7502  131.0135  150.3429 LP  0  0  0  0  0  0  0  0  0  0  0  0  # atno 17370 bound_to 10713
  156.3809  130.3880  149.7102 LP  0  0  0  0  0  0  0  0  0  0  0  0  # atno 17371 bound_to 10713
  140.3844  134.7495  157.4682 LP  0  0  0  0  0  0  0  0  0  0  0  0  # atno 17394 bound_to 11000
  140.0613  134.5992  155.8746 LP  0  0  0  0  0  0  0  0  0  0  0  0  # atno 17395 bound_to 11000

$$$$
