#       Name:                AV-unprocessed.smi:2902
#       Creating user name   scv26
#       Creation time:       Fri Mar 27 16:03:20 2020


#       File generated by GOLD software.
#

@<TRIPOS>MOLECULE
AV-unprocessed.smi:2902
    53    54     1
SMALL
NO_CHARGES


@<TRIPOS>ATOM
      1 ****        -3.8362  -1.9357  -1.4726 C.3            1 S1                 0.0000
      2 ****        -2.3068  -2.0525  -1.4972 C.3            1 S1                 0.0000
      3 ****        -1.6250  -1.1602  -0.4432 C.3            1 S1                 0.0000
      4 ****        -1.9510  -1.6792   0.8460 O.3            1 S1                 0.0000
      5 ****        -1.6638  -0.8413   1.9630 C.3            1 S1                 0.0000
      6 ****        -1.9291  -1.5912   3.2662 C.3            1 S1                 0.0000
      7 ****        -2.1131  -0.4895   4.3142 C.3            1 S1                 0.0000
      8 ****        -2.5944   0.7526   3.5476 C.3            1 S1                 0.0000
      9 ****        -2.5956   0.3698   2.0626 C.3            1 S1                 0.0000
     10 ****        -0.0996  -1.1360  -0.6287 C.2            1 S1                 0.0000
     11 ****         0.5253  -2.1876  -0.7682 O.2            1 S1                 0.0000
     12 ****         0.4790   0.0754  -0.6091 N.am           1 S1                 0.0000
     13 ****         1.9107   0.3492  -0.7202 C.3            1 S1                 0.0000
     14 ****         2.3957   0.9638   0.6051 C.3            1 S1                 0.0000
     15 ****         2.1910   1.2427  -1.9570 C.3            1 S1                 0.0000
     16 ****         1.7548   0.5873  -3.2821 C.3            1 S1                 0.0000
     17 ****         3.5878   1.6500  -2.0292 N.pl3          1 S1                 0.0000
     18 ****         4.1387   2.8627  -1.9459 C.2            1 S1                 0.0000
     19 ****         5.4605   2.8605  -2.0483 N.2            1 S1                 0.0000
     20 ****         5.6749   1.5205  -2.2057 C.2            1 S1                 0.0000
     21 ****         4.5871   0.7504  -2.2020 N.2            1 S1                 0.0000
     22 ****        -4.2861  -2.5717  -2.2350 H              1 S1                 0.0000
     23 ****        -4.1563  -0.9110  -1.6629 H              1 S1                 0.0000
     24 ****        -4.2405  -2.2394  -0.5066 H              1 S1                 0.0000
     25 ****        -2.0237  -3.0950  -1.3448 H              1 S1                 0.0000
     26 ****        -1.9538  -1.7813  -2.4933 H              1 S1                 0.0000
     27 ****        -2.0163  -0.1472  -0.5502 H              1 S1                 0.0000
     28 ****        -0.6242  -0.5110   1.9658 H              1 S1                 0.0000
     29 ****        -2.8521  -2.1663   3.1793 H              1 S1                 0.0000
     30 ****        -1.1284  -2.2860   3.5209 H              1 S1                 0.0000
     31 ****        -2.8140  -0.7894   5.0936 H              1 S1                 0.0000
     32 ****        -1.1594  -0.2744   4.7974 H              1 S1                 0.0000
     33 ****        -3.5863   1.0690   3.8720 H              1 S1                 0.0000
     34 ****        -1.9127   1.5851   3.7251 H              1 S1                 0.0000
     35 ****        -2.2852   1.1945   1.4206 H              1 S1                 0.0000
     36 ****        -3.6044   0.0799   1.7646 H              1 S1                 0.0000
     37 ****        -0.1232   0.8763  -0.4859 H              1 S1                 0.0000
     38 ****         2.4553  -0.5870  -0.8552 H              1 S1                 0.0000
     39 ****         3.4771   1.1009   0.6155 H              1 S1                 0.0000
     40 ****         2.1469   0.3182   1.4482 H              1 S1                 0.0000
     41 ****         1.9342   1.9356   0.7834 H              1 S1                 0.0000
     42 ****         1.6083   2.1585  -1.8432 H              1 S1                 0.0000
     43 ****         0.6801   0.4070  -3.3062 H              1 S1                 0.0000
     44 ****         2.2535  -0.3700  -3.4363 H              1 S1                 0.0000
     45 ****         1.9933   1.2272  -4.1321 H              1 S1                 0.0000
     46 ****         3.5623   3.7651  -1.8045 H              1 S1                 0.0000
     47 ****         6.6624   1.0998  -2.3262 H              1 S1                 0.0000
     48 ****        -1.4422  -2.5315   0.9674 LP             1 S1                 0.0000
     49 ****        -2.9321  -1.8723   0.8560 LP             1 S1                 0.0000
     50 ****         0.0404  -3.0621  -0.7611 LP             1 S1                 0.0000
     51 ****         1.5179  -2.1672  -0.8886 LP             1 S1                 0.0000
     52 ****         6.1114   3.6192  -2.0189 LP             1 S1                 0.0000
     53 ****         4.5239  -0.2426  -2.3017 LP             1 S1                 0.0000
@<TRIPOS>BOND
    1    1    2 1     
    2    1   22 1     
    3    1   23 1     
    4    1   24 1     
    5    2    3 1     
    6    2   25 1     
    7    2   26 1     
    8    3    4 1     
    9    3   10 1     
   10    3   27 1     
   11    4    5 1     
   12    5    9 1     
   13    5    6 1     
   14    5   28 1     
   15    6    7 1     
   16    6   29 1     
   17    6   30 1     
   18    7    8 1     
   19    7   31 1     
   20    7   32 1     
   21    8    9 1     
   22    8   33 1     
   23    8   34 1     
   24    9   35 1     
   25    9   36 1     
   26   10   11 2     
   27   10   12 am    
   28   12   13 1     
   29   12   37 1     
   30   13   14 1     
   31   13   15 1     
   32   13   38 1     
   33   14   39 1     
   34   14   40 1     
   35   14   41 1     
   36   15   16 1     
   37   15   17 1     
   38   15   42 1     
   39   16   43 1     
   40   16   44 1     
   41   16   45 1     
   42   17   21 1     
   43   17   18 1     
   44   18   19 2     
   45   18   46 1     
   46   19   20 1     
   47   20   21 2     
   48   20   47 1     
   49    4   48 1     
   50    4   49 1     
   51   11   50 1     
   52   11   51 1     
   53   19   52 1     
   54   21   53 1     
@<TRIPOS>SUBSTRUCTURE
      1 S1             1
@<TRIPOS>SET
LONE_PAIRS      STATIC     ATOMS    <user>   **** ""
6 48 49 50 51 52 53
DONOR_HYDROGENS      STATIC     ATOMS    <user>   **** ""
1 37
ATOM$BLUE        STATIC     ATOMS    COLORGROUP SYSTEM
6 48 49 50 51 52 53
ATOM$RED        STATIC     ATOMS    COLORGROUP SYSTEM
1 37
