AV-unprocessed.smi:2183|AV-procd|sdf|8865|dock2
  -GOLD-   2272012 63D 1   1.00000     0.00000
 Structure written by MMmdl.
 40 42  0  0  0  0  0  0  0  0  1 V2000
  154.0958  138.5867  157.8724 O   0  0  0  0  0  0  0  0  0  0  0  0
  154.4624  138.6802  159.2317 C   0  0  0  0  0  0  0  0  0  0  0  0
  154.0285  139.9670  159.8656 C   0  0  0  0  0  0  0  0  0  0  0  0
  153.3864  140.9058  159.1692 N   0  0  0  0  0  0  0  0  0  0  0  0
  153.1607  141.8868  160.1142 C   0  0  0  0  0  0  0  0  0  0  0  0
  152.5153  143.1391  160.0017 C   0  0  0  0  0  0  0  0  0  0  0  0
  152.3951  143.9834  161.1250 C   0  0  0  0  0  0  0  0  0  0  0  0
  152.9164  143.5881  162.3739 C   0  0  0  0  0  0  0  0  0  0  0  0
  153.5645  142.3451  162.5070 C   0  0  0  0  0  0  0  0  0  0  0  0
  153.6847  141.5072  161.3819 C   0  0  0  0  0  0  0  0  0  0  0  0
  154.2541  140.2542  161.1742 N   0  0  0  0  0  0  0  0  0  0  0  0
  154.9231  139.4459  162.1868 C   0  0  0  0  0  0  0  0  0  0  0  0
  156.0104  140.2273  162.9525 C   0  0  2  0  0  0  0  0  0  0  0  0
  157.2920  139.7629  162.5803 O   0  0  0  0  0  0  0  0  0  0  0  0
  155.8665  140.0879  164.4746 C   0  0  0  0  0  0  0  0  0  0  0  0
  155.7573  141.3855  165.0445 O   0  0  0  0  0  0  0  0  0  0  0  0
  155.7537  141.4978  166.4178 C   0  0  0  0  0  0  0  0  0  0  0  0
  155.4710  142.7714  166.9532 C   0  0  0  0  0  0  0  0  0  0  0  0
  155.4472  142.9794  168.3456 C   0  0  0  0  0  0  0  0  0  0  0  0
  155.7071  141.9084  169.2207 C   0  0  0  0  0  0  0  0  0  0  0  0
  155.6785  142.1594  170.9272 Cl  0  0  0  0  0  0  0  0  0  0  0  0
  155.9907  140.6319  168.7002 C   0  0  0  0  0  0  0  0  0  0  0  0
  156.0143  140.4245  167.3072 C   0  0  0  0  0  0  0  0  0  0  0  0
  153.2549  138.1596  157.8168 H   0  0  0  0  0  0  0  0  0  0  0  0
  154.0097  137.8452  159.7677 H   0  0  0  0  0  0  0  0  0  0  0  0
  155.5412  138.5619  159.3329 H   0  0  0  0  0  0  0  0  0  0  0  0
  152.1105  143.4497  159.0501 H   0  0  0  0  0  0  0  0  0  0  0  0
  151.8993  144.9382  161.0281 H   0  0  0  0  0  0  0  0  0  0  0  0
  152.8182  144.2396  163.2298 H   0  0  0  0  0  0  0  0  0  0  0  0
  153.9637  142.0397  163.4628 H   0  0  0  0  0  0  0  0  0  0  0  0
  154.1612  139.0912  162.8817 H   0  0  0  0  0  0  0  0  0  0  0  0
  155.3525  138.5546  161.7315 H   0  0  0  0  0  0  0  0  0  0  0  0
  155.9608  141.2846  162.6910 H   0  0  0  0  0  0  0  0  0  0  0  0
  157.3871  139.8626  161.6451 H   0  0  0  0  0  0  0  0  0  0  0  0
  154.9899  139.4835  164.7137 H   0  0  0  0  0  0  0  0  0  0  0  0
  156.7462  139.5870  164.8828 H   0  0  0  0  0  0  0  0  0  0  0  0
  155.2702  143.5988  166.2882 H   0  0  0  0  0  0  0  0  0  0  0  0
  155.2294  143.9612  168.7394 H   0  0  0  0  0  0  0  0  0  0  0  0
  156.1907  139.8079  169.3693 H   0  0  0  0  0  0  0  0  0  0  0  0
  156.2358  139.4317  166.9463 H   0  0  0  0  0  0  0  0  0  0  0  0
  1  2  1  0  0  0  0
  1 24  1  0  0  0  0
  2  3  1  0  0  0  0
  2 25  1  0  0  0  0
  2 26  1  0  0  0  0
  3 11  1  0  0  0  0
  3  4  2  0  0  0  0
  4  5  1  0  0  0  0
  5 10  2  0  0  0  0
  5  6  1  0  0  0  0
  6  7  2  0  0  0  0
  6 27  1  0  0  0  0
  7  8  1  0  0  0  0
  7 28  1  0  0  0  0
  8  9  2  0  0  0  0
  8 29  1  0  0  0  0
  9 10  1  0  0  0  0
  9 30  1  0  0  0  0
 10 11  1  0  0  0  0
 11 12  1  0  0  0  0
 12 13  1  0  0  0  0
 12 31  1  0  0  0  0
 12 32  1  0  0  0  0
 13 14  1  0  0  0  0
 13 15  1  0  0  0  0
 13 33  1  0  0  0  0
 14 34  1  0  0  0  0
 15 16  1  0  0  0  0
 15 35  1  0  0  0  0
 15 36  1  0  0  0  0
 16 17  1  0  0  0  0
 17 23  1  0  0  0  0
 17 18  2  0  0  0  0
 18 19  1  0  0  0  0
 18 37  1  0  0  0  0
 19 20  2  0  0  0  0
 19 38  1  0  0  0  0
 20 21  1  0  0  0  0
 20 22  1  0  0  0  0
 22 23  2  0  0  0  0
 22 39  1  0  0  0  0
 23 40  1  0  0  0  0
M  END
> <s_m_source_file>
AV-unprocessed.smi

> <i_m_source_file_index>
2183

> <i_lp_mmshare_version>
43012

> <i_f3d_flags>
0

> <s_epik_input>
W2NIXTFbY0hdW2NIXVtjSF1jKGMxMiluKGMobjIpW0NIMl1bT0hdKVtDSDJdW0NASF0oW09IXSlbQ0gyXU9jM1tjSF1bY0hdYyhDbClbY0hdW2NIXTM=

> <s_epik_cmdline>
J2VwaWtfcHl0aG9uJywgJy1waCcsICc3LjAnLCAnLXRuJywgJzgnLCAnLW1hJywgJzIwMCcsICctbWV0YWxfYmluZGluZycsICctaW1hZScsICc8aW5maWxlLm1hZT4nLCAnLW9tYWUnLCAnPG91dGZpbGUubWFlPic=

> <r_lp_tautomer_probability>
1

> <r_epik_Ionization_Penalty>
0.0586933

> <r_epik_Ionization_Penalty_Charging>
0

> <r_epik_Ionization_Penalty_Neutral>
0.0586933

> <r_epik_State_Penalty>
0.0507031

> <r_epik_Charging_Adjusted_Penalty>
0.0507031

> <i_epik_Tot_Q>
0

> <i_epik_Tot_abs_Q>
0

> <r_epik_Metal_State_Penalty>
5.29335e-05

> <b_epik_Metal_Only>
0

> <s_lp_Force_Field>
OPLS_2005

> <r_lp_Energy>
13.44

> <b_lp_Chiralities_Consistent>
1

> <s_lp_Variant>
AV-unprocessed.smi:2183-1

> <Gold.Version>
5.8.1

> <Gold.Id.Protein>
6NUR|6NUR_protein|mol2

> <Gold.PLP.Fitness>
49.6987

> <Gold.PLP.PLP>
-49.7009

> <Gold.PLP.part.hbond>
-1.3390

> <Gold.PLP.part.metal>
0.0000

> <Gold.PLP.part.buried>
-4.7514

> <Gold.PLP.part.nonpolar>
-42.4922

> <Gold.PLP.part.repulsive>
0.0000

> <Gold.PLP.ligand.clash>
0.0000

> <Gold.PLP.ligand.torsion>
1.5894

> <Gold.PLP.Chemscore.Hbond>
1.0000

> <Gold.PLP.Chemscore.CHOScore>
0.0000

> <Gold.PLP.Chemscore.Metal>
0.0000

> <Gold.Chemscore.Hbonds>
donor molecule, donor type, donor heavy atom, donor atom, acceptor molecule, acceptor atom, score
      P1  H  7997  8009       L1     1  1.00

> <Gold.PLP.Chemscore.Internal.Correction>
0.1766

> <Gold.Rescore>
     Score         DG    S(hbond)    S(metal)    S(lipo)     H(rot)  DE(clash)    DE(int)     intcor
     14.96     -16.80       0.96        0.00     135.62       3.04       0.24       1.60       ----

> <Gold.Chemscore.Fitness>
14.9589

> <Gold.Chemscore.DG>
-16.7968

> <Gold.Chemscore.ZeroCoef>
-5.4800

> <Gold.Chemscore.Hbond>
0.9643

> <Gold.Chemscore.Metal>
0.0000

> <Gold.Chemscore.Lipo>
135.6201

> <Gold.Chemscore.Internal_Hbond>
0.0000

> <Gold.Chemscore.DEClash>
0.2373

> <Gold.Chemscore.DEInternal>
1.6005

> <Gold.Chemscore.Rot>
3.0358

> <Gold.Chemscore.Internal.Correction>
   9.000000E+99

> <Gold.Chemscore.Hbonds>
donor molecule, donor type, donor heavy atom, donor atom, acceptor molecule, acceptor atom, score
      P1  H  7997  8009       L1     1  0.58

> <Gold.Chemscore.Hbond.Weighted>
-3.2208

> <Gold.Chemscore.Metal.Weighted>
-0.0000

> <Gold.Chemscore.Lipo.Weighted>
-15.8676

> <Gold.Chemscore.Internal_Hbond.Weighted>
0.0000

> <Gold.Chemscore.DEClash.Weighted>
0.2373

> <Gold.Chemscore.DEInternal.Weighted>
1.6005

> <Gold.Chemscore.Rot.Weighted>
7.7716

> <Gold.Chemscore.Internal.Correction.Weighted>
   9.000000E+99

> <Gold.Protein.RotatedTorsions>
[ 6907 6896 6895 6894 ] final   68.43 input  -60.11 | X-H torsion
[ 7974 7965 7964 7962 ] final  100.24 input  175.53 | X-H torsion
[ 8008 7997 7996 7995 ] final  147.50 input   59.86 | X-H torsion
[ 10167 10162 10161 10158 ] final   77.19 input  -65.29 | X-H torsion
[ 10718 10713 10712 10709 ] final  -95.49 input   66.30 | X-H torsion
[ 10763 10752 10751 10750 ] final  -36.59 input  -60.55 | X-H torsion
[ 11005 11000 10999 10996 ] final -153.43 input  -57.11 | X-H torsion

> <Gold.Protein.ActiveResidues>
 VAL166  LYS551  ARG553  GLY616  TRP617  ASP618  TYR619  PRO620  LYS621  CYS622 
 ASP623  PHE694  ASN695  SER759  ASP760  ASP761  ALA762  ILE779  LEU786  VAL792 
 PHE793  MET794  SER795  GLU796  ALA797  LYS798  CYS799  TRP800  GLU811  SER814 

> <Gold.Protein.RotatedAtoms>
  152.4620  134.5163  159.9768 H   0  0  0  0  0  0  0  0  0  0  0  0  # atno 6907 bound_to 6896
  151.5210  133.3461  159.2909 H   0  0  0  0  0  0  0  0  0  0  0  0  # atno 6908 bound_to 6896
  150.8587  134.7962  159.7128 H   0  0  0  0  0  0  0  0  0  0  0  0  # atno 6909 bound_to 6896
  145.3882  139.2367  143.3366 H   0  0  0  0  0  0  0  0  0  0  0  0  # atno 7974 bound_to 7965
  156.2822  140.2154  156.5548 H   0  0  0  0  0  0  0  0  0  0  0  0  # atno 8008 bound_to 7997
  154.7261  140.0499  157.0707 H   0  0  0  0  0  0  0  0  0  0  0  0  # atno 8009 bound_to 7997
  155.0414  140.3146  155.4726 H   0  0  0  0  0  0  0  0  0  0  0  0  # atno 8010 bound_to 7997
  139.9842  144.5804  150.7874 H   0  0  0  0  0  0  0  0  0  0  0  0  # atno 10167 bound_to 10162
  156.0044  130.5111  150.6083 H   0  0  0  0  0  0  0  0  0  0  0  0  # atno 10718 bound_to 10713
  153.8822  135.6820  153.4766 H   0  0  0  0  0  0  0  0  0  0  0  0  # atno 10763 bound_to 10752
  153.1227  135.4732  154.9220 H   0  0  0  0  0  0  0  0  0  0  0  0  # atno 10764 bound_to 10752
  154.7663  135.3225  154.8232 H   0  0  0  0  0  0  0  0  0  0  0  0  # atno 10765 bound_to 10752
  140.7082  134.3862  157.5201 H   0  0  0  0  0  0  0  0  0  0  0  0  # atno 11005 bound_to 11000
  146.2810  140.4561  142.8776 LP  0  0  0  0  0  0  0  0  0  0  0  0  # atno 17320 bound_to 7965
  144.8459  140.6928  143.6199 LP  0  0  0  0  0  0  0  0  0  0  0  0  # atno 17321 bound_to 7965
  140.7478  143.2912  151.3325 LP  0  0  0  0  0  0  0  0  0  0  0  0  # atno 17342 bound_to 10162
  139.6387  144.0581  152.2537 LP  0  0  0  0  0  0  0  0  0  0  0  0  # atno 17343 bound_to 10162
  157.3920  131.0797  151.1385 LP  0  0  0  0  0  0  0  0  0  0  0  0  # atno 17370 bound_to 10713
  157.2074  130.6422  149.5761 LP  0  0  0  0  0  0  0  0  0  0  0  0  # atno 17371 bound_to 10713
  139.8878  134.8871  156.2506 LP  0  0  0  0  0  0  0  0  0  0  0  0  # atno 17394 bound_to 11000
  141.0107  133.7097  156.1107 LP  0  0  0  0  0  0  0  0  0  0  0  0  # atno 17395 bound_to 11000

$$$$
