#       Name:                AV-unprocessed.smi:101
#       Creating user name   scv26
#       Creation time:       Thu Mar 26 17:41:15 2020


#       File generated by GOLD software.
#

@<TRIPOS>MOLECULE
AV-unprocessed.smi:101
    56    58     1
SMALL
NO_CHARGES


@<TRIPOS>ATOM
      1 ****        -1.9876   1.8978  -2.2469 C.3            1 S1                 0.0000
      2 ****        -2.5640   1.5031  -0.8966 C.2            1 S1                 0.0000
      3 ****        -1.8037   0.9599   0.0883 C.2            1 S1                 0.0000
      4 ****        -2.3004   0.5845   1.3336 N.am           1 S1                 0.0000
      5 ****        -1.4187   0.0086   2.4320 C.3            1 S1                 0.0000
      6 ****        -0.1116  -0.1088   1.9571 O.3            1 S1                 0.0000
      7 ****         0.0804  -1.4227   1.4480 C.3            1 S1                 0.0000
      8 ****         1.5662  -1.7042   1.1944 C.3            1 S1                 0.0000
      9 ****         1.9366  -0.9948   0.0246 O.3            1 S1                 0.0000
     10 ****         3.2172  -0.9638  -0.3818 C.2            1 S1                 0.0000
     11 ****         4.1340  -1.5448   0.2020 O.2            1 S1                 0.0000
     12 ****         3.4064  -0.1481  -1.6162 C.ar           1 S1                 0.0000
     13 ****         4.7007  -0.0168  -2.1706 C.ar           1 S1                 0.0000
     14 ****         4.9079   0.7491  -3.3345 C.ar           1 S1                 0.0000
     15 ****         3.8231   1.3933  -3.9578 C.ar           1 S1                 0.0000
     16 ****         2.5304   1.2709  -3.4160 C.ar           1 S1                 0.0000
     17 ****         2.3213   0.5052  -2.2527 C.ar           1 S1                 0.0000
     18 ****        -0.6154  -2.2710   2.5119 C.3            1 S1                 0.0000
     19 ****         0.2343  -2.4460   3.6347 O.3            1 S1                 0.0000
     20 ****        -1.8563  -1.4271   2.8181 C.3            1 S1                 0.0000
     21 ****        -2.2832  -1.5441   4.1625 O.3            1 S1                 0.0000
     22 ****        -3.6577   0.8324   1.6287 C.2            1 S1                 0.0000
     23 ****        -4.1562   0.5851   2.7261 O.2            1 S1                 0.0000
     24 ****        -4.4404   1.3815   0.6153 N.am           1 S1                 0.0000
     25 ****        -3.9908   1.7339  -0.6589 C.2            1 S1                 0.0000
     26 ****        -4.7822   2.2049  -1.4740 O.2            1 S1                 0.0000
     27 ****        -5.4150   1.5451   0.8215 H              1 S1                 0.0000
     28 ****        -0.9184   1.6932  -2.3089 H              1 S1                 0.0000
     29 ****        -2.1336   2.9634  -2.4264 H              1 S1                 0.0000
     30 ****        -2.4797   1.3449  -3.0478 H              1 S1                 0.0000
     31 ****        -0.7552   0.8259  -0.1304 H              1 S1                 0.0000
     32 ****        -1.4591   0.7368   3.2443 H              1 S1                 0.0000
     33 ****        -0.4696  -1.5328   0.5110 H              1 S1                 0.0000
     34 ****         2.1733  -1.3966   2.0470 H              1 S1                 0.0000
     35 ****         1.7272  -2.7708   1.0324 H              1 S1                 0.0000
     36 ****         5.5491  -0.5017  -1.7091 H              1 S1                 0.0000
     37 ****         5.9008   0.8425  -3.7490 H              1 S1                 0.0000
     38 ****         3.9826   1.9805  -4.8501 H              1 S1                 0.0000
     39 ****         1.6967   1.7650  -3.8929 H              1 S1                 0.0000
     40 ****         1.3161   0.4328  -1.8637 H              1 S1                 0.0000
     41 ****        -0.8841  -3.2570   2.1313 H              1 S1                 0.0000
     42 ****         0.9854  -2.9541   3.3695 H              1 S1                 0.0000
     43 ****        -2.6675  -1.7486   2.1631 H              1 S1                 0.0000
     44 ****        -3.0379  -0.9882   4.2848 H              1 S1                 0.0000
     45 ****         0.5325   0.0590   2.7035 LP             1 S1                 0.0000
     46 ****         0.0414   0.5587   1.2284 LP             1 S1                 0.0000
     47 ****         3.9436  -2.0767   1.0272 LP             1 S1                 0.0000
     48 ****         5.0682  -1.4843  -0.1494 LP             1 S1                 0.0000
     49 ****        -0.2595  -2.9278   4.3587 LP             1 S1                 0.0000
     50 ****         0.5338  -1.5537   3.9725 LP             1 S1                 0.0000
     51 ****        -1.5484  -1.2561   4.7767 LP             1 S1                 0.0000
     52 ****        -2.5279  -2.4938   4.3579 LP             1 S1                 0.0000
     53 ****        -3.5939   0.1918   3.4535 LP             1 S1                 0.0000
     54 ****        -5.1237   0.7775   2.8906 LP             1 S1                 0.0000
     55 ****        -4.4651   2.4649  -2.3860 LP             1 S1                 0.0000
     56 ****        -5.7428   2.3280  -1.2246 LP             1 S1                 0.0000
@<TRIPOS>BOND
    1    1    2 1     
    2    1   28 1     
    3    1   29 1     
    4    1   30 1     
    5    2   25 1     
    6    2    3 2     
    7    3    4 1     
    8    3   31 1     
    9    4    5 1     
   10    4   22 1     
   11    5   20 1     
   12    5    6 1     
   13    5   32 1     
   14    6    7 1     
   15    7    8 1     
   16    7   18 1     
   17    7   33 1     
   18    8    9 1     
   19    8   34 1     
   20    8   35 1     
   21    9   10 1     
   22   10   11 2     
   23   10   12 1     
   24   12   17 ar    
   25   12   13 ar    
   26   13   14 ar    
   27   13   36 1     
   28   14   15 ar    
   29   14   37 1     
   30   15   16 ar    
   31   15   38 1     
   32   16   17 ar    
   33   16   39 1     
   34   17   40 1     
   35   18   19 1     
   36   18   20 1     
   37   18   41 1     
   38   19   42 1     
   39   20   21 1     
   40   20   43 1     
   41   21   44 1     
   42   22   23 2     
   43   22   24 1     
   44   24   27 1     
   45   24   25 1     
   46   25   26 2     
   47    6   45 1     
   48    6   46 1     
   49   11   47 1     
   50   11   48 1     
   51   19   49 1     
   52   19   50 1     
   53   21   51 1     
   54   21   52 1     
   55   23   53 1     
   56   23   54 1     
   57   26   55 1     
   58   26   56 1     
@<TRIPOS>SUBSTRUCTURE
      1 S1             1
@<TRIPOS>SET
LONE_PAIRS      STATIC     ATOMS    <user>   **** ""
12 45 46 47 48 49 50 51 52 53 54 55 56
DONOR_HYDROGENS      STATIC     ATOMS    <user>   **** ""
3 42 44 27
ATOM$BLUE        STATIC     ATOMS    COLORGROUP SYSTEM
12 45 46 47 48 49 50 51 52 53 54 55 56
ATOM$RED        STATIC     ATOMS    COLORGROUP SYSTEM
3 42 44 27
