AV-unprocessed.smi:2146|AV-procd|sdf|8740|dock3
  -GOLD-   2272011513D 1   1.00000     0.00000
 Structure written by MMmdl.
 45 46  0  0  0  0  0  0  0  0  2 V2000
  149.8890  135.1699  155.0530 C   0  0  0  0  0  0  0  0  0  0  0  0
  149.9307  136.7131  154.9226 C   0  0  2  0  0  0  0  0  0  0  0  0
  150.0351  137.3654  156.3248 C   0  0  0  0  0  0  0  0  0  0  0  0
  150.7684  138.6260  156.2951 N   0  0  0  0  0  0  0  0  0  0  0  0
  151.1558  139.3051  157.3841 C   0  0  0  0  0  0  0  0  0  0  0  0
  150.9129  138.9269  158.5311 O   0  0  0  0  0  0  0  0  0  0  0  0
  151.9270  140.6071  157.1198 C   0  0  0  0  0  0  0  0  0  0  0  0
  152.3920  141.2812  158.3442 N   0  0  0  0  0  0  0  0  0  0  0  0
  151.7973  142.5192  158.6578 C   0  0  0  0  0  0  0  0  0  0  0  0
  152.1237  143.2335  159.7523 C   0  0  0  0  0  0  0  0  0  0  0  0
  151.5050  144.5938  160.0352 C   0  0  0  0  0  0  0  0  0  0  0  0
  150.1886  144.4926  160.2202 F   0  0  0  0  0  0  0  0  0  0  0  0
  152.0391  145.1497  161.1236 F   0  0  0  0  0  0  0  0  0  0  0  0
  151.7177  145.4114  159.0050 F   0  0  0  0  0  0  0  0  0  0  0  0
  153.1606  142.6775  160.5993 C   0  0  0  0  0  0  0  0  0  0  0  0
  153.7434  141.4974  160.3111 C   0  0  0  0  0  0  0  0  0  0  0  0
  153.3608  140.7214  159.1293 C   0  0  0  0  0  0  0  0  0  0  0  0
  153.8785  139.6371  158.8612 O   0  0  0  0  0  0  0  0  0  0  0  0
  148.7626  137.2745  154.1653 N   0  3  0  0  0  0  0  0  0  0  0  0
  147.4575  136.7320  154.6352 C   0  0  0  0  0  0  0  0  0  0  0  0
  146.2931  137.2697  153.7877 C   0  0  0  0  0  0  0  0  0  0  0  0
  146.2835  138.6878  153.8433 O   0  0  0  0  0  0  0  0  0  0  0  0
  147.4747  139.2356  153.2999 C   0  0  0  0  0  0  0  0  0  0  0  0
  148.6902  138.7619  154.1157 C   0  0  0  0  0  0  0  0  0  0  0  0
  150.7258  134.7866  155.6362 H   0  0  0  0  0  0  0  0  0  0  0  0
  149.9611  134.6753  154.0843 H   0  0  0  0  0  0  0  0  0  0  0  0
  148.9726  134.8362  155.5411 H   0  0  0  0  0  0  0  0  0  0  0  0
  150.8343  136.9573  154.3616 H   0  0  0  0  0  0  0  0  0  0  0  0
  149.0508  137.5718  156.7422 H   0  0  0  0  0  0  0  0  0  0  0  0
  150.5333  136.6836  157.0161 H   0  0  0  0  0  0  0  0  0  0  0  0
  151.0034  139.0027  155.3877 H   0  0  0  0  0  0  0  0  0  0  0  0
  152.7722  140.3888  156.4644 H   0  0  0  0  0  0  0  0  0  0  0  0
  151.2860  141.2740  156.5413 H   0  0  0  0  0  0  0  0  0  0  0  0
  151.0531  142.8524  157.9491 H   0  0  0  0  0  0  0  0  0  0  0  0
  153.4719  143.2135  161.4838 H   0  0  0  0  0  0  0  0  0  0  0  0
  154.5101  141.1117  160.9670 H   0  0  0  0  0  0  0  0  0  0  0  0
  147.4376  135.6454  154.5852 H   0  0  0  0  0  0  0  0  0  0  0  0
  147.3055  137.0027  155.6812 H   0  0  0  0  0  0  0  0  0  0  0  0
  146.3711  136.9294  152.7536 H   0  0  0  0  0  0  0  0  0  0  0  0
  145.3445  136.8969  154.1746 H   0  0  0  0  0  0  0  0  0  0  0  0
  147.5748  138.9525  152.2508 H   0  0  0  0  0  0  0  0  0  0  0  0
  147.4058  140.3233  153.3289 H   0  0  0  0  0  0  0  0  0  0  0  0
  148.6387  139.1603  155.1303 H   0  0  0  0  0  0  0  0  0  0  0  0
  149.5783  139.1800  153.6433 H   0  0  0  0  0  0  0  0  0  0  0  0
  148.8768  136.9741  153.2076 H   0  0  0  0  0  0  0  0  0  0  0  0
  1  2  1  0  0  0  0
  1 25  1  0  0  0  0
  1 26  1  0  0  0  0
  1 27  1  0  0  0  0
  2  3  1  0  0  0  0
  2 19  1  0  0  0  0
  2 28  1  0  0  0  0
  3  4  1  0  0  0  0
  3 29  1  0  0  0  0
  3 30  1  0  0  0  0
  4  5  1  0  0  0  0
  4 31  1  0  0  0  0
  5  6  2  0  0  0  0
  5  7  1  0  0  0  0
  7  8  1  0  0  0  0
  7 32  1  0  0  0  0
  7 33  1  0  0  0  0
  8 17  1  0  0  0  0
  8  9  1  0  0  0  0
  9 10  2  0  0  0  0
  9 34  1  0  0  0  0
 10 11  1  0  0  0  0
 10 15  1  0  0  0  0
 11 12  1  0  0  0  0
 11 13  1  0  0  0  0
 11 14  1  0  0  0  0
 15 16  2  0  0  0  0
 15 35  1  0  0  0  0
 16 17  1  0  0  0  0
 16 36  1  0  0  0  0
 17 18  2  0  0  0  0
 19 24  1  0  0  0  0
 19 20  1  0  0  0  0
 19 45  1  0  0  0  0
 20 21  1  0  0  0  0
 20 37  1  0  0  0  0
 20 38  1  0  0  0  0
 21 22  1  0  0  0  0
 21 39  1  0  0  0  0
 21 40  1  0  0  0  0
 22 23  1  0  0  0  0
 23 24  1  0  0  0  0
 23 41  1  0  0  0  0
 23 42  1  0  0  0  0
 24 43  1  0  0  0  0
 24 44  1  0  0  0  0
M  CHG  1  19   1
M  END
> <s_m_source_file>
AV-unprocessed.smi

> <i_m_source_file_index>
2146

> <i_lp_mmshare_version>
43012

> <i_f3d_flags>
0

> <s_epik_input>
W0NIMl0xW0NIMl1PW0NIMl1bQ0gyXU4xW0NASF0oW0NIM10pW0NIMl1bTkhdQyg9TylbQ0gyXW4yW2NIXWMoQyhGKShGKUYpW2NIXVtjSF1jMj1P

> <s_epik_cmdline>
J2VwaWtfcHl0aG9uJywgJy1waCcsICc3LjAnLCAnLXRuJywgJzgnLCAnLW1hJywgJzIwMCcsICctbWV0YWxfYmluZGluZycsICctaW1hZScsICc8aW5maWxlLm1hZT4nLCAnLW9tYWUnLCAnPG91dGZpbGUubWFlPic=

> <r_lp_tautomer_probability>
1

> <r_epik_Ionization_Penalty>
0.656654

> <r_epik_Ionization_Penalty_Charging>
0.656653

> <r_epik_Ionization_Penalty_Neutral>
9.12373e-08

> <r_epik_State_Penalty>
0.675641

> <r_epik_Charging_Adjusted_Penalty>
1.33229

> <i_epik_Tot_Q>
1

> <i_epik_Tot_abs_Q>
1

> <r_epik_Metal_State_Penalty>
0.675692

> <b_epik_Metal_Only>
0

> <s_lp_Force_Field>
OPLS_2005

> <r_lp_Energy>
33.6044

> <b_lp_Chiralities_Consistent>
1

> <s_lp_Variant>
AV-unprocessed.smi:2146-3

> <Gold.Version>
5.8.1

> <Gold.Id.Protein>
6NUR|6NUR_protein|mol2

> <Gold.PLP.Fitness>
47.7013

> <Gold.PLP.PLP>
-39.7729

> <Gold.PLP.part.hbond>
-2.0000

> <Gold.PLP.part.metal>
0.0000

> <Gold.PLP.part.buried>
-2.8462

> <Gold.PLP.part.nonpolar>
-34.7917

> <Gold.PLP.part.repulsive>
0.1737

> <Gold.PLP.ligand.clash>
0.0000

> <Gold.PLP.ligand.torsion>
0.5862

> <Gold.PLP.Chemscore.Hbond>
3.0000

> <Gold.PLP.Chemscore.CHOScore>
0.0000

> <Gold.PLP.Chemscore.Metal>
0.0000

> <Gold.Chemscore.Hbonds>
donor molecule, donor type, donor heavy atom, donor atom, acceptor molecule, acceptor atom, score
      L1  H    19    45       P1  7948  1.98
      P1  H  7997  8010       L1    18  1.00

> <Gold.PLP.Chemscore.Internal.Correction>
0.1009

> <Gold.Rescore>
     Score         DG    S(hbond)    S(metal)    S(lipo)     H(rot)  DE(clash)    DE(int)     intcor
     14.57     -15.52       1.87        0.00      80.24       2.18       0.21       0.74       ----

> <Gold.Chemscore.Fitness>
14.5690

> <Gold.Chemscore.DG>
-15.5219

> <Gold.Chemscore.ZeroCoef>
-5.4800

> <Gold.Chemscore.Hbond>
1.8669

> <Gold.Chemscore.Metal>
0.0000

> <Gold.Chemscore.Lipo>
80.2437

> <Gold.Chemscore.Internal_Hbond>
0.0000

> <Gold.Chemscore.DEClash>
0.2101

> <Gold.Chemscore.DEInternal>
0.7427

> <Gold.Chemscore.Rot>
2.1805

> <Gold.Chemscore.Internal.Correction>
   9.000000E+99

> <Gold.Chemscore.Hbonds>
donor molecule, donor type, donor heavy atom, donor atom, acceptor molecule, acceptor atom, score
      L1  H    19    45       P1  7948  0.92
      P1  H  7997  8010       L1    18  0.34

> <Gold.Chemscore.Hbond.Weighted>
-6.2355

> <Gold.Chemscore.Metal.Weighted>
-0.0000

> <Gold.Chemscore.Lipo.Weighted>
-9.3885

> <Gold.Chemscore.Internal_Hbond.Weighted>
0.0000

> <Gold.Chemscore.DEClash.Weighted>
0.2101

> <Gold.Chemscore.DEInternal.Weighted>
0.7427

> <Gold.Chemscore.Rot.Weighted>
5.5822

> <Gold.Chemscore.Internal.Correction.Weighted>
   9.000000E+99

> <Gold.Protein.RotatedTorsions>
[ 6907 6896 6895 6894 ] final   41.73 input  -60.11 | X-H torsion
[ 7974 7965 7964 7962 ] final -163.28 input  175.53 | X-H torsion
[ 8008 7997 7996 7995 ] final   16.72 input   59.86 | X-H torsion
[ 10167 10162 10161 10158 ] final   99.37 input  -65.29 | X-H torsion
[ 10718 10713 10712 10709 ] final -157.57 input   66.30 | X-H torsion
[ 10763 10752 10751 10750 ] final   -4.94 input  -60.55 | X-H torsion
[ 11005 11000 10999 10996 ] final -155.17 input  -57.11 | X-H torsion

> <Gold.Protein.ActiveResidues>
 VAL166  LYS551  ARG553  GLY616  TRP617  ASP618  TYR619  PRO620  LYS621  CYS622 
 ASP623  PHE694  ASN695  SER759  ASP760  ASP761  ALA762  ILE779  LEU786  VAL792 
 PHE793  MET794  SER795  GLU796  ALA797  LYS798  CYS799  TRP800  GLU811  SER814 

> <Gold.Protein.RotatedAtoms>
  152.1989  134.8605  160.0509 H   0  0  0  0  0  0  0  0  0  0  0  0  # atno 6907 bound_to 6896
  151.9466  133.3648  159.3993 H   0  0  0  0  0  0  0  0  0  0  0  0  # atno 6908 bound_to 6896
  150.6950  134.4307  159.5291 H   0  0  0  0  0  0  0  0  0  0  0  0  # atno 6909 bound_to 6896
  144.7331  140.3130  143.6184 H   0  0  0  0  0  0  0  0  0  0  0  0  # atno 7974 bound_to 7965
  154.8811  140.2973  155.5425 H   0  0  0  0  0  0  0  0  0  0  0  0  # atno 8008 bound_to 7997
  156.3022  140.2442  156.3747 H   0  0  0  0  0  0  0  0  0  0  0  0  # atno 8009 bound_to 7997
  154.8716  140.0401  157.1717 H   0  0  0  0  0  0  0  0  0  0  0  0  # atno 8010 bound_to 7997
  139.7624  144.6950  151.0274 H   0  0  0  0  0  0  0  0  0  0  0  0  # atno 10167 bound_to 10162
  156.5422  130.8568  151.2752 H   0  0  0  0  0  0  0  0  0  0  0  0  # atno 10718 bound_to 10713
  153.3917  135.7002  153.6490 H   0  0  0  0  0  0  0  0  0  0  0  0  # atno 10763 bound_to 10752
  153.5059  135.3642  155.2563 H   0  0  0  0  0  0  0  0  0  0  0  0  # atno 10764 bound_to 10752
  154.8703  135.4123  154.3236 H   0  0  0  0  0  0  0  0  0  0  0  0  # atno 10765 bound_to 10752
  140.6893  134.4058  157.5220 H   0  0  0  0  0  0  0  0  0  0  0  0  # atno 11005 bound_to 11000
  145.7645  139.1836  143.2248 LP  0  0  0  0  0  0  0  0  0  0  0  0  # atno 17320 bound_to 7965
  146.0960  140.7600  142.9572 LP  0  0  0  0  0  0  0  0  0  0  0  0  # atno 17321 bound_to 7965
  140.7808  143.4682  151.0183 LP  0  0  0  0  0  0  0  0  0  0  0  0  # atno 17342 bound_to 10162
  139.8368  143.7617  152.3180 LP  0  0  0  0  0  0  0  0  0  0  0  0  # atno 17343 bound_to 10162
  157.7403  130.9848  150.2370 LP  0  0  0  0  0  0  0  0  0  0  0  0  # atno 17370 bound_to 10713
  156.2961  130.3752  149.7794 LP  0  0  0  0  0  0  0  0  0  0  0  0  # atno 17371 bound_to 10713
  139.8928  134.8746  156.2253 LP  0  0  0  0  0  0  0  0  0  0  0  0  # atno 17394 bound_to 11000
  141.0254  133.7018  156.1339 LP  0  0  0  0  0  0  0  0  0  0  0  0  # atno 17395 bound_to 11000

$$$$
