#       Name:                AV-unprocessed.smi:1744
#       Creating user name   scv26
#       Creation time:       Fri Mar 27 08:24:22 2020


#       File generated by GOLD software.
#

@<TRIPOS>MOLECULE
AV-unprocessed.smi:1744
    49    50     1
SMALL
NO_CHARGES


@<TRIPOS>ATOM
      1 ****        -6.9741  -1.8530  -0.8505 C.3            1 S1                 0.0000
      2 ****        -6.6489  -0.8900   0.2982 C.3            1 S1                 0.0000
      3 ****        -5.3840  -0.2119   0.0907 N.pl3          1 S1                 0.0000
      4 ****        -4.1695  -0.4655   0.6966 C.2            1 S1                 0.0000
      5 ****        -3.2945   0.4346   0.1671 C.2            1 S1                 0.0000
      6 ****        -1.9237   0.5303   0.5136 N.am           1 S1                 0.0000
      7 ****        -1.0133   1.3728  -0.0002 C.2            1 S1                 0.0000
      8 ****        -1.2340   2.2036  -0.8809 O.2            1 S1                 0.0000
      9 ****         0.1891   1.1949   0.5662 N.am           1 S1                 0.0000
     10 ****         1.3967   1.9541   0.2426 C.3            1 S1                 0.0000
     11 ****         2.0508   1.4630  -1.0642 C.3            1 S1                 0.0000
     12 ****         2.6909   0.0734  -0.9008 C.3            1 S1                 0.0000
     13 ****         3.6769   0.0653   0.2129 N.4            1 S1                 1.0000
     14 ****         4.4214  -1.2159   0.3228 C.3            1 S1                 0.0000
     15 ****         5.5295  -1.3584  -0.7260 C.2            1 S1                 0.0000
     16 ****         5.9883  -2.5912  -0.9531 N.am           1 S1                 0.0000
     17 ****         5.9776  -0.3743  -1.3116 O.2            1 S1                 0.0000
     18 ****         3.0525   0.4693   1.4985 C.3            1 S1                 0.0000
     19 ****         2.4124   1.8662   1.3948 C.3            1 S1                 0.0000
     20 ****        -4.0485   1.2121  -0.7572 C.2            1 S1                 0.0000
     21 ****        -5.3108   0.8122  -0.7951 N.2            1 S1                 0.0000
     22 ****        -7.9209  -2.3627  -0.6722 H              1 S1                 0.0000
     23 ****        -6.2005  -2.6142  -0.9571 H              1 S1                 0.0000
     24 ****        -7.0567  -1.3227  -1.7999 H              1 S1                 0.0000
     25 ****        -7.4356  -0.1413   0.4017 H              1 S1                 0.0000
     26 ****        -6.6027  -1.4339   1.2426 H              1 S1                 0.0000
     27 ****        -4.0388  -1.2463   1.4315 H              1 S1                 0.0000
     28 ****        -1.6044  -0.1098   1.2258 H              1 S1                 0.0000
     29 ****         0.2710   0.4922   1.2862 H              1 S1                 0.0000
     30 ****         1.1126   3.0013   0.1223 H              1 S1                 0.0000
     31 ****         1.3240   1.4472  -1.8772 H              1 S1                 0.0000
     32 ****         2.8212   2.1739  -1.3661 H              1 S1                 0.0000
     33 ****         1.9211  -0.6772  -0.7150 H              1 S1                 0.0000
     34 ****         3.1782  -0.2046  -1.8357 H              1 S1                 0.0000
     35 ****         4.9076  -1.2759   1.2975 H              1 S1                 0.0000
     36 ****         3.7294  -2.0581   0.2660 H              1 S1                 0.0000
     37 ****         6.7144  -2.7461  -1.6376 H              1 S1                 0.0000
     38 ****         5.6018  -3.3716  -0.4407 H              1 S1                 0.0000
     39 ****         2.3070  -0.2716   1.7914 H              1 S1                 0.0000
     40 ****         3.8080   0.4839   2.2851 H              1 S1                 0.0000
     41 ****         3.1987   2.6049   1.2337 H              1 S1                 0.0000
     42 ****         1.9374   2.1331   2.3398 H              1 S1                 0.0000
     43 ****        -3.7417   2.0329  -1.3882 H              1 S1                 0.0000
     44 ****         4.3680   0.7708  -0.0009 H              1 S1                 0.0000
     45 ****        -2.1513   2.2882  -1.2698 LP             1 S1                 0.0000
     46 ****        -0.4960   2.7940  -1.2075 LP             1 S1                 0.0000
     47 ****         5.6188   0.5362  -1.1060 LP             1 S1                 0.0000
     48 ****         6.7008  -0.4846  -1.9934 LP             1 S1                 0.0000
     49 ****        -6.0501   1.1850  -1.3558 LP             1 S1                 0.0000
@<TRIPOS>BOND
    1    1    2 1     
    2    1   22 1     
    3    1   23 1     
    4    1   24 1     
    5    2    3 1     
    6    2   25 1     
    7    2   26 1     
    8    3   21 1     
    9    3    4 1     
   10    4    5 2     
   11    4   27 1     
   12    5    6 1     
   13    5   20 1     
   14    6    7 am    
   15    6   28 1     
   16    7    8 2     
   17    7    9 am    
   18    9   10 1     
   19    9   29 1     
   20   10   19 1     
   21   10   11 1     
   22   10   30 1     
   23   11   12 1     
   24   11   31 1     
   25   11   32 1     
   26   12   13 1     
   27   12   33 1     
   28   12   34 1     
   29   13   14 1     
   30   13   18 1     
   31   13   44 1     
   32   14   15 1     
   33   14   35 1     
   34   14   36 1     
   35   15   16 am    
   36   15   17 2     
   37   16   37 1     
   38   16   38 1     
   39   18   19 1     
   40   18   39 1     
   41   18   40 1     
   42   19   41 1     
   43   19   42 1     
   44   20   21 2     
   45   20   43 1     
   46    8   45 1     
   47    8   46 1     
   48   17   47 1     
   49   17   48 1     
   50   21   49 1     
@<TRIPOS>SUBSTRUCTURE
      1 S1             1
@<TRIPOS>SET
LONE_PAIRS      STATIC     ATOMS    <user>   **** ""
5 45 46 47 48 49
DONOR_HYDROGENS      STATIC     ATOMS    <user>   **** ""
5 28 29 44 37 38
ATOM$BLUE        STATIC     ATOMS    COLORGROUP SYSTEM
5 45 46 47 48 49
ATOM$RED        STATIC     ATOMS    COLORGROUP SYSTEM
5 28 29 44 37 38
