AV-unprocessed.smi:1748|AV-procd|sdf|7040|dock2
  -GOLD-   22720 8263D 1   1.00000     0.00000
 Structure written by MMmdl.
 39 40  0  0  0  0  0  0  0  0  3 V2000
  145.7616  136.0497  153.1784 C   0  0  0  0  0  0  0  0  0  0  0  0
  146.7283  137.1671  153.1195 N   0  3  1  0  0  0  0  0  0  0  0  0
  146.1689  138.3617  152.4390 C   0  0  0  0  0  0  0  0  0  0  0  0
  147.2366  139.4570  152.2812 C   0  0  0  0  0  0  0  0  0  0  0  0
  147.8510  139.8290  153.6379 C   0  0  0  0  0  0  0  0  0  0  0  0
  148.3954  138.5719  154.3359 C   0  0  1  0  0  0  0  0  0  0  0  0
  148.9209  138.9210  155.6525 N   0  0  0  0  0  0  0  0  0  0  0  0
  149.9571  139.7422  155.8768 C   0  0  0  0  0  0  0  0  0  0  0  0
  150.5864  140.2908  154.9723 O   0  0  0  0  0  0  0  0  0  0  0  0
  150.2089  139.8511  157.1937 N   0  0  0  0  0  0  0  0  0  0  0  0
  151.1778  140.6277  157.8518 C   0  0  0  0  0  0  0  0  0  0  0  0
  151.1439  141.9853  157.9551 C   0  0  0  0  0  0  0  0  0  0  0  0
  152.1693  142.7372  158.6685 C   0  0  0  0  0  0  0  0  0  0  0  0
  152.1806  144.2482  158.8112 C   0  0  0  0  0  0  0  0  0  0  0  0
  153.1823  144.7701  158.1041 F   0  0  0  0  0  0  0  0  0  0  0  0
  151.0404  144.7626  158.3518 F   0  0  0  0  0  0  0  0  0  0  0  0
  152.3265  144.6171  160.0839 F   0  0  0  0  0  0  0  0  0  0  0  0
  153.1365  141.9184  159.2164 C   0  0  0  0  0  0  0  0  0  0  0  0
  153.2383  140.5721  159.1683 N   0  5  0  0  0  0  0  0  0  0  0  0
  152.2771  139.8785  158.4952 C   0  0  0  0  0  0  0  0  0  0  0  0
  152.3073  138.6500  158.4126 O   0  0  0  0  0  0  0  0  0  0  0  0
  147.2920  137.4985  154.4518 C   0  0  0  0  0  0  0  0  0  0  0  0
  144.8906  136.3168  153.7782 H   0  0  0  0  0  0  0  0  0  0  0  0
  146.2222  135.1644  153.6179 H   0  0  0  0  0  0  0  0  0  0  0  0
  145.4196  135.7833  152.1777 H   0  0  0  0  0  0  0  0  0  0  0  0
  145.7900  138.0793  151.4560 H   0  0  0  0  0  0  0  0  0  0  0  0
  145.3200  138.7432  153.0091 H   0  0  0  0  0  0  0  0  0  0  0  0
  148.0204  139.1093  151.6067 H   0  0  0  0  0  0  0  0  0  0  0  0
  146.7984  140.3405  151.8162 H   0  0  0  0  0  0  0  0  0  0  0  0
  148.6478  140.5605  153.4971 H   0  0  0  0  0  0  0  0  0  0  0  0
  147.0945  140.3066  154.2625 H   0  0  0  0  0  0  0  0  0  0  0  0
  149.2117  138.1752  153.7285 H   0  0  0  0  0  0  0  0  0  0  0  0
  148.4610  138.5108  156.4523 H   0  0  0  0  0  0  0  0  0  0  0  0
  149.6561  139.2723  157.8091 H   0  0  0  0  0  0  0  0  0  0  0  0
  150.3328  142.5493  157.5248 H   0  0  0  0  0  0  0  0  0  0  0  0
  153.9496  142.4244  159.7798 H   0  0  0  0  0  0  0  0  0  0  0  0
  146.4922  137.8430  155.1102 H   0  0  0  0  0  0  0  0  0  0  0  0
  147.7020  136.5923  154.8997 H   0  0  0  0  0  0  0  0  0  0  0  0
  147.5013  136.8471  152.5534 H   0  0  0  0  0  0  0  0  0  0  0  0
  1  2  1  0  0  0  0
  1 23  1  0  0  0  0
  1 24  1  0  0  0  0
  1 25  1  0  0  0  0
  2 22  1  0  0  0  0
  2  3  1  0  0  0  0
  2 39  1  0  0  0  0
  3  4  1  0  0  0  0
  3 26  1  0  0  0  0
  3 27  1  0  0  0  0
  4  5  1  0  0  0  0
  4 28  1  0  0  0  0
  4 29  1  0  0  0  0
  5  6  1  0  0  0  0
  5 30  1  0  0  0  0
  5 31  1  0  0  0  0
  6  7  1  0  0  0  0
  6 22  1  0  0  0  0
  6 32  1  0  0  0  0
  7  8  1  0  0  0  0
  7 33  1  0  0  0  0
  8  9  2  0  0  0  0
  8 10  1  0  0  0  0
 10 11  1  0  0  0  0
 10 34  1  0  0  0  0
 11 20  1  0  0  0  0
 11 12  2  0  0  0  0
 12 13  1  0  0  0  0
 12 35  1  0  0  0  0
 13 14  1  0  0  0  0
 13 18  2  0  0  0  0
 14 15  1  0  0  0  0
 14 16  1  0  0  0  0
 14 17  1  0  0  0  0
 18 19  1  0  0  0  0
 18 36  1  0  0  0  0
 19 20  1  0  0  0  0
 20 21  2  0  0  0  0
 22 37  1  0  0  0  0
 22 38  1  0  0  0  0
M  CHG  1   2   1
M  CHG  1  19  -1
M  END
> <s_m_source_file>
AV-unprocessed.smi

> <i_m_source_file_index>
1748

> <i_lp_mmshare_version>
43012

> <i_f3d_flags>
0

> <s_epik_input>
W0NIM11OMVtDSDJdW0NIMl1bQ0gyXVtDQEhdKFtDSDJdMSlbTkhdQyg9TylbTkhdYzJbY0hdYyhDKEYpKEYpRilbY0hdW25IXWMyPU8=

> <s_epik_cmdline>
J2VwaWtfcHl0aG9uJywgJy1waCcsICc3LjAnLCAnLXRuJywgJzgnLCAnLW1hJywgJzIwMCcsICctbWV0YWxfYmluZGluZycsICctaW1hZScsICc8aW5maWxlLm1hZT4nLCAnLW9tYWUnLCAnPG91dGZpbGUubWFlPic=

> <r_lp_tautomer_probability>
1

> <r_epik_Ionization_Penalty>
3.00907

> <r_epik_Ionization_Penalty_Charging>
0.148702

> <r_epik_Ionization_Penalty_Neutral>
2.86036

> <r_epik_State_Penalty>
2.85557

> <r_epik_Charging_Adjusted_Penalty>
3.00428

> <i_epik_Tot_Q>
0

> <i_epik_Tot_abs_Q>
2

> <r_epik_Metal_State_Penalty>
0.443779

> <b_epik_Metal_Only>
1

> <s_lp_Force_Field>
OPLS_2005

> <r_lp_Energy>
26.5134

> <b_lp_Chiralities_Consistent>
1

> <s_lp_Variant>
AV-unprocessed.smi:1748-5

> <Gold.Version>
5.8.1

> <Gold.Id.Protein>
6NUR|6NUR_protein|mol2

> <Gold.PLP.Fitness>
44.5995

> <Gold.PLP.PLP>
-37.4020

> <Gold.PLP.part.hbond>
-2.0000

> <Gold.PLP.part.metal>
0.0000

> <Gold.PLP.part.buried>
-1.9463

> <Gold.PLP.part.nonpolar>
-33.6684

> <Gold.PLP.part.repulsive>
0.1119

> <Gold.PLP.ligand.clash>
0.0000

> <Gold.PLP.ligand.torsion>
0.9082

> <Gold.PLP.Chemscore.Hbond>
3.0000

> <Gold.PLP.Chemscore.CHOScore>
0.0000

> <Gold.PLP.Chemscore.Metal>
0.0000

> <Gold.Chemscore.Hbonds>
donor molecule, donor type, donor heavy atom, donor atom, acceptor molecule, acceptor atom, score
      L1  H     2    39       P1  7948  2.00
      P1  H  7989  7998       L1     9  1.00

> <Gold.PLP.Chemscore.Internal.Correction>
0.0140

> <Gold.Rescore>
     Score         DG    S(hbond)    S(metal)    S(lipo)     H(rot)  DE(clash)    DE(int)     intcor
     16.01     -18.47       1.93        0.00      77.85       1.00       1.36       1.10       ----

> <Gold.Chemscore.Fitness>
16.0112

> <Gold.Chemscore.DG>
-18.4729

> <Gold.Chemscore.ZeroCoef>
-5.4800

> <Gold.Chemscore.Hbond>
1.9294

> <Gold.Chemscore.Metal>
0.0000

> <Gold.Chemscore.Lipo>
77.8518

> <Gold.Chemscore.Internal_Hbond>
0.0000

> <Gold.Chemscore.DEClash>
1.3625

> <Gold.Chemscore.DEInternal>
1.0991

> <Gold.Chemscore.Rot>
1.0000

> <Gold.Chemscore.Internal.Correction>
   9.000000E+99

> <Gold.Chemscore.Hbonds>
donor molecule, donor type, donor heavy atom, donor atom, acceptor molecule, acceptor atom, score
      L1  H     2    39       P1  7948  1.00
      P1  H  7989  7998       L1     9  0.99

> <Gold.Chemscore.Hbond.Weighted>
-6.4442

> <Gold.Chemscore.Metal.Weighted>
-0.0000

> <Gold.Chemscore.Lipo.Weighted>
-9.1087

> <Gold.Chemscore.Internal_Hbond.Weighted>
0.0000

> <Gold.Chemscore.DEClash.Weighted>
1.3625

> <Gold.Chemscore.DEInternal.Weighted>
1.0991

> <Gold.Chemscore.Rot.Weighted>
2.5600

> <Gold.Chemscore.Internal.Correction.Weighted>
   9.000000E+99

> <Gold.Protein.RotatedTorsions>
[ 6907 6896 6895 6894 ] final  147.69 input  -60.11 | X-H torsion
[ 7974 7965 7964 7962 ] final  -18.11 input  175.53 | X-H torsion
[ 8008 7997 7996 7995 ] final  163.81 input   59.86 | X-H torsion
[ 10167 10162 10161 10158 ] final  128.58 input  -65.29 | X-H torsion
[ 10718 10713 10712 10709 ] final  -61.71 input   66.30 | X-H torsion
[ 10763 10752 10751 10750 ] final  116.49 input  -60.55 | X-H torsion
[ 11005 11000 10999 10996 ] final -136.70 input  -57.11 | X-H torsion

> <Gold.Protein.ActiveResidues>
 VAL166  LYS551  ARG553  GLY616  TRP617  ASP618  TYR619  PRO620  LYS621  CYS622 
 ASP623  PHE694  ASN695  SER759  ASP760  ASP761  ALA762  ILE779  LEU786  VAL792 
 PHE793  MET794  SER795  GLU796  ALA797  LYS798  CYS799  TRP800  GLU811  SER814 

> <Gold.Protein.RotatedAtoms>
  152.1514  133.4524  159.4815 H   0  0  0  0  0  0  0  0  0  0  0  0  # atno 6907 bound_to 6896
  150.6896  134.2184  159.4396 H   0  0  0  0  0  0  0  0  0  0  0  0  # atno 6908 bound_to 6896
  152.0081  134.9891  160.0618 H   0  0  0  0  0  0  0  0  0  0  0  0  # atno 6909 bound_to 6896
  146.1908  140.3875  142.8459 H   0  0  0  0  0  0  0  0  0  0  0  0  # atno 7974 bound_to 7965
  156.1928  140.1713  156.8058 H   0  0  0  0  0  0  0  0  0  0  0  0  # atno 8008 bound_to 7997
  154.5492  140.0721  156.8672 H   0  0  0  0  0  0  0  0  0  0  0  0  # atno 8009 bound_to 7997
  155.3061  140.3364  155.4248 H   0  0  0  0  0  0  0  0  0  0  0  0  # atno 8010 bound_to 7997
  139.5520  144.6820  151.4295 H   0  0  0  0  0  0  0  0  0  0  0  0  # atno 10167 bound_to 10162
  156.0904  130.4201  150.1032 H   0  0  0  0  0  0  0  0  0  0  0  0  # atno 10718 bound_to 10713
  153.5381  135.3564  155.2706 H   0  0  0  0  0  0  0  0  0  0  0  0  # atno 10763 bound_to 10752
  154.8720  135.4084  154.3075 H   0  0  0  0  0  0  0  0  0  0  0  0  # atno 10764 bound_to 10752
  153.3777  135.7067  153.6657 H   0  0  0  0  0  0  0  0  0  0  0  0  # atno 10765 bound_to 10752
  140.8780  134.1967  157.4609 H   0  0  0  0  0  0  0  0  0  0  0  0  # atno 11005 bound_to 11000
  144.8483  140.6963  143.6184 LP  0  0  0  0  0  0  0  0  0  0  0  0  # atno 17320 bound_to 7965
  145.3798  139.1639  143.4287 LP  0  0  0  0  0  0  0  0  0  0  0  0  # atno 17321 bound_to 7965
  140.6785  143.8136  150.7090 LP  0  0  0  0  0  0  0  0  0  0  0  0  # atno 17342 bound_to 10162
  140.1582  143.4298  152.2085 LP  0  0  0  0  0  0  0  0  0  0  0  0  # atno 17343 bound_to 10162
  156.9043  130.9631  151.3572 LP  0  0  0  0  0  0  0  0  0  0  0  0  # atno 17370 bound_to 10713
  157.6051  130.8541  149.8862 LP  0  0  0  0  0  0  0  0  0  0  0  0  # atno 17371 bound_to 10713
  139.8717  134.9804  156.5076 LP  0  0  0  0  0  0  0  0  0  0  0  0  # atno 17394 bound_to 11000
  140.8495  133.8143  155.9154 LP  0  0  0  0  0  0  0  0  0  0  0  0  # atno 17395 bound_to 11000

$$$$
