AV-unprocessed.smi:1414|AV-procd|sdf|5760|dock8
  -GOLD-   22720 5403D 1   1.00000     0.00000
 Structure written by MMmdl.
 45 46  0  0  0  0  0  0  0  0  1 V2000
  151.5138  137.7992  158.7392 C   0  0  0  0  0  0  0  0  0  0  0  0
  150.3925  137.9812  157.7019 C   0  0  2  0  0  0  0  0  0  0  0  0
  149.5026  136.7332  157.4897 C   0  0  0  0  0  0  0  0  0  0  0  0
  150.0212  135.8104  156.4630 N   0  0  0  0  0  0  0  0  0  0  0  0
  150.2435  134.1190  156.7959 S   0  0  0  0  0  0  0  0  0  0  0  0
  151.6744  133.8234  156.6258 O   0  0  0  0  0  0  0  0  0  0  0  0
  149.5805  133.8248  158.0758 O   0  0  0  0  0  0  0  0  0  0  0  0
  149.3190  133.2795  155.4371 C   0  0  0  0  0  0  0  0  0  0  0  0
  149.9157  133.5911  154.0549 C   0  0  0  0  0  0  0  0  0  0  0  0
  149.1957  132.8991  152.9928 N   0  0  0  0  0  0  0  0  0  0  0  0
  147.8837  133.0207  152.7480 C   0  0  0  0  0  0  0  0  0  0  0  0
  147.1329  133.7366  153.4096 O   0  0  0  0  0  0  0  0  0  0  0  0
  147.5080  132.2495  151.7138 N   0  0  0  0  0  0  0  0  0  0  0  0
  146.2222  132.1406  151.1202 C   0  0  0  0  0  0  0  0  0  0  0  0
  145.1442  132.8008  151.7448 C   0  0  0  0  0  0  0  0  0  0  0  0
  143.8561  132.6885  151.1885 C   0  0  0  0  0  0  0  0  0  0  0  0
  143.6939  131.9083  150.0277 C   0  0  0  0  0  0  0  0  0  0  0  0
  144.7116  131.2574  149.4255 N   0  0  0  0  0  0  0  0  0  0  0  0
  145.9451  131.3709  149.9633 C   0  0  0  0  0  0  0  0  0  0  0  0
  150.6155  136.4349  155.2735 C   0  0  0  0  0  0  0  0  0  0  0  0
  151.5884  137.5524  155.6741 C   0  0  1  0  0  0  0  0  0  0  0  0
  152.1577  138.2835  154.4538 C   0  0  0  0  0  0  0  0  0  0  0  0
  150.8934  138.5011  156.4730 O   0  0  0  0  0  0  0  0  0  0  0  0
  151.1093  137.4720  159.6972 H   0  0  0  0  0  0  0  0  0  0  0  0
  152.0359  138.7411  158.9085 H   0  0  0  0  0  0  0  0  0  0  0  0
  152.2573  137.0692  158.4320 H   0  0  0  0  0  0  0  0  0  0  0  0
  149.7455  138.7610  158.1050 H   0  0  0  0  0  0  0  0  0  0  0  0
  149.3479  136.2112  158.4337 H   0  0  0  0  0  0  0  0  0  0  0  0
  148.5160  137.0591  157.1591 H   0  0  0  0  0  0  0  0  0  0  0  0
  149.2843  132.2132  155.6463 H   0  0  0  0  0  0  0  0  0  0  0  0
  148.2921  133.6432  155.4758 H   0  0  0  0  0  0  0  0  0  0  0  0
  149.8572  134.6613  153.8562 H   0  0  0  0  0  0  0  0  0  0  0  0
  150.9727  133.3282  154.0192 H   0  0  0  0  0  0  0  0  0  0  0  0
  149.7350  132.2803  152.4051 H   0  0  0  0  0  0  0  0  0  0  0  0
  148.2155  131.6389  151.3325 H   0  0  0  0  0  0  0  0  0  0  0  0
  145.2997  133.3900  152.6370 H   0  0  0  0  0  0  0  0  0  0  0  0
  143.0122  133.1872  151.6416 H   0  0  0  0  0  0  0  0  0  0  0  0
  142.7199  131.7995  149.5740 H   0  0  0  0  0  0  0  0  0  0  0  0
  146.7119  130.8065  149.4557 H   0  0  0  0  0  0  0  0  0  0  0  0
  151.1244  135.6875  154.6656 H   0  0  0  0  0  0  0  0  0  0  0  0
  149.8107  136.8413  154.6601 H   0  0  0  0  0  0  0  0  0  0  0  0
  152.4248  137.1320  156.2298 H   0  0  0  0  0  0  0  0  0  0  0  0
  152.7089  137.5986  153.8089 H   0  0  0  0  0  0  0  0  0  0  0  0
  152.8426  139.0749  154.7591 H   0  0  0  0  0  0  0  0  0  0  0  0
  151.3650  138.7391  153.8597 H   0  0  0  0  0  0  0  0  0  0  0  0
  1  2  1  0  0  0  0
  1 24  1  0  0  0  0
  1 25  1  0  0  0  0
  1 26  1  0  0  0  0
  2 23  1  0  0  0  0
  2  3  1  0  0  0  0
  2 27  1  0  0  0  0
  3  4  1  0  0  0  0
  3 28  1  0  0  0  0
  3 29  1  0  0  0  0
  4  5  1  0  0  0  0
  4 20  1  0  0  0  0
  5  6  2  0  0  0  0
  5  7  2  0  0  0  0
  5  8  1  0  0  0  0
  8  9  1  0  0  0  0
  8 30  1  0  0  0  0
  8 31  1  0  0  0  0
  9 10  1  0  0  0  0
  9 32  1  0  0  0  0
  9 33  1  0  0  0  0
 10 11  1  0  0  0  0
 10 34  1  0  0  0  0
 11 12  2  0  0  0  0
 11 13  1  0  0  0  0
 13 14  1  0  0  0  0
 13 35  1  0  0  0  0
 14 19  1  0  0  0  0
 14 15  2  0  0  0  0
 15 16  1  0  0  0  0
 15 36  1  0  0  0  0
 16 17  2  0  0  0  0
 16 37  1  0  0  0  0
 17 18  1  0  0  0  0
 17 38  1  0  0  0  0
 18 19  2  0  0  0  0
 19 39  1  0  0  0  0
 20 21  1  0  0  0  0
 20 40  1  0  0  0  0
 20 41  1  0  0  0  0
 21 22  1  0  0  0  0
 21 23  1  0  0  0  0
 21 42  1  0  0  0  0
 22 43  1  0  0  0  0
 22 44  1  0  0  0  0
 22 45  1  0  0  0  0
M  END
> <s_m_source_file>
AV-unprocessed.smi

> <i_m_source_file_index>
1414

> <i_lp_mmshare_version>
43012

> <i_f3d_flags>
0

> <s_epik_input>
W0NIM11bQ0BASF0xW0NIMl1OKFtDSDJdW0NASF0oTzEpW0NIM10pUyg9TykoPU8pW0NIMl1bQ0gyXVtOSF1DKD1PKVtOSF1jMltjSF1bY0hdW2NIXW5bY0hdMg==

> <s_epik_cmdline>
J2VwaWtfcHl0aG9uJywgJy1waCcsICc3LjAnLCAnLXRuJywgJzgnLCAnLW1hJywgJzIwMCcsICctbWV0YWxfYmluZGluZycsICctaW1hZScsICc8aW5maWxlLm1hZT4nLCAnLW9tYWUnLCAnPG91dGZpbGUubWFlPic=

> <r_epik_Ionization_Penalty>
0.00437531

> <r_epik_Ionization_Penalty_Charging>
0

> <r_epik_Ionization_Penalty_Neutral>
0.00437531

> <r_epik_State_Penalty>
0.00312896

> <r_epik_Charging_Adjusted_Penalty>
0.00312896

> <i_epik_Tot_Q>
0

> <i_epik_Tot_abs_Q>
0

> <r_epik_Metal_State_Penalty>
-0

> <b_epik_Metal_Only>
0

> <s_lp_Force_Field>
OPLS_2005

> <r_lp_Energy>
6.94025

> <b_lp_Chiralities_Consistent>
1

> <s_lp_Variant>
AV-unprocessed.smi:1414-1

> <Gold.Version>
5.8.1

> <Gold.Id.Protein>
6NUR|6NUR_protein|mol2

> <Gold.PLP.Fitness>
48.4722

> <Gold.PLP.PLP>
-34.8774

> <Gold.PLP.part.hbond>
-3.8683

> <Gold.PLP.part.metal>
0.0000

> <Gold.PLP.part.buried>
-6.1339

> <Gold.PLP.part.nonpolar>
-26.0533

> <Gold.PLP.part.repulsive>
0.2684

> <Gold.PLP.ligand.clash>
0.0000

> <Gold.PLP.ligand.torsion>
1.1240

> <Gold.PLP.Chemscore.Hbond>
2.2535

> <Gold.PLP.Chemscore.CHOScore>
2.3232

> <Gold.PLP.Chemscore.Metal>
0.0000

> <Gold.Chemscore.Hbonds>
donor molecule, donor type, donor heavy atom, donor atom, acceptor molecule, acceptor atom, score
      L1  H    13    35       P1 10747  0.96
      P1  H  6896  6907       L1     7  1.00
      P1  H 10785 10796       L1    18  0.04
      L1  C    17    38       P1 10952  1.00
      L1  C    19    39       P1 10747  0.82

> <Gold.PLP.Chemscore.Internal.Correction>
2.1129

> <Gold.Rescore>
     Score         DG    S(hbond)    S(metal)    S(lipo)     H(rot)  DE(clash)    DE(int)     intcor
     15.43     -18.37       2.15        0.00      83.26       1.57       0.21       2.73       ----

> <Gold.Chemscore.Fitness>
15.4295

> <Gold.Chemscore.DG>
-18.3701

> <Gold.Chemscore.ZeroCoef>
-5.4800

> <Gold.Chemscore.Hbond>
2.1452

> <Gold.Chemscore.Metal>
0.0000

> <Gold.Chemscore.Lipo>
83.2569

> <Gold.Chemscore.Internal_Hbond>
0.0000

> <Gold.Chemscore.DEClash>
0.2060

> <Gold.Chemscore.DEInternal>
2.7346

> <Gold.Chemscore.Rot>
1.5687

> <Gold.Chemscore.Internal.Correction>
   9.000000E+99

> <Gold.Chemscore.Hbonds>
donor molecule, donor type, donor heavy atom, donor atom, acceptor molecule, acceptor atom, score
      L1  H    13    35       P1 10747  0.90
      P1  H  6896  6907       L1     7  0.55

> <Gold.Chemscore.Hbond.Weighted>
-7.1651

> <Gold.Chemscore.Metal.Weighted>
-0.0000

> <Gold.Chemscore.Lipo.Weighted>
-9.7411

> <Gold.Chemscore.Internal_Hbond.Weighted>
0.0000

> <Gold.Chemscore.DEClash.Weighted>
0.2060

> <Gold.Chemscore.DEInternal.Weighted>
2.7346

> <Gold.Chemscore.Rot.Weighted>
4.0160

> <Gold.Chemscore.Internal.Correction.Weighted>
   9.000000E+99

> <Gold.Protein.RotatedTorsions>
[ 6907 6896 6895 6894 ] final -123.44 input  -60.11 | X-H torsion
[ 7974 7965 7964 7962 ] final  -67.17 input  175.53 | X-H torsion
[ 8008 7997 7996 7995 ] final   43.13 input   59.86 | X-H torsion
[ 10167 10162 10161 10158 ] final   52.75 input  -65.29 | X-H torsion
[ 10718 10713 10712 10709 ] final  -80.32 input   66.30 | X-H torsion
[ 10763 10752 10751 10750 ] final   89.90 input  -60.55 | X-H torsion
[ 11005 11000 10999 10996 ] final   32.79 input  -57.11 | X-H torsion

> <Gold.Protein.ActiveResidues>
 VAL166  LYS551  ARG553  GLY616  TRP617  ASP618  TYR619  PRO620  LYS621  CYS622 
 ASP623  PHE694  ASN695  SER759  ASP760  ASP761  ALA762  ILE779  LEU786  VAL792 
 PHE793  MET794  SER795  GLU796  ALA797  LYS798  CYS799  TRP800  GLU811  SER814 

> <Gold.Protein.RotatedAtoms>
  150.8671  133.7559  159.2973 H   0  0  0  0  0  0  0  0  0  0  0  0  # atno 6907 bound_to 6896
  151.5183  135.1065  159.9881 H   0  0  0  0  0  0  0  0  0  0  0  0  # atno 6908 bound_to 6896
  152.4668  133.7897  159.6951 H   0  0  0  0  0  0  0  0  0  0  0  0  # atno 6909 bound_to 6896
  145.7325  140.8990  143.0572 H   0  0  0  0  0  0  0  0  0  0  0  0  # atno 7974 bound_to 7965
  155.2976  140.3383  155.4249 H   0  0  0  0  0  0  0  0  0  0  0  0  # atno 8008 bound_to 7997
  156.2016  140.1735  156.7926 H   0  0  0  0  0  0  0  0  0  0  0  0  # atno 8009 bound_to 7997
  154.5567  140.0695  156.8738 H   0  0  0  0  0  0  0  0  0  0  0  0  # atno 8010 bound_to 7997
  140.2480  144.3510  150.6357 H   0  0  0  0  0  0  0  0  0  0  0  0  # atno 10167 bound_to 10162
  156.0073  130.4571  150.3782 H   0  0  0  0  0  0  0  0  0  0  0  0  # atno 10718 bound_to 10713
  153.1919  135.4453  155.0160 H   0  0  0  0  0  0  0  0  0  0  0  0  # atno 10763 bound_to 10752
  154.8095  135.3288  154.7344 H   0  0  0  0  0  0  0  0  0  0  0  0  # atno 10764 bound_to 10752
  153.7797  135.6978  153.4946 H   0  0  0  0  0  0  0  0  0  0  0  0  # atno 10765 bound_to 10752
  140.2698  134.3095  155.7831 H   0  0  0  0  0  0  0  0  0  0  0  0  # atno 11005 bound_to 11000
  144.6889  139.9351  143.7473 LP  0  0  0  0  0  0  0  0  0  0  0  0  # atno 17320 bound_to 7965
  146.0524  139.3524  143.0631 LP  0  0  0  0  0  0  0  0  0  0  0  0  # atno 17321 bound_to 7965
  140.6062  143.2168  151.6976 LP  0  0  0  0  0  0  0  0  0  0  0  0  # atno 17342 bound_to 10162
  139.5055  144.3714  152.0466 LP  0  0  0  0  0  0  0  0  0  0  0  0  # atno 17343 bound_to 10162
  157.1863  131.0404  151.2723 LP  0  0  0  0  0  0  0  0  0  0  0  0  # atno 17370 bound_to 10713
  157.4101  130.7380  149.6832 LP  0  0  0  0  0  0  0  0  0  0  0  0  # atno 17371 bound_to 10713
  141.2179  133.7460  156.9317 LP  0  0  0  0  0  0  0  0  0  0  0  0  # atno 17394 bound_to 11000
  140.1384  134.9310  157.2433 LP  0  0  0  0  0  0  0  0  0  0  0  0  # atno 17395 bound_to 11000

$$$$
