AV-unprocessed.smi:703|AV-procd|sdf|3430|dock9
  -GOLD-   22720 0413D 1   1.00000     0.00000
 Structure written by MMmdl.
 38 39  0  0  0  0  0  0  0  0  2 V2000
  151.1103  142.2664  157.9986 C   0  0  0  0  0  0  0  0  0  0  0  0
  150.8321  141.5236  156.6849 C   0  0  0  0  0  0  0  0  0  0  0  0
  149.5569  141.9474  156.0610 N   0  3  1  0  0  0  0  0  0  0  0  0
  149.2949  141.3865  154.7221 C   0  0  0  0  0  0  0  0  0  0  0  0
  147.8060  141.6407  154.4763 C   0  0  1  0  0  0  0  0  0  0  0  0
  147.1676  140.6590  153.4845 C   0  0  0  0  0  0  0  0  0  0  0  0
  147.1769  141.6082  155.8818 C   0  0  2  0  0  0  0  0  0  0  0  0
  146.3044  142.7700  156.0786 N   0  0  0  0  0  0  0  0  0  0  0  0
  145.3483  142.8427  157.5112 S   0  0  0  0  0  0  0  0  0  0  0  0
  144.4675  144.0151  157.3960 O   0  0  0  0  0  0  0  0  0  0  0  0
  144.7692  141.5067  157.7187 O   0  0  0  0  0  0  0  0  0  0  0  0
  146.6039  143.1716  158.8190 C   0  0  0  0  0  0  0  0  0  0  0  0
  145.9362  143.1955  160.1646 C   0  0  0  0  0  0  0  0  0  0  0  0
  145.9136  144.2466  161.1228 C   0  0  0  0  0  0  0  0  0  0  0  0
  145.1697  143.7303  162.1443 C   0  0  0  0  0  0  0  0  0  0  0  0
  144.7613  142.4712  161.8458 O   0  0  0  0  0  0  0  0  0  0  0  0
  145.2547  142.1392  160.5789 N   0  0  0  0  0  0  0  0  0  0  0  0
  148.3580  141.6386  156.8660 C   0  0  0  0  0  0  0  0  0  0  0  0
  152.0171  141.8871  158.4701 H   0  0  0  0  0  0  0  0  0  0  0  0
  150.2910  142.1374  158.7066 H   0  0  0  0  0  0  0  0  0  0  0  0
  151.2501  143.3353  157.8361 H   0  0  0  0  0  0  0  0  0  0  0  0
  151.6579  141.6642  155.9861 H   0  0  0  0  0  0  0  0  0  0  0  0
  150.7765  140.4544  156.8936 H   0  0  0  0  0  0  0  0  0  0  0  0
  149.9209  141.8462  153.9569 H   0  0  0  0  0  0  0  0  0  0  0  0
  149.5009  140.3147  154.7302 H   0  0  0  0  0  0  0  0  0  0  0  0
  147.7146  142.6481  154.0656 H   0  0  0  0  0  0  0  0  0  0  0  0
  147.2421  139.6298  153.8377 H   0  0  0  0  0  0  0  0  0  0  0  0
  147.6551  140.7136  152.5108 H   0  0  0  0  0  0  0  0  0  0  0  0
  146.1109  140.8853  153.3397 H   0  0  0  0  0  0  0  0  0  0  0  0
  146.6071  140.6900  156.0346 H   0  0  0  0  0  0  0  0  0  0  0  0
  146.8050  143.6452  155.9253 H   0  0  0  0  0  0  0  0  0  0  0  0
  147.3651  142.3933  158.7735 H   0  0  0  0  0  0  0  0  0  0  0  0
  147.0866  144.1243  158.5985 H   0  0  0  0  0  0  0  0  0  0  0  0
  146.3736  145.2221  161.0704 H   0  0  0  0  0  0  0  0  0  0  0  0
  144.8566  144.1157  163.1033 H   0  0  0  0  0  0  0  0  0  0  0  0
  148.4703  140.6529  157.3212 H   0  0  0  0  0  0  0  0  0  0  0  0
  148.2312  142.3596  157.6748 H   0  0  0  0  0  0  0  0  0  0  0  0
  149.5811  142.9519  155.9581 H   0  0  0  0  0  0  0  0  0  0  0  0
  1  2  1  0  0  0  0
  1 19  1  0  0  0  0
  1 20  1  0  0  0  0
  1 21  1  0  0  0  0
  2  3  1  0  0  0  0
  2 22  1  0  0  0  0
  2 23  1  0  0  0  0
  3 18  1  0  0  0  0
  3  4  1  0  0  0  0
  3 38  1  0  0  0  0
  4  5  1  0  0  0  0
  4 24  1  0  0  0  0
  4 25  1  0  0  0  0
  5  6  1  0  0  0  0
  5  7  1  0  0  0  0
  5 26  1  0  0  0  0
  6 27  1  0  0  0  0
  6 28  1  0  0  0  0
  6 29  1  0  0  0  0
  7  8  1  0  0  0  0
  7 18  1  0  0  0  0
  7 30  1  0  0  0  0
  8  9  1  0  0  0  0
  8 31  1  0  0  0  0
  9 10  2  0  0  0  0
  9 11  2  0  0  0  0
  9 12  1  0  0  0  0
 12 13  1  0  0  0  0
 12 32  1  0  0  0  0
 12 33  1  0  0  0  0
 13 17  2  0  0  0  0
 13 14  1  0  0  0  0
 14 15  2  0  0  0  0
 14 34  1  0  0  0  0
 15 16  1  0  0  0  0
 15 35  1  0  0  0  0
 16 17  1  0  0  0  0
 18 36  1  0  0  0  0
 18 37  1  0  0  0  0
M  CHG  1   3   1
M  END
> <s_m_source_file>
AV-unprocessed.smi

> <i_m_source_file_index>
703

> <i_lp_mmshare_version>
43012

> <i_f3d_flags>
0

> <s_epik_input>
W0NIM11bQ0gyXU4xW0NIMl1bQ0BASF0oW0NIM10pW0NASF0oW0NIMl0xKVtOSF1TKD1PKSg9TylbQ0gyXWMyW2NIXVtjSF1vbjI=

> <s_epik_cmdline>
J2VwaWtfcHl0aG9uJywgJy1waCcsICc3LjAnLCAnLXRuJywgJzgnLCAnLW1hJywgJzIwMCcsICctbWV0YWxfYmluZGluZycsICctaW1hZScsICc8aW5maWxlLm1hZT4nLCAnLW9tYWUnLCAnPG91dGZpbGUubWFlPic=

> <r_epik_Ionization_Penalty>
0.00324529

> <r_epik_Ionization_Penalty_Charging>
0.0019384

> <r_epik_Ionization_Penalty_Neutral>
0.00130689

> <r_epik_State_Penalty>
0.00218682

> <r_epik_Charging_Adjusted_Penalty>
0.00412522

> <i_epik_Tot_Q>
1

> <i_epik_Tot_abs_Q>
1

> <r_epik_Metal_State_Penalty>
0.310831

> <b_epik_Metal_Only>
0

> <s_lp_Force_Field>
OPLS_2005

> <r_lp_Energy>
19.0456

> <b_lp_Chiralities_Consistent>
1

> <s_lp_Variant>
AV-unprocessed.smi:703-5

> <Gold.Version>
5.8.1

> <Gold.Id.Protein>
6NUR|6NUR_protein|mol2

> <Gold.PLP.Fitness>
38.9977

> <Gold.PLP.PLP>
-30.4277

> <Gold.PLP.part.hbond>
-3.3889

> <Gold.PLP.part.metal>
0.0000

> <Gold.PLP.part.buried>
-5.6271

> <Gold.PLP.part.nonpolar>
-22.4250

> <Gold.PLP.part.repulsive>
0.1823

> <Gold.PLP.ligand.clash>
0.0000

> <Gold.PLP.ligand.torsion>
0.2948

> <Gold.PLP.Chemscore.Hbond>
3.0000

> <Gold.PLP.Chemscore.CHOScore>
0.0000

> <Gold.PLP.Chemscore.Metal>
0.0000

> <Gold.Chemscore.Hbonds>
donor molecule, donor type, donor heavy atom, donor atom, acceptor molecule, acceptor atom, score
      L1  H     3    38       P1  8028  2.00
      P1  H  6934  6946       L1    17  0.73

> <Gold.PLP.Chemscore.Internal.Correction>
0.1596

> <Gold.Rescore>
     Score         DG    S(hbond)    S(metal)    S(lipo)     H(rot)  DE(clash)    DE(int)     intcor
     14.09     -14.64       1.95        0.00      64.99       1.94       0.05       0.50       ----

> <Gold.Chemscore.Fitness>
14.0914

> <Gold.Chemscore.DG>
-14.6431

> <Gold.Chemscore.ZeroCoef>
-5.4800

> <Gold.Chemscore.Hbond>
1.9538

> <Gold.Chemscore.Metal>
0.0000

> <Gold.Chemscore.Lipo>
64.9894

> <Gold.Chemscore.Internal_Hbond>
0.0000

> <Gold.Chemscore.DEClash>
0.0502

> <Gold.Chemscore.DEInternal>
0.5015

> <Gold.Chemscore.Rot>
1.9400

> <Gold.Chemscore.Internal.Correction>
   9.000000E+99

> <Gold.Chemscore.Hbonds>
donor molecule, donor type, donor heavy atom, donor atom, acceptor molecule, acceptor atom, score
      L1  H     3    38       P1  8028  0.98
      P1  H  6934  6946       L1    17  0.10

> <Gold.Chemscore.Hbond.Weighted>
-6.5258

> <Gold.Chemscore.Metal.Weighted>
-0.0000

> <Gold.Chemscore.Lipo.Weighted>
-7.6038

> <Gold.Chemscore.Internal_Hbond.Weighted>
0.0000

> <Gold.Chemscore.DEClash.Weighted>
0.0502

> <Gold.Chemscore.DEInternal.Weighted>
0.5015

> <Gold.Chemscore.Rot.Weighted>
4.9665

> <Gold.Chemscore.Internal.Correction.Weighted>
   9.000000E+99

> <Gold.Protein.RotatedTorsions>
[ 6907 6896 6895 6894 ] final -102.34 input  -60.11 | X-H torsion
[ 7974 7965 7964 7962 ] final  -56.48 input  175.53 | X-H torsion
[ 8008 7997 7996 7995 ] final -124.26 input   59.86 | X-H torsion
[ 10167 10162 10161 10158 ] final  -83.60 input  -65.29 | X-H torsion
[ 10718 10713 10712 10709 ] final  -53.54 input   66.30 | X-H torsion
[ 10763 10752 10751 10750 ] final   44.25 input  -60.55 | X-H torsion
[ 11005 11000 10999 10996 ] final  -65.94 input  -57.11 | X-H torsion

> <Gold.Protein.ActiveResidues>
 VAL166  LYS551  ARG553  GLY616  TRP617  ASP618  TYR619  PRO620  LYS621  CYS622 
 ASP623  PHE694  ASN695  SER759  ASP760  ASP761  ALA762  ILE779  LEU786  VAL792 
 PHE793  MET794  SER795  GLU796  ALA797  LYS798  CYS799  TRP800  GLU811  SER814 

> <Gold.Protein.RotatedAtoms>
  150.7192  134.0597  159.3826 H   0  0  0  0  0  0  0  0  0  0  0  0  # atno 6907 bound_to 6896
  151.8576  135.0533  160.0475 H   0  0  0  0  0  0  0  0  0  0  0  0  # atno 6908 bound_to 6896
  152.2742  133.5374  159.5494 H   0  0  0  0  0  0  0  0  0  0  0  0  # atno 6909 bound_to 6896
  145.8622  140.8277  142.9931 H   0  0  0  0  0  0  0  0  0  0  0  0  # atno 7974 bound_to 7965
  155.1940  140.0414  157.2905 H   0  0  0  0  0  0  0  0  0  0  0  0  # atno 8008 bound_to 7997
  154.6120  140.2479  155.7629 H   0  0  0  0  0  0  0  0  0  0  0  0  # atno 8009 bound_to 7997
  156.2384  140.2913  156.0386 H   0  0  0  0  0  0  0  0  0  0  0  0  # atno 8010 bound_to 7997
  140.4212  143.2584  151.8888 H   0  0  0  0  0  0  0  0  0  0  0  0  # atno 10167 bound_to 10162
  156.1526  130.4151  149.9920 H   0  0  0  0  0  0  0  0  0  0  0  0  # atno 10718 bound_to 10713
  152.9845  135.6076  154.3243 H   0  0  0  0  0  0  0  0  0  0  0  0  # atno 10763 bound_to 10752
  154.2951  135.2774  155.2639 H   0  0  0  0  0  0  0  0  0  0  0  0  # atno 10764 bound_to 10752
  154.4917  135.5890  153.6520 H   0  0  0  0  0  0  0  0  0  0  0  0  # atno 10765 bound_to 10752
  141.1468  133.6690  156.6063 H   0  0  0  0  0  0  0  0  0  0  0  0  # atno 11005 bound_to 11000
  144.6726  140.1113  143.7455 LP  0  0  0  0  0  0  0  0  0  0  0  0  # atno 17320 bound_to 7965
  145.9234  139.2560  143.1367 LP  0  0  0  0  0  0  0  0  0  0  0  0  # atno 17321 bound_to 7965
  139.4782  144.5435  151.8492 LP  0  0  0  0  0  0  0  0  0  0  0  0  # atno 17342 bound_to 10162
  140.4532  144.1826  150.5899 LP  0  0  0  0  0  0  0  0  0  0  0  0  # atno 17343 bound_to 10162
  156.7773  130.9208  151.3645 LP  0  0  0  0  0  0  0  0  0  0  0  0  # atno 17370 bound_to 10713
  157.6669  130.9016  149.9953 LP  0  0  0  0  0  0  0  0  0  0  0  0  # atno 17371 bound_to 10713
  140.3649  134.7655  157.4559 LP  0  0  0  0  0  0  0  0  0  0  0  0  # atno 17394 bound_to 11000
  140.0755  134.5803  155.8595 LP  0  0  0  0  0  0  0  0  0  0  0  0  # atno 17395 bound_to 11000

$$$$
