AV-unprocessed.smi:50|AV-procd|sdf|492|dock3
  -GOLD-   2262016353D 1   1.00000     0.00000
 Structure written by MMmdl.
 44 45  0  0  0  0  0  0  0  0  2 V2000
  145.1109  131.5454  151.7414 C   0  0  0  0  0  0  0  0  0  0  0  0
  144.7509  132.0607  150.3341 C   0  0  0  0  0  0  0  0  0  0  0  0
  146.0255  132.1168  149.4710 C   0  0  0  0  0  0  0  0  0  0  0  0
  144.0183  133.4300  150.3763 C   0  0  1  0  0  0  0  0  0  0  0  0
  142.7844  133.3650  151.1817 N   0  3  0  0  0  0  0  0  0  0  0  0
  144.8520  134.5689  150.9851 C   0  0  0  0  0  0  0  0  0  0  0  0
  145.2320  135.5643  150.3666 O   0  0  0  0  0  0  0  0  0  0  0  0
  145.1371  134.3011  152.2710 O   0  0  0  0  0  0  0  0  0  0  0  0
  145.9447  135.2011  153.0136 C   0  0  0  0  0  0  0  0  0  0  0  0
  145.3546  136.6113  152.9270 C   0  0  0  0  0  0  0  0  0  0  0  0
  146.1122  137.4734  153.7606 O   0  0  0  0  0  0  0  0  0  0  0  0
  145.9823  138.8164  153.4259 C   0  0  0  0  0  0  0  0  0  0  0  0
  147.2436  139.4800  153.7062 N   0  0  0  0  0  0  0  0  0  0  0  0
  147.6148  140.7795  153.4573 C   0  0  0  0  0  0  0  0  0  0  0  0
  148.8323  141.0636  153.8274 N   0  0  0  0  0  0  0  0  0  0  0  0
  149.3172  139.8688  154.3508 C   0  0  0  0  0  0  0  0  0  0  0  0
  150.6021  139.5578  154.9108 C   0  0  0  0  0  0  0  0  0  0  0  0
  151.5700  140.3013  155.0567 O   0  0  0  0  0  0  0  0  0  0  0  0
  150.6899  138.2209  155.3195 N   0  0  0  0  0  0  0  0  0  0  0  0
  149.6547  137.2967  155.1999 C   0  0  0  0  0  0  0  0  0  0  0  0
  149.9023  136.0547  155.6360 N   0  0  0  0  0  0  0  0  0  0  0  0
  148.4710  137.5853  154.6879 N   0  0  0  0  0  0  0  0  0  0  0  0
  148.3489  138.8861  154.2774 C   0  0  0  0  0  0  0  0  0  0  0  0
  143.7328  133.7038  149.3599 H   0  0  0  0  0  0  0  0  0  0  0  0
  151.5663  137.9242  155.7231 H   0  0  0  0  0  0  0  0  0  0  0  0
  145.7540  132.2516  152.2677 H   0  0  0  0  0  0  0  0  0  0  0  0
  145.6411  130.5941  151.6865 H   0  0  0  0  0  0  0  0  0  0  0  0
  144.2277  131.3791  152.3577 H   0  0  0  0  0  0  0  0  0  0  0  0
  144.0867  131.3256  149.8760 H   0  0  0  0  0  0  0  0  0  0  0  0
  146.7264  132.8623  149.8483 H   0  0  0  0  0  0  0  0  0  0  0  0
  145.8041  132.3612  148.4321 H   0  0  0  0  0  0  0  0  0  0  0  0
  146.5386  131.1544  149.4674 H   0  0  0  0  0  0  0  0  0  0  0  0
  142.9018  133.9187  152.0182 H   0  0  0  0  0  0  0  0  0  0  0  0
  142.6013  132.4048  151.4364 H   0  0  0  0  0  0  0  0  0  0  0  0
  145.9714  134.8754  154.0543 H   0  0  0  0  0  0  0  0  0  0  0  0
  146.9707  135.1976  152.6422 H   0  0  0  0  0  0  0  0  0  0  0  0
  145.3486  136.9661  151.8950 H   0  0  0  0  0  0  0  0  0  0  0  0
  144.3203  136.5890  153.2731 H   0  0  0  0  0  0  0  0  0  0  0  0
  145.7534  138.9200  152.3634 H   0  0  0  0  0  0  0  0  0  0  0  0
  145.2026  139.2938  154.0214 H   0  0  0  0  0  0  0  0  0  0  0  0
  146.9613  141.5071  152.9981 H   0  0  0  0  0  0  0  0  0  0  0  0
  150.8066  135.8326  156.0271 H   0  0  0  0  0  0  0  0  0  0  0  0
  149.1896  135.3418  155.5773 H   0  0  0  0  0  0  0  0  0  0  0  0
  142.0097  133.7253  150.6430 H   0  0  0  0  0  0  0  0  0  0  0  0
  1  2  1  0  0  0  0
  1 26  1  0  0  0  0
  1 27  1  0  0  0  0
  1 28  1  0  0  0  0
  2  3  1  0  0  0  0
  2  4  1  0  0  0  0
  2 29  1  0  0  0  0
  3 30  1  0  0  0  0
  3 31  1  0  0  0  0
  3 32  1  0  0  0  0
  4 24  1  0  0  0  0
  4  5  1  0  0  0  0
  4  6  1  0  0  0  0
  5 33  1  0  0  0  0
  5 34  1  0  0  0  0
  5 44  1  0  0  0  0
  6  7  2  0  0  0  0
  6  8  1  0  0  0  0
  8  9  1  0  0  0  0
  9 10  1  0  0  0  0
  9 35  1  0  0  0  0
  9 36  1  0  0  0  0
 10 11  1  0  0  0  0
 10 37  1  0  0  0  0
 10 38  1  0  0  0  0
 11 12  1  0  0  0  0
 12 13  1  0  0  0  0
 12 39  1  0  0  0  0
 12 40  1  0  0  0  0
 13 23  1  0  0  0  0
 13 14  1  0  0  0  0
 14 15  2  0  0  0  0
 14 41  1  0  0  0  0
 15 16  1  0  0  0  0
 16 23  2  0  0  0  0
 16 17  1  0  0  0  0
 17 18  2  0  0  0  0
 17 19  1  0  0  0  0
 19 25  1  0  0  0  0
 19 20  1  0  0  0  0
 20 21  1  0  0  0  0
 20 22  2  0  0  0  0
 21 42  1  0  0  0  0
 21 43  1  0  0  0  0
 22 23  1  0  0  0  0
M  CHG  1   5   1
M  END
> <s_m_source_file>
AV-unprocessed.smi

> <i_m_source_file_index>
50

> <i_lp_mmshare_version>
43012

> <i_f3d_flags>
0

> <s_epik_input>
W0NIM11bQ0hdKFtDSDNdKVtDQEhdKFtOSDJdKUMoPU8pT1tDSDJdW0NIMl1PW0NIMl1uKFtjSF1uMSljKGMxMiluYyhbTkgyXSlbbkhdYzI9Tw==

> <s_epik_cmdline>
J2VwaWtfcHl0aG9uJywgJy1waCcsICc3LjAnLCAnLXRuJywgJzgnLCAnLW1hJywgJzIwMCcsICctbWV0YWxfYmluZGluZycsICctaW1hZScsICc8aW5maWxlLm1hZT4nLCAnLW9tYWUnLCAnPG91dGZpbGUubWFlPic=

> <r_lp_tautomer_probability>
0.99994

> <r_epik_Ionization_Penalty>
0.217551

> <r_epik_Ionization_Penalty_Charging>
0.217477

> <r_epik_Ionization_Penalty_Neutral>
7.42487e-05

> <r_epik_State_Penalty>
0.206211

> <r_epik_Charging_Adjusted_Penalty>
0.423688

> <i_epik_Tot_Q>
1

> <i_epik_Tot_abs_Q>
1

> <r_epik_Metal_State_Penalty>
0.526339

> <b_epik_Metal_Only>
0

> <s_epik_Chemistry_Notes>
This compound has an ester and may undergo hydrolysis at high or low pH. This compound contains an acetal/aminal-like group ( X-CH(R)-Y where X, Y are N, S, or O) that may be acid/base labile, releasing an aldehyde.

> <s_lp_Force_Field>
OPLS_2005

> <r_lp_Energy>
7.49642

> <b_lp_Chiralities_Consistent>
1

> <s_lp_Variant>
AV-unprocessed.smi:50-2

> <Gold.Version>
5.8.1

> <Gold.Id.Protein>
6NUR|6NUR_protein|mol2

> <Gold.PLP.Fitness>
39.7329

> <Gold.PLP.PLP>
-31.0580

> <Gold.PLP.part.hbond>
-2.1357

> <Gold.PLP.part.metal>
0.0000

> <Gold.PLP.part.buried>
-6.2464

> <Gold.PLP.part.nonpolar>
-24.7559

> <Gold.PLP.part.repulsive>
2.3771

> <Gold.PLP.ligand.clash>
0.0000

> <Gold.PLP.ligand.torsion>
0.3737

> <Gold.PLP.Chemscore.Hbond>
3.0680

> <Gold.PLP.Chemscore.CHOScore>
0.0000

> <Gold.PLP.Chemscore.Metal>
0.0000

> <Gold.Chemscore.Hbonds>
donor molecule, donor type, donor heavy atom, donor atom, acceptor molecule, acceptor atom, score
      L1  H     5    44       P1 10186  2.00
      P1  H  7989  7998       L1    18  0.86
      P1  H  8011  8017       L1    15  0.44

> <Gold.PLP.Chemscore.Internal.Correction>
0.2183

> <Gold.Rescore>
     Score         DG    S(hbond)    S(metal)    S(lipo)     H(rot)  DE(clash)    DE(int)     intcor
     -1.67      -3.48       1.34        0.00      50.92       4.86       0.12       5.02       ----

> <Gold.Chemscore.Fitness>
-1.6714

> <Gold.Chemscore.DG>
-3.4757

> <Gold.Chemscore.ZeroCoef>
-5.4800

> <Gold.Chemscore.Hbond>
1.3392

> <Gold.Chemscore.Metal>
0.0000

> <Gold.Chemscore.Lipo>
50.9151

> <Gold.Chemscore.Internal_Hbond>
0.0000

> <Gold.Chemscore.DEClash>
0.1248

> <Gold.Chemscore.DEInternal>
5.0222

> <Gold.Chemscore.Rot>
4.8571

> <Gold.Chemscore.Internal.Correction>
   9.000000E+99

> <Gold.Chemscore.Hbonds>
donor molecule, donor type, donor heavy atom, donor atom, acceptor molecule, acceptor atom, score
      L1  H     5    44       P1 10186  0.78
      P1  H  7989  7998       L1    18  0.16
      P1  H  8011  8017       L1    15  0.33

> <Gold.Chemscore.Hbond.Weighted>
-4.4729

> <Gold.Chemscore.Metal.Weighted>
-0.0000

> <Gold.Chemscore.Lipo.Weighted>
-5.9571

> <Gold.Chemscore.Internal_Hbond.Weighted>
0.0000

> <Gold.Chemscore.DEClash.Weighted>
0.1248

> <Gold.Chemscore.DEInternal.Weighted>
5.0222

> <Gold.Chemscore.Rot.Weighted>
12.4343

> <Gold.Chemscore.Internal.Correction.Weighted>
   9.000000E+99

> <Gold.Protein.RotatedTorsions>
[ 6907 6896 6895 6894 ] final   12.91 input  -60.11 | X-H torsion
[ 7974 7965 7964 7962 ] final   98.61 input  175.53 | X-H torsion
[ 8008 7997 7996 7995 ] final   64.48 input   59.86 | X-H torsion
[ 10167 10162 10161 10158 ] final  -50.21 input  -65.29 | X-H torsion
[ 10718 10713 10712 10709 ] final -119.63 input   66.30 | X-H torsion
[ 10763 10752 10751 10750 ] final   73.40 input  -60.55 | X-H torsion
[ 11005 11000 10999 10996 ] final -119.75 input  -57.11 | X-H torsion

> <Gold.Protein.ActiveResidues>
 VAL166  LYS551  ARG553  GLY616  TRP617  ASP618  TYR619  PRO620  LYS621  CYS622 
 ASP623  PHE694  ASN695  SER759  ASP760  ASP761  ALA762  ILE779  LEU786  VAL792 
 PHE793  MET794  SER795  GLU796  ALA797  LYS798  CYS799  TRP800  GLU811  SER814 

> <Gold.Protein.RotatedAtoms>
  151.7779  135.0769  160.0369 H   0  0  0  0  0  0  0  0  0  0  0  0  # atno 6907 bound_to 6896
  152.3243  133.5884  159.5774 H   0  0  0  0  0  0  0  0  0  0  0  0  # atno 6908 bound_to 6896
  150.7387  133.9880  159.3639 H   0  0  0  0  0  0  0  0  0  0  0  0  # atno 6909 bound_to 6896
  145.4098  139.2335  143.3254 H   0  0  0  0  0  0  0  0  0  0  0  0  # atno 7974 bound_to 7965
  155.6466  140.3497  155.4733 H   0  0  0  0  0  0  0  0  0  0  0  0  # atno 8008 bound_to 7997
  155.9882  140.1188  157.0686 H   0  0  0  0  0  0  0  0  0  0  0  0  # atno 8009 bound_to 7997
  154.4211  140.1125  156.5515 H   0  0  0  0  0  0  0  0  0  0  0  0  # atno 8010 bound_to 7997
  140.6649  143.2667  151.4326 H   0  0  0  0  0  0  0  0  0  0  0  0  # atno 10167 bound_to 10162
  156.1196  130.6312  150.9440 H   0  0  0  0  0  0  0  0  0  0  0  0  # atno 10718 bound_to 10713
  153.0519  135.5064  154.7888 H   0  0  0  0  0  0  0  0  0  0  0  0  # atno 10763 bound_to 10752
  154.6743  135.2958  154.9702 H   0  0  0  0  0  0  0  0  0  0  0  0  # atno 10764 bound_to 10752
  154.0509  135.6704  153.4853 H   0  0  0  0  0  0  0  0  0  0  0  0  # atno 10765 bound_to 10752
  141.0193  134.0148  157.3305 H   0  0  0  0  0  0  0  0  0  0  0  0  # atno 11005 bound_to 11000
  146.2710  140.4808  142.8814 LP  0  0  0  0  0  0  0  0  0  0  0  0  # atno 17320 bound_to 7965
  144.8317  140.6717  143.6287 LP  0  0  0  0  0  0  0  0  0  0  0  0  # atno 17321 bound_to 7965
  139.5894  144.1533  152.2069 LP  0  0  0  0  0  0  0  0  0  0  0  0  # atno 17342 bound_to 10162
  140.0882  144.5643  150.7073 LP  0  0  0  0  0  0  0  0  0  0  0  0  # atno 17343 bound_to 10162
  157.6379  131.0914  150.8311 LP  0  0  0  0  0  0  0  0  0  0  0  0  # atno 17370 bound_to 10713
  156.8409  130.5048  149.5321 LP  0  0  0  0  0  0  0  0  0  0  0  0  # atno 17371 bound_to 10713
  139.9136  135.0194  156.7791 LP  0  0  0  0  0  0  0  0  0  0  0  0  # atno 17394 bound_to 11000
  140.6601  133.9653  155.7800 LP  0  0  0  0  0  0  0  0  0  0  0  0  # atno 17395 bound_to 11000

$$$$
