AV-unprocessed.smi:694|AV-procd|sdf|3378|dock1
  -GOLD-   22720 0353D 1   1.00000     0.00000
 Structure written by MMmdl.
 43 44  0  0  0  0  0  0  0  0  2 V2000
  152.0247  141.8689  158.2981 C   0  0  0  0  0  0  0  0  0  0  0  0
  151.3341  142.3794  157.1191 N   0  0  0  0  0  0  0  0  0  0  0  0
  151.2744  143.8126  156.8634 C   0  0  0  0  0  0  0  0  0  0  0  0
  150.6926  141.4814  156.2390 C   0  0  0  0  0  0  0  0  0  0  0  0
  151.0232  140.1068  156.1552 C   0  0  0  0  0  0  0  0  0  0  0  0
  150.3351  139.2737  155.2492 C   0  0  0  0  0  0  0  0  0  0  0  0
  149.3237  139.8119  154.4260 C   0  0  0  0  0  0  0  0  0  0  0  0
  148.6522  138.9244  153.5405 N   0  0  0  0  0  0  0  0  0  0  0  0
  147.3796  138.9645  153.1083 C   0  0  0  0  0  0  0  0  0  0  0  0
  146.5599  139.8396  153.3842 O   0  0  0  0  0  0  0  0  0  0  0  0
  147.1047  137.9236  152.3096 N   0  0  0  0  0  0  0  0  0  0  0  0
  145.8134  137.6757  151.6750 C   0  0  0  0  0  0  0  0  0  0  0  0
  145.2449  136.2850  152.0295 C   0  0  2  0  0  0  0  0  0  0  0  0
  146.3002  135.1777  152.1238 C   0  0  0  0  0  0  0  0  0  0  0  0
  145.5354  133.8583  151.9365 C   0  0  0  0  0  0  0  0  0  0  0  0
  144.1250  134.2329  151.4523 C   0  0  0  0  0  0  0  0  0  0  0  0
  144.1894  135.7147  151.0689 C   0  0  2  0  0  0  0  0  0  0  0  0
  144.6041  135.8213  149.7191 O   0  0  0  0  0  0  0  0  0  0  0  0
  149.0245  141.1898  154.5530 C   0  0  0  0  0  0  0  0  0  0  0  0
  149.7084  141.9510  155.4342 N   0  3  0  0  0  0  0  0  0  0  0  0
  152.8356  141.2006  158.0067 H   0  0  0  0  0  0  0  0  0  0  0  0
  151.3347  141.3189  158.9390 H   0  0  0  0  0  0  0  0  0  0  0  0
  152.4549  142.6780  158.8884 H   0  0  0  0  0  0  0  0  0  0  0  0
  150.2399  144.1576  156.8533 H   0  0  0  0  0  0  0  0  0  0  0  0
  151.7319  144.0504  155.9025 H   0  0  0  0  0  0  0  0  0  0  0  0
  151.8045  144.3745  157.6328 H   0  0  0  0  0  0  0  0  0  0  0  0
  151.7948  139.6741  156.7742 H   0  0  0  0  0  0  0  0  0  0  0  0
  150.5885  138.2251  155.1887 H   0  0  0  0  0  0  0  0  0  0  0  0
  149.2171  138.1722  153.1742 H   0  0  0  0  0  0  0  0  0  0  0  0
  147.8359  137.2506  152.1316 H   0  0  0  0  0  0  0  0  0  0  0  0
  145.1247  138.4608  151.9878 H   0  0  0  0  0  0  0  0  0  0  0  0
  145.9109  137.7746  150.5925 H   0  0  0  0  0  0  0  0  0  0  0  0
  144.7759  136.3540  153.0128 H   0  0  0  0  0  0  0  0  0  0  0  0
  147.0319  135.2894  151.3225 H   0  0  0  0  0  0  0  0  0  0  0  0
  146.8439  135.2098  153.0685 H   0  0  0  0  0  0  0  0  0  0  0  0
  146.0440  133.2280  151.2062 H   0  0  0  0  0  0  0  0  0  0  0  0
  145.4816  133.2967  152.8698 H   0  0  0  0  0  0  0  0  0  0  0  0
  143.7752  133.5958  150.6388 H   0  0  0  0  0  0  0  0  0  0  0  0
  143.4236  134.1100  152.2787 H   0  0  0  0  0  0  0  0  0  0  0  0
  143.2224  136.2058  151.1826 H   0  0  0  0  0  0  0  0  0  0  0  0
  144.4395  136.7029  149.4223 H   0  0  0  0  0  0  0  0  0  0  0  0
  148.2640  141.7200  154.0006 H   0  0  0  0  0  0  0  0  0  0  0  0
  149.4663  142.9399  155.4986 H   0  0  0  0  0  0  0  0  0  0  0  0
  1  2  1  0  0  0  0
  1 21  1  0  0  0  0
  1 22  1  0  0  0  0
  1 23  1  0  0  0  0
  2  3  1  0  0  0  0
  2  4  1  0  0  0  0
  3 24  1  0  0  0  0
  3 25  1  0  0  0  0
  3 26  1  0  0  0  0
  4 20  1  0  0  0  0
  4  5  2  0  0  0  0
  5  6  1  0  0  0  0
  5 27  1  0  0  0  0
  6  7  2  0  0  0  0
  6 28  1  0  0  0  0
  7  8  1  0  0  0  0
  7 19  1  0  0  0  0
  8  9  1  0  0  0  0
  8 29  1  0  0  0  0
  9 10  2  0  0  0  0
  9 11  1  0  0  0  0
 11 12  1  0  0  0  0
 11 30  1  0  0  0  0
 12 13  1  0  0  0  0
 12 31  1  0  0  0  0
 12 32  1  0  0  0  0
 13 17  1  0  0  0  0
 13 14  1  0  0  0  0
 13 33  1  0  0  0  0
 14 15  1  0  0  0  0
 14 34  1  0  0  0  0
 14 35  1  0  0  0  0
 15 16  1  0  0  0  0
 15 36  1  0  0  0  0
 15 37  1  0  0  0  0
 16 17  1  0  0  0  0
 16 38  1  0  0  0  0
 16 39  1  0  0  0  0
 17 18  1  0  0  0  0
 17 40  1  0  0  0  0
 18 41  1  0  0  0  0
 19 20  2  0  0  0  0
 19 42  1  0  0  0  0
 20 43  1  0  0  0  0
M  CHG  1  20   1
M  END
> <s_m_source_file>
AV-unprocessed.smi

> <i_m_source_file_index>
694

> <i_lp_mmshare_version>
43012

> <i_f3d_flags>
0

> <s_epik_input>
W0NIM11OKFtDSDNdKWMxW2NIXVtjSF1jKFtjSF1uMSlbTkhdQyg9TylbTkhdW0NIMl1bQ0BASF0yW0NIMl1bQ0gyXVtDSDJdW0NASF0yW09IXQ==

> <s_epik_cmdline>
J2VwaWtfcHl0aG9uJywgJy1waCcsICc3LjAnLCAnLXRuJywgJzgnLCAnLW1hJywgJzIwMCcsICctbWV0YWxfYmluZGluZycsICctaW1hZScsICc8aW5maWxlLm1hZT4nLCAnLW9tYWUnLCAnPG91dGZpbGUubWFlPic=

> <r_lp_tautomer_probability>
0.999994

> <r_epik_Ionization_Penalty>
0.266135

> <r_epik_Ionization_Penalty_Charging>
0.266113

> <r_epik_Ionization_Penalty_Neutral>
2.14137e-05

> <r_epik_State_Penalty>
0.258052

> <r_epik_Charging_Adjusted_Penalty>
0.524165

> <i_epik_Tot_Q>
1

> <i_epik_Tot_abs_Q>
1

> <r_epik_Metal_State_Penalty>
0.544313

> <b_epik_Metal_Only>
0

> <s_lp_Force_Field>
OPLS_2005

> <r_lp_Energy>
36.5329

> <b_lp_Chiralities_Consistent>
1

> <s_lp_Variant>
AV-unprocessed.smi:694-3

> <Gold.Version>
5.8.1

> <Gold.Id.Protein>
6NUR|6NUR_protein|mol2

> <Gold.PLP.Fitness>
45.6144

> <Gold.PLP.PLP>
-34.4123

> <Gold.PLP.part.hbond>
-5.5233

> <Gold.PLP.part.metal>
0.0000

> <Gold.PLP.part.buried>
2.9957

> <Gold.PLP.part.nonpolar>
-33.0412

> <Gold.PLP.part.repulsive>
0.7826

> <Gold.PLP.ligand.clash>
0.0000

> <Gold.PLP.ligand.torsion>
0.6169

> <Gold.PLP.Chemscore.Hbond>
4.1358

> <Gold.PLP.Chemscore.CHOScore>
0.0000

> <Gold.PLP.Chemscore.Metal>
0.0000

> <Gold.Chemscore.Hbonds>
donor molecule, donor type, donor heavy atom, donor atom, acceptor molecule, acceptor atom, score
      L1  H     8    29       P1  7948  0.21
      L1  H    11    30       P1  7948  0.98
      L1  H    18    41       P1 10171  1.00
      L1  H    20    43       P1  8028  2.00

> <Gold.PLP.Chemscore.Internal.Correction>
0.0283

> <Gold.Rescore>
     Score         DG    S(hbond)    S(metal)    S(lipo)     H(rot)  DE(clash)    DE(int)     intcor
     17.77     -19.74       3.03        0.00      73.67       1.75       0.69       1.28       ----

> <Gold.Chemscore.Fitness>
17.7692

> <Gold.Chemscore.DG>
-19.7401

> <Gold.Chemscore.ZeroCoef>
-5.4800

> <Gold.Chemscore.Hbond>
3.0289

> <Gold.Chemscore.Metal>
0.0000

> <Gold.Chemscore.Lipo>
73.6725

> <Gold.Chemscore.Internal_Hbond>
0.0000

> <Gold.Chemscore.DEClash>
0.6936

> <Gold.Chemscore.DEInternal>
1.2774

> <Gold.Chemscore.Rot>
1.7485

> <Gold.Chemscore.Internal.Correction>
   9.000000E+99

> <Gold.Chemscore.Hbonds>
donor molecule, donor type, donor heavy atom, donor atom, acceptor molecule, acceptor atom, score
      L1  H     8    29       P1  7948  0.21
      L1  H    11    30       P1  7948  0.91
      L1  H    18    41       P1 10171  0.94
      L1  H    20    43       P1  8028  1.00

> <Gold.Chemscore.Hbond.Weighted>
-10.1166

> <Gold.Chemscore.Metal.Weighted>
-0.0000

> <Gold.Chemscore.Lipo.Weighted>
-8.6197

> <Gold.Chemscore.Internal_Hbond.Weighted>
0.0000

> <Gold.Chemscore.DEClash.Weighted>
0.6936

> <Gold.Chemscore.DEInternal.Weighted>
1.2774

> <Gold.Chemscore.Rot.Weighted>
4.4762

> <Gold.Chemscore.Internal.Correction.Weighted>
   9.000000E+99

> <Gold.Protein.RotatedTorsions>
[ 6907 6896 6895 6894 ] final  145.75 input  -60.11 | X-H torsion
[ 7974 7965 7964 7962 ] final   45.13 input  175.53 | X-H torsion
[ 8008 7997 7996 7995 ] final   62.18 input   59.86 | X-H torsion
[ 10167 10162 10161 10158 ] final -127.94 input  -65.29 | X-H torsion
[ 10718 10713 10712 10709 ] final -170.55 input   66.30 | X-H torsion
[ 10763 10752 10751 10750 ] final   73.11 input  -60.55 | X-H torsion
[ 11005 11000 10999 10996 ] final -121.65 input  -57.11 | X-H torsion

> <Gold.Protein.ActiveResidues>
 VAL166  LYS551  ARG553  GLY616  TRP617  ASP618  TYR619  PRO620  LYS621  CYS622 
 ASP623  PHE694  ASN695  SER759  ASP760  ASP761  ALA762  ILE779  LEU786  VAL792 
 PHE793  MET794  SER795  GLU796  ALA797  LYS798  CYS799  TRP800  GLU811  SER814 

> <Gold.Protein.RotatedAtoms>
  152.1768  133.4680  159.4937 H   0  0  0  0  0  0  0  0  0  0  0  0  # atno 6907 bound_to 6896
  150.6928  134.1884  159.4284 H   0  0  0  0  0  0  0  0  0  0  0  0  # atno 6908 bound_to 6896
  151.9793  135.0036  160.0607 H   0  0  0  0  0  0  0  0  0  0  0  0  # atno 6909 bound_to 6896
  146.0507  139.4998  142.9720 H   0  0  0  0  0  0  0  0  0  0  0  0  # atno 7974 bound_to 7965
  155.6102  140.3495  155.4620 H   0  0  0  0  0  0  0  0  0  0  0  0  # atno 8008 bound_to 7997
  156.0160  140.1243  157.0430 H   0  0  0  0  0  0  0  0  0  0  0  0  # atno 8009 bound_to 7997
  154.4297  140.1072  156.5882 H   0  0  0  0  0  0  0  0  0  0  0  0  # atno 8010 bound_to 7997
  139.9556  143.6007  152.2462 H   0  0  0  0  0  0  0  0  0  0  0  0  # atno 10167 bound_to 10162
  156.7278  130.9294  151.3102 H   0  0  0  0  0  0  0  0  0  0  0  0  # atno 10718 bound_to 10713
  153.0501  135.5075  154.7845 H   0  0  0  0  0  0  0  0  0  0  0  0  # atno 10763 bound_to 10752
  154.6714  135.2953  154.9739 H   0  0  0  0  0  0  0  0  0  0  0  0  # atno 10764 bound_to 10752
  154.0556  135.6698  153.4858 H   0  0  0  0  0  0  0  0  0  0  0  0  # atno 10765 bound_to 10752
  141.0054  134.0342  157.3483 H   0  0  0  0  0  0  0  0  0  0  0  0  # atno 11005 bound_to 11000
  145.6729  141.0211  143.1648 LP  0  0  0  0  0  0  0  0  0  0  0  0  # atno 17320 bound_to 7965
  144.7121  139.8332  143.7411 LP  0  0  0  0  0  0  0  0  0  0  0  0  # atno 17321 bound_to 7965
  139.6594  144.7662  151.1992 LP  0  0  0  0  0  0  0  0  0  0  0  0  # atno 17342 bound_to 10162
  140.7569  143.6034  150.8677 LP  0  0  0  0  0  0  0  0  0  0  0  0  # atno 17343 bound_to 10162
  157.6871  130.9197  150.0416 LP  0  0  0  0  0  0  0  0  0  0  0  0  # atno 17370 bound_to 10713
  156.1550  130.3643  149.9382 LP  0  0  0  0  0  0  0  0  0  0  0  0  # atno 17371 bound_to 10713
  139.9061  135.0179  156.7490 LP  0  0  0  0  0  0  0  0  0  0  0  0  # atno 17394 bound_to 11000
  140.6821  133.9465  155.7916 LP  0  0  0  0  0  0  0  0  0  0  0  0  # atno 17395 bound_to 11000

$$$$
