#       Name:                AV-unprocessed.smi:287
#       Creating user name   scv26
#       Creation time:       Thu Mar 26 22:03:41 2020


#       File generated by GOLD software.
#

@<TRIPOS>MOLECULE
AV-unprocessed.smi:287
    70    73     1
SMALL
NO_CHARGES


@<TRIPOS>ATOM
      1 ****        -0.7640   4.4151   3.6431 C.3            1 S1                 0.0000
      2 ****        -1.0411   4.4198   2.1790 C.2            1 S1                 0.0000
      3 ****        -1.4893   3.4775   1.3000 C.2            1 S1                 0.0000
      4 ****        -1.5381   4.0863   0.0100 C.2            1 S1                 0.0000
      5 ****        -1.9798   3.4197  -1.2858 C.3            1 S1                 0.0000
      6 ****        -3.5145   3.4287  -1.3748 C.3            1 S1                 0.0000
      7 ****        -1.5291   4.1099  -2.4356 O.3            1 S1                 0.0000
      8 ****        -1.4490   1.9739  -1.4208 C.3            1 S1                 0.0000
      9 ****        -0.0334   1.8576  -1.0927 N.pl3          1 S1                 0.0000
     10 ****         0.5052   0.6567  -0.7961 C.ar           1 S1                 0.0000
     11 ****         1.7179   0.6928  -0.1946 N.ar           1 S1                 0.0000
     12 ****         2.3280  -0.4428   0.1535 C.ar           1 S1                 0.0000
     13 ****         1.9062  -1.6980  -0.0054 N.ar           1 S1                 0.0000
     14 ****         0.6888  -1.7462  -0.6199 C.ar           1 S1                 0.0000
     15 ****        -0.0743  -0.6220  -1.0498 C.ar           1 S1                 0.0000
     16 ****        -1.2518  -1.0664  -1.6418 N.2            1 S1                 0.0000
     17 ****        -1.1879  -2.3668  -1.5547 C.2            1 S1                 0.0000
     18 ****        -0.0574  -2.8609  -0.9463 N.pl3          1 S1                 0.0000
     19 ****         0.2838  -4.2937  -0.6918 C.3            1 S1                 0.0000
     20 ****         1.6233  -4.4914  -1.0274 O.3            1 S1                 0.0000
     21 ****         2.2506  -5.3013  -0.0393 C.3            1 S1                 0.0000
     22 ****         3.7657  -5.0449  -0.0433 C.3            1 S1                 0.0000
     23 ****         4.3895  -5.8341  -1.0335 O.3            1 S1                 0.0000
     24 ****         1.5552  -4.8478   1.2457 C.3            1 S1                 0.0000
     25 ****         1.6820  -5.7758   2.3078 O.3            1 S1                 0.0000
     26 ****         0.1114  -4.6381   0.7964 C.3            1 S1                 0.0000
     27 ****        -0.6734  -5.8064   0.9523 O.3            1 S1                 0.0000
     28 ****        -1.1281   5.3811   0.2187 C.2            1 S1                 0.0000
     29 ****        -0.9630   6.5705  -0.6688 C.3            1 S1                 0.0000
     30 ****        -0.8178   5.5894   1.5289 O.3            1 S1                 0.0000
     31 ****        -0.3722  -4.8599  -1.3549 H              1 S1                 0.0000
     32 ****         2.0212  -6.3516  -0.2314 H              1 S1                 0.0000
     33 ****         1.9718  -3.8942   1.5705 H              1 S1                 0.0000
     34 ****        -0.3641  -3.8214   1.3418 H              1 S1                 0.0000
     35 ****        -1.0450   3.4611   4.0894 H              1 S1                 0.0000
     36 ****        -1.3258   5.2024   4.1460 H              1 S1                 0.0000
     37 ****         0.2964   4.5786   3.8357 H              1 S1                 0.0000
     38 ****        -1.7458   2.4591   1.5523 H              1 S1                 0.0000
     39 ****        -3.9605   2.8854  -0.5409 H              1 S1                 0.0000
     40 ****        -3.8660   2.9605  -2.2952 H              1 S1                 0.0000
     41 ****        -3.9074   4.4460  -1.3502 H              1 S1                 0.0000
     42 ****        -1.8351   3.6485  -3.2015 H              1 S1                 0.0000
     43 ****        -2.0029   1.3428  -0.7246 H              1 S1                 0.0000
     44 ****        -1.6362   1.5814  -2.4211 H              1 S1                 0.0000
     45 ****         0.4389   2.7311  -0.9077 H              1 S1                 0.0000
     46 ****         3.2902  -0.3295   0.6305 H              1 S1                 0.0000
     47 ****        -1.9744  -3.0061  -1.9287 H              1 S1                 0.0000
     48 ****         3.9893  -3.9890  -0.2001 H              1 S1                 0.0000
     49 ****         4.1975  -5.3276   0.9170 H              1 S1                 0.0000
     50 ****         5.3186  -5.6623  -1.0141 H              1 S1                 0.0000
     51 ****         2.5991  -5.8724   2.5136 H              1 S1                 0.0000
     52 ****        -0.6437  -6.0629   1.8618 H              1 S1                 0.0000
     53 ****        -1.8616   6.7367  -1.2630 H              1 S1                 0.0000
     54 ****        -0.1257   6.4285  -1.3520 H              1 S1                 0.0000
     55 ****        -0.7741   7.4737  -0.0880 H              1 S1                 0.0000
     56 ****        -0.5296   4.1433  -2.4388 LP             1 S1                 0.0000
     57 ****        -1.8937   5.0410  -2.4346 LP             1 S1                 0.0000
     58 ****         2.1576   1.5719  -0.0106 LP             1 S1                 0.0000
     59 ****         2.4189  -2.5044   0.2895 LP             1 S1                 0.0000
     60 ****        -1.9823  -0.5141  -2.0434 LP             1 S1                 0.0000
     61 ****         2.0878  -3.6072  -1.0764 LP             1 S1                 0.0000
     62 ****         1.6797  -4.9472  -1.9157 LP             1 S1                 0.0000
     63 ****         4.0220  -5.5987  -1.9332 LP             1 S1                 0.0000
     64 ****         4.2219  -6.8023  -0.8479 LP             1 S1                 0.0000
     65 ****         1.3036  -6.6591   2.0310 LP             1 S1                 0.0000
     66 ****         1.1898  -5.4391   3.1106 LP             1 S1                 0.0000
     67 ****        -0.3052  -6.5403   0.3814 LP             1 S1                 0.0000
     68 ****        -1.6182  -5.6178   0.6844 LP             1 S1                 0.0000
     69 ****         0.1427   5.8534   1.6168 LP             1 S1                 0.0000
     70 ****        -1.3977   6.3100   1.9091 LP             1 S1                 0.0000
@<TRIPOS>BOND
    1    1    2 1     
    2    1   35 1     
    3    1   36 1     
    4    1   37 1     
    5    2   30 1     
    6    2    3 2     
    7    3    4 1     
    8    3   38 1     
    9    4    5 1     
   10    4   28 2     
   11    5    6 1     
   12    5    7 1     
   13    5    8 1     
   14    6   39 1     
   15    6   40 1     
   16    6   41 1     
   17    7   42 1     
   18    8    9 1     
   19    8   43 1     
   20    8   44 1     
   21    9   10 1     
   22    9   45 1     
   23   10   15 ar    
   24   10   11 ar    
   25   11   12 ar    
   26   12   13 ar    
   27   12   46 1     
   28   13   14 ar    
   29   14   18 1     
   30   14   15 ar    
   31   15   16 1     
   32   16   17 2     
   33   17   18 1     
   34   17   47 1     
   35   18   19 1     
   36   19   31 1     
   37   19   26 1     
   38   19   20 1     
   39   20   21 1     
   40   21   32 1     
   41   21   22 1     
   42   21   24 1     
   43   22   23 1     
   44   22   48 1     
   45   22   49 1     
   46   23   50 1     
   47   24   33 1     
   48   24   25 1     
   49   24   26 1     
   50   25   51 1     
   51   26   34 1     
   52   26   27 1     
   53   27   52 1     
   54   28   29 1     
   55   28   30 1     
   56   29   53 1     
   57   29   54 1     
   58   29   55 1     
   59    7   56 1     
   60    7   57 1     
   61   11   58 1     
   62   13   59 1     
   63   16   60 1     
   64   20   61 1     
   65   20   62 1     
   66   23   63 1     
   67   23   64 1     
   68   25   65 1     
   69   25   66 1     
   70   27   67 1     
   71   27   68 1     
   72   30   69 1     
   73   30   70 1     
@<TRIPOS>SUBSTRUCTURE
      1 S1             1
@<TRIPOS>SET
LONE_PAIRS      STATIC     ATOMS    <user>   **** ""
15 56 57 58 59 60 61 62 63 64 65 66 67 68 69 70
DONOR_HYDROGENS      STATIC     ATOMS    <user>   **** ""
5 42 45 50 51 52
ATOM$BLUE        STATIC     ATOMS    COLORGROUP SYSTEM
15 56 57 58 59 60 61 62 63 64 65 66 67 68 69 70
ATOM$RED        STATIC     ATOMS    COLORGROUP SYSTEM
5 42 45 50 51 52
