AV-unprocessed.smi:1268|AV-procd|sdf|5326|dock5
  -GOLD-   22720 4453D 1   1.00000     0.00000
 Structure written by MMmdl.
 39 40  0  0  0  0  0  0  0  0  3 V2000
  149.5295  135.8724  158.5798 O   0  0  0  0  0  0  0  0  0  0  0  0
  148.9970  136.9801  158.6859 C   0  0  0  0  0  0  0  0  0  0  0  0
  149.0917  137.8650  157.6831 N   0  0  0  0  0  0  0  0  0  0  0  0
  149.7831  137.6459  156.4166 C   0  0  0  0  0  0  0  0  0  0  0  0
  148.8666  136.9778  155.3709 C   0  0  1  0  0  0  0  0  0  0  0  0
  149.0071  137.6775  154.1500 O   0  0  0  0  0  0  0  0  0  0  0  0
  149.2711  135.5122  155.1184 C   0  0  0  0  0  0  0  0  0  0  0  0
  148.4918  134.8905  154.0173 N   0  3  0  0  0  0  0  0  0  0  0  0
  147.0199  135.0295  154.1875 C   0  0  0  0  0  0  0  0  0  0  0  0
  146.2669  134.4922  152.9588 C   0  0  0  0  0  0  0  0  0  0  0  0
  146.6459  133.0327  152.6763 C   0  0  0  0  0  0  0  0  0  0  0  0
  148.1687  132.9043  152.5413 C   0  0  0  0  0  0  0  0  0  0  0  0
  148.8832  133.4773  153.7769 C   0  0  0  0  0  0  0  0  0  0  0  0
  148.2851  137.4303  159.7429 N   0  5  0  0  0  0  0  0  0  0  0  0
  147.8902  136.5751  160.7003 C   0  0  0  0  0  0  0  0  0  0  0  0
  147.7408  136.9322  161.9809 N   0  0  0  0  0  0  0  0  0  0  0  0
  147.3168  135.8867  162.8032 C   0  0  0  0  0  0  0  0  0  0  0  0
  147.1323  134.7075  162.1314 C   0  0  0  0  0  0  0  0  0  0  0  0
  147.4863  134.8765  160.4357 S   0  0  0  0  0  0  0  0  0  0  0  0
  148.6468  138.7619  157.8136 H   0  0  0  0  0  0  0  0  0  0  0  0
  150.1761  138.5941  156.0476 H   0  0  0  0  0  0  0  0  0  0  0  0
  150.6540  137.0176  156.6115 H   0  0  0  0  0  0  0  0  0  0  0  0
  147.8276  137.0318  155.6939 H   0  0  0  0  0  0  0  0  0  0  0  0
  149.0330  137.0448  153.4474 H   0  0  0  0  0  0  0  0  0  0  0  0
  150.3373  135.4824  154.8867 H   0  0  0  0  0  0  0  0  0  0  0  0
  149.1424  134.9166  156.0236 H   0  0  0  0  0  0  0  0  0  0  0  0
  146.7043  134.4924  155.0832 H   0  0  0  0  0  0  0  0  0  0  0  0
  146.7487  136.0739  154.3373 H   0  0  0  0  0  0  0  0  0  0  0  0
  145.1909  134.5740  153.1152 H   0  0  0  0  0  0  0  0  0  0  0  0
  146.5007  135.1075  152.0887 H   0  0  0  0  0  0  0  0  0  0  0  0
  146.2918  132.3952  153.4876 H   0  0  0  0  0  0  0  0  0  0  0  0
  146.1553  132.6843  151.7670 H   0  0  0  0  0  0  0  0  0  0  0  0
  148.4431  131.8580  152.4029 H   0  0  0  0  0  0  0  0  0  0  0  0
  148.5031  133.4326  151.6472 H   0  0  0  0  0  0  0  0  0  0  0  0
  149.9614  133.4144  153.6243 H   0  0  0  0  0  0  0  0  0  0  0  0
  148.6514  132.8790  154.6594 H   0  0  0  0  0  0  0  0  0  0  0  0
  147.1699  136.0721  163.8568 H   0  0  0  0  0  0  0  0  0  0  0  0
  146.8107  133.7560  162.5266 H   0  0  0  0  0  0  0  0  0  0  0  0
  148.7423  135.3979  153.1802 H   0  0  0  0  0  0  0  0  0  0  0  0
  1  2  2  0  0  0  0
  2  3  1  0  0  0  0
  2 14  1  0  0  0  0
  3  4  1  0  0  0  0
  3 20  1  0  0  0  0
  4  5  1  0  0  0  0
  4 21  1  0  0  0  0
  4 22  1  0  0  0  0
  5  6  1  0  0  0  0
  5  7  1  0  0  0  0
  5 23  1  0  0  0  0
  6 24  1  0  0  0  0
  7  8  1  0  0  0  0
  7 25  1  0  0  0  0
  7 26  1  0  0  0  0
  8 13  1  0  0  0  0
  8  9  1  0  0  0  0
  8 39  1  0  0  0  0
  9 10  1  0  0  0  0
  9 27  1  0  0  0  0
  9 28  1  0  0  0  0
 10 11  1  0  0  0  0
 10 29  1  0  0  0  0
 10 30  1  0  0  0  0
 11 12  1  0  0  0  0
 11 31  1  0  0  0  0
 11 32  1  0  0  0  0
 12 13  1  0  0  0  0
 12 33  1  0  0  0  0
 12 34  1  0  0  0  0
 13 35  1  0  0  0  0
 13 36  1  0  0  0  0
 14 15  1  0  0  0  0
 15 19  1  0  0  0  0
 15 16  2  0  0  0  0
 16 17  1  0  0  0  0
 17 18  2  0  0  0  0
 17 37  1  0  0  0  0
 18 19  1  0  0  0  0
 18 38  1  0  0  0  0
M  CHG  1   8   1
M  CHG  1  14  -1
M  END
> <s_m_source_file>
AV-unprocessed.smi

> <i_m_source_file_index>
1268

> <i_lp_mmshare_version>
43012

> <i_f3d_flags>
0

> <s_epik_input>
czFbY0hdW2NIXW5jMVtOSF1DKD1PKVtOSF1bQ0gyXVtDQEhdKFtPSF0pW0NIMl1OMltDSDJdW0NIMl1bQ0gyXVtDSDJdW0NIMl0y

> <s_epik_cmdline>
J2VwaWtfcHl0aG9uJywgJy1waCcsICc3LjAnLCAnLXRuJywgJzgnLCAnLW1hJywgJzIwMCcsICctbWV0YWxfYmluZGluZycsICctaW1hZScsICc8aW5maWxlLm1hZT4nLCAnLW9tYWUnLCAnPG91dGZpbGUubWFlPic=

> <r_lp_tautomer_probability>
0.999

> <r_epik_Ionization_Penalty>
6.36291

> <r_epik_Ionization_Penalty_Charging>
5.4816

> <r_epik_Ionization_Penalty_Neutral>
0.881305

> <r_epik_State_Penalty>
5.4805

> <r_epik_Charging_Adjusted_Penalty>
10.9621

> <i_epik_Tot_Q>
0

> <i_epik_Tot_abs_Q>
2

> <r_epik_Metal_State_Penalty>
1.48871

> <b_epik_Metal_Only>
1

> <s_lp_Force_Field>
OPLS_2005

> <r_lp_Energy>
8.43067

> <b_lp_Chiralities_Consistent>
1

> <s_lp_Variant>
AV-unprocessed.smi:1268-4

> <Gold.Version>
5.8.1

> <Gold.Id.Protein>
6NUR|6NUR_protein|mol2

> <Gold.PLP.Fitness>
45.4599

> <Gold.PLP.PLP>
-32.7923

> <Gold.PLP.part.hbond>
-6.5454

> <Gold.PLP.part.metal>
0.0000

> <Gold.PLP.part.buried>
-2.3021

> <Gold.PLP.part.nonpolar>
-23.9785

> <Gold.PLP.part.repulsive>
0.0673

> <Gold.PLP.ligand.clash>
0.0000

> <Gold.PLP.ligand.torsion>
1.1215

> <Gold.PLP.Chemscore.Hbond>
4.9394

> <Gold.PLP.Chemscore.CHOScore>
0.0000

> <Gold.PLP.Chemscore.Metal>
0.0000

> <Gold.Chemscore.Hbonds>
donor molecule, donor type, donor heavy atom, donor atom, acceptor molecule, acceptor atom, score
      L1  H     6    24       P1  7948  1.00
      L1  H     8    39       P1  7948  2.00
      P1  H  6896  6907       L1     1  1.00
      P1  H  6931  6943       L1    16  0.75
      P1  H  6934  6947       L1    14  0.16

> <Gold.PLP.Chemscore.Internal.Correction>
0.0924

> <Gold.Rescore>
     Score         DG    S(hbond)    S(metal)    S(lipo)     H(rot)  DE(clash)    DE(int)     intcor
     14.46     -16.79       3.38        0.00      54.64       2.48       0.02       2.31       ----

> <Gold.Chemscore.Fitness>
14.4637

> <Gold.Chemscore.DG>
-16.7922

> <Gold.Chemscore.ZeroCoef>
-5.4800

> <Gold.Chemscore.Hbond>
3.3763

> <Gold.Chemscore.Metal>
0.0000

> <Gold.Chemscore.Lipo>
54.6405

> <Gold.Chemscore.Internal_Hbond>
0.0000

> <Gold.Chemscore.DEClash>
0.0174

> <Gold.Chemscore.DEInternal>
2.3111

> <Gold.Chemscore.Rot>
2.4834

> <Gold.Chemscore.Internal.Correction>
   9.000000E+99

> <Gold.Chemscore.Hbonds>
donor molecule, donor type, donor heavy atom, donor atom, acceptor molecule, acceptor atom, score
      L1  H     6    24       P1  7948  1.00
      L1  H     8    39       P1  7948  0.78
      P1  H  6896  6907       L1     1  0.98
      P1  H  6931  6943       L1    16  0.09

> <Gold.Chemscore.Hbond.Weighted>
-11.2767

> <Gold.Chemscore.Metal.Weighted>
-0.0000

> <Gold.Chemscore.Lipo.Weighted>
-6.3929

> <Gold.Chemscore.Internal_Hbond.Weighted>
0.0000

> <Gold.Chemscore.DEClash.Weighted>
0.0174

> <Gold.Chemscore.DEInternal.Weighted>
2.3111

> <Gold.Chemscore.Rot.Weighted>
6.3575

> <Gold.Chemscore.Internal.Correction.Weighted>
   9.000000E+99

> <Gold.Protein.RotatedTorsions>
[ 6907 6896 6895 6894 ] final  -52.03 input  -60.11 | X-H torsion
[ 7974 7965 7964 7962 ] final   79.97 input  175.53 | X-H torsion
[ 8008 7997 7996 7995 ] final   36.61 input   59.86 | X-H torsion
[ 10167 10162 10161 10158 ] final -174.24 input  -65.29 | X-H torsion
[ 10718 10713 10712 10709 ] final -143.07 input   66.30 | X-H torsion
[ 10763 10752 10751 10750 ] final  -13.45 input  -60.55 | X-H torsion
[ 11005 11000 10999 10996 ] final -148.39 input  -57.11 | X-H torsion

> <Gold.Protein.ActiveResidues>
 VAL166  LYS551  ARG553  GLY616  TRP617  ASP618  TYR619  PRO620  LYS621  CYS622 
 ASP623  PHE694  ASN695  SER759  ASP760  ASP761  ALA762  ILE779  LEU786  VAL792 
 PHE793  MET794  SER795  GLU796  ALA797  LYS798  CYS799  TRP800  GLU811  SER814 

> <Gold.Protein.RotatedAtoms>
  150.8556  134.7894  159.7042 H   0  0  0  0  0  0  0  0  0  0  0  0  # atno 6907 bound_to 6896
  152.4608  134.5184  159.9785 H   0  0  0  0  0  0  0  0  0  0  0  0  # atno 6908 bound_to 6896
  151.5297  133.3413  159.2951 H   0  0  0  0  0  0  0  0  0  0  0  0  # atno 6909 bound_to 6896
  145.6573  139.2462  143.1942 H   0  0  0  0  0  0  0  0  0  0  0  0  # atno 7974 bound_to 7965
  155.1902  140.3307  155.4360 H   0  0  0  0  0  0  0  0  0  0  0  0  # atno 8008 bound_to 7997
  156.2445  140.1911  156.6945 H   0  0  0  0  0  0  0  0  0  0  0  0  # atno 8009 bound_to 7997
  154.6211  140.0595  156.9602 H   0  0  0  0  0  0  0  0  0  0  0  0  # atno 8010 bound_to 7997
  139.5644  144.1790  152.1290 H   0  0  0  0  0  0  0  0  0  0  0  0  # atno 10167 bound_to 10162
  156.3535  130.7700  151.1857 H   0  0  0  0  0  0  0  0  0  0  0  0  # atno 10718 bound_to 10713
  153.5135  135.7016  153.5768 H   0  0  0  0  0  0  0  0  0  0  0  0  # atno 10763 bound_to 10752
  153.3848  135.3911  155.1882 H   0  0  0  0  0  0  0  0  0  0  0  0  # atno 10764 bound_to 10752
  154.8701  135.3844  154.4617 H   0  0  0  0  0  0  0  0  0  0  0  0  # atno 10765 bound_to 10752
  140.7618  134.3290  157.5099 H   0  0  0  0  0  0  0  0  0  0  0  0  # atno 11005 bound_to 11000
  146.1154  140.7376  142.9483 LP  0  0  0  0  0  0  0  0  0  0  0  0  # atno 17320 bound_to 7965
  144.7101  140.4007  143.7087 LP  0  0  0  0  0  0  0  0  0  0  0  0  # atno 17321 bound_to 7965
  140.1310  144.5288  150.6802 LP  0  0  0  0  0  0  0  0  0  0  0  0  # atno 17342 bound_to 10162
  140.6927  143.2385  151.5087 LP  0  0  0  0  0  0  0  0  0  0  0  0  # atno 17343 bound_to 10162
  157.7464  131.0421  150.4677 LP  0  0  0  0  0  0  0  0  0  0  0  0  # atno 17370 bound_to 10713
  156.4876  130.4088  149.6425 LP  0  0  0  0  0  0  0  0  0  0  0  0  # atno 17371 bound_to 10713
  139.8769  134.9206  156.3256 LP  0  0  0  0  0  0  0  0  0  0  0  0  # atno 17394 bound_to 11000
  140.9656  133.7360  156.0462 LP  0  0  0  0  0  0  0  0  0  0  0  0  # atno 17395 bound_to 11000

$$$$
