#       Name:                AV-unprocessed.smi:3333
#       Creating user name   scv26
#       Creation time:       Fri Mar 27 19:21:29 2020


#       File generated by GOLD software.
#

@<TRIPOS>MOLECULE
AV-unprocessed.smi:3333
    44    46     1
SMALL
NO_CHARGES


@<TRIPOS>ATOM
      1 ****        -3.2190   1.1059   1.1931 C.3            1 S1                 0.0000
      2 ****        -3.0119   0.4793   2.5760 C.3            1 S1                 0.0000
      3 ****        -2.1794  -0.7579   2.5255 C.2            1 S1                 0.0000
      4 ****        -0.8468  -0.7541   2.6140 N.2            1 S1                 0.0000
      5 ****        -0.2941  -2.0349   2.4980 C.2            1 S1                 0.0000
      6 ****         1.1939  -2.2221   2.5665 C.3            1 S1                 0.0000
      7 ****         1.8061  -2.0087   1.1820 C.2            1 S1                 0.0000
      8 ****         2.0521  -2.9746   0.4597 O.2            1 S1                 0.0000
      9 ****         2.0279  -0.7359   0.8196 N.am           1 S1                 0.0000
     10 ****         2.5027  -0.3037  -0.4890 C.3            1 S1                 0.0000
     11 ****         1.3645  -0.2910  -1.5315 C.3            1 S1                 0.0000
     12 ****         1.7520   0.3215  -2.8938 C.3            1 S1                 0.0000
     13 ****         0.6136   1.3274  -3.1521 C.3            1 S1                 0.0000
     14 ****         0.7976   2.5441  -2.2266 C.3            1 S1                 0.0000
     15 ****         0.4097   1.9810  -0.8472 C.3            1 S1                 0.0000
     16 ****         0.0893   0.5041  -1.1579 C.3            1 S1                 0.0000
     17 ****        -0.5862   0.6296  -2.5196 C.3            1 S1                 0.0000
     18 ****        -1.2385  -3.0154   2.3190 C.2            1 S1                 0.0000
     19 ****        -2.8530  -2.3637   2.2730 S.3            1 S1                 0.0000
     20 ****        -3.8351   2.0025   1.2609 H              1 S1                 0.0000
     21 ****        -3.7146   0.4102   0.5151 H              1 S1                 0.0000
     22 ****        -2.2674   1.3899   0.7453 H              1 S1                 0.0000
     23 ****        -2.5357   1.1992   3.2429 H              1 S1                 0.0000
     24 ****        -3.9763   0.2322   3.0205 H              1 S1                 0.0000
     25 ****         1.6433  -1.5273   3.2773 H              1 S1                 0.0000
     26 ****         1.4402  -3.2249   2.9176 H              1 S1                 0.0000
     27 ****         1.7927  -0.0096   1.4808 H              1 S1                 0.0000
     28 ****         2.9411   0.6880  -0.3815 H              1 S1                 0.0000
     29 ****         3.3126  -0.9526  -0.8258 H              1 S1                 0.0000
     30 ****         1.0656  -1.3264  -1.7046 H              1 S1                 0.0000
     31 ****         2.7288   0.8071  -2.8808 H              1 S1                 0.0000
     32 ****         1.7764  -0.4485  -3.6660 H              1 S1                 0.0000
     33 ****         0.4936   1.5921  -4.2030 H              1 S1                 0.0000
     34 ****         1.8177   2.9294  -2.2470 H              1 S1                 0.0000
     35 ****         0.1270   3.3560  -2.5114 H              1 S1                 0.0000
     36 ****         1.1942   2.1065  -0.1021 H              1 S1                 0.0000
     37 ****        -0.4766   2.4927  -0.4704 H              1 S1                 0.0000
     38 ****        -0.5188   0.0174  -0.3945 H              1 S1                 0.0000
     39 ****        -1.4870   1.2459  -2.5025 H              1 S1                 0.0000
     40 ****        -0.8199  -0.3319  -2.9801 H              1 S1                 0.0000
     41 ****        -1.0806  -4.0773   2.2012 H              1 S1                 0.0000
     42 ****        -0.3028   0.0741   2.7486 LP             1 S1                 0.0000
     43 ****         1.8515  -3.9011   0.7782 LP             1 S1                 0.0000
     44 ****         2.4525  -2.8329  -0.4456 LP             1 S1                 0.0000
@<TRIPOS>BOND
    1    1    2 1     
    2    1   20 1     
    3    1   21 1     
    4    1   22 1     
    5    2    3 1     
    6    2   23 1     
    7    2   24 1     
    8    3   19 1     
    9    3    4 2     
   10    4    5 1     
   11    5    6 1     
   12    5   18 2     
   13    6    7 1     
   14    6   25 1     
   15    6   26 1     
   16    7    8 2     
   17    7    9 am    
   18    9   10 1     
   19    9   27 1     
   20   10   11 1     
   21   10   28 1     
   22   10   29 1     
   23   11   16 1     
   24   11   12 1     
   25   11   30 1     
   26   12   13 1     
   27   12   31 1     
   28   12   32 1     
   29   13   17 1     
   30   13   14 1     
   31   13   33 1     
   32   14   15 1     
   33   14   34 1     
   34   14   35 1     
   35   15   16 1     
   36   15   36 1     
   37   15   37 1     
   38   16   17 1     
   39   16   38 1     
   40   17   39 1     
   41   17   40 1     
   42   18   19 1     
   43   18   41 1     
   44    4   42 1     
   45    8   43 1     
   46    8   44 1     
@<TRIPOS>SUBSTRUCTURE
      1 S1             1
@<TRIPOS>SET
LONE_PAIRS      STATIC     ATOMS    <user>   **** ""
3 42 43 44
DONOR_HYDROGENS      STATIC     ATOMS    <user>   **** ""
1 27
ATOM$BLUE        STATIC     ATOMS    COLORGROUP SYSTEM
3 42 43 44
ATOM$RED        STATIC     ATOMS    COLORGROUP SYSTEM
1 27
