AV-unprocessed.smi:837|AV-procd|sdf|3896|dock3
  -GOLD-   22720 1353D 1   1.00000     0.00000
 Structure written by MMmdl.
 50 52  0  0  0  0  0  0  0  0  2 V2000
  149.5801  138.7248  157.2767 C   0  0  0  0  0  0  0  0  0  0  0  0
  150.5127  139.9500  157.1615 C   0  0  2  0  0  0  0  0  0  0  0  0
  150.9232  140.4409  158.5670 C   0  0  0  0  0  0  0  0  0  0  0  0
  151.9106  141.6167  158.4998 C   0  0  0  0  0  0  0  0  0  0  0  0
  151.3404  142.7790  157.6749 C   0  0  0  0  0  0  0  0  0  0  0  0
  150.9412  142.3085  156.2669 C   0  0  0  0  0  0  0  0  0  0  0  0
  149.9409  141.1285  156.3134 C   0  0  2  0  0  0  0  0  0  0  0  0
  148.6409  141.5703  156.7906 N   0  0  0  0  0  0  0  0  0  0  0  0
  147.6788  141.4513  155.8677 C   0  0  0  0  0  0  0  0  0  0  0  0
  146.4973  141.7530  156.0325 O   0  0  0  0  0  0  0  0  0  0  0  0
  148.2246  140.9385  154.7498 N   0  0  0  0  0  0  0  0  0  0  0  0
  147.4641  140.6160  153.5357 C   0  0  0  0  0  0  0  0  0  0  0  0
  146.9447  139.1718  153.5254 C   0  0  0  0  0  0  0  0  0  0  0  0
  147.2385  138.3881  154.4290 O   0  0  0  0  0  0  0  0  0  0  0  0
  146.1630  138.8361  152.4884 N   0  0  0  0  0  0  0  0  0  0  0  0
  145.5252  137.5363  152.2995 C   0  0  0  0  0  0  0  0  0  0  0  0
  145.9933  136.8116  151.0200 C   0  0  0  0  0  0  0  0  0  0  0  0
  145.3247  135.4644  150.8035 C   0  0  0  0  0  0  0  0  0  0  0  0
  146.0771  134.2705  150.8595 C   0  0  0  0  0  0  0  0  0  0  0  0
  145.4324  133.0360  150.6364 C   0  0  0  0  0  0  0  0  0  0  0  0
  144.0492  133.0230  150.3628 C   0  0  0  0  0  0  0  0  0  0  0  0
  143.3616  134.1854  150.3200 N   0  3  0  0  0  0  0  0  0  0  0  0
  143.9416  135.3871  150.5303 C   0  0  0  0  0  0  0  0  0  0  0  0
  149.5363  140.7106  154.9050 C   0  0  0  0  0  0  0  0  0  0  0  0
  150.3122  140.2341  154.0763 O   0  0  0  0  0  0  0  0  0  0  0  0
  148.6382  138.9784  157.7633 H   0  0  0  0  0  0  0  0  0  0  0  0
  150.0487  137.9351  157.8643 H   0  0  0  0  0  0  0  0  0  0  0  0
  149.3476  138.2973  156.3014 H   0  0  0  0  0  0  0  0  0  0  0  0
  151.4228  139.6044  156.6680 H   0  0  0  0  0  0  0  0  0  0  0  0
  150.0380  140.7409  159.1293 H   0  0  0  0  0  0  0  0  0  0  0  0
  151.3775  139.6234  159.1280 H   0  0  0  0  0  0  0  0  0  0  0  0
  152.1503  141.9584  159.5071 H   0  0  0  0  0  0  0  0  0  0  0  0
  152.8488  141.2806  158.0565 H   0  0  0  0  0  0  0  0  0  0  0  0
  150.4749  143.2031  158.1852 H   0  0  0  0  0  0  0  0  0  0  0  0
  152.0775  143.5792  157.6033 H   0  0  0  0  0  0  0  0  0  0  0  0
  150.5226  143.1469  155.7077 H   0  0  0  0  0  0  0  0  0  0  0  0
  151.8412  142.0062  155.7289 H   0  0  0  0  0  0  0  0  0  0  0  0
  148.4954  141.9256  157.7243 H   0  0  0  0  0  0  0  0  0  0  0  0
  146.6246  141.3074  153.4423 H   0  0  0  0  0  0  0  0  0  0  0  0
  148.0758  140.7690  152.6450 H   0  0  0  0  0  0  0  0  0  0  0  0
  145.9831  139.5385  151.7854 H   0  0  0  0  0  0  0  0  0  0  0  0
  145.7757  136.9284  153.1691 H   0  0  0  0  0  0  0  0  0  0  0  0
  144.4395  137.6439  152.3018 H   0  0  0  0  0  0  0  0  0  0  0  0
  145.8063  137.4433  150.1509 H   0  0  0  0  0  0  0  0  0  0  0  0
  147.0737  136.6664  151.0549 H   0  0  0  0  0  0  0  0  0  0  0  0
  147.1372  134.3002  151.0657 H   0  0  0  0  0  0  0  0  0  0  0  0
  145.9919  132.1125  150.6723 H   0  0  0  0  0  0  0  0  0  0  0  0
  143.4768  132.1258  150.1771 H   0  0  0  0  0  0  0  0  0  0  0  0
  143.2879  136.2448  150.4616 H   0  0  0  0  0  0  0  0  0  0  0  0
  142.3619  134.1554  150.1170 H   0  0  0  0  0  0  0  0  0  0  0  0
  1  2  1  0  0  0  0
  1 26  1  0  0  0  0
  1 27  1  0  0  0  0
  1 28  1  0  0  0  0
  2  7  1  0  0  0  0
  2  3  1  0  0  0  0
  2 29  1  0  0  0  0
  3  4  1  0  0  0  0
  3 30  1  0  0  0  0
  3 31  1  0  0  0  0
  4  5  1  0  0  0  0
  4 32  1  0  0  0  0
  4 33  1  0  0  0  0
  5  6  1  0  0  0  0
  5 34  1  0  0  0  0
  5 35  1  0  0  0  0
  6  7  1  0  0  0  0
  6 36  1  0  0  0  0
  6 37  1  0  0  0  0
  7 24  1  0  0  0  0
  7  8  1  0  0  0  0
  8  9  1  0  0  0  0
  8 38  1  0  0  0  0
  9 10  2  0  0  0  0
  9 11  1  0  0  0  0
 11 12  1  0  0  0  0
 11 24  1  0  0  0  0
 12 13  1  0  0  0  0
 12 39  1  0  0  0  0
 12 40  1  0  0  0  0
 13 14  2  0  0  0  0
 13 15  1  0  0  0  0
 15 16  1  0  0  0  0
 15 41  1  0  0  0  0
 16 17  1  0  0  0  0
 16 42  1  0  0  0  0
 16 43  1  0  0  0  0
 17 18  1  0  0  0  0
 17 44  1  0  0  0  0
 17 45  1  0  0  0  0
 18 23  1  0  0  0  0
 18 19  2  0  0  0  0
 19 20  1  0  0  0  0
 19 46  1  0  0  0  0
 20 21  2  0  0  0  0
 20 47  1  0  0  0  0
 21 22  1  0  0  0  0
 21 48  1  0  0  0  0
 22 23  2  0  0  0  0
 22 50  1  0  0  0  0
 23 49  1  0  0  0  0
 24 25  2  0  0  0  0
M  CHG  1  22   1
M  END
> <s_m_source_file>
AV-unprocessed.smi

> <i_m_source_file_index>
837

> <i_lp_mmshare_version>
43012

> <i_f3d_flags>
0

> <s_epik_input>
W0NIMl0xW0NIMl1bQ0gyXVtDSDJdW0NAQEhdKFtDSDNdKVtDQEBdMTJbTkhdQyg9TylOKEMyPU8pW0NIMl1DKD1PKVtOSF1bQ0gyXVtDSDJdYzNbY0hdW2NIXVtjSF1uW2NIXTM=

> <s_epik_cmdline>
J2VwaWtfcHl0aG9uJywgJy1waCcsICc3LjAnLCAnLXRuJywgJzgnLCAnLW1hJywgJzIwMCcsICctbWV0YWxfYmluZGluZycsICctaW1hZScsICc8aW5maWxlLm1hZT4nLCAnLW9tYWUnLCAnPG91dGZpbGUubWFlPic=

> <r_lp_tautomer_probability>
1

> <r_epik_Ionization_Penalty>
2.28139

> <r_epik_Ionization_Penalty_Charging>
2.28135

> <r_epik_Ionization_Penalty_Neutral>
4.65525e-05

> <r_epik_State_Penalty>
2.43066

> <r_epik_Charging_Adjusted_Penalty>
4.71201

> <i_epik_Tot_Q>
1

> <i_epik_Tot_abs_Q>
1

> <r_epik_Metal_State_Penalty>
2.4646

> <b_epik_Metal_Only>
0

> <s_lp_Force_Field>
OPLS_2005

> <r_lp_Energy>
29.652

> <b_lp_Chiralities_Consistent>
1

> <s_lp_Variant>
AV-unprocessed.smi:837-5

> <Gold.Version>
5.8.1

> <Gold.Id.Protein>
6NUR|6NUR_protein|mol2

> <Gold.PLP.Fitness>
48.6158

> <Gold.PLP.PLP>
-40.4278

> <Gold.PLP.part.hbond>
-2.4791

> <Gold.PLP.part.metal>
0.0000

> <Gold.PLP.part.buried>
-4.9742

> <Gold.PLP.part.nonpolar>
-33.6959

> <Gold.PLP.part.repulsive>
0.7657

> <Gold.PLP.ligand.clash>
0.0000

> <Gold.PLP.ligand.torsion>
0.4273

> <Gold.PLP.Chemscore.Hbond>
3.0000

> <Gold.PLP.Chemscore.CHOScore>
0.0000

> <Gold.PLP.Chemscore.Metal>
0.0000

> <Gold.Chemscore.Hbonds>
donor molecule, donor type, donor heavy atom, donor atom, acceptor molecule, acceptor atom, score
      L1  H    22    50       P1 10186  1.79
      P1  H  7989  7998       L1    25  0.96

> <Gold.PLP.Chemscore.Internal.Correction>
0.0426

> <Gold.Rescore>
     Score         DG    S(hbond)    S(metal)    S(lipo)     H(rot)  DE(clash)    DE(int)     intcor
     16.96     -18.66       1.92        0.00     100.73       1.96       1.24       0.46       ----

> <Gold.Chemscore.Fitness>
16.9555

> <Gold.Chemscore.DG>
-18.6560

> <Gold.Chemscore.ZeroCoef>
-5.4800

> <Gold.Chemscore.Hbond>
1.9217

> <Gold.Chemscore.Metal>
0.0000

> <Gold.Chemscore.Lipo>
100.7255

> <Gold.Chemscore.Internal_Hbond>
0.0000

> <Gold.Chemscore.DEClash>
1.2382

> <Gold.Chemscore.DEInternal>
0.4622

> <Gold.Chemscore.Rot>
1.9638

> <Gold.Chemscore.Internal.Correction>
   9.000000E+99

> <Gold.Chemscore.Hbonds>
donor molecule, donor type, donor heavy atom, donor atom, acceptor molecule, acceptor atom, score
      L1  H    22    50       P1 10186  0.82
      P1  H  7989  7998       L1    25  0.89

> <Gold.Chemscore.Hbond.Weighted>
-6.4185

> <Gold.Chemscore.Metal.Weighted>
-0.0000

> <Gold.Chemscore.Lipo.Weighted>
-11.7849

> <Gold.Chemscore.Internal_Hbond.Weighted>
0.0000

> <Gold.Chemscore.DEClash.Weighted>
1.2382

> <Gold.Chemscore.DEInternal.Weighted>
0.4622

> <Gold.Chemscore.Rot.Weighted>
5.0274

> <Gold.Chemscore.Internal.Correction.Weighted>
   9.000000E+99

> <Gold.Protein.RotatedTorsions>
[ 6907 6896 6895 6894 ] final  -14.87 input  -60.11 | X-H torsion
[ 7974 7965 7964 7962 ] final    5.42 input  175.53 | X-H torsion
[ 8008 7997 7996 7995 ] final  127.80 input   59.86 | X-H torsion
[ 10167 10162 10161 10158 ] final    9.60 input  -65.29 | X-H torsion
[ 10718 10713 10712 10709 ] final -136.70 input   66.30 | X-H torsion
[ 10763 10752 10751 10750 ] final  170.97 input  -60.55 | X-H torsion
[ 11005 11000 10999 10996 ] final  -61.64 input  -57.11 | X-H torsion

> <Gold.Protein.ActiveResidues>
 VAL166  LYS551  ARG553  GLY616  TRP617  ASP618  TYR619  PRO620  LYS621  CYS622 
 ASP623  PHE694  ASN695  SER759  ASP760  ASP761  ALA762  ILE779  LEU786  VAL792 
 PHE793  MET794  SER795  GLU796  ALA797  LYS798  CYS799  TRP800  GLU811  SER814 

> <Gold.Protein.RotatedAtoms>
  151.3328  135.0845  159.9344 H   0  0  0  0  0  0  0  0  0  0  0  0  # atno 6907 bound_to 6896
  152.5230  133.9526  159.7689 H   0  0  0  0  0  0  0  0  0  0  0  0  # atno 6908 bound_to 6896
  150.9868  133.6137  159.2744 H   0  0  0  0  0  0  0  0  0  0  0  0  # atno 6909 bound_to 6896
  146.2440  140.0387  142.8384 H   0  0  0  0  0  0  0  0  0  0  0  0  # atno 7974 bound_to 7965
  156.2899  140.2660  156.2331 H   0  0  0  0  0  0  0  0  0  0  0  0  # atno 8008 bound_to 7997
  155.0052  140.0387  157.2395 H   0  0  0  0  0  0  0  0  0  0  0  0  # atno 8009 bound_to 7997
  154.7566  140.2753  155.6253 H   0  0  0  0  0  0  0  0  0  0  0  0  # atno 8010 bound_to 7997
  140.6245  143.8131  150.7216 H   0  0  0  0  0  0  0  0  0  0  0  0  # atno 10167 bound_to 10162
  156.2799  130.7314  151.1308 H   0  0  0  0  0  0  0  0  0  0  0  0  # atno 10718 bound_to 10713
  154.4052  135.2755  155.2071 H   0  0  0  0  0  0  0  0  0  0  0  0  # atno 10763 bound_to 10752
  154.4080  135.6029  153.5939 H   0  0  0  0  0  0  0  0  0  0  0  0  # atno 10764 bound_to 10752
  152.9831  135.5942  154.4326 H   0  0  0  0  0  0  0  0  0  0  0  0  # atno 10765 bound_to 10752
  141.1331  133.6632  156.5405 H   0  0  0  0  0  0  0  0  0  0  0  0  # atno 11005 bound_to 11000
  145.1089  140.9393  143.4668 LP  0  0  0  0  0  0  0  0  0  0  0  0  # atno 17320 bound_to 7965
  145.0596  139.3116  143.5887 LP  0  0  0  0  0  0  0  0  0  0  0  0  # atno 17321 bound_to 7965
  140.1729  143.4179  152.1988 LP  0  0  0  0  0  0  0  0  0  0  0  0  # atno 17342 bound_to 10162
  139.5468  144.7305  151.4559 LP  0  0  0  0  0  0  0  0  0  0  0  0  # atno 17343 bound_to 10162
  157.7311  131.0611  150.5694 LP  0  0  0  0  0  0  0  0  0  0  0  0  # atno 17370 bound_to 10713
  156.5799  130.4301  149.5982 LP  0  0  0  0  0  0  0  0  0  0  0  0  # atno 17371 bound_to 10713
  140.4143  134.7244  157.4854 LP  0  0  0  0  0  0  0  0  0  0  0  0  # atno 17394 bound_to 11000
  140.0405  134.6275  155.8987 LP  0  0  0  0  0  0  0  0  0  0  0  0  # atno 17395 bound_to 11000

$$$$
