AV-unprocessed.smi:2825|AV-procd|sdf|10888|dock4
  -GOLD-   2272015333D 1   1.00000     0.00000
 Structure written by MMmdl.
 48 49  0  0  0  0  0  0  0  0  1 V2000
  147.6080  134.9504  163.0678 C   0  0  0  0  0  0  0  0  0  0  0  0
  146.3077  134.7540  162.2817 C   0  0  0  0  0  0  0  0  0  0  0  0
  146.5055  134.8955  160.7657 C   0  0  0  0  0  0  0  0  0  0  0  0
  147.1084  136.5819  160.3045 S   0  0  0  0  0  0  0  0  0  0  0  0
  146.0683  137.2218  159.4844 O   0  0  0  0  0  0  0  0  0  0  0  0
  147.6216  137.2626  161.5038 O   0  0  0  0  0  0  0  0  0  0  0  0
  148.4562  136.2611  159.2575 N   0  0  0  0  0  0  0  0  0  0  0  0
  148.4702  135.0210  158.4716 C   0  0  0  0  0  0  0  0  0  0  0  0
  149.7435  136.9607  159.4437 C   0  0  0  0  0  0  0  0  0  0  0  0
  150.1779  137.8164  158.2335 C   0  0  2  0  0  0  0  0  0  0  0  0
  150.4497  136.9204  157.1736 O   0  0  0  0  0  0  0  0  0  0  0  0
  151.4369  138.6747  158.4914 C   0  0  0  0  0  0  0  0  0  0  0  0
  151.3426  140.0058  157.9160 N   0  0  0  0  0  0  0  0  0  0  0  0
  150.9438  140.3278  156.6698 C   0  0  0  0  0  0  0  0  0  0  0  0
  150.9210  141.6186  156.3515 N   0  0  0  0  0  0  0  0  0  0  0  0
  151.3688  142.2025  157.5237 C   0  0  0  0  0  0  0  0  0  0  0  0
  151.5750  143.5607  157.8503 C   0  0  0  0  0  0  0  0  0  0  0  0
  152.0492  143.9355  159.1276 C   0  0  0  0  0  0  0  0  0  0  0  0
  152.2533  145.4082  159.4371 C   0  0  0  0  0  0  0  0  0  0  0  0
  152.3290  142.9427  160.1002 C   0  0  0  0  0  0  0  0  0  0  0  0
  152.8390  143.3195  161.4800 C   0  0  0  0  0  0  0  0  0  0  0  0
  152.1308  141.5815  159.7894 C   0  0  0  0  0  0  0  0  0  0  0  0
  151.6495  141.2209  158.5187 C   0  0  0  0  0  0  0  0  0  0  0  0
  147.4395  134.8130  164.1361 H   0  0  0  0  0  0  0  0  0  0  0  0
  148.0071  135.9535  162.9236 H   0  0  0  0  0  0  0  0  0  0  0  0
  148.3704  134.2360  162.7563 H   0  0  0  0  0  0  0  0  0  0  0  0
  145.9012  133.7665  162.5030 H   0  0  0  0  0  0  0  0  0  0  0  0
  145.5692  135.4772  162.6285 H   0  0  0  0  0  0  0  0  0  0  0  0
  147.2135  134.1585  160.3943 H   0  0  0  0  0  0  0  0  0  0  0  0
  145.5658  134.7241  160.2402 H   0  0  0  0  0  0  0  0  0  0  0  0
  148.4525  134.1528  159.1296 H   0  0  0  0  0  0  0  0  0  0  0  0
  149.3532  134.9626  157.8347 H   0  0  0  0  0  0  0  0  0  0  0  0
  147.5897  134.9778  157.8306 H   0  0  0  0  0  0  0  0  0  0  0  0
  149.7021  137.5731  160.3453 H   0  0  0  0  0  0  0  0  0  0  0  0
  150.5051  136.2065  159.6460 H   0  0  0  0  0  0  0  0  0  0  0  0
  149.3545  138.4471  157.9033 H   0  0  0  0  0  0  0  0  0  0  0  0
  151.3866  136.8210  157.0987 H   0  0  0  0  0  0  0  0  0  0  0  0
  151.6124  138.7894  159.5593 H   0  0  0  0  0  0  0  0  0  0  0  0
  152.3222  138.1852  158.0829 H   0  0  0  0  0  0  0  0  0  0  0  0
  150.6442  139.5712  155.9590 H   0  0  0  0  0  0  0  0  0  0  0  0
  151.3649  144.3162  157.1074 H   0  0  0  0  0  0  0  0  0  0  0  0
  153.2911  145.6018  159.7084 H   0  0  0  0  0  0  0  0  0  0  0  0
  151.6151  145.7163  160.2655 H   0  0  0  0  0  0  0  0  0  0  0  0
  152.0108  146.0334  158.5775 H   0  0  0  0  0  0  0  0  0  0  0  0
  152.9812  142.4380  162.1060 H   0  0  0  0  0  0  0  0  0  0  0  0
  152.1283  143.9747  161.9841 H   0  0  0  0  0  0  0  0  0  0  0  0
  153.7963  143.8359  161.4059 H   0  0  0  0  0  0  0  0  0  0  0  0
  152.3464  140.8180  160.5204 H   0  0  0  0  0  0  0  0  0  0  0  0
  1  2  1  0  0  0  0
  1 24  1  0  0  0  0
  1 25  1  0  0  0  0
  1 26  1  0  0  0  0
  2  3  1  0  0  0  0
  2 27  1  0  0  0  0
  2 28  1  0  0  0  0
  3  4  1  0  0  0  0
  3 29  1  0  0  0  0
  3 30  1  0  0  0  0
  4  5  2  0  0  0  0
  4  6  2  0  0  0  0
  4  7  1  0  0  0  0
  7  8  1  0  0  0  0
  7  9  1  0  0  0  0
  8 31  1  0  0  0  0
  8 32  1  0  0  0  0
  8 33  1  0  0  0  0
  9 10  1  0  0  0  0
  9 34  1  0  0  0  0
  9 35  1  0  0  0  0
 10 11  1  0  0  0  0
 10 12  1  0  0  0  0
 10 36  1  0  0  0  0
 11 37  1  0  0  0  0
 12 13  1  0  0  0  0
 12 38  1  0  0  0  0
 12 39  1  0  0  0  0
 13 23  1  0  0  0  0
 13 14  1  0  0  0  0
 14 15  2  0  0  0  0
 14 40  1  0  0  0  0
 15 16  1  0  0  0  0
 16 23  2  0  0  0  0
 16 17  1  0  0  0  0
 17 18  2  0  0  0  0
 17 41  1  0  0  0  0
 18 19  1  0  0  0  0
 18 20  1  0  0  0  0
 19 42  1  0  0  0  0
 19 43  1  0  0  0  0
 19 44  1  0  0  0  0
 20 21  1  0  0  0  0
 20 22  2  0  0  0  0
 21 45  1  0  0  0  0
 21 46  1  0  0  0  0
 21 47  1  0  0  0  0
 22 23  1  0  0  0  0
 22 48  1  0  0  0  0
M  END
> <s_m_source_file>
AV-unprocessed.smi

> <i_m_source_file_index>
2825

> <i_lp_mmshare_version>
43012

> <i_f3d_flags>
0

> <s_epik_input>
W0NIM11bQ0gyXVtDSDJdUyg9TykoPU8pTihbQ0gzXSlbQ0gyXVtDQEhdKFtPSF0pW0NIMl1uKFtjSF1uMSljKGMxMilbY0hdYyhbQ0gzXSljKFtjSF0yKVtDSDNd

> <s_epik_cmdline>
J2VwaWtfcHl0aG9uJywgJy1waCcsICc3LjAnLCAnLXRuJywgJzgnLCAnLW1hJywgJzIwMCcsICctbWV0YWxfYmluZGluZycsICctaW1hZScsICc8aW5maWxlLm1hZT4nLCAnLW9tYWUnLCAnPG91dGZpbGUubWFlPic=

> <r_epik_Ionization_Penalty>
0.104931

> <r_epik_Ionization_Penalty_Charging>
0

> <r_epik_Ionization_Penalty_Neutral>
0.104931

> <r_epik_State_Penalty>
0.0948201

> <r_epik_Charging_Adjusted_Penalty>
0.0948201

> <i_epik_Tot_Q>
0

> <i_epik_Tot_abs_Q>
0

> <r_epik_Metal_State_Penalty>
0.00010282

> <b_epik_Metal_Only>
0

> <s_lp_Force_Field>
OPLS_2005

> <r_lp_Energy>
0.666552

> <b_lp_Chiralities_Consistent>
1

> <s_lp_Variant>
AV-unprocessed.smi:2825-1

> <Gold.Version>
5.8.1

> <Gold.Id.Protein>
6NUR|6NUR_protein|mol2

> <Gold.PLP.Fitness>
49.8753

> <Gold.PLP.PLP>
-46.2092

> <Gold.PLP.part.hbond>
-2.0000

> <Gold.PLP.part.metal>
0.0000

> <Gold.PLP.part.buried>
-6.4445

> <Gold.PLP.part.nonpolar>
-39.1895

> <Gold.PLP.part.repulsive>
0.0620

> <Gold.PLP.ligand.clash>
0.0000

> <Gold.PLP.ligand.torsion>
2.1904

> <Gold.PLP.Chemscore.Hbond>
1.8560

> <Gold.PLP.Chemscore.CHOScore>
0.0000

> <Gold.PLP.Chemscore.Metal>
0.0000

> <Gold.Chemscore.Hbonds>
donor molecule, donor type, donor heavy atom, donor atom, acceptor molecule, acceptor atom, score
      P1  H  6931  6943       L1     6  0.94
      P1  H  6934  6947       L1     6  0.67

> <Gold.PLP.Chemscore.Internal.Correction>
2.4788

> <Gold.Rescore>
     Score         DG    S(hbond)    S(metal)    S(lipo)     H(rot)  DE(clash)    DE(int)     intcor
     16.91     -19.26       1.71        0.00     122.12       2.43       0.05       2.30       ----

> <Gold.Chemscore.Fitness>
16.9064

> <Gold.Chemscore.DG>
-19.2628

> <Gold.Chemscore.ZeroCoef>
-5.4800

> <Gold.Chemscore.Hbond>
1.7138

> <Gold.Chemscore.Metal>
0.0000

> <Gold.Chemscore.Lipo>
122.1163

> <Gold.Chemscore.Internal_Hbond>
0.0000

> <Gold.Chemscore.DEClash>
0.0548

> <Gold.Chemscore.DEInternal>
2.3016

> <Gold.Chemscore.Rot>
2.4332

> <Gold.Chemscore.Internal.Correction>
   9.000000E+99

> <Gold.Chemscore.Hbonds>
donor molecule, donor type, donor heavy atom, donor atom, acceptor molecule, acceptor atom, score
      P1  H  6931  6943       L1     6  0.91
      P1  H  6934  6947       L1     6  0.11

> <Gold.Chemscore.Hbond.Weighted>
-5.7241

> <Gold.Chemscore.Metal.Weighted>
-0.0000

> <Gold.Chemscore.Lipo.Weighted>
-14.2876

> <Gold.Chemscore.Internal_Hbond.Weighted>
0.0000

> <Gold.Chemscore.DEClash.Weighted>
0.0548

> <Gold.Chemscore.DEInternal.Weighted>
2.3016

> <Gold.Chemscore.Rot.Weighted>
6.2289

> <Gold.Chemscore.Internal.Correction.Weighted>
   9.000000E+99

> <Gold.Protein.RotatedTorsions>
[ 6907 6896 6895 6894 ] final  171.57 input  -60.11 | X-H torsion
[ 7974 7965 7964 7962 ] final  120.15 input  175.53 | X-H torsion
[ 8008 7997 7996 7995 ] final  124.09 input   59.86 | X-H torsion
[ 10167 10162 10161 10158 ] final   -8.86 input  -65.29 | X-H torsion
[ 10718 10713 10712 10709 ] final  -13.86 input   66.30 | X-H torsion
[ 10763 10752 10751 10750 ] final -152.77 input  -60.55 | X-H torsion
[ 11005 11000 10999 10996 ] final -164.06 input  -57.11 | X-H torsion

> <Gold.Protein.ActiveResidues>
 VAL166  LYS551  ARG553  GLY616  TRP617  ASP618  TYR619  PRO620  LYS621  CYS622 
 ASP623  PHE694  ASN695  SER759  ASP760  ASP761  ALA762  ILE779  LEU786  VAL792 
 PHE793  MET794  SER795  GLU796  ALA797  LYS798  CYS799  TRP800  GLU811  SER814 

> <Gold.Protein.RotatedAtoms>
  151.7982  133.3367  159.3518 H   0  0  0  0  0  0  0  0  0  0  0  0  # atno 6907 bound_to 6896
  150.7368  134.5779  159.5933 H   0  0  0  0  0  0  0  0  0  0  0  0  # atno 6908 bound_to 6896
  152.3162  134.7438  160.0376 H   0  0  0  0  0  0  0  0  0  0  0  0  # atno 6909 bound_to 6896
  145.1346  139.3306  143.4647 H   0  0  0  0  0  0  0  0  0  0  0  0  # atno 7974 bound_to 7965
  156.2789  140.2748  156.1732 H   0  0  0  0  0  0  0  0  0  0  0  0  # atno 8008 bound_to 7997
  155.0633  140.0386  157.2602 H   0  0  0  0  0  0  0  0  0  0  0  0  # atno 8009 bound_to 7997
  154.7099  140.2666  155.6644 H   0  0  0  0  0  0  0  0  0  0  0  0  # atno 8010 bound_to 7997
  140.7071  143.5921  150.8883 H   0  0  0  0  0  0  0  0  0  0  0  0  # atno 10167 bound_to 10162
  156.6241  130.4883  149.6153 H   0  0  0  0  0  0  0  0  0  0  0  0  # atno 10718 bound_to 10713
  154.7972  135.3228  154.7638 H   0  0  0  0  0  0  0  0  0  0  0  0  # atno 10763 bound_to 10752
  153.8314  135.6879  153.4818 H   0  0  0  0  0  0  0  0  0  0  0  0  # atno 10764 bound_to 10752
  153.1669  135.4638  154.9792 H   0  0  0  0  0  0  0  0  0  0  0  0  # atno 10765 bound_to 10752
  140.5912  134.5043  157.5193 H   0  0  0  0  0  0  0  0  0  0  0  0  # atno 11005 bound_to 11000
  146.3511  140.1359  142.8596 LP  0  0  0  0  0  0  0  0  0  0  0  0  # atno 17320 bound_to 7965
  145.0598  140.9079  143.4945 LP  0  0  0  0  0  0  0  0  0  0  0  0  # atno 17321 bound_to 7965
  139.9647  143.6124  152.2992 LP  0  0  0  0  0  0  0  0  0  0  0  0  # atno 17342 bound_to 10162
  139.6689  144.7661  151.1820 LP  0  0  0  0  0  0  0  0  0  0  0  0  # atno 17343 bound_to 10162
  156.2287  130.6781  151.1442 LP  0  0  0  0  0  0  0  0  0  0  0  0  # atno 17370 bound_to 10713
  157.7219  131.0676  150.6099 LP  0  0  0  0  0  0  0  0  0  0  0  0  # atno 17371 bound_to 10713
  139.9273  134.8031  156.1031 LP  0  0  0  0  0  0  0  0  0  0  0  0  # atno 17394 bound_to 11000
  141.0934  133.6705  156.2590 LP  0  0  0  0  0  0  0  0  0  0  0  0  # atno 17395 bound_to 11000

$$$$
