#       Name:                AV-unprocessed.smi:2303
#       Creating user name   scv26
#       Creation time:       Fri Mar 27 12:46:05 2020


#       File generated by GOLD software.
#

@<TRIPOS>MOLECULE
AV-unprocessed.smi:2303
    37    38     1
SMALL
NO_CHARGES


@<TRIPOS>ATOM
      1 ****        -3.9016  -0.1357  -0.4238 C.3            1 S1                 0.0000
      2 ****        -3.1326   1.1384  -0.8169 C.3            1 S1                 0.0000
      3 ****        -3.5885   1.6412  -2.1983 C.3            1 S1                 0.0000
      4 ****        -1.6126   0.9869  -0.7436 C.2            1 S1                 0.0000
      5 ****        -0.9315  -0.1439  -0.4679 C.2            1 S1                 0.0000
      6 ****         0.5205  -0.1081  -0.4357 C.2            1 S1                 0.0000
      7 ****         1.2377  -1.3627  -0.2032 C.2            1 S1                 0.0000
      8 ****         0.8722  -2.4395  -0.6753 O.2            1 S1                 0.0000
      9 ****         2.3428  -1.2884   0.5729 N.am           1 S1                 0.0000
     10 ****         3.1923  -2.3865   1.0146 C.3            1 S1                 0.0000
     11 ****         3.9668  -1.8019   2.1819 C.3            1 S1                 0.0000
     12 ****         3.0363  -0.7049   2.6742 C.3            1 S1                 0.0000
     13 ****         2.4688  -0.2105   1.4735 O.3            1 S1                 0.0000
     14 ****         1.1717   1.0496  -0.7098 C.2            1 S1                 0.0000
     15 ****         0.4416   2.2872  -0.9931 C.2            1 S1                 0.0000
     16 ****         0.9873   3.3641  -1.2216 O.2            1 S1                 0.0000
     17 ****        -0.9066   2.1738  -0.9914 N.am           1 S1                 0.0000
     18 ****        -3.6353  -0.4668   0.5804 H              1 S1                 0.0000
     19 ****        -3.7007  -0.9544  -1.1158 H              1 S1                 0.0000
     20 ****        -4.9774   0.0417  -0.4298 H              1 S1                 0.0000
     21 ****        -3.3968   1.9052  -0.0871 H              1 S1                 0.0000
     22 ****        -3.1473   2.6070  -2.4457 H              1 S1                 0.0000
     23 ****        -4.6712   1.7652  -2.2320 H              1 S1                 0.0000
     24 ****        -3.3117   0.9376  -2.9841 H              1 S1                 0.0000
     25 ****        -1.4495  -1.0711  -0.2716 H              1 S1                 0.0000
     26 ****         2.5756  -3.2252   1.3422 H              1 S1                 0.0000
     27 ****         3.8507  -2.7315   0.2167 H              1 S1                 0.0000
     28 ****         4.2062  -2.5373   2.9504 H              1 S1                 0.0000
     29 ****         4.8998  -1.3628   1.8260 H              1 S1                 0.0000
     30 ****         2.2469  -1.1194   3.3031 H              1 S1                 0.0000
     31 ****         3.5524   0.0765   3.2322 H              1 S1                 0.0000
     32 ****         2.2517   1.0799  -0.7376 H              1 S1                 0.0000
     33 ****        -1.4579   2.9972  -1.1853 H              1 S1                 0.0000
     34 ****         0.0520  -2.4827  -1.2457 LP             1 S1                 0.0000
     35 ****         1.3955  -3.2709  -0.4883 LP             1 S1                 0.0000
     36 ****         1.9852   3.4291  -1.2206 LP             1 S1                 0.0000
     37 ****         0.4335   4.1755  -1.4084 LP             1 S1                 0.0000
@<TRIPOS>BOND
    1    1    2 1     
    2    1   18 1     
    3    1   19 1     
    4    1   20 1     
    5    2    3 1     
    6    2   21 1     
    7    2    4 1     
    8    3   22 1     
    9    3   23 1     
   10    3   24 1     
   11    4   17 1     
   12    4    5 2     
   13    5   25 1     
   14    5    6 1     
   15    6    7 1     
   16    6   14 2     
   17    7    8 2     
   18    7    9 am    
   19    9   13 1     
   20    9   10 1     
   21   10   11 1     
   22   10   26 1     
   23   10   27 1     
   24   11   12 1     
   25   11   28 1     
   26   11   29 1     
   27   12   13 1     
   28   12   30 1     
   29   12   31 1     
   30   14   15 1     
   31   14   32 1     
   32   15   16 2     
   33   15   17 am    
   34   17   33 1     
   35    8   34 1     
   36    8   35 1     
   37   16   36 1     
   38   16   37 1     
@<TRIPOS>SUBSTRUCTURE
      1 S1             1
@<TRIPOS>SET
LONE_PAIRS      STATIC     ATOMS    <user>   **** ""
4 34 35 36 37
DONOR_HYDROGENS      STATIC     ATOMS    <user>   **** ""
1 33
ATOM$BLUE        STATIC     ATOMS    COLORGROUP SYSTEM
4 34 35 36 37
ATOM$RED        STATIC     ATOMS    COLORGROUP SYSTEM
1 33
