AV-unprocessed.smi:1431|AV-procd|sdf|5830|dock3
  -GOLD-   22720 5493D 1   1.00000     0.00000
 Structure written by MMmdl.
 33 34  0  0  0  0  0  0  0  0  1 V2000
  144.6383  136.8865  152.1259 O   0  0  0  0  0  0  0  0  0  0  0  0
  145.8335  136.6706  151.9231 C   0  0  0  0  0  0  0  0  0  0  0  0
  146.7966  137.5722  152.1621 N   0  0  0  0  0  0  0  0  0  0  0  0
  146.5728  138.9204  152.6739 C   0  0  0  0  0  0  0  0  0  0  0  0
  147.8822  139.5938  153.1289 C   0  0  1  0  0  0  0  0  0  0  0  0
  147.6390  140.9687  153.7811 C   0  0  0  0  0  0  0  0  0  0  0  0
  148.9407  141.4314  154.4424 C   0  0  0  0  0  0  0  0  0  0  0  0
  149.7374  139.9078  155.0721 S   0  0  0  0  0  0  0  0  0  0  0  0
  151.1233  139.8527  154.5833 O   0  0  0  0  0  0  0  0  0  0  0  0
  149.4318  139.7510  156.5021 O   0  0  0  0  0  0  0  0  0  0  0  0
  148.6989  138.7395  154.1148 C   0  0  0  0  0  0  0  0  0  0  0  0
  146.3476  135.5274  151.4369 N   0  0  0  0  0  0  0  0  0  0  0  0
  145.6586  134.3411  151.0689 C   0  0  0  0  0  0  0  0  0  0  0  0
  146.4852  133.2766  150.6432 C   0  0  0  0  0  0  0  0  0  0  0  0
  145.8990  132.0547  150.2599 C   0  0  0  0  0  0  0  0  0  0  0  0
  144.4994  131.9287  150.3118 C   0  0  0  0  0  0  0  0  0  0  0  0
  143.7496  133.0372  150.7467 C   0  0  0  0  0  0  0  0  0  0  0  0
  144.3093  134.2091  151.1147 N   0  0  0  0  0  0  0  0  0  0  0  0
  147.7525  137.3120  151.9681 H   0  0  0  0  0  0  0  0  0  0  0  0
  146.0776  139.5280  151.9146 H   0  0  0  0  0  0  0  0  0  0  0  0
  145.8781  138.8495  153.5111 H   0  0  0  0  0  0  0  0  0  0  0  0
  148.5087  139.7668  152.2525 H   0  0  0  0  0  0  0  0  0  0  0  0
  147.2785  141.7015  153.0583 H   0  0  0  0  0  0  0  0  0  0  0  0
  146.8696  140.8723  154.5482 H   0  0  0  0  0  0  0  0  0  0  0  0
  149.6075  141.8819  153.7069 H   0  0  0  0  0  0  0  0  0  0  0  0
  148.7832  142.1411  155.2547 H   0  0  0  0  0  0  0  0  0  0  0  0
  148.0489  138.2201  154.8192 H   0  0  0  0  0  0  0  0  0  0  0  0
  149.3284  138.0026  153.6153 H   0  0  0  0  0  0  0  0  0  0  0  0
  147.3493  135.5011  151.3172 H   0  0  0  0  0  0  0  0  0  0  0  0
  147.5591  133.3902  150.6097 H   0  0  0  0  0  0  0  0  0  0  0  0
  146.5133  131.2289  149.9321 H   0  0  0  0  0  0  0  0  0  0  0  0
  144.0134  131.0077  150.0261 H   0  0  0  0  0  0  0  0  0  0  0  0
  142.6724  132.9822  150.8012 H   0  0  0  0  0  0  0  0  0  0  0  0
  1  2  2  0  0  0  0
  2  3  1  0  0  0  0
  2 12  1  0  0  0  0
  3  4  1  0  0  0  0
  3 19  1  0  0  0  0
  4  5  1  0  0  0  0
  4 20  1  0  0  0  0
  4 21  1  0  0  0  0
  5 11  1  0  0  0  0
  5  6  1  0  0  0  0
  5 22  1  0  0  0  0
  6  7  1  0  0  0  0
  6 23  1  0  0  0  0
  6 24  1  0  0  0  0
  7  8  1  0  0  0  0
  7 25  1  0  0  0  0
  7 26  1  0  0  0  0
  8  9  2  0  0  0  0
  8 10  2  0  0  0  0
  8 11  1  0  0  0  0
 11 27  1  0  0  0  0
 11 28  1  0  0  0  0
 12 13  1  0  0  0  0
 12 29  1  0  0  0  0
 13 18  1  0  0  0  0
 13 14  2  0  0  0  0
 14 15  1  0  0  0  0
 14 30  1  0  0  0  0
 15 16  2  0  0  0  0
 15 31  1  0  0  0  0
 16 17  1  0  0  0  0
 16 32  1  0  0  0  0
 17 18  2  0  0  0  0
 17 33  1  0  0  0  0
M  END
> <s_m_source_file>
AV-unprocessed.smi

> <i_m_source_file_index>
1431

> <i_lp_mmshare_version>
43012

> <i_f3d_flags>
0

> <s_epik_input>
bjFbY0hdW2NIXVtjSF1bY0hdYzFbTkhdQyg9TylbTkhdW0NIMl1bQ0BASF0oW0NIMl0yKVtDSDJdW0NIMl1TMig9Tyk9Tw==

> <s_epik_cmdline>
J2VwaWtfcHl0aG9uJywgJy1waCcsICc3LjAnLCAnLXRuJywgJzgnLCAnLW1hJywgJzIwMCcsICctbWV0YWxfYmluZGluZycsICctaW1hZScsICc8aW5maWxlLm1hZT4nLCAnLW9tYWUnLCAnPG91dGZpbGUubWFlPic=

> <r_lp_tautomer_probability>
1

> <r_epik_Ionization_Penalty>
4.47006e-05

> <r_epik_Ionization_Penalty_Charging>
0

> <r_epik_Ionization_Penalty_Neutral>
4.47006e-05

> <r_epik_State_Penalty>
-0

> <r_epik_Charging_Adjusted_Penalty>
0

> <i_epik_Tot_Q>
0

> <i_epik_Tot_abs_Q>
0

> <r_epik_Metal_State_Penalty>
-0

> <b_epik_Metal_Only>
0

> <s_lp_Force_Field>
OPLS_2005

> <r_lp_Energy>
3.91714

> <b_lp_Chiralities_Consistent>
1

> <s_lp_Variant>
AV-unprocessed.smi:1431-2

> <Gold.Version>
5.8.1

> <Gold.Id.Protein>
6NUR|6NUR_protein|mol2

> <Gold.PLP.Fitness>
43.5206

> <Gold.PLP.PLP>
-32.0146

> <Gold.PLP.part.hbond>
-3.0000

> <Gold.PLP.part.metal>
0.0000

> <Gold.PLP.part.buried>
-1.4485

> <Gold.PLP.part.nonpolar>
-29.5172

> <Gold.PLP.part.repulsive>
1.6053

> <Gold.PLP.ligand.clash>
0.0000

> <Gold.PLP.ligand.torsion>
0.0922

> <Gold.PLP.Chemscore.Hbond>
2.9440

> <Gold.PLP.Chemscore.CHOScore>
0.9520

> <Gold.PLP.Chemscore.Metal>
0.0000

> <Gold.Chemscore.Hbonds>
donor molecule, donor type, donor heavy atom, donor atom, acceptor molecule, acceptor atom, score
      L1  H     3    19       P1  7948  1.00
      L1  H    12    29       P1  7948  0.94
      P1  H  7989  7998       L1     9  1.00
      L1  C    17    33       P1 10186  0.95

> <Gold.PLP.Chemscore.Internal.Correction>
0.0024

> <Gold.Rescore>
     Score         DG    S(hbond)    S(metal)    S(lipo)     H(rot)  DE(clash)    DE(int)     intcor
     17.69     -19.54       2.93        0.00      65.75       1.33       0.45       1.41       ----

> <Gold.Chemscore.Fitness>
17.6874

> <Gold.Chemscore.DG>
-19.5448

> <Gold.Chemscore.ZeroCoef>
-5.4800

> <Gold.Chemscore.Hbond>
2.9256

> <Gold.Chemscore.Metal>
0.0000

> <Gold.Chemscore.Lipo>
65.7511

> <Gold.Chemscore.Internal_Hbond>
0.0000

> <Gold.Chemscore.DEClash>
0.4512

> <Gold.Chemscore.DEInternal>
1.4061

> <Gold.Chemscore.Rot>
1.3280

> <Gold.Chemscore.Internal.Correction>
   9.000000E+99

> <Gold.Chemscore.Hbonds>
donor molecule, donor type, donor heavy atom, donor atom, acceptor molecule, acceptor atom, score
      L1  H     3    19       P1  7948  0.96
      L1  H    12    29       P1  7948  0.80
      P1  H  7989  7998       L1     9  0.95

> <Gold.Chemscore.Hbond.Weighted>
-9.7715

> <Gold.Chemscore.Metal.Weighted>
-0.0000

> <Gold.Chemscore.Lipo.Weighted>
-7.6929

> <Gold.Chemscore.Internal_Hbond.Weighted>
0.0000

> <Gold.Chemscore.DEClash.Weighted>
0.4512

> <Gold.Chemscore.DEInternal.Weighted>
1.4061

> <Gold.Chemscore.Rot.Weighted>
3.3996

> <Gold.Chemscore.Internal.Correction.Weighted>
   9.000000E+99

> <Gold.Protein.RotatedTorsions>
[ 6907 6896 6895 6894 ] final -178.31 input  -60.11 | X-H torsion
[ 7974 7965 7964 7962 ] final -154.15 input  175.53 | X-H torsion
[ 8008 7997 7996 7995 ] final -137.83 input   59.86 | X-H torsion
[ 10167 10162 10161 10158 ] final   72.85 input  -65.29 | X-H torsion
[ 10718 10713 10712 10709 ] final  118.41 input   66.30 | X-H torsion
[ 10763 10752 10751 10750 ] final  148.82 input  -60.55 | X-H torsion
[ 11005 11000 10999 10996 ] final  156.79 input  -57.11 | X-H torsion

> <Gold.Protein.ActiveResidues>
 VAL166  LYS551  ARG553  GLY616  TRP617  ASP618  TYR619  PRO620  LYS621  CYS622 
 ASP623  PHE694  ASN695  SER759  ASP760  ASP761  ALA762  ILE779  LEU786  VAL792 
 PHE793  MET794  SER795  GLU796  ALA797  LYS798  CYS799  TRP800  GLU811  SER814 

> <Gold.Protein.RotatedAtoms>
  151.6351  133.3329  159.3117 H   0  0  0  0  0  0  0  0  0  0  0  0  # atno 6907 bound_to 6896
  150.8036  134.7150  159.6635 H   0  0  0  0  0  0  0  0  0  0  0  0  # atno 6908 bound_to 6896
  152.4130  134.6095  160.0073 H   0  0  0  0  0  0  0  0  0  0  0  0  # atno 6909 bound_to 6896
  144.7704  140.4427  143.5911 H   0  0  0  0  0  0  0  0  0  0  0  0  # atno 7974 bound_to 7965
  155.4182  140.0517  157.3027 H   0  0  0  0  0  0  0  0  0  0  0  0  # atno 8008 bound_to 7997
  154.4915  140.2122  155.9498 H   0  0  0  0  0  0  0  0  0  0  0  0  # atno 8009 bound_to 7997
  156.1348  140.3165  155.8409 H   0  0  0  0  0  0  0  0  0  0  0  0  # atno 8010 bound_to 7997
  140.0308  144.5467  150.7508 H   0  0  0  0  0  0  0  0  0  0  0  0  # atno 10167 bound_to 10162
  157.6032  131.1047  150.7752 H   0  0  0  0  0  0  0  0  0  0  0  0  # atno 10718 bound_to 10713
  154.0610  135.2874  155.3325 H   0  0  0  0  0  0  0  0  0  0  0  0  # atno 10763 bound_to 10752
  154.6808  135.5264  153.8264 H   0  0  0  0  0  0  0  0  0  0  0  0  # atno 10764 bound_to 10752
  153.0522  135.6581  154.0799 H   0  0  0  0  0  0  0  0  0  0  0  0  # atno 10765 bound_to 10752
  140.1708  134.8544  157.2688 H   0  0  0  0  0  0  0  0  0  0  0  0  # atno 11005 bound_to 11000
  145.6342  139.1540  143.2952 LP  0  0  0  0  0  0  0  0  0  0  0  0  # atno 17320 bound_to 7965
  146.1846  140.6443  142.9173 LP  0  0  0  0  0  0  0  0  0  0  0  0  # atno 17321 bound_to 7965
  140.7303  143.2681  151.3976 LP  0  0  0  0  0  0  0  0  0  0  0  0  # atno 17342 bound_to 10162
  139.6077  144.1162  152.2266 LP  0  0  0  0  0  0  0  0  0  0  0  0  # atno 17343 bound_to 10162
  156.8146  130.4964  149.5351 LP  0  0  0  0  0  0  0  0  0  0  0  0  # atno 17370 bound_to 10713
  156.1111  130.6040  151.0048 LP  0  0  0  0  0  0  0  0  0  0  0  0  # atno 17371 bound_to 10713
  140.2380  134.3830  155.7493 LP  0  0  0  0  0  0  0  0  0  0  0  0  # atno 17394 bound_to 11000
  141.2217  133.7250  156.8744 LP  0  0  0  0  0  0  0  0  0  0  0  0  # atno 17395 bound_to 11000

$$$$
