AV-unprocessed.smi:1809|AV-procd|sdf|7326|dock5
  -GOLD-   22720 8583D 1   1.00000     0.00000
 Structure written by MMmdl.
 39 41  0  0  0  0  0  0  0  0  3 V2000
  152.5822  140.0889  158.0703 C   0  0  0  0  0  0  0  0  0  0  0  0
  151.8608  139.6911  156.8283 C   0  0  0  0  0  0  0  0  0  0  0  0
  152.4081  139.7835  155.6142 N   0  0  0  0  0  0  0  0  0  0  0  0
  151.5427  139.3575  154.6170 N   0  0  0  0  0  0  0  0  0  0  0  0
  150.3530  138.9581  155.0878 C   0  0  0  0  0  0  0  0  0  0  0  0
  149.3774  138.5046  154.2832 N   0  5  0  0  0  0  0  0  0  0  0  0
  148.1734  138.1721  154.7993 C   0  0  0  0  0  0  0  0  0  0  0  0
  147.6967  138.5744  155.8634 O   0  0  0  0  0  0  0  0  0  0  0  0
  147.4796  137.3136  154.0388 N   0  0  0  0  0  0  0  0  0  0  0  0
  146.1673  136.7627  154.3584 C   0  0  0  0  0  0  0  0  0  0  0  0
  145.7658  135.6550  153.3697 C   0  0  1  0  0  0  0  0  0  0  0  0
  145.0211  134.5014  154.0673 C   0  0  0  0  0  0  0  0  0  0  0  0
  144.5238  133.4995  153.0956 N   0  3  2  0  0  0  0  0  0  0  0  0
  145.5093  132.5090  152.6080 C   0  0  0  0  0  0  0  0  0  0  0  0
  145.0948  132.1585  151.1700 C   0  0  0  0  0  0  0  0  0  0  0  0
  143.7839  132.9134  150.9285 C   0  0  0  0  0  0  0  0  0  0  0  0
  143.8360  134.0756  151.9211 C   0  0  2  0  0  0  0  0  0  0  0  0
  144.6039  135.2924  151.3558 C   0  0  0  0  0  0  0  0  0  0  0  0
  144.8949  136.2162  152.3939 O   0  0  0  0  0  0  0  0  0  0  0  0
  150.2208  139.0646  156.8436 S   0  0  0  0  0  0  0  0  0  0  0  0
  152.5041  141.1662  158.2166 H   0  0  0  0  0  0  0  0  0  0  0  0
  153.6361  139.8191  157.9989 H   0  0  0  0  0  0  0  0  0  0  0  0
  152.1517  139.5847  158.9356 H   0  0  0  0  0  0  0  0  0  0  0  0
  147.9053  137.0116  153.1747 H   0  0  0  0  0  0  0  0  0  0  0  0
  146.1704  136.3793  155.3800 H   0  0  0  0  0  0  0  0  0  0  0  0
  145.4375  137.5723  154.3350 H   0  0  0  0  0  0  0  0  0  0  0  0
  146.6638  135.2694  152.8842 H   0  0  0  0  0  0  0  0  0  0  0  0
  145.6564  134.0153  154.8089 H   0  0  0  0  0  0  0  0  0  0  0  0
  144.1603  134.9004  154.6055 H   0  0  0  0  0  0  0  0  0  0  0  0
  146.5207  132.9172  152.6175 H   0  0  0  0  0  0  0  0  0  0  0  0
  145.5000  131.6333  153.2576 H   0  0  0  0  0  0  0  0  0  0  0  0
  145.8585  132.5048  150.4723 H   0  0  0  0  0  0  0  0  0  0  0  0
  144.9791  131.0844  151.0218 H   0  0  0  0  0  0  0  0  0  0  0  0
  143.6626  133.2355  149.8937 H   0  0  0  0  0  0  0  0  0  0  0  0
  142.9413  132.2646  151.1725 H   0  0  0  0  0  0  0  0  0  0  0  0
  142.8323  134.3900  152.2100 H   0  0  0  0  0  0  0  0  0  0  0  0
  145.5310  134.9912  150.8653 H   0  0  0  0  0  0  0  0  0  0  0  0
  144.0013  135.7931  150.5978 H   0  0  0  0  0  0  0  0  0  0  0  0
  143.8264  132.9514  153.5787 H   0  0  0  0  0  0  0  0  0  0  0  0
  1  2  1  0  0  0  0
  1 21  1  0  0  0  0
  1 22  1  0  0  0  0
  1 23  1  0  0  0  0
  2 20  1  0  0  0  0
  2  3  2  0  0  0  0
  3  4  1  0  0  0  0
  4  5  2  0  0  0  0
  5  6  1  0  0  0  0
  5 20  1  0  0  0  0
  6  7  1  0  0  0  0
  7  8  2  0  0  0  0
  7  9  1  0  0  0  0
  9 10  1  0  0  0  0
  9 24  1  0  0  0  0
 10 11  1  0  0  0  0
 10 25  1  0  0  0  0
 10 26  1  0  0  0  0
 11 19  1  0  0  0  0
 11 12  1  0  0  0  0
 11 27  1  0  0  0  0
 12 13  1  0  0  0  0
 12 28  1  0  0  0  0
 12 29  1  0  0  0  0
 13 17  1  0  0  0  0
 13 14  1  0  0  0  0
 13 39  1  0  0  0  0
 14 15  1  0  0  0  0
 14 30  1  0  0  0  0
 14 31  1  0  0  0  0
 15 16  1  0  0  0  0
 15 32  1  0  0  0  0
 15 33  1  0  0  0  0
 16 17  1  0  0  0  0
 16 34  1  0  0  0  0
 16 35  1  0  0  0  0
 17 18  1  0  0  0  0
 17 36  1  0  0  0  0
 18 19  1  0  0  0  0
 18 37  1  0  0  0  0
 18 38  1  0  0  0  0
M  CHG  1   6  -1
M  CHG  1  13   1
M  END
> <s_m_source_file>
AV-unprocessed.smi

> <i_m_source_file_index>
1809

> <i_lp_mmshare_version>
43012

> <i_f3d_flags>
0

> <s_epik_input>
W0NIM11jMW5uYyhzMSlbTkhdQyg9TylbTkhdW0NIMl1bQ0BIXShbQ0gyXTIpT1tDSDJdW0NAQEhdKE4yMylbQ0gyXVtDSDJdW0NIMl0z

> <s_epik_cmdline>
J2VwaWtfcHl0aG9uJywgJy1waCcsICc3LjAnLCAnLXRuJywgJzgnLCAnLW1hJywgJzIwMCcsICctbWV0YWxfYmluZGluZycsICctaW1hZScsICc8aW5maWxlLm1hZT4nLCAnLW9tYWUnLCAnPG91dGZpbGUubWFlPic=

> <r_lp_tautomer_probability>
1

> <r_epik_Ionization_Penalty>
3.2601

> <r_epik_Ionization_Penalty_Charging>
3.1406

> <r_epik_Ionization_Penalty_Neutral>
0.119497

> <r_epik_State_Penalty>
3.08894

> <r_epik_Charging_Adjusted_Penalty>
6.22954

> <i_epik_Tot_Q>
0

> <i_epik_Tot_abs_Q>
2

> <r_epik_Metal_State_Penalty>
0.510807

> <b_epik_Metal_Only>
1

> <s_lp_Force_Field>
OPLS_2005

> <r_lp_Energy>
28.762

> <b_lp_Chiralities_Consistent>
1

> <s_lp_Variant>
AV-unprocessed.smi:1809-18

> <Gold.Version>
5.8.1

> <Gold.Id.Protein>
6NUR|6NUR_protein|mol2

> <Gold.PLP.Fitness>
37.2910

> <Gold.PLP.PLP>
-23.6475

> <Gold.PLP.part.hbond>
-3.9955

> <Gold.PLP.part.metal>
0.0000

> <Gold.PLP.part.buried>
-6.0534

> <Gold.PLP.part.nonpolar>
-15.3612

> <Gold.PLP.part.repulsive>
0.4354

> <Gold.PLP.ligand.clash>
0.0000

> <Gold.PLP.ligand.torsion>
0.6835

> <Gold.PLP.Chemscore.Hbond>
5.0000

> <Gold.PLP.Chemscore.CHOScore>
0.0000

> <Gold.PLP.Chemscore.Metal>
0.0000

> <Gold.Chemscore.Hbonds>
donor molecule, donor type, donor heavy atom, donor atom, acceptor molecule, acceptor atom, score
      L1  H     9    24       P1  7948  1.00
      L1  H    13    39       P1 10957  1.92
      P1  H  7989  7998       L1     4  0.95
      P1  H  7997  8010       L1     3  0.94

> <Gold.PLP.Chemscore.Internal.Correction>
0.0105

> <Gold.Rescore>
     Score         DG    S(hbond)    S(metal)    S(lipo)     H(rot)  DE(clash)    DE(int)     intcor
     17.25     -19.33       3.59        0.00      45.01       1.32       0.00       2.08       ----

> <Gold.Chemscore.Fitness>
17.2496

> <Gold.Chemscore.DG>
-19.3296

> <Gold.Chemscore.ZeroCoef>
-5.4800

> <Gold.Chemscore.Hbond>
3.5852

> <Gold.Chemscore.Metal>
0.0000

> <Gold.Chemscore.Lipo>
45.0080

> <Gold.Chemscore.Internal_Hbond>
0.0000

> <Gold.Chemscore.DEClash>
0.0000

> <Gold.Chemscore.DEInternal>
2.0800

> <Gold.Chemscore.Rot>
1.3246

> <Gold.Chemscore.Internal.Correction>
   9.000000E+99

> <Gold.Chemscore.Hbonds>
donor molecule, donor type, donor heavy atom, donor atom, acceptor molecule, acceptor atom, score
      L1  H     9    24       P1  7948  1.00
      L1  H    13    39       P1 10957  0.78
      P1  H  7989  7998       L1     4  0.21
      P1  H  7997  8010       L1     3  0.23

> <Gold.Chemscore.Hbond.Weighted>
-11.9746

> <Gold.Chemscore.Metal.Weighted>
-0.0000

> <Gold.Chemscore.Lipo.Weighted>
-5.2659

> <Gold.Chemscore.Internal_Hbond.Weighted>
0.0000

> <Gold.Chemscore.DEClash.Weighted>
0.0000

> <Gold.Chemscore.DEInternal.Weighted>
2.0800

> <Gold.Chemscore.Rot.Weighted>
3.3910

> <Gold.Chemscore.Internal.Correction.Weighted>
   9.000000E+99

> <Gold.Protein.RotatedTorsions>
[ 6907 6896 6895 6894 ] final  -95.71 input  -60.11 | X-H torsion
[ 7974 7965 7964 7962 ] final   11.12 input  175.53 | X-H torsion
[ 8008 7997 7996 7995 ] final   89.52 input   59.86 | X-H torsion
[ 10167 10162 10161 10158 ] final -168.16 input  -65.29 | X-H torsion
[ 10718 10713 10712 10709 ] final   20.89 input   66.30 | X-H torsion
[ 10763 10752 10751 10750 ] final   81.67 input  -60.55 | X-H torsion
[ 11005 11000 10999 10996 ] final   31.42 input  -57.11 | X-H torsion

> <Gold.Protein.ActiveResidues>
 VAL166  LYS551  ARG553  GLY616  TRP617  ASP618  TYR619  PRO620  LYS621  CYS622 
 ASP623  PHE694  ASN695  SER759  ASP760  ASP761  ALA762  ILE779  LEU786  VAL792 
 PHE793  MET794  SER795  GLU796  ALA797  LYS798  CYS799  TRP800  GLU811  SER814 

> <Gold.Protein.RotatedAtoms>
  150.6970  134.1616  159.4178 H   0  0  0  0  0  0  0  0  0  0  0  0  # atno 6907 bound_to 6896
  151.9596  135.0127  160.0556 H   0  0  0  0  0  0  0  0  0  0  0  0  # atno 6908 bound_to 6896
  152.1938  133.4757  159.5059 H   0  0  0  0  0  0  0  0  0  0  0  0  # atno 6909 bound_to 6896
  146.2376  139.9532  142.8468 H   0  0  0  0  0  0  0  0  0  0  0  0  # atno 7974 bound_to 7965
  156.0010  140.3360  155.6845 H   0  0  0  0  0  0  0  0  0  0  0  0  # atno 8008 bound_to 7997
  155.6291  140.0683  157.2672 H   0  0  0  0  0  0  0  0  0  0  0  0  # atno 8009 bound_to 7997
  154.4249  140.1763  156.1440 H   0  0  0  0  0  0  0  0  0  0  0  0  # atno 8010 bound_to 7997
  139.6003  144.1026  152.1735 H   0  0  0  0  0  0  0  0  0  0  0  0  # atno 10167 bound_to 10162
  157.1308  130.6590  149.5951 H   0  0  0  0  0  0  0  0  0  0  0  0  # atno 10718 bound_to 10713
  153.1136  135.4757  154.9078 H   0  0  0  0  0  0  0  0  0  0  0  0  # atno 10763 bound_to 10752
  154.7506  135.3105  154.8567 H   0  0  0  0  0  0  0  0  0  0  0  0  # atno 10764 bound_to 10752
  153.9149  135.6861  153.4803 H   0  0  0  0  0  0  0  0  0  0  0  0  # atno 10765 bound_to 10752
  140.2841  134.2939  155.7793 H   0  0  0  0  0  0  0  0  0  0  0  0  # atno 11005 bound_to 11000
  145.1842  140.9781  143.4249 LP  0  0  0  0  0  0  0  0  0  0  0  0  # atno 17320 bound_to 7965
  144.9915  139.3685  143.6212 LP  0  0  0  0  0  0  0  0  0  0  0  0  # atno 17321 bound_to 7965
  140.0620  144.5849  150.7256 LP  0  0  0  0  0  0  0  0  0  0  0  0  # atno 17342 bound_to 10162
  140.7244  143.2621  151.4170 LP  0  0  0  0  0  0  0  0  0  0  0  0  # atno 17343 bound_to 10162
  155.9808  130.4812  150.6795 LP  0  0  0  0  0  0  0  0  0  0  0  0  # atno 17370 bound_to 10713
  157.4394  131.0859  151.0958 LP  0  0  0  0  0  0  0  0  0  0  0  0  # atno 17371 bound_to 10713
  141.2158  133.7544  156.9525 LP  0  0  0  0  0  0  0  0  0  0  0  0  # atno 17394 bound_to 11000
  140.1256  134.9389  157.2265 LP  0  0  0  0  0  0  0  0  0  0  0  0  # atno 17395 bound_to 11000

$$$$
