AV-unprocessed.smi:1920|AV-procd|sdf|7780|dock1
  -GOLD-   22720 9523D 1   1.00000     0.00000
 Structure written by MMmdl.
 37 38  0  0  0  0  0  0  0  0  2 V2000
  151.6748  137.4594  157.1055 C   0  0  0  0  0  0  0  0  0  0  0  0
  152.5044  138.7309  156.8817 C   0  0  1  0  0  0  0  0  0  0  0  0
  152.4583  139.1745  155.4041 C   0  0  0  0  0  0  0  0  0  0  0  0
  151.1278  139.0304  154.8033 N   0  0  0  0  0  0  0  0  0  0  0  0
  150.0398  139.8438  154.9917 C   0  0  0  0  0  0  0  0  0  0  0  0
  149.0240  139.3196  154.2348 C   0  0  0  0  0  0  0  0  0  0  0  0
  149.5368  138.2146  153.6100 N   0  3  0  0  0  0  0  0  0  0  0  0
  150.8170  138.0422  153.9543 C   0  0  0  0  0  0  0  0  0  0  0  0
  152.0014  139.7849  157.7618 N   0  0  0  0  0  0  0  0  0  0  0  0
  152.6968  140.3957  158.7345 C   0  0  0  0  0  0  0  0  0  0  0  0
  153.8715  140.1326  158.9931 O   0  0  0  0  0  0  0  0  0  0  0  0
  151.9468  141.4722  159.5282 C   0  0  0  0  0  0  0  0  0  0  0  0
  152.6760  142.8329  159.6023 C   0  0  1  0  0  0  0  0  0  0  0  0
  152.4421  143.7156  158.4000 C   0  0  0  0  0  0  0  0  0  0  0  0
  151.9708  144.9169  158.7252 C   0  0  0  0  0  0  0  0  0  0  0  0
  151.7919  145.0826  160.2082 C   0  0  0  0  0  0  0  0  0  0  0  0
  152.2003  143.7102  160.7893 C   0  0  0  0  0  0  0  0  0  0  0  0
  152.0406  136.6388  156.4876 H   0  0  0  0  0  0  0  0  0  0  0  0
  150.6249  137.6198  156.8574 H   0  0  0  0  0  0  0  0  0  0  0  0
  151.7263  137.1342  158.1452 H   0  0  0  0  0  0  0  0  0  0  0  0
  153.5357  138.4898  157.1456 H   0  0  0  0  0  0  0  0  0  0  0  0
  152.7317  140.2270  155.3178 H   0  0  0  0  0  0  0  0  0  0  0  0
  153.1777  138.6123  154.8059 H   0  0  0  0  0  0  0  0  0  0  0  0
  150.0669  140.7082  155.6395 H   0  0  0  0  0  0  0  0  0  0  0  0
  148.0023  139.6426  154.0971 H   0  0  0  0  0  0  0  0  0  0  0  0
  151.4673  137.2540  153.6187 H   0  0  0  0  0  0  0  0  0  0  0  0
  151.0402  140.0649  157.6277 H   0  0  0  0  0  0  0  0  0  0  0  0
  150.9581  141.6144  159.0885 H   0  0  0  0  0  0  0  0  0  0  0  0
  151.7823  141.0916  160.5368 H   0  0  0  0  0  0  0  0  0  0  0  0
  153.7514  142.6693  159.6863 H   0  0  0  0  0  0  0  0  0  0  0  0
  152.6622  143.3903  157.3949 H   0  0  0  0  0  0  0  0  0  0  0  0
  151.7443  145.7083  158.0259 H   0  0  0  0  0  0  0  0  0  0  0  0
  152.4339  145.8836  160.5760 H   0  0  0  0  0  0  0  0  0  0  0  0
  150.7560  145.3301  160.4418 H   0  0  0  0  0  0  0  0  0  0  0  0
  151.3500  143.2564  161.3004 H   0  0  0  0  0  0  0  0  0  0  0  0
  152.9916  143.8214  161.5316 H   0  0  0  0  0  0  0  0  0  0  0  0
  149.0231  137.6124  152.9789 H   0  0  0  0  0  0  0  0  0  0  0  0
  1  2  1  0  0  0  0
  1 18  1  0  0  0  0
  1 19  1  0  0  0  0
  1 20  1  0  0  0  0
  2  3  1  0  0  0  0
  2  9  1  0  0  0  0
  2 21  1  0  0  0  0
  3  4  1  0  0  0  0
  3 22  1  0  0  0  0
  3 23  1  0  0  0  0
  4  8  1  0  0  0  0
  4  5  1  0  0  0  0
  5  6  2  0  0  0  0
  5 24  1  0  0  0  0
  6  7  1  0  0  0  0
  6 25  1  0  0  0  0
  7  8  2  0  0  0  0
  7 37  1  0  0  0  0
  8 26  1  0  0  0  0
  9 10  1  0  0  0  0
  9 27  1  0  0  0  0
 10 11  2  0  0  0  0
 10 12  1  0  0  0  0
 12 13  1  0  0  0  0
 12 28  1  0  0  0  0
 12 29  1  0  0  0  0
 13 17  1  0  0  0  0
 13 14  1  0  0  0  0
 13 30  1  0  0  0  0
 14 15  2  0  0  0  0
 14 31  1  0  0  0  0
 15 16  1  0  0  0  0
 15 32  1  0  0  0  0
 16 17  1  0  0  0  0
 16 33  1  0  0  0  0
 16 34  1  0  0  0  0
 17 35  1  0  0  0  0
 17 36  1  0  0  0  0
M  CHG  1   7   1
M  END
> <s_m_source_file>
AV-unprocessed.smi

> <i_m_source_file_index>
1920

> <i_lp_mmshare_version>
43012

> <i_f3d_flags>
0

> <s_epik_input>
W2NIXTFuW2NIXVtjSF1uMVtDSDJdW0NAQEhdKFtDSDNdKVtOSF1DKD1PKVtDSDJdW0NAQEhdMltDSF09W0NIXVtDSDJdW0NIMl0y

> <s_epik_cmdline>
J2VwaWtfcHl0aG9uJywgJy1waCcsICc3LjAnLCAnLXRuJywgJzgnLCAnLW1hJywgJzIwMCcsICctbWV0YWxfYmluZGluZycsICctaW1hZScsICc8aW5maWxlLm1hZT4nLCAnLW9tYWUnLCAnPG91dGZpbGUubWFlPic=

> <r_lp_tautomer_probability>
1

> <r_epik_Ionization_Penalty>
0.24816

> <r_epik_Ionization_Penalty_Charging>
0

> <r_epik_Ionization_Penalty_Neutral>
0.24816

> <r_epik_State_Penalty>
0.2394

> <r_epik_Charging_Adjusted_Penalty>
0.2394

> <i_epik_Tot_Q>
1

> <i_epik_Tot_abs_Q>
1

> <r_epik_Metal_State_Penalty>
0.531457

> <b_epik_Metal_Only>
0

> <s_lp_Force_Field>
OPLS_2005

> <r_lp_Energy>
19.5873

> <b_lp_Chiralities_Consistent>
1

> <s_lp_Variant>
AV-unprocessed.smi:1920-4

> <Gold.Version>
5.8.1

> <Gold.Id.Protein>
6NUR|6NUR_protein|mol2

> <Gold.PLP.Fitness>
52.5881

> <Gold.PLP.PLP>
-42.2709

> <Gold.PLP.part.hbond>
-3.0000

> <Gold.PLP.part.metal>
0.0000

> <Gold.PLP.part.buried>
-1.8647

> <Gold.PLP.part.nonpolar>
-37.0373

> <Gold.PLP.part.repulsive>
0.1479

> <Gold.PLP.ligand.clash>
0.0000

> <Gold.PLP.ligand.torsion>
0.6881

> <Gold.PLP.Chemscore.Hbond>
2.9200

> <Gold.PLP.Chemscore.CHOScore>
0.9506

> <Gold.PLP.Chemscore.Metal>
0.0000

> <Gold.Chemscore.Hbonds>
donor molecule, donor type, donor heavy atom, donor atom, acceptor molecule, acceptor atom, score
      L1  H     7    37       P1  7948  1.98
      P1  H  7997  8009       L1    11  0.98
      L1  C     8    26       P1  7949  0.89

> <Gold.PLP.Chemscore.Internal.Correction>
0.0818

> <Gold.Rescore>
     Score         DG    S(hbond)    S(metal)    S(lipo)     H(rot)  DE(clash)    DE(int)     intcor
     17.19     -17.92       1.67        0.00     102.57       2.01       0.08       0.64       ----

> <Gold.Chemscore.Fitness>
17.1926

> <Gold.Chemscore.DG>
-17.9172

> <Gold.Chemscore.ZeroCoef>
-5.4800

> <Gold.Chemscore.Hbond>
1.6736

> <Gold.Chemscore.Metal>
0.0000

> <Gold.Chemscore.Lipo>
102.5687

> <Gold.Chemscore.Internal_Hbond>
0.0000

> <Gold.Chemscore.DEClash>
0.0841

> <Gold.Chemscore.DEInternal>
0.6404

> <Gold.Chemscore.Rot>
2.0130

> <Gold.Chemscore.Internal.Correction>
   9.000000E+99

> <Gold.Chemscore.Hbonds>
donor molecule, donor type, donor heavy atom, donor atom, acceptor molecule, acceptor atom, score
      L1  H     7    37       P1  7948  0.94
      P1  H  7997  8009       L1    11  0.49

> <Gold.Chemscore.Hbond.Weighted>
-5.5899

> <Gold.Chemscore.Metal.Weighted>
-0.0000

> <Gold.Chemscore.Lipo.Weighted>
-12.0005

> <Gold.Chemscore.Internal_Hbond.Weighted>
0.0000

> <Gold.Chemscore.DEClash.Weighted>
0.0841

> <Gold.Chemscore.DEInternal.Weighted>
0.6404

> <Gold.Chemscore.Rot.Weighted>
5.1533

> <Gold.Chemscore.Internal.Correction.Weighted>
   9.000000E+99

> <Gold.Protein.RotatedTorsions>
[ 6907 6896 6895 6894 ] final  154.50 input  -60.11 | X-H torsion
[ 7974 7965 7964 7962 ] final  166.11 input  175.53 | X-H torsion
[ 8008 7997 7996 7995 ] final  137.51 input   59.86 | X-H torsion
[ 10167 10162 10161 10158 ] final  153.57 input  -65.29 | X-H torsion
[ 10718 10713 10712 10709 ] final  -28.72 input   66.30 | X-H torsion
[ 10763 10752 10751 10750 ] final  -53.57 input  -60.55 | X-H torsion
[ 11005 11000 10999 10996 ] final -152.38 input  -57.11 | X-H torsion

> <Gold.Protein.ActiveResidues>
 VAL166  LYS551  ARG553  GLY616  TRP617  ASP618  TYR619  PRO620  LYS621  CYS622 
 ASP623  PHE694  ASN695  SER759  ASP760  ASP761  ALA762  ILE779  LEU786  VAL792 
 PHE793  MET794  SER795  GLU796  ALA797  LYS798  CYS799  TRP800  GLU811  SER814 

> <Gold.Protein.RotatedAtoms>
  152.0576  133.4047  159.4403 H   0  0  0  0  0  0  0  0  0  0  0  0  # atno 6907 bound_to 6896
  150.6867  134.3237  159.4807 H   0  0  0  0  0  0  0  0  0  0  0  0  # atno 6908 bound_to 6896
  152.1054  134.9311  160.0619 H   0  0  0  0  0  0  0  0  0  0  0  0  # atno 6909 bound_to 6896
  144.7475  139.8568  143.6377 H   0  0  0  0  0  0  0  0  0  0  0  0  # atno 7974 bound_to 7965
  156.3002  140.2417  156.3921 H   0  0  0  0  0  0  0  0  0  0  0  0  # atno 8008 bound_to 7997
  154.8605  140.0420  157.1681 H   0  0  0  0  0  0  0  0  0  0  0  0  # atno 8009 bound_to 7997
  154.8902  140.2962  155.5379 H   0  0  0  0  0  0  0  0  0  0  0  0  # atno 8010 bound_to 7997
  139.4826  144.5262  151.7797 H   0  0  0  0  0  0  0  0  0  0  0  0  # atno 10167 bound_to 10162
  156.4216  130.4427  149.7180 H   0  0  0  0  0  0  0  0  0  0  0  0  # atno 10718 bound_to 10713
  154.1610  135.6475  153.4986 H   0  0  0  0  0  0  0  0  0  0  0  0  # atno 10763 bound_to 10752
  153.0110  135.5360  154.6711 H   0  0  0  0  0  0  0  0  0  0  0  0  # atno 10764 bound_to 10752
  154.6024  135.2945  155.0492 H   0  0  0  0  0  0  0  0  0  0  0  0  # atno 10765 bound_to 10752
  140.7195  134.3742  157.5185 H   0  0  0  0  0  0  0  0  0  0  0  0  # atno 11005 bound_to 11000
  146.1377  139.4426  143.0129 LP  0  0  0  0  0  0  0  0  0  0  0  0  # atno 17320 bound_to 7965
  145.7066  141.0119  143.1475 LP  0  0  0  0  0  0  0  0  0  0  0  0  # atno 17321 bound_to 7965
  140.4782  144.1488  150.5928 LP  0  0  0  0  0  0  0  0  0  0  0  0  # atno 17342 bound_to 10162
  140.4307  143.2569  151.9599 LP  0  0  0  0  0  0  0  0  0  0  0  0  # atno 17343 bound_to 10162
  156.4118  130.7726  151.2739 LP  0  0  0  0  0  0  0  0  0  0  0  0  # atno 17370 bound_to 10713
  157.7508  131.0209  150.3728 LP  0  0  0  0  0  0  0  0  0  0  0  0  # atno 17371 bound_to 10713
  139.8851  134.8945  156.2661 LP  0  0  0  0  0  0  0  0  0  0  0  0  # atno 17394 bound_to 11000
  141.0015  133.7148  156.0968 LP  0  0  0  0  0  0  0  0  0  0  0  0  # atno 17395 bound_to 11000

$$$$
