AV-unprocessed.smi:2771|AV-procd|sdf|10662|dock10
  -GOLD-   2272015113D 1   1.00000     0.00000
 Structure written by MMmdl.
 43 44  0  0  0  0  0  0  0  0  1 V2000
  151.6990  145.0305  159.9467 C   0  0  0  0  0  0  0  0  0  0  0  0
  152.0814  143.6107  159.5853 C   0  0  0  0  0  0  0  0  0  0  0  0
  153.1671  142.9697  160.2133 C   0  0  0  0  0  0  0  0  0  0  0  0
  153.4691  141.6504  159.8311 C   0  0  0  0  0  0  0  0  0  0  0  0
  152.6790  141.0310  158.8431 C   0  0  0  0  0  0  0  0  0  0  0  0
  151.6078  141.7455  158.2608 C   0  0  0  0  0  0  0  0  0  0  0  0
  150.8729  141.0341  157.2753 N   0  0  0  0  0  0  0  0  0  0  0  0
  151.3425  140.2019  156.3293 C   0  0  0  0  0  0  0  0  0  0  0  0
  152.5266  139.9075  156.1629 O   0  0  0  0  0  0  0  0  0  0  0  0
  150.3474  139.7127  155.5757 N   0  0  0  0  0  0  0  0  0  0  0  0
  150.5105  138.7739  154.4696 C   0  0  0  0  0  0  0  0  0  0  0  0
  151.1988  137.4675  154.9307 C   0  0  2  0  0  0  0  0  0  0  0  0
  152.0163  137.0492  153.8533 O   0  0  0  0  0  0  0  0  0  0  0  0
  150.2252  136.3031  155.2682 C   0  0  0  0  0  0  0  0  0  0  0  0
  149.3010  136.6214  156.4708 C   0  0  0  0  0  0  0  0  0  0  0  0
  148.3634  135.4521  156.8152 C   0  0  0  0  0  0  0  0  0  0  0  0
  149.1491  134.1641  157.0891 C   0  0  0  0  0  0  0  0  0  0  0  0
  150.0540  133.8211  155.8997 C   0  0  0  0  0  0  0  0  0  0  0  0
  150.9941  134.9890  155.5623 C   0  0  0  0  0  0  0  0  0  0  0  0
  151.3252  143.0177  158.6367 N   0  0  0  0  0  0  0  0  0  0  0  0
  152.1998  145.3535  160.8597 H   0  0  0  0  0  0  0  0  0  0  0  0
  150.6231  145.1086  160.1052 H   0  0  0  0  0  0  0  0  0  0  0  0
  151.9784  145.7122  159.1431 H   0  0  0  0  0  0  0  0  0  0  0  0
  153.7539  143.4730  160.9676 H   0  0  0  0  0  0  0  0  0  0  0  0
  154.2929  141.1213  160.2868 H   0  0  0  0  0  0  0  0  0  0  0  0
  152.8979  140.0180  158.5383 H   0  0  0  0  0  0  0  0  0  0  0  0
  149.8735  141.1734  157.2945 H   0  0  0  0  0  0  0  0  0  0  0  0
  149.4046  140.0073  155.7836 H   0  0  0  0  0  0  0  0  0  0  0  0
  149.4986  138.5819  154.1217 H   0  0  0  0  0  0  0  0  0  0  0  0
  151.0340  139.2260  153.6249 H   0  0  0  0  0  0  0  0  0  0  0  0
  151.8321  137.6658  155.7967 H   0  0  0  0  0  0  0  0  0  0  0  0
  151.4593  136.8308  153.1211 H   0  0  0  0  0  0  0  0  0  0  0  0
  149.5907  136.1322  154.3969 H   0  0  0  0  0  0  0  0  0  0  0  0
  149.9061  136.8724  157.3431 H   0  0  0  0  0  0  0  0  0  0  0  0
  148.6780  137.4902  156.2677 H   0  0  0  0  0  0  0  0  0  0  0  0
  147.7562  135.7073  157.6843 H   0  0  0  0  0  0  0  0  0  0  0  0
  147.6683  135.2874  155.9909 H   0  0  0  0  0  0  0  0  0  0  0  0
  149.7535  134.2860  157.9890 H   0  0  0  0  0  0  0  0  0  0  0  0
  148.4613  133.3409  157.2847 H   0  0  0  0  0  0  0  0  0  0  0  0
  150.6377  132.9275  156.1232 H   0  0  0  0  0  0  0  0  0  0  0  0
  149.4423  133.5808  155.0293 H   0  0  0  0  0  0  0  0  0  0  0  0
  151.6054  134.6987  154.7078 H   0  0  0  0  0  0  0  0  0  0  0  0
  151.6855  135.1475  156.3913 H   0  0  0  0  0  0  0  0  0  0  0  0
  1  2  1  0  0  0  0
  1 21  1  0  0  0  0
  1 22  1  0  0  0  0
  1 23  1  0  0  0  0
  2 20  1  0  0  0  0
  2  3  2  0  0  0  0
  3  4  1  0  0  0  0
  3 24  1  0  0  0  0
  4  5  2  0  0  0  0
  4 25  1  0  0  0  0
  5  6  1  0  0  0  0
  5 26  1  0  0  0  0
  6  7  1  0  0  0  0
  6 20  2  0  0  0  0
  7  8  1  0  0  0  0
  7 27  1  0  0  0  0
  8  9  2  0  0  0  0
  8 10  1  0  0  0  0
 10 11  1  0  0  0  0
 10 28  1  0  0  0  0
 11 12  1  0  0  0  0
 11 29  1  0  0  0  0
 11 30  1  0  0  0  0
 12 13  1  0  0  0  0
 12 14  1  0  0  0  0
 12 31  1  0  0  0  0
 13 32  1  0  0  0  0
 14 19  1  0  0  0  0
 14 15  1  0  0  0  0
 14 33  1  0  0  0  0
 15 16  1  0  0  0  0
 15 34  1  0  0  0  0
 15 35  1  0  0  0  0
 16 17  1  0  0  0  0
 16 36  1  0  0  0  0
 16 37  1  0  0  0  0
 17 18  1  0  0  0  0
 17 38  1  0  0  0  0
 17 39  1  0  0  0  0
 18 19  1  0  0  0  0
 18 40  1  0  0  0  0
 18 41  1  0  0  0  0
 19 42  1  0  0  0  0
 19 43  1  0  0  0  0
M  END
> <s_m_source_file>
AV-unprocessed.smi

> <i_m_source_file_index>
2771

> <i_lp_mmshare_version>
43012

> <i_f3d_flags>
0

> <s_epik_input>
W0NIM11jMVtjSF1bY0hdW2NIXWMobjEpW05IXUMoPU8pW05IXVtDSDJdW0NASF0oW09IXSlbQ0hdMltDSDJdW0NIMl1bQ0gyXVtDSDJdW0NIMl0y

> <s_epik_cmdline>
J2VwaWtfcHl0aG9uJywgJy1waCcsICc3LjAnLCAnLXRuJywgJzgnLCAnLW1hJywgJzIwMCcsICctbWV0YWxfYmluZGluZycsICctaW1hZScsICc8aW5maWxlLm1hZT4nLCAnLW9tYWUnLCAnPG91dGZpbGUubWFlPic=

> <r_lp_tautomer_probability>
1

> <r_epik_Ionization_Penalty>
8.92802e-05

> <r_epik_Ionization_Penalty_Charging>
0

> <r_epik_Ionization_Penalty_Neutral>
8.92802e-05

> <r_epik_State_Penalty>
-0

> <r_epik_Charging_Adjusted_Penalty>
0

> <i_epik_Tot_Q>
0

> <i_epik_Tot_abs_Q>
0

> <r_epik_Metal_State_Penalty>
-0

> <b_epik_Metal_Only>
0

> <s_lp_Force_Field>
OPLS_2005

> <r_lp_Energy>
16.1378

> <b_lp_Chiralities_Consistent>
1

> <s_lp_Variant>
AV-unprocessed.smi:2771-1

> <Gold.Version>
5.8.1

> <Gold.Id.Protein>
6NUR|6NUR_protein|mol2

> <Gold.PLP.Fitness>
45.9660

> <Gold.PLP.PLP>
-38.5671

> <Gold.PLP.part.hbond>
-3.0000

> <Gold.PLP.part.metal>
0.0000

> <Gold.PLP.part.buried>
-5.3345

> <Gold.PLP.part.nonpolar>
-30.0947

> <Gold.PLP.part.repulsive>
0.2169

> <Gold.PLP.ligand.clash>
0.0000

> <Gold.PLP.ligand.torsion>
0.8107

> <Gold.PLP.Chemscore.Hbond>
3.0000

> <Gold.PLP.Chemscore.CHOScore>
0.0000

> <Gold.PLP.Chemscore.Metal>
0.0000

> <Gold.Chemscore.Hbonds>
donor molecule, donor type, donor heavy atom, donor atom, acceptor molecule, acceptor atom, score
      L1  H    13    32       P1  7949  1.00
      P1  H  7997  8010       L1     9  1.00
      P1  H 10752 10763       L1    13  1.00

> <Gold.PLP.Chemscore.Internal.Correction>
0.0202

> <Gold.Rescore>
     Score         DG    S(hbond)    S(metal)    S(lipo)     H(rot)  DE(clash)    DE(int)     intcor
     18.12     -20.11       2.75        0.00      89.27       1.95       0.00       1.98       ----

> <Gold.Chemscore.Fitness>
18.1231

> <Gold.Chemscore.DG>
-20.1078

> <Gold.Chemscore.ZeroCoef>
-5.4800

> <Gold.Chemscore.Hbond>
2.7497

> <Gold.Chemscore.Metal>
0.0000

> <Gold.Chemscore.Lipo>
89.2742

> <Gold.Chemscore.Internal_Hbond>
0.0000

> <Gold.Chemscore.DEClash>
0.0029

> <Gold.Chemscore.DEInternal>
1.9818

> <Gold.Chemscore.Rot>
1.9536

> <Gold.Chemscore.Internal.Correction>
   9.000000E+99

> <Gold.Chemscore.Hbonds>
donor molecule, donor type, donor heavy atom, donor atom, acceptor molecule, acceptor atom, score
      L1  H    13    32       P1  7949  0.84
      P1  H  7997  8010       L1     9  1.00
      P1  H 10752 10763       L1    13  0.38

> <Gold.Chemscore.Hbond.Weighted>
-9.1840

> <Gold.Chemscore.Metal.Weighted>
-0.0000

> <Gold.Chemscore.Lipo.Weighted>
-10.4451

> <Gold.Chemscore.Internal_Hbond.Weighted>
0.0000

> <Gold.Chemscore.DEClash.Weighted>
0.0029

> <Gold.Chemscore.DEInternal.Weighted>
1.9818

> <Gold.Chemscore.Rot.Weighted>
5.0013

> <Gold.Chemscore.Internal.Correction.Weighted>
   9.000000E+99

> <Gold.Protein.RotatedTorsions>
[ 6907 6896 6895 6894 ] final  112.26 input  -60.11 | X-H torsion
[ 7974 7965 7964 7962 ] final  169.35 input  175.53 | X-H torsion
[ 8008 7997 7996 7995 ] final   74.27 input   59.86 | X-H torsion
[ 10167 10162 10161 10158 ] final  -41.76 input  -65.29 | X-H torsion
[ 10718 10713 10712 10709 ] final   90.20 input   66.30 | X-H torsion
[ 10763 10752 10751 10750 ] final   17.28 input  -60.55 | X-H torsion
[ 11005 11000 10999 10996 ] final -155.24 input  -57.11 | X-H torsion

> <Gold.Protein.ActiveResidues>
 VAL166  LYS551  ARG553  GLY616  TRP617  ASP618  TYR619  PRO620  LYS621  CYS622 
 ASP623  PHE694  ASN695  SER759  ASP760  ASP761  ALA762  ILE779  LEU786  VAL792 
 PHE793  MET794  SER795  GLU796  ALA797  LYS798  CYS799  TRP800  GLU811  SER814 

> <Gold.Protein.RotatedAtoms>
  152.4926  133.8541  159.7216 H   0  0  0  0  0  0  0  0  0  0  0  0  # atno 6907 bound_to 6896
  150.9070  133.7036  159.2871 H   0  0  0  0  0  0  0  0  0  0  0  0  # atno 6908 bound_to 6896
  151.4458  135.1029  159.9736 H   0  0  0  0  0  0  0  0  0  0  0  0  # atno 6909 bound_to 6896
  144.7358  139.9041  143.6411 H   0  0  0  0  0  0  0  0  0  0  0  0  # atno 7974 bound_to 7965
  155.7960  140.3478  155.5375 H   0  0  0  0  0  0  0  0  0  0  0  0  # atno 8008 bound_to 7997
  155.8586  140.0967  157.1648 H   0  0  0  0  0  0  0  0  0  0  0  0  # atno 8009 bound_to 7997
  154.4011  140.1363  156.3920 H   0  0  0  0  0  0  0  0  0  0  0  0  # atno 8010 bound_to 7997
  140.6992  143.3076  151.3112 H   0  0  0  0  0  0  0  0  0  0  0  0  # atno 10167 bound_to 10162
  157.6958  131.0361  150.3541 H   0  0  0  0  0  0  0  0  0  0  0  0  # atno 10718 bound_to 10713
  153.1353  135.6749  153.9112 H   0  0  0  0  0  0  0  0  0  0  0  0  # atno 10763 bound_to 10752
  153.8586  135.3084  155.3438 H   0  0  0  0  0  0  0  0  0  0  0  0  # atno 10764 bound_to 10752
  154.7742  135.4923  153.9794 H   0  0  0  0  0  0  0  0  0  0  0  0  # atno 10765 bound_to 10752
  140.6886  134.4066  157.5221 H   0  0  0  0  0  0  0  0  0  0  0  0  # atno 11005 bound_to 11000
  146.1050  139.4048  143.0323 LP  0  0  0  0  0  0  0  0  0  0  0  0  # atno 17320 bound_to 7965
  145.7525  140.9967  143.1243 LP  0  0  0  0  0  0  0  0  0  0  0  0  # atno 17321 bound_to 7965
  139.6487  144.0402  152.2610 LP  0  0  0  0  0  0  0  0  0  0  0  0  # atno 17342 bound_to 10162
  139.9931  144.6347  150.7796 LP  0  0  0  0  0  0  0  0  0  0  0  0  # atno 17343 bound_to 10162
  156.3986  130.3911  149.6977 LP  0  0  0  0  0  0  0  0  0  0  0  0  # atno 17370 bound_to 10713
  156.4302  130.7811  151.2831 LP  0  0  0  0  0  0  0  0  0  0  0  0  # atno 17371 bound_to 10713
  139.8930  134.8741  156.2244 LP  0  0  0  0  0  0  0  0  0  0  0  0  # atno 17394 bound_to 11000
  141.0260  133.7015  156.1348 LP  0  0  0  0  0  0  0  0  0  0  0  0  # atno 17395 bound_to 11000

$$$$
