AV-unprocessed.smi:3314|AV-procd|sdf|12733|dock1
  -GOLD-   2272019 73D 1   1.00000     0.00000
 Structure written by MMmdl.
 38 39  0  0  0  0  0  0  0  0  2 V2000
  151.8865  145.9351  160.0537 C   0  0  0  0  0  0  0  0  0  0  0  0
  151.9886  144.5105  159.5501 C   0  0  0  0  0  0  0  0  0  0  0  0
  152.8095  143.5699  160.2010 C   0  0  0  0  0  0  0  0  0  0  0  0
  152.8589  142.2602  159.6845 C   0  0  0  0  0  0  0  0  0  0  0  0
  153.7216  141.1987  160.3337 C   0  0  0  0  0  0  0  0  0  0  0  0
  152.1567  141.8693  158.5992 N   0  0  0  0  0  0  0  0  0  0  0  0
  151.3611  142.7665  157.9662 C   0  0  0  0  0  0  0  0  0  0  0  0
  150.5835  142.4563  156.8196 N   0  0  0  0  0  0  0  0  0  0  0  0
  150.5724  141.3170  156.1026 C   0  0  0  0  0  0  0  0  0  0  0  0
  151.2575  140.3251  156.3567 O   0  0  0  0  0  0  0  0  0  0  0  0
  149.6150  141.3110  154.8953 C   0  0  2  0  0  0  0  0  0  0  0  0
  148.1116  141.2570  155.2589 C   0  0  0  0  0  0  0  0  0  0  0  0
  147.7273  139.9216  155.7757 N   0  3  1  0  0  0  0  0  0  0  0  0
  146.3058  139.8508  156.1743 C   0  0  0  0  0  0  0  0  0  0  0  0
  148.1078  138.8575  154.8201 C   0  0  0  0  0  0  0  0  0  0  0  0
  149.6101  138.9358  154.5042 C   0  0  0  0  0  0  0  0  0  0  0  0
  149.9305  140.2351  154.0065 O   0  0  0  0  0  0  0  0  0  0  0  0
  151.2574  144.1014  158.4168 C   0  0  0  0  0  0  0  0  0  0  0  0
  152.5284  146.0969  160.9202 H   0  0  0  0  0  0  0  0  0  0  0  0
  150.8598  146.1601  160.3429 H   0  0  0  0  0  0  0  0  0  0  0  0
  152.1851  146.6349  159.2730 H   0  0  0  0  0  0  0  0  0  0  0  0
  153.3858  143.8443  161.0727 H   0  0  0  0  0  0  0  0  0  0  0  0
  154.1982  141.5752  161.2393 H   0  0  0  0  0  0  0  0  0  0  0  0
  154.5034  140.8742  159.6465 H   0  0  0  0  0  0  0  0  0  0  0  0
  153.1185  140.3313  160.6035 H   0  0  0  0  0  0  0  0  0  0  0  0
  149.9571  143.1853  156.5107 H   0  0  0  0  0  0  0  0  0  0  0  0
  149.7943  142.2390  154.3507 H   0  0  0  0  0  0  0  0  0  0  0  0
  147.8721  142.0224  155.9989 H   0  0  0  0  0  0  0  0  0  0  0  0
  147.5146  141.4842  154.3742 H   0  0  0  0  0  0  0  0  0  0  0  0
  145.6495  139.9962  155.3151 H   0  0  0  0  0  0  0  0  0  0  0  0
  146.0760  140.6178  156.9148 H   0  0  0  0  0  0  0  0  0  0  0  0
  146.0797  138.8809  156.6182 H   0  0  0  0  0  0  0  0  0  0  0  0
  147.8682  137.8800  155.2401 H   0  0  0  0  0  0  0  0  0  0  0  0
  147.5265  138.9635  153.9027 H   0  0  0  0  0  0  0  0  0  0  0  0
  150.2061  138.6939  155.3852 H   0  0  0  0  0  0  0  0  0  0  0  0
  149.8692  138.1985  153.7444 H   0  0  0  0  0  0  0  0  0  0  0  0
  150.6210  144.8074  157.9028 H   0  0  0  0  0  0  0  0  0  0  0  0
  148.2718  139.7697  156.6137 H   0  0  0  0  0  0  0  0  0  0  0  0
  1  2  1  0  0  0  0
  1 19  1  0  0  0  0
  1 20  1  0  0  0  0
  1 21  1  0  0  0  0
  2 18  1  0  0  0  0
  2  3  2  0  0  0  0
  3  4  1  0  0  0  0
  3 22  1  0  0  0  0
  4  5  1  0  0  0  0
  4  6  2  0  0  0  0
  5 23  1  0  0  0  0
  5 24  1  0  0  0  0
  5 25  1  0  0  0  0
  6  7  1  0  0  0  0
  7  8  1  0  0  0  0
  7 18  2  0  0  0  0
  8  9  1  0  0  0  0
  8 26  1  0  0  0  0
  9 10  2  0  0  0  0
  9 11  1  0  0  0  0
 11 17  1  0  0  0  0
 11 12  1  0  0  0  0
 11 27  1  0  0  0  0
 12 13  1  0  0  0  0
 12 28  1  0  0  0  0
 12 29  1  0  0  0  0
 13 14  1  0  0  0  0
 13 15  1  0  0  0  0
 13 38  1  0  0  0  0
 14 30  1  0  0  0  0
 14 31  1  0  0  0  0
 14 32  1  0  0  0  0
 15 16  1  0  0  0  0
 15 33  1  0  0  0  0
 15 34  1  0  0  0  0
 16 17  1  0  0  0  0
 16 35  1  0  0  0  0
 16 36  1  0  0  0  0
 18 37  1  0  0  0  0
M  CHG  1  13   1
M  END
> <s_m_source_file>
AV-unprocessed.smi

> <i_m_source_file_index>
3314

> <i_lp_mmshare_version>
43012

> <i_f3d_flags>
0

> <s_epik_input>
W0NIM11jMVtjSF1jKFtDSDNdKW5jKFtjSF0xKVtOSF1DKD1PKVtDQEBIXTJbQ0gyXU4oW0NIM10pW0NIMl1bQ0gyXU8y

> <s_epik_cmdline>
J2VwaWtfcHl0aG9uJywgJy1waCcsICc3LjAnLCAnLXRuJywgJzgnLCAnLW1hJywgJzIwMCcsICctbWV0YWxfYmluZGluZycsICctaW1hZScsICc8aW5maWxlLm1hZT4nLCAnLW9tYWUnLCAnPG91dGZpbGUubWFlPic=

> <r_epik_Ionization_Penalty>
0.32442

> <r_epik_Ionization_Penalty_Charging>
0.314023

> <r_epik_Ionization_Penalty_Neutral>
0.0103972

> <r_epik_State_Penalty>
0.29453

> <r_epik_Charging_Adjusted_Penalty>
0.608553

> <i_epik_Tot_Q>
1

> <i_epik_Tot_abs_Q>
1

> <r_epik_Metal_State_Penalty>
0.286909

> <b_epik_Metal_Only>
0

> <s_lp_Force_Field>
OPLS_2005

> <r_lp_Energy>
14.9445

> <b_lp_Chiralities_Consistent>
1

> <s_lp_Variant>
AV-unprocessed.smi:3314-3

> <Gold.Version>
5.8.1

> <Gold.Id.Protein>
6NUR|6NUR_protein|mol2

> <Gold.PLP.Fitness>
42.6154

> <Gold.PLP.PLP>
-38.1008

> <Gold.PLP.part.hbond>
-2.0000

> <Gold.PLP.part.metal>
0.0000

> <Gold.PLP.part.buried>
-5.2792

> <Gold.PLP.part.nonpolar>
-32.8383

> <Gold.PLP.part.repulsive>
2.1649

> <Gold.PLP.ligand.clash>
0.0000

> <Gold.PLP.ligand.torsion>
0.3257

> <Gold.PLP.Chemscore.Hbond>
1.7144

> <Gold.PLP.Chemscore.CHOScore>
0.0000

> <Gold.PLP.Chemscore.Metal>
0.0000

> <Gold.Chemscore.Hbonds>
donor molecule, donor type, donor heavy atom, donor atom, acceptor molecule, acceptor atom, score
      L1  H     8    26       P1  8028  0.94
      P1  H  7989  7998       L1    17  0.69

> <Gold.PLP.Chemscore.Internal.Correction>
0.0227

> <Gold.Rescore>
     Score         DG    S(hbond)    S(metal)    S(lipo)     H(rot)  DE(clash)    DE(int)     intcor
     15.67     -18.96       1.55        0.00      92.97       1.00       0.15       3.14       ----

> <Gold.Chemscore.Fitness>
15.6716

> <Gold.Chemscore.DG>
-18.9648

> <Gold.Chemscore.ZeroCoef>
-5.4800

> <Gold.Chemscore.Hbond>
1.5470

> <Gold.Chemscore.Metal>
0.0000

> <Gold.Chemscore.Lipo>
92.9736

> <Gold.Chemscore.Internal_Hbond>
0.0000

> <Gold.Chemscore.DEClash>
0.1532

> <Gold.Chemscore.DEInternal>
3.1400

> <Gold.Chemscore.Rot>
1.0000

> <Gold.Chemscore.Internal.Correction>
   9.000000E+99

> <Gold.Chemscore.Hbonds>
donor molecule, donor type, donor heavy atom, donor atom, acceptor molecule, acceptor atom, score
      L1  H     8    26       P1  8028  0.90
      P1  H  7989  7998       L1    17  0.12

> <Gold.Chemscore.Hbond.Weighted>
-5.1669

> <Gold.Chemscore.Metal.Weighted>
-0.0000

> <Gold.Chemscore.Lipo.Weighted>
-10.8779

> <Gold.Chemscore.Internal_Hbond.Weighted>
0.0000

> <Gold.Chemscore.DEClash.Weighted>
0.1532

> <Gold.Chemscore.DEInternal.Weighted>
3.1400

> <Gold.Chemscore.Rot.Weighted>
2.5600

> <Gold.Chemscore.Internal.Correction.Weighted>
   9.000000E+99

> <Gold.Protein.RotatedTorsions>
[ 6907 6896 6895 6894 ] final -128.06 input  -60.11 | X-H torsion
[ 7974 7965 7964 7962 ] final -158.70 input  175.53 | X-H torsion
[ 8008 7997 7996 7995 ] final  -38.73 input   59.86 | X-H torsion
[ 10167 10162 10161 10158 ] final -138.34 input  -65.29 | X-H torsion
[ 10718 10713 10712 10709 ] final -155.02 input   66.30 | X-H torsion
[ 10763 10752 10751 10750 ] final -110.50 input  -60.55 | X-H torsion
[ 11005 11000 10999 10996 ] final  122.78 input  -57.11 | X-H torsion

> <Gold.Protein.ActiveResidues>
 VAL166  LYS551  ARG553  GLY616  TRP617  ASP618  TYR619  PRO620  LYS621  CYS622 
 ASP623  PHE694  ASN695  SER759  ASP760  ASP761  ALA762  ILE779  LEU786  VAL792 
 PHE793  MET794  SER795  GLU796  ALA797  LYS798  CYS799  TRP800  GLU811  SER814 

> <Gold.Protein.RotatedAtoms>
  150.9138  133.6964  159.2848 H   0  0  0  0  0  0  0  0  0  0  0  0  # atno 6907 bound_to 6896
  151.4442  135.1022  159.9688 H   0  0  0  0  0  0  0  0  0  0  0  0  # atno 6908 bound_to 6896
  152.4944  133.8539  159.7271 H   0  0  0  0  0  0  0  0  0  0  0  0  # atno 6909 bound_to 6896
  144.7495  140.3790  143.6059 H   0  0  0  0  0  0  0  0  0  0  0  0  # atno 7974 bound_to 7965
  154.4032  140.1570  156.2747 H   0  0  0  0  0  0  0  0  0  0  0  0  # atno 8008 bound_to 7997
  155.8922  140.3438  155.5942 H   0  0  0  0  0  0  0  0  0  0  0  0  # atno 8009 bound_to 7997
  155.7545  140.0809  157.2176 H   0  0  0  0  0  0  0  0  0  0  0  0  # atno 8010 bound_to 7997
  139.8488  143.7226  152.2659 H   0  0  0  0  0  0  0  0  0  0  0  0  # atno 10167 bound_to 10162
  156.5071  130.8418  151.2632 H   0  0  0  0  0  0  0  0  0  0  0  0  # atno 10718 bound_to 10713
  154.8251  135.4562  154.0895 H   0  0  0  0  0  0  0  0  0  0  0  0  # atno 10763 bound_to 10752
  153.2216  135.6894  153.8000 H   0  0  0  0  0  0  0  0  0  0  0  0  # atno 10764 bound_to 10752
  153.7415  135.3311  155.3281 H   0  0  0  0  0  0  0  0  0  0  0  0  # atno 10765 bound_to 10752
  139.9283  134.9641  156.8160 H   0  0  0  0  0  0  0  0  0  0  0  0  # atno 11005 bound_to 11000
  145.6998  139.1658  143.2599 LP  0  0  0  0  0  0  0  0  0  0  0  0  # atno 17320 bound_to 7965
  146.1424  140.7040  142.9361 LP  0  0  0  0  0  0  0  0  0  0  0  0  # atno 17321 bound_to 7965
  139.7486  144.7540  151.0541 LP  0  0  0  0  0  0  0  0  0  0  0  0  # atno 17342 bound_to 10162
  140.7790  143.4887  150.9922 LP  0  0  0  0  0  0  0  0  0  0  0  0  # atno 17343 bound_to 10162
  157.7455  130.9962  150.2771 LP  0  0  0  0  0  0  0  0  0  0  0  0  # atno 17370 bound_to 10713
  156.3276  130.3795  149.7519 LP  0  0  0  0  0  0  0  0  0  0  0  0  # atno 17371 bound_to 10713
  140.6273  133.9938  155.7645 LP  0  0  0  0  0  0  0  0  0  0  0  0  # atno 17394 bound_to 11000
  141.0856  133.9996  157.3319 LP  0  0  0  0  0  0  0  0  0  0  0  0  # atno 17395 bound_to 11000

$$$$
