AV-unprocessed.smi:2806|AV-procd|sdf|10815|dock2
  -GOLD-   2272015253D 1   1.00000     0.00000
 Structure written by MMmdl.
 47 48  0  0  0  0  0  0  0  0  1 V2000
  145.6901  143.9005  161.6499 C   0  0  0  0  0  0  0  0  0  0  0  0
  146.0993  144.1583  160.1897 C   0  0  0  0  0  0  0  0  0  0  0  0
  145.3548  145.4063  159.6835 C   0  0  0  0  0  0  0  0  0  0  0  0
  147.6205  144.3894  160.1337 C   0  0  0  0  0  0  0  0  0  0  0  0
  145.6472  142.6739  159.2203 S   0  0  0  0  0  0  0  0  0  0  0  0
  145.9224  143.1199  157.4745 C   0  0  0  0  0  0  0  0  0  0  0  0
  146.5342  141.9982  156.6340 C   0  0  0  0  0  0  0  0  0  0  0  0
  145.9472  140.9234  156.5077 O   0  0  0  0  0  0  0  0  0  0  0  0
  147.7123  142.2664  156.0511 N   0  0  0  0  0  0  0  0  0  0  0  0
  148.4185  141.3594  155.1547 C   0  0  0  0  0  0  0  0  0  0  0  0
  149.7768  140.9441  155.6928 C   0  0  0  0  0  0  0  0  0  0  0  0
  150.4897  139.8832  155.1018 C   0  0  0  0  0  0  0  0  0  0  0  0
  151.7444  139.5424  155.6390 C   0  0  0  0  0  0  0  0  0  0  0  0
  152.2967  140.1802  156.6922 N   0  0  0  0  0  0  0  0  0  0  0  0
  151.6210  141.2058  157.2676 C   0  0  0  0  0  0  0  0  0  0  0  0
  152.2106  141.8594  158.3714 N   0  0  0  0  0  0  0  0  0  0  0  0
  151.6352  143.1309  158.8061 C   0  0  0  0  0  0  0  0  0  0  0  0
  152.5770  143.8326  159.7992 C   0  0  0  0  0  0  0  0  0  0  0  0
  152.8668  142.9592  160.8856 O   0  0  0  0  0  0  0  0  0  0  0  0
  153.5245  141.7734  160.4516 C   0  0  0  0  0  0  0  0  0  0  0  0
  152.6157  141.0005  159.4809 C   0  0  0  0  0  0  0  0  0  0  0  0
  150.3512  141.6138  156.7937 C   0  0  0  0  0  0  0  0  0  0  0  0
  145.9398  144.7467  162.2911 H   0  0  0  0  0  0  0  0  0  0  0  0
  146.1953  143.0226  162.0546 H   0  0  0  0  0  0  0  0  0  0  0  0
  144.6162  143.7299  161.7354 H   0  0  0  0  0  0  0  0  0  0  0  0
  144.2812  145.2299  159.6076 H   0  0  0  0  0  0  0  0  0  0  0  0
  145.7138  145.7222  158.7052 H   0  0  0  0  0  0  0  0  0  0  0  0
  145.5012  146.2488  160.3594 H   0  0  0  0  0  0  0  0  0  0  0  0
  147.9175  145.2081  160.7901 H   0  0  0  0  0  0  0  0  0  0  0  0
  147.9596  144.6474  159.1314 H   0  0  0  0  0  0  0  0  0  0  0  0
  148.1678  143.5006  160.4499 H   0  0  0  0  0  0  0  0  0  0  0  0
  144.9999  143.4855  157.0259 H   0  0  0  0  0  0  0  0  0  0  0  0
  146.6233  143.9546  157.4569 H   0  0  0  0  0  0  0  0  0  0  0  0
  148.1281  143.1731  156.2074 H   0  0  0  0  0  0  0  0  0  0  0  0
  147.8103  140.4641  155.0244 H   0  0  0  0  0  0  0  0  0  0  0  0
  148.5203  141.8097  154.1657 H   0  0  0  0  0  0  0  0  0  0  0  0
  150.0905  139.3438  154.2557 H   0  0  0  0  0  0  0  0  0  0  0  0
  152.3201  138.7343  155.2127 H   0  0  0  0  0  0  0  0  0  0  0  0
  151.4652  143.7830  157.9484 H   0  0  0  0  0  0  0  0  0  0  0  0
  150.6673  142.9478  159.2749 H   0  0  0  0  0  0  0  0  0  0  0  0
  153.5020  144.1387  159.3078 H   0  0  0  0  0  0  0  0  0  0  0  0
  152.1077  144.7374  160.1858 H   0  0  0  0  0  0  0  0  0  0  0  0
  154.4756  142.0235  159.9782 H   0  0  0  0  0  0  0  0  0  0  0  0
  153.7541  141.1570  161.3209 H   0  0  0  0  0  0  0  0  0  0  0  0
  151.7203  140.6630  160.0040 H   0  0  0  0  0  0  0  0  0  0  0  0
  153.1383  140.1096  159.1361 H   0  0  0  0  0  0  0  0  0  0  0  0
  149.8100  142.4183  157.2690 H   0  0  0  0  0  0  0  0  0  0  0  0
  1  2  1  0  0  0  0
  1 23  1  0  0  0  0
  1 24  1  0  0  0  0
  1 25  1  0  0  0  0
  2  3  1  0  0  0  0
  2  4  1  0  0  0  0
  2  5  1  0  0  0  0
  3 26  1  0  0  0  0
  3 27  1  0  0  0  0
  3 28  1  0  0  0  0
  4 29  1  0  0  0  0
  4 30  1  0  0  0  0
  4 31  1  0  0  0  0
  5  6  1  0  0  0  0
  6  7  1  0  0  0  0
  6 32  1  0  0  0  0
  6 33  1  0  0  0  0
  7  8  2  0  0  0  0
  7  9  1  0  0  0  0
  9 10  1  0  0  0  0
  9 34  1  0  0  0  0
 10 11  1  0  0  0  0
 10 35  1  0  0  0  0
 10 36  1  0  0  0  0
 11 22  1  0  0  0  0
 11 12  2  0  0  0  0
 12 13  1  0  0  0  0
 12 37  1  0  0  0  0
 13 14  2  0  0  0  0
 13 38  1  0  0  0  0
 14 15  1  0  0  0  0
 15 16  1  0  0  0  0
 15 22  2  0  0  0  0
 16 21  1  0  0  0  0
 16 17  1  0  0  0  0
 17 18  1  0  0  0  0
 17 39  1  0  0  0  0
 17 40  1  0  0  0  0
 18 19  1  0  0  0  0
 18 41  1  0  0  0  0
 18 42  1  0  0  0  0
 19 20  1  0  0  0  0
 20 21  1  0  0  0  0
 20 43  1  0  0  0  0
 20 44  1  0  0  0  0
 21 45  1  0  0  0  0
 21 46  1  0  0  0  0
 22 47  1  0  0  0  0
M  END
> <s_m_source_file>
AV-unprocessed.smi

> <i_m_source_file_index>
2806

> <i_lp_mmshare_version>
43012

> <i_f3d_flags>
0

> <s_epik_input>
W0NIM11DKFtDSDNdKShbQ0gzXSlTW0NIMl1DKD1PKVtOSF1bQ0gyXWMxW2NIXVtjSF1uYyhbY0hdMSlOMltDSDJdW0NIMl1PW0NIMl1bQ0gyXTI=

> <s_epik_cmdline>
J2VwaWtfcHl0aG9uJywgJy1waCcsICc3LjAnLCAnLXRuJywgJzgnLCAnLW1hJywgJzIwMCcsICctbWV0YWxfYmluZGluZycsICctaW1hZScsICc8aW5maWxlLm1hZT4nLCAnLW9tYWUnLCAnPG91dGZpbGUubWFlPic=

> <r_lp_tautomer_probability>
1

> <r_epik_Ionization_Penalty>
0.00423361

> <r_epik_Ionization_Penalty_Charging>
0

> <r_epik_Ionization_Penalty_Neutral>
0.00423361

> <r_epik_State_Penalty>
0.00304279

> <r_epik_Charging_Adjusted_Penalty>
0.00304279

> <i_epik_Tot_Q>
0

> <i_epik_Tot_abs_Q>
0

> <r_epik_Metal_State_Penalty>
-0

> <b_epik_Metal_Only>
0

> <s_lp_Force_Field>
OPLS_2005

> <r_lp_Energy>
13.38

> <b_lp_Chiralities_Consistent>
1

> <s_lp_Variant>
AV-unprocessed.smi:2806-1

> <Gold.Version>
5.8.1

> <Gold.Id.Protein>
6NUR|6NUR_protein|mol2

> <Gold.PLP.Fitness>
44.6791

> <Gold.PLP.PLP>
-39.7093

> <Gold.PLP.part.hbond>
-2.0000

> <Gold.PLP.part.metal>
0.0000

> <Gold.PLP.part.buried>
-4.8130

> <Gold.PLP.part.nonpolar>
-31.8903

> <Gold.PLP.part.repulsive>
0.0933

> <Gold.PLP.ligand.clash>
0.0000

> <Gold.PLP.ligand.torsion>
0.6566

> <Gold.PLP.Chemscore.Hbond>
1.9588

> <Gold.PLP.Chemscore.CHOScore>
0.0000

> <Gold.PLP.Chemscore.Metal>
0.0000

> <Gold.Chemscore.Hbonds>
donor molecule, donor type, donor heavy atom, donor atom, acceptor molecule, acceptor atom, score
      L1  H     9    34       P1  8028  1.00
      P1  H  7997  8009       L1    14  0.94

> <Gold.PLP.Chemscore.Internal.Correction>
0.4067

> <Gold.Rescore>
     Score         DG    S(hbond)    S(metal)    S(lipo)     H(rot)  DE(clash)    DE(int)     intcor
     16.36     -17.10       1.41        0.00      96.84       1.73       0.10       0.64       ----

> <Gold.Chemscore.Fitness>
16.3567

> <Gold.Chemscore.DG>
-17.0975

> <Gold.Chemscore.ZeroCoef>
-5.4800

> <Gold.Chemscore.Hbond>
1.4125

> <Gold.Chemscore.Metal>
0.0000

> <Gold.Chemscore.Lipo>
96.8425

> <Gold.Chemscore.Internal_Hbond>
0.0000

> <Gold.Chemscore.DEClash>
0.0963

> <Gold.Chemscore.DEInternal>
0.6445

> <Gold.Chemscore.Rot>
1.7308

> <Gold.Chemscore.Internal.Correction>
   9.000000E+99

> <Gold.Chemscore.Hbonds>
donor molecule, donor type, donor heavy atom, donor atom, acceptor molecule, acceptor atom, score
      L1  H     9    34       P1  8028  0.48
      P1  H  7997  8009       L1    14  0.53

> <Gold.Chemscore.Hbond.Weighted>
-4.7178

> <Gold.Chemscore.Metal.Weighted>
-0.0000

> <Gold.Chemscore.Lipo.Weighted>
-11.3306

> <Gold.Chemscore.Internal_Hbond.Weighted>
0.0000

> <Gold.Chemscore.DEClash.Weighted>
0.0963

> <Gold.Chemscore.DEInternal.Weighted>
0.6445

> <Gold.Chemscore.Rot.Weighted>
4.4309

> <Gold.Chemscore.Internal.Correction.Weighted>
   9.000000E+99

> <Gold.Protein.RotatedTorsions>
[ 6907 6896 6895 6894 ] final -108.30 input  -60.11 | X-H torsion
[ 7974 7965 7964 7962 ] final -166.48 input  175.53 | X-H torsion
[ 8008 7997 7996 7995 ] final -167.09 input   59.86 | X-H torsion
[ 10167 10162 10161 10158 ] final  157.87 input  -65.29 | X-H torsion
[ 10718 10713 10712 10709 ] final   54.34 input   66.30 | X-H torsion
[ 10763 10752 10751 10750 ] final  131.60 input  -60.55 | X-H torsion
[ 11005 11000 10999 10996 ] final   49.86 input  -57.11 | X-H torsion

> <Gold.Protein.ActiveResidues>
 VAL166  LYS551  ARG553  GLY616  TRP617  ASP618  TYR619  PRO620  LYS621  CYS622 
 ASP623  PHE694  ASN695  SER759  ASP760  ASP761  ALA762  ILE779  LEU786  VAL792 
 PHE793  MET794  SER795  GLU796  ALA797  LYS798  CYS799  TRP800  GLU811  SER814 

> <Gold.Protein.RotatedAtoms>
  150.7493  133.9698  159.3541 H   0  0  0  0  0  0  0  0  0  0  0  0  # atno 6907 bound_to 6896
  151.7631  135.0803  160.0358 H   0  0  0  0  0  0  0  0  0  0  0  0  # atno 6908 bound_to 6896
  152.3389  133.6007  159.5898 H   0  0  0  0  0  0  0  0  0  0  0  0  # atno 6909 bound_to 6896
  144.7244  140.2660  143.6258 H   0  0  0  0  0  0  0  0  0  0  0  0  # atno 7974 bound_to 7965
  155.8729  140.0996  157.1538 H   0  0  0  0  0  0  0  0  0  0  0  0  # atno 8008 bound_to 7997
  154.3998  140.1343  156.4163 H   0  0  0  0  0  0  0  0  0  0  0  0  # atno 8009 bound_to 7997
  155.7730  140.3460  155.5259 H   0  0  0  0  0  0  0  0  0  0  0  0  # atno 8010 bound_to 7997
  139.4824  144.4877  151.8353 H   0  0  0  0  0  0  0  0  0  0  0  0  # atno 10167 bound_to 10162
  157.5248  130.8589  149.8606 H   0  0  0  0  0  0  0  0  0  0  0  0  # atno 10718 bound_to 10713
  153.7771  135.3174  155.3360 H   0  0  0  0  0  0  0  0  0  0  0  0  # atno 10763 bound_to 10752
  154.8175  135.4626  154.0688 H   0  0  0  0  0  0  0  0  0  0  0  0  # atno 10764 bound_to 10752
  153.1965  135.6916  153.8371 H   0  0  0  0  0  0  0  0  0  0  0  0  # atno 10765 bound_to 10752
  140.1067  134.5009  155.8714 H   0  0  0  0  0  0  0  0  0  0  0  0  # atno 11005 bound_to 11000
  145.8090  139.1995  143.2004 LP  0  0  0  0  0  0  0  0  0  0  0  0  # atno 17320 bound_to 7965
  146.0612  140.7968  142.9734 LP  0  0  0  0  0  0  0  0  0  0  0  0  # atno 17321 bound_to 7965
  140.4358  144.2053  150.5889 LP  0  0  0  0  0  0  0  0  0  0  0  0  # atno 17342 bound_to 10162
  140.4733  143.2405  151.9058 LP  0  0  0  0  0  0  0  0  0  0  0  0  # atno 17343 bound_to 10162
  156.0379  130.3746  150.1512 LP  0  0  0  0  0  0  0  0  0  0  0  0  # atno 17370 bound_to 10713
  156.9699  130.9831  151.3461 LP  0  0  0  0  0  0  0  0  0  0  0  0  # atno 17371 bound_to 10713
  141.2120  133.6713  156.6624 LP  0  0  0  0  0  0  0  0  0  0  0  0  # atno 17394 bound_to 11000
  140.3146  134.8058  157.4204 LP  0  0  0  0  0  0  0  0  0  0  0  0  # atno 17395 bound_to 11000

$$$$
