#       Name:                AV-unprocessed.smi:832
#       Creating user name   scv26
#       Creation time:       Fri Mar 27 01:33:13 2020


#       File generated by GOLD software.
#

@<TRIPOS>MOLECULE
AV-unprocessed.smi:832
    47    48     1
SMALL
NO_CHARGES


@<TRIPOS>ATOM
      1 ****        -2.6738   5.6563   4.3664 C.3            1 S1                 0.0000
      2 ****        -2.7877   4.8676   3.1072 C.2            1 S1                 0.0000
      3 ****        -2.3929   3.6062   2.7609 C.2            1 S1                 0.0000
      4 ****        -2.8196   3.4994   1.4052 C.2            1 S1                 0.0000
      5 ****        -2.6590   2.3719   0.5593 N.am           1 S1                 0.0000
      6 ****        -2.0357   1.2114   0.8240 C.2            1 S1                 0.0000
      7 ****        -1.4735   0.9271   1.8816 O.2            1 S1                 0.0000
      8 ****        -2.0912   0.3804  -0.2267 N.am           1 S1                 0.0000
      9 ****        -1.5094  -0.9571  -0.2683 C.3            1 S1                 0.0000
     10 ****         0.0182  -0.9215  -0.4692 C.3            1 S1                 0.0000
     11 ****         0.4819  -0.2458  -1.7585 C.3            1 S1                 0.0000
     12 ****         1.8545  -0.8669  -2.0501 C.3            1 S1                 0.0000
     13 ****         1.9877  -2.0654  -1.1829 N.4            1 S1                 1.0000
     14 ****         2.6225  -3.2490  -1.8291 C.3            1 S1                 0.0000
     15 ****         2.6724  -4.4614  -0.8791 C.3            1 S1                 0.0000
     16 ****         4.0469  -2.9184  -2.3138 C.3            1 S1                 0.0000
     17 ****         0.6580  -2.3032  -0.5796 C.3            1 S1                 0.0000
     18 ****        -3.4189   4.5934   0.9727 N.2            1 S1                 0.0000
     19 ****        -3.4012   5.4774   2.0577 O.3            1 S1                 0.0000
     20 ****        -2.1817   5.0755   5.1468 H              1 S1                 0.0000
     21 ****        -3.6592   5.9458   4.7314 H              1 S1                 0.0000
     22 ****        -2.0924   6.5636   4.2023 H              1 S1                 0.0000
     23 ****        -1.8850   2.8905   3.3892 H              1 S1                 0.0000
     24 ****        -3.0639   2.4646  -0.3606 H              1 S1                 0.0000
     25 ****        -2.5757   0.6930  -1.0555 H              1 S1                 0.0000
     26 ****        -1.7578  -1.4964   0.6473 H              1 S1                 0.0000
     27 ****        -1.9825  -1.5043  -1.0842 H              1 S1                 0.0000
     28 ****         0.4814  -0.4042   0.3729 H              1 S1                 0.0000
     29 ****        -0.2045  -0.4827  -2.5729 H              1 S1                 0.0000
     30 ****         0.5253   0.8402  -1.6688 H              1 S1                 0.0000
     31 ****         1.9269  -1.1164  -3.1096 H              1 S1                 0.0000
     32 ****         2.6611  -0.1711  -1.8166 H              1 S1                 0.0000
     33 ****         2.0200  -3.5255  -2.6959 H              1 S1                 0.0000
     34 ****         3.1742  -5.3061  -1.3519 H              1 S1                 0.0000
     35 ****         1.6765  -4.8057  -0.6000 H              1 S1                 0.0000
     36 ****         3.2158  -4.2260   0.0368 H              1 S1                 0.0000
     37 ****         4.5189  -3.7922  -2.7637 H              1 S1                 0.0000
     38 ****         4.6797  -2.5912  -1.4882 H              1 S1                 0.0000
     39 ****         4.0535  -2.1326  -3.0687 H              1 S1                 0.0000
     40 ****         0.7356  -2.7951   0.3905 H              1 S1                 0.0000
     41 ****         0.0645  -2.9392  -1.2388 H              1 S1                 0.0000
     42 ****         2.5881  -1.7889  -0.4192 H              1 S1                 0.0000
     43 ****        -1.4565   1.5877   2.6321 LP             1 S1                 0.0000
     44 ****        -1.0337   0.0356   1.9902 LP             1 S1                 0.0000
     45 ****        -3.8033   4.7558   0.0640 LP             1 S1                 0.0000
     46 ****        -2.8986   6.3054   1.8090 LP             1 S1                 0.0000
     47 ****        -4.3381   5.7194   2.3099 LP             1 S1                 0.0000
@<TRIPOS>BOND
    1    1    2 1     
    2    1   20 1     
    3    1   21 1     
    4    1   22 1     
    5    2   19 1     
    6    2    3 2     
    7    3    4 1     
    8    3   23 1     
    9    4    5 1     
   10    4   18 2     
   11    5    6 am    
   12    5   24 1     
   13    6    7 2     
   14    6    8 am    
   15    8    9 1     
   16    8   25 1     
   17    9   10 1     
   18    9   26 1     
   19    9   27 1     
   20   10   17 1     
   21   10   11 1     
   22   10   28 1     
   23   11   12 1     
   24   11   29 1     
   25   11   30 1     
   26   12   13 1     
   27   12   31 1     
   28   12   32 1     
   29   13   14 1     
   30   13   17 1     
   31   13   42 1     
   32   14   15 1     
   33   14   16 1     
   34   14   33 1     
   35   15   34 1     
   36   15   35 1     
   37   15   36 1     
   38   16   37 1     
   39   16   38 1     
   40   16   39 1     
   41   17   40 1     
   42   17   41 1     
   43   18   19 1     
   44    7   43 1     
   45    7   44 1     
   46   18   45 1     
   47   19   46 1     
   48   19   47 1     
@<TRIPOS>SUBSTRUCTURE
      1 S1             1
@<TRIPOS>SET
LONE_PAIRS      STATIC     ATOMS    <user>   **** ""
5 43 44 45 46 47
DONOR_HYDROGENS      STATIC     ATOMS    <user>   **** ""
3 24 25 42
ATOM$BLUE        STATIC     ATOMS    COLORGROUP SYSTEM
5 43 44 45 46 47
ATOM$RED        STATIC     ATOMS    COLORGROUP SYSTEM
3 24 25 42
