AV-unprocessed.smi:1348|AV-procd|sdf|5517|dock3
  -GOLD-   22720 5103D 1   1.00000     0.00000
 Structure written by MMmdl.
 31 32  0  0  0  0  0  0  0  0  1 V2000
  153.3790  140.6572  160.7043 C   0  0  0  0  0  0  0  0  0  0  0  0
  153.2431  142.1868  160.6999 C   0  0  0  0  0  0  0  0  0  0  0  0
  152.6443  142.7422  162.0000 C   0  0  0  0  0  0  0  0  0  0  0  0
  152.5167  142.6810  159.4888 C   0  0  0  0  0  0  0  0  0  0  0  0
  151.8242  141.8879  158.6660 N   0  0  0  0  0  0  0  0  0  0  0  0
  151.2554  142.5831  157.5937 C   0  0  0  0  0  0  0  0  0  0  0  0
  150.4600  141.8425  156.5574 C   0  0  0  0  0  0  0  0  0  0  0  0
  151.1891  140.5627  156.1420 C   0  0  0  0  0  0  0  0  0  0  0  0
  152.1846  140.1925  156.7643 O   0  0  0  0  0  0  0  0  0  0  0  0
  150.6830  139.9024  155.0892 N   0  0  0  0  0  0  0  0  0  0  0  0
  151.1912  138.6848  154.5476 C   0  0  0  0  0  0  0  0  0  0  0  0
  151.6434  137.6178  155.5212 C   0  0  0  0  0  0  0  0  0  0  0  0
  152.6644  138.3960  154.7379 C   0  0  0  0  0  0  0  0  0  0  0  0
  151.5140  143.9310  157.6271 C   0  0  0  0  0  0  0  0  0  0  0  0
  152.4949  144.3713  158.9977 S   0  0  0  0  0  0  0  0  0  0  0  0
  153.8827  140.3058  159.8033 H   0  0  0  0  0  0  0  0  0  0  0  0
  152.4036  140.1723  160.7512 H   0  0  0  0  0  0  0  0  0  0  0  0
  153.9606  140.3173  161.5616 H   0  0  0  0  0  0  0  0  0  0  0  0
  154.2562  142.5849  160.6334 H   0  0  0  0  0  0  0  0  0  0  0  0
  152.6399  143.8324  161.9950 H   0  0  0  0  0  0  0  0  0  0  0  0
  153.2199  142.4183  162.8674 H   0  0  0  0  0  0  0  0  0  0  0  0
  151.6167  142.4051  162.1392 H   0  0  0  0  0  0  0  0  0  0  0  0
  149.4701  141.5846  156.9359 H   0  0  0  0  0  0  0  0  0  0  0  0
  150.2995  142.4687  155.6787 H   0  0  0  0  0  0  0  0  0  0  0  0
  149.8600  140.2864  154.6473 H   0  0  0  0  0  0  0  0  0  0  0  0
  150.7490  138.3270  153.6187 H   0  0  0  0  0  0  0  0  0  0  0  0
  151.5599  137.8297  156.5854 H   0  0  0  0  0  0  0  0  0  0  0  0
  151.4791  136.5797  155.2391 H   0  0  0  0  0  0  0  0  0  0  0  0
  153.1813  137.8783  153.9325 H   0  0  0  0  0  0  0  0  0  0  0  0
  153.2608  139.1289  155.2785 H   0  0  0  0  0  0  0  0  0  0  0  0
  151.1939  144.6877  156.9261 H   0  0  0  0  0  0  0  0  0  0  0  0
  1  2  1  0  0  0  0
  1 16  1  0  0  0  0
  1 17  1  0  0  0  0
  1 18  1  0  0  0  0
  2  3  1  0  0  0  0
  2  4  1  0  0  0  0
  2 19  1  0  0  0  0
  3 20  1  0  0  0  0
  3 21  1  0  0  0  0
  3 22  1  0  0  0  0
  4 15  1  0  0  0  0
  4  5  2  0  0  0  0
  5  6  1  0  0  0  0
  6  7  1  0  0  0  0
  6 14  2  0  0  0  0
  7  8  1  0  0  0  0
  7 23  1  0  0  0  0
  7 24  1  0  0  0  0
  8  9  2  0  0  0  0
  8 10  1  0  0  0  0
 10 11  1  0  0  0  0
 10 25  1  0  0  0  0
 11 13  1  0  0  0  0
 11 12  1  0  0  0  0
 11 26  1  0  0  0  0
 12 13  1  0  0  0  0
 12 27  1  0  0  0  0
 12 28  1  0  0  0  0
 13 29  1  0  0  0  0
 13 30  1  0  0  0  0
 14 15  1  0  0  0  0
 14 31  1  0  0  0  0
M  END
> <s_m_source_file>
AV-unprocessed.smi

> <i_m_source_file_index>
1348

> <i_lp_mmshare_version>
43012

> <i_f3d_flags>
0

> <s_epik_input>
W0NIM11bQ0hdKFtDSDNdKWMxbmMoW2NIXXMxKVtDSDJdQyg9TylbTkhdW0NIXTJbQ0gyXVtDSDJdMg==

> <s_epik_cmdline>
J2VwaWtfcHl0aG9uJywgJy1waCcsICc3LjAnLCAnLXRuJywgJzgnLCAnLW1hJywgJzIwMCcsICctbWV0YWxfYmluZGluZycsICctaW1hZScsICc8aW5maWxlLm1hZT4nLCAnLW9tYWUnLCAnPG91dGZpbGUubWFlPic=

> <r_lp_tautomer_probability>
1

> <r_epik_Ionization_Penalty>
4.24015e-05

> <r_epik_Ionization_Penalty_Charging>
0

> <r_epik_Ionization_Penalty_Neutral>
4.24015e-05

> <r_epik_State_Penalty>
-0

> <r_epik_Charging_Adjusted_Penalty>
0

> <i_epik_Tot_Q>
0

> <i_epik_Tot_abs_Q>
0

> <r_epik_Metal_State_Penalty>
-0

> <b_epik_Metal_Only>
0

> <s_lp_Force_Field>
OPLS_2005

> <r_lp_Energy>
6.98318

> <b_lp_Chiralities_Consistent>
1

> <s_lp_Variant>
AV-unprocessed.smi:1348-1

> <Gold.Version>
5.8.1

> <Gold.Id.Protein>
6NUR|6NUR_protein|mol2

> <Gold.PLP.Fitness>
45.8970

> <Gold.PLP.PLP>
-41.3359

> <Gold.PLP.part.hbond>
-1.0000

> <Gold.PLP.part.metal>
0.0000

> <Gold.PLP.part.buried>
-4.3417

> <Gold.PLP.part.nonpolar>
-37.6497

> <Gold.PLP.part.repulsive>
0.6483

> <Gold.PLP.ligand.clash>
0.0000

> <Gold.PLP.ligand.torsion>
0.7632

> <Gold.PLP.Chemscore.Hbond>
0.9913

> <Gold.PLP.Chemscore.CHOScore>
0.9969

> <Gold.PLP.Chemscore.Metal>
0.0000

> <Gold.Chemscore.Hbonds>
donor molecule, donor type, donor heavy atom, donor atom, acceptor molecule, acceptor atom, score
      P1  H  7997  8008       L1     9  0.65
      L1  C    14    31       P1  8028  0.79

> <Gold.PLP.Chemscore.Internal.Correction>
0.1229

> <Gold.Rescore>
     Score         DG    S(hbond)    S(metal)    S(lipo)     H(rot)  DE(clash)    DE(int)     intcor
     12.62     -17.92       0.95        0.00     110.77       1.44       0.10       5.20       ----

> <Gold.Chemscore.Fitness>
12.6197

> <Gold.Chemscore.DG>
-17.9223

> <Gold.Chemscore.ZeroCoef>
-5.4800

> <Gold.Chemscore.Hbond>
0.9478

> <Gold.Chemscore.Metal>
0.0000

> <Gold.Chemscore.Lipo>
110.7737

> <Gold.Chemscore.Internal_Hbond>
0.0000

> <Gold.Chemscore.DEClash>
0.1017

> <Gold.Chemscore.DEInternal>
5.2009

> <Gold.Chemscore.Rot>
1.4390

> <Gold.Chemscore.Internal.Correction>
   9.000000E+99

> <Gold.Chemscore.Hbonds>
donor molecule, donor type, donor heavy atom, donor atom, acceptor molecule, acceptor atom, score
      P1  H  7997  8008       L1     9  0.63

> <Gold.Chemscore.Hbond.Weighted>
-3.1655

> <Gold.Chemscore.Metal.Weighted>
-0.0000

> <Gold.Chemscore.Lipo.Weighted>
-12.9605

> <Gold.Chemscore.Internal_Hbond.Weighted>
0.0000

> <Gold.Chemscore.DEClash.Weighted>
0.1017

> <Gold.Chemscore.DEInternal.Weighted>
5.2009

> <Gold.Chemscore.Rot.Weighted>
3.6838

> <Gold.Chemscore.Internal.Correction.Weighted>
   9.000000E+99

> <Gold.Protein.RotatedTorsions>
[ 6907 6896 6895 6894 ] final  -97.35 input  -60.11 | X-H torsion
[ 7974 7965 7964 7962 ] final  -76.04 input  175.53 | X-H torsion
[ 8008 7997 7996 7995 ] final  -50.19 input   59.86 | X-H torsion
[ 10167 10162 10161 10158 ] final  -47.92 input  -65.29 | X-H torsion
[ 10718 10713 10712 10709 ] final -128.73 input   66.30 | X-H torsion
[ 10763 10752 10751 10750 ] final  -65.47 input  -60.55 | X-H torsion
[ 11005 11000 10999 10996 ] final -145.10 input  -57.11 | X-H torsion

> <Gold.Protein.ActiveResidues>
 VAL166  LYS551  ARG553  GLY616  TRP617  ASP618  TYR619  PRO620  LYS621  CYS622 
 ASP623  PHE694  ASN695  SER759  ASP760  ASP761  ALA762  ILE779  LEU786  VAL792 
 PHE793  MET794  SER795  GLU796  ALA797  LYS798  CYS799  TRP800  GLU811  SER814 

> <Gold.Protein.RotatedAtoms>
  150.7014  134.1362  159.4087 H   0  0  0  0  0  0  0  0  0  0  0  0  # atno 6907 bound_to 6896
  151.9347  135.0238  160.0541 H   0  0  0  0  0  0  0  0  0  0  0  0  # atno 6908 bound_to 6896
  152.2145  133.4901  159.5165 H   0  0  0  0  0  0  0  0  0  0  0  0  # atno 6909 bound_to 6896
  145.6181  140.9370  143.1153 H   0  0  0  0  0  0  0  0  0  0  0  0  # atno 7974 bound_to 7965
  154.4057  140.1278  156.4626 H   0  0  0  0  0  0  0  0  0  0  0  0  # atno 8008 bound_to 7997
  155.7258  140.3492  155.5017 H   0  0  0  0  0  0  0  0  0  0  0  0  # atno 8009 bound_to 7997
  155.9173  140.1046  157.1224 H   0  0  0  0  0  0  0  0  0  0  0  0  # atno 8010 bound_to 7997
  140.6754  143.2763  151.3996 H   0  0  0  0  0  0  0  0  0  0  0  0  # atno 10167 bound_to 10162
  156.1979  130.6838  151.0504 H   0  0  0  0  0  0  0  0  0  0  0  0  # atno 10718 bound_to 10713
  154.3455  135.6147  153.5617 H   0  0  0  0  0  0  0  0  0  0  0  0  # atno 10763 bound_to 10752
  152.9801  135.5780  154.4803 H   0  0  0  0  0  0  0  0  0  0  0  0  # atno 10764 bound_to 10752
  154.4515  135.2853  155.1755 H   0  0  0  0  0  0  0  0  0  0  0  0  # atno 10765 bound_to 10752
  140.7957  134.2916  157.4997 H   0  0  0  0  0  0  0  0  0  0  0  0  # atno 11005 bound_to 11000
  144.7242  139.7929  143.7371 LP  0  0  0  0  0  0  0  0  0  0  0  0  # atno 17320 bound_to 7965
  146.1452  139.4520  143.0083 LP  0  0  0  0  0  0  0  0  0  0  0  0  # atno 17321 bound_to 7965
  139.6043  144.1229  152.2232 LP  0  0  0  0  0  0  0  0  0  0  0  0  # atno 17342 bound_to 10162
  140.0623  144.5846  150.7253 LP  0  0  0  0  0  0  0  0  0  0  0  0  # atno 17343 bound_to 10162
  157.6968  131.0791  150.6943 LP  0  0  0  0  0  0  0  0  0  0  0  0  # atno 17370 bound_to 10713
  156.7000  130.4620  149.5575 LP  0  0  0  0  0  0  0  0  0  0  0  0  # atno 17371 bound_to 10713
  139.8726  134.9400  156.3758 LP  0  0  0  0  0  0  0  0  0  0  0  0  # atno 17394 bound_to 11000
  140.9345  133.7556  156.0067 LP  0  0  0  0  0  0  0  0  0  0  0  0  # atno 17395 bound_to 11000

$$$$
