AV-unprocessed.smi:109|AV-procd|sdf|1055|dock4
  -GOLD-   2262018113D 1   1.00000     0.00000
 Structure written by MMmdl.
 58 61  0  0  0  0  0  0  0  0  1 V2000
  149.7161  135.2773  158.1874 O   0  0  0  0  0  0  0  0  0  0  0  0
  149.0097  136.4871  158.3568 C   0  0  0  0  0  0  0  0  0  0  0  0
  147.5753  136.3324  157.8229 C   0  0  0  0  0  0  0  0  0  0  0  0
  146.8090  135.1225  158.4112 C   0  0  2  0  0  0  0  0  0  0  0  0
  145.3748  135.4199  158.4286 N   0  0  0  0  0  0  0  0  0  0  0  0
  144.7136  135.8656  157.3370 C   0  0  0  0  0  0  0  0  0  0  0  0
  143.7920  136.8605  157.4185 N   0  0  0  0  0  0  0  0  0  0  0  0
  143.1562  137.2776  156.3195 C   0  0  0  0  0  0  0  0  0  0  0  0
  143.2882  136.8440  155.0636 N   0  0  0  0  0  0  0  0  0  0  0  0
  144.2106  135.8421  154.9790 C   0  0  0  0  0  0  0  0  0  0  0  0
  144.9608  135.3016  156.0592 C   0  0  0  0  0  0  0  0  0  0  0  0
  145.8009  134.2989  155.5927 N   0  0  0  0  0  0  0  0  0  0  0  0
  145.5585  134.2556  154.3097 C   0  0  0  0  0  0  0  0  0  0  0  0
  144.6153  135.1535  153.8570 N   0  0  0  0  0  0  0  0  0  0  0  0
  144.1080  135.3705  152.4656 C   0  0  2  0  0  0  0  0  0  0  0  0
  143.7627  134.1210  151.9453 O   0  0  0  0  0  0  0  0  0  0  0  0
  144.4344  133.8842  150.7095 C   0  0  2  0  0  0  0  0  0  0  0  0
  144.6685  132.3797  150.4859 C   0  0  0  0  0  0  0  0  0  0  0  0
  143.5718  131.8155  149.8000 O   0  0  0  0  0  0  0  0  0  0  0  0
  145.7002  134.7489  150.7906 C   0  0  2  0  0  0  0  0  0  0  0  0
  146.7415  134.0733  151.4772 O   0  0  0  0  0  0  0  0  0  0  0  0
  145.1884  135.9693  151.5448 C   0  0  2  0  0  0  0  0  0  0  0  0
  146.2154  136.7028  152.1910 O   0  0  0  0  0  0  0  0  0  0  0  0
  147.2706  134.7270  159.8434 C   0  0  0  0  0  0  0  0  0  0  0  0
  146.4853  133.5263  160.4286 C   0  0  0  0  0  0  0  0  0  0  0  0
  146.9249  133.1765  161.8601 C   0  0  0  0  0  0  0  0  0  0  0  0
  146.8082  134.3853  162.7962 C   0  0  0  0  0  0  0  0  0  0  0  0
  147.6056  135.5724  162.2441 C   0  0  0  0  0  0  0  0  0  0  0  0
  147.1548  135.9269  160.8189 C   0  0  0  0  0  0  0  0  0  0  0  0
  143.2308  136.0078  152.5840 H   0  0  0  0  0  0  0  0  0  0  0  0
  143.8101  134.2869  149.9093 H   0  0  0  0  0  0  0  0  0  0  0  0
  146.0685  135.0157  149.7995 H   0  0  0  0  0  0  0  0  0  0  0  0
  144.6788  136.6311  150.8432 H   0  0  0  0  0  0  0  0  0  0  0  0
  149.4514  134.8868  157.3685 H   0  0  0  0  0  0  0  0  0  0  0  0
  149.0136  136.7439  159.4160 H   0  0  0  0  0  0  0  0  0  0  0  0
  149.5340  137.2813  157.8247 H   0  0  0  0  0  0  0  0  0  0  0  0
  147.0519  137.2561  158.0632 H   0  0  0  0  0  0  0  0  0  0  0  0
  147.5920  136.2620  156.7345 H   0  0  0  0  0  0  0  0  0  0  0  0
  147.0170  134.2633  157.7742 H   0  0  0  0  0  0  0  0  0  0  0  0
  144.9117  135.2587  159.3115 H   0  0  0  0  0  0  0  0  0  0  0  0
  142.4396  138.0718  156.4679 H   0  0  0  0  0  0  0  0  0  0  0  0
  146.0656  133.5609  153.6562 H   0  0  0  0  0  0  0  0  0  0  0  0
  145.5521  132.2245  149.8660 H   0  0  0  0  0  0  0  0  0  0  0  0
  144.8341  131.8577  151.4289 H   0  0  0  0  0  0  0  0  0  0  0  0
  142.8080  131.8745  150.3534 H   0  0  0  0  0  0  0  0  0  0  0  0
  147.4029  134.7038  151.7174 H   0  0  0  0  0  0  0  0  0  0  0  0
  147.0496  136.3990  151.8672 H   0  0  0  0  0  0  0  0  0  0  0  0
  148.3218  134.4385  159.7899 H   0  0  0  0  0  0  0  0  0  0  0  0
  145.4167  133.7450  160.4175 H   0  0  0  0  0  0  0  0  0  0  0  0
  146.6271  132.6351  159.8197 H   0  0  0  0  0  0  0  0  0  0  0  0
  146.3214  132.3528  162.2422 H   0  0  0  0  0  0  0  0  0  0  0  0
  147.9568  132.8230  161.8482 H   0  0  0  0  0  0  0  0  0  0  0  0
  145.7600  134.6655  162.9075 H   0  0  0  0  0  0  0  0  0  0  0  0
  147.1684  134.1235  163.7917 H   0  0  0  0  0  0  0  0  0  0  0  0
  147.4839  136.4370  162.8973 H   0  0  0  0  0  0  0  0  0  0  0  0
  148.6697  135.3330  162.2427 H   0  0  0  0  0  0  0  0  0  0  0  0
  147.7548  136.7683  160.4723 H   0  0  0  0  0  0  0  0  0  0  0  0
  146.1229  136.2799  160.8433 H   0  0  0  0  0  0  0  0  0  0  0  0
  1  2  1  0  0  0  0
  1 34  1  0  0  0  0
  2  3  1  0  0  0  0
  2 35  1  0  0  0  0
  2 36  1  0  0  0  0
  3  4  1  0  0  0  0
  3 37  1  0  0  0  0
  3 38  1  0  0  0  0
  4  5  1  0  0  0  0
  4 24  1  0  0  0  0
  4 39  1  0  0  0  0
  5  6  1  0  0  0  0
  5 40  1  0  0  0  0
  6 11  1  0  0  0  0
  6  7  2  0  0  0  0
  7  8  1  0  0  0  0
  8  9  2  0  0  0  0
  8 41  1  0  0  0  0
  9 10  1  0  0  0  0
 10 14  1  0  0  0  0
 10 11  2  0  0  0  0
 11 12  1  0  0  0  0
 12 13  2  0  0  0  0
 13 14  1  0  0  0  0
 13 42  1  0  0  0  0
 14 15  1  0  0  0  0
 15 30  1  0  0  0  0
 15 22  1  0  0  0  0
 15 16  1  0  0  0  0
 16 17  1  0  0  0  0
 17 31  1  0  0  0  0
 17 18  1  0  0  0  0
 17 20  1  0  0  0  0
 18 19  1  0  0  0  0
 18 43  1  0  0  0  0
 18 44  1  0  0  0  0
 19 45  1  0  0  0  0
 20 32  1  0  0  0  0
 20 21  1  0  0  0  0
 20 22  1  0  0  0  0
 21 46  1  0  0  0  0
 22 33  1  0  0  0  0
 22 23  1  0  0  0  0
 23 47  1  0  0  0  0
 24 29  1  0  0  0  0
 24 25  1  0  0  0  0
 24 48  1  0  0  0  0
 25 26  1  0  0  0  0
 25 49  1  0  0  0  0
 25 50  1  0  0  0  0
 26 27  1  0  0  0  0
 26 51  1  0  0  0  0
 26 52  1  0  0  0  0
 27 28  1  0  0  0  0
 27 53  1  0  0  0  0
 27 54  1  0  0  0  0
 28 29  1  0  0  0  0
 28 55  1  0  0  0  0
 28 56  1  0  0  0  0
 29 57  1  0  0  0  0
 29 58  1  0  0  0  0
M  END
> <s_m_source_file>
AV-unprocessed.smi

> <i_m_source_file_index>
109

> <i_lp_mmshare_version>
43012

> <i_f3d_flags>
0

> <s_epik_input>
W0NIMl0xW0NIMl1bQ0gyXVtDSDJdW0NIMl1bQ0hdMVtDQEhdKFtDSDJdW0NIMl1bT0hdKVtOSF1jKG5bY0hdbjIpYyhjMjMpbltjSF1uM1tDQEBIXTRPW0NASF0oW0NIMl1bT0hdKVtDQEBIXShbT0hdKVtDQEhdNFtPSF0=

> <s_epik_cmdline>
J2VwaWtfcHl0aG9uJywgJy1waCcsICc3LjAnLCAnLXRuJywgJzgnLCAnLW1hJywgJzIwMCcsICctbWV0YWxfYmluZGluZycsICctaW1hZScsICc8aW5maWxlLm1hZT4nLCAnLW9tYWUnLCAnPG91dGZpbGUubWFlPic=

> <r_lp_tautomer_probability>
1

> <r_epik_Ionization_Penalty>
0.000793976

> <r_epik_Ionization_Penalty_Charging>
0

> <r_epik_Ionization_Penalty_Neutral>
0.000793976

> <r_epik_State_Penalty>
-0

> <r_epik_Charging_Adjusted_Penalty>
0

> <i_epik_Tot_Q>
0

> <i_epik_Tot_abs_Q>
0

> <r_epik_Metal_State_Penalty>
-0

> <b_epik_Metal_Only>
0

> <s_epik_Chemistry_Notes>
This compound contains an acetal/aminal-like group ( X-CH(R)-Y where X, Y are N, S, or O) that may be acid/base labile, releasing an aldehyde.

> <s_lp_Force_Field>
OPLS_2005

> <r_lp_Energy>
59.4654

> <b_lp_Chiralities_Consistent>
1

> <s_lp_Variant>
AV-unprocessed.smi:109-25

> <Gold.Version>
5.8.1

> <Gold.Id.Protein>
6NUR|6NUR_protein|mol2

> <Gold.PLP.Fitness>
45.7683

> <Gold.PLP.PLP>
-36.8793

> <Gold.PLP.part.hbond>
-4.6438

> <Gold.PLP.part.metal>
0.0000

> <Gold.PLP.part.buried>
-6.9867

> <Gold.PLP.part.nonpolar>
-24.8683

> <Gold.PLP.part.repulsive>
0.2054

> <Gold.PLP.ligand.clash>
0.0000

> <Gold.PLP.ligand.torsion>
1.3157

> <Gold.PLP.Chemscore.Hbond>
3.7375

> <Gold.PLP.Chemscore.CHOScore>
0.0000

> <Gold.PLP.Chemscore.Metal>
0.0000

> <Gold.Chemscore.Hbonds>
donor molecule, donor type, donor heavy atom, donor atom, acceptor molecule, acceptor atom, score
      L1  H    21    46       P1  7948  0.75
      L1  H    23    47       P1  7948  1.00
      P1  H  6896  6907       L1     1  1.00
      P1  H 10785 10796       L1    19  0.98

> <Gold.PLP.Chemscore.Internal.Correction>
0.3081

> <Gold.Rescore>
     Score         DG    S(hbond)    S(metal)    S(lipo)     H(rot)  DE(clash)    DE(int)     intcor
      8.73     -10.57       3.12        0.00      74.02       5.47       0.00       1.84       ----

> <Gold.Chemscore.Fitness>
8.7271

> <Gold.Chemscore.DG>
-10.5663

> <Gold.Chemscore.ZeroCoef>
-5.4800

> <Gold.Chemscore.Hbond>
3.1196

> <Gold.Chemscore.Metal>
0.0000

> <Gold.Chemscore.Lipo>
74.0196

> <Gold.Chemscore.Internal_Hbond>
0.0000

> <Gold.Chemscore.DEClash>
0.0038

> <Gold.Chemscore.DEInternal>
1.8354

> <Gold.Chemscore.Rot>
5.4662

> <Gold.Chemscore.Internal.Correction>
   9.000000E+99

> <Gold.Chemscore.Hbonds>
donor molecule, donor type, donor heavy atom, donor atom, acceptor molecule, acceptor atom, score
      L1  H    21    46       P1  7948  0.45
      L1  H    23    47       P1  7948  0.99
      P1  H  6896  6907       L1     1  0.94
      P1  H 10785 10796       L1    19  0.31

> <Gold.Chemscore.Hbond.Weighted>
-10.4195

> <Gold.Chemscore.Metal.Weighted>
-0.0000

> <Gold.Chemscore.Lipo.Weighted>
-8.6603

> <Gold.Chemscore.Internal_Hbond.Weighted>
0.0000

> <Gold.Chemscore.DEClash.Weighted>
0.0038

> <Gold.Chemscore.DEInternal.Weighted>
1.8354

> <Gold.Chemscore.Rot.Weighted>
13.9935

> <Gold.Chemscore.Internal.Correction.Weighted>
   9.000000E+99

> <Gold.Protein.RotatedTorsions>
[ 6907 6896 6895 6894 ] final  -67.14 input  -60.11 | X-H torsion
[ 7974 7965 7964 7962 ] final  -53.22 input  175.53 | X-H torsion
[ 8008 7997 7996 7995 ] final -176.76 input   59.86 | X-H torsion
[ 10167 10162 10161 10158 ] final   68.70 input  -65.29 | X-H torsion
[ 10718 10713 10712 10709 ] final  -89.67 input   66.30 | X-H torsion
[ 10763 10752 10751 10750 ] final   79.33 input  -60.55 | X-H torsion
[ 11005 11000 10999 10996 ] final  -31.63 input  -57.11 | X-H torsion

> <Gold.Protein.ActiveResidues>
 VAL166  LYS551  ARG553  GLY616  TRP617  ASP618  TYR619  PRO620  LYS621  CYS622 
 ASP623  PHE694  ASN695  SER759  ASP760  ASP761  ALA762  ILE779  LEU786  VAL792 
 PHE793  MET794  SER795  GLU796  ALA797  LYS798  CYS799  TRP800  GLU811  SER814 

> <Gold.Protein.RotatedAtoms>
  150.7426  134.5922  159.5992 H   0  0  0  0  0  0  0  0  0  0  0  0  # atno 6907 bound_to 6896
  152.3307  134.7260  160.0299 H   0  0  0  0  0  0  0  0  0  0  0  0  # atno 6908 bound_to 6896
  151.7745  133.3308  159.3490 H   0  0  0  0  0  0  0  0  0  0  0  0  # atno 6909 bound_to 6896
  145.8992  140.8008  142.9752 H   0  0  0  0  0  0  0  0  0  0  0  0  # atno 7974 bound_to 7965
  155.9988  140.1216  157.0567 H   0  0  0  0  0  0  0  0  0  0  0  0  # atno 8008 bound_to 7997
  154.4235  140.1111  156.5737 H   0  0  0  0  0  0  0  0  0  0  0  0  # atno 8009 bound_to 7997
  155.6241  140.3472  155.4663 H   0  0  0  0  0  0  0  0  0  0  0  0  # atno 8010 bound_to 7997
  140.0758  144.5113  150.7195 H   0  0  0  0  0  0  0  0  0  0  0  0  # atno 10167 bound_to 10162
  155.9985  130.4881  150.5207 H   0  0  0  0  0  0  0  0  0  0  0  0  # atno 10718 bound_to 10713
  153.0944  135.4844  154.8751 H   0  0  0  0  0  0  0  0  0  0  0  0  # atno 10763 bound_to 10752
  154.7307  135.3059  154.8898 H   0  0  0  0  0  0  0  0  0  0  0  0  # atno 10764 bound_to 10752
  153.9534  135.6820  153.4797 H   0  0  0  0  0  0  0  0  0  0  0  0  # atno 10765 bound_to 10752
  140.9484  133.7235  156.1183 H   0  0  0  0  0  0  0  0  0  0  0  0  # atno 11005 bound_to 11000
  144.6735  140.1650  143.7419 LP  0  0  0  0  0  0  0  0  0  0  0  0  # atno 17320 bound_to 7965
  145.8812  139.2324  143.1604 LP  0  0  0  0  0  0  0  0  0  0  0  0  # atno 17321 bound_to 7965
  140.7102  143.2499  151.4603 LP  0  0  0  0  0  0  0  0  0  0  0  0  # atno 17342 bound_to 10162
  139.5808  144.1713  152.1966 LP  0  0  0  0  0  0  0  0  0  0  0  0  # atno 17343 bound_to 10162
  157.3168  131.0674  151.1961 LP  0  0  0  0  0  0  0  0  0  0  0  0  # atno 17370 bound_to 10713
  157.2887  130.6786  149.6103 LP  0  0  0  0  0  0  0  0  0  0  0  0  # atno 17371 bound_to 10713
  140.7636  134.3911  157.5521 LP  0  0  0  0  0  0  0  0  0  0  0  0  # atno 17394 bound_to 11000
  139.8840  134.8977  156.2729 LP  0  0  0  0  0  0  0  0  0  0  0  0  # atno 17395 bound_to 11000

$$$$
