#       Name:                AV-unprocessed.smi:2115
#       Creating user name   scv26
#       Creation time:       Fri Mar 27 11:36:58 2020


#       File generated by GOLD software.
#

@<TRIPOS>MOLECULE
AV-unprocessed.smi:2115
    46    47     1
SMALL
NO_CHARGES


@<TRIPOS>ATOM
      1 ****        -3.0329   6.9306  -1.3924 C.3            1 S1                 0.0000
      2 ****        -2.6558   5.5671  -1.3148 O.3            1 S1                 0.0000
      3 ****        -2.7948   5.0389  -0.0062 C.3            1 S1                 0.0000
      4 ****        -2.3692   3.5676  -0.0091 C.3            1 S1                 0.0000
      5 ****        -0.9493   3.4991  -0.1023 O.3            1 S1                 0.0000
      6 ****        -0.3484   2.2570  -0.1089 C.ar           1 S1                 0.0000
      7 ****         1.0557   2.1889  -0.2028 C.ar           1 S1                 0.0000
      8 ****         1.6747   0.9248  -0.2039 C.ar           1 S1                 0.0000
      9 ****         0.8765  -0.2321  -0.1006 C.ar           1 S1                 0.0000
     10 ****         1.5255  -1.4959  -0.1189 N.am           1 S1                 0.0000
     11 ****         1.0823  -2.6715   0.3632 C.2            1 S1                 0.0000
     12 ****        -0.0015  -2.8327   0.9247 O.2            1 S1                 0.0000
     13 ****         2.0317  -3.8623   0.1862 C.3            1 S1                 0.0000
     14 ****         2.1774  -4.7381   1.4451 C.3            1 S1                 0.0000
     15 ****         1.4875  -6.0338   1.0654 C.3            1 S1                 0.0000
     16 ****         1.6930  -6.0677  -0.4419 C.3            1 S1                 0.0000
     17 ****         1.4907  -4.7156  -0.8207 O.3            1 S1                 0.0000
     18 ****        -0.5273  -0.0597  -0.0272 C.ar           1 S1                 0.0000
     19 ****        -1.1270   1.1499  -0.0274 N.ar           1 S1                 0.0000
     20 ****        -2.9077   7.2880  -2.4144 H              1 S1                 0.0000
     21 ****        -2.4132   7.5484  -0.7413 H              1 S1                 0.0000
     22 ****        -4.0787   7.0673  -1.1140 H              1 S1                 0.0000
     23 ****        -2.2008   5.6069   0.7117 H              1 S1                 0.0000
     24 ****        -3.8392   5.1135   0.3004 H              1 S1                 0.0000
     25 ****        -2.6943   3.1013   0.9224 H              1 S1                 0.0000
     26 ****        -2.8478   3.0382  -0.8347 H              1 S1                 0.0000
     27 ****         1.6468   3.0902  -0.2727 H              1 S1                 0.0000
     28 ****         2.7499   0.8484  -0.2770 H              1 S1                 0.0000
     29 ****         2.4668  -1.4960  -0.4842 H              1 S1                 0.0000
     30 ****         3.0165  -3.5176  -0.1348 H              1 S1                 0.0000
     31 ****         3.2344  -4.9223   1.6428 H              1 S1                 0.0000
     32 ****         1.7509  -4.2982   2.3479 H              1 S1                 0.0000
     33 ****         1.9006  -6.9054   1.5736 H              1 S1                 0.0000
     34 ****         0.4229  -5.9730   1.2953 H              1 S1                 0.0000
     35 ****         2.7112  -6.3701  -0.6910 H              1 S1                 0.0000
     36 ****         0.9977  -6.7366  -0.9493 H              1 S1                 0.0000
     37 ****        -1.2046  -0.8985   0.0119 H              1 S1                 0.0000
     38 ****        -1.6996   5.4824  -1.5949 LP             1 S1                 0.0000
     39 ****        -3.2335   5.0387  -1.9370 LP             1 S1                 0.0000
     40 ****        -0.5778   4.0025   0.6778 LP             1 S1                 0.0000
     41 ****        -0.6868   3.9584  -0.9509 LP             1 S1                 0.0000
     42 ****        -0.6209  -2.0573   1.0482 LP             1 S1                 0.0000
     43 ****        -0.2624  -3.7389   1.2573 LP             1 S1                 0.0000
     44 ****         1.9503  -4.5394  -1.6912 LP             1 S1                 0.0000
     45 ****         0.5114  -4.5384  -0.9190 LP             1 S1                 0.0000
     46 ****        -2.1223   1.2276   0.0312 LP             1 S1                 0.0000
@<TRIPOS>BOND
    1    1    2 1     
    2    1   20 1     
    3    1   21 1     
    4    1   22 1     
    5    2    3 1     
    6    3    4 1     
    7    3   23 1     
    8    3   24 1     
    9    4    5 1     
   10    4   25 1     
   11    4   26 1     
   12    5    6 1     
   13    6   19 ar    
   14    6    7 ar    
   15    7    8 ar    
   16    7   27 1     
   17    8    9 ar    
   18    8   28 1     
   19    9   10 1     
   20    9   18 ar    
   21   10   11 am    
   22   10   29 1     
   23   11   12 2     
   24   11   13 1     
   25   13   17 1     
   26   13   14 1     
   27   13   30 1     
   28   14   15 1     
   29   14   31 1     
   30   14   32 1     
   31   15   16 1     
   32   15   33 1     
   33   15   34 1     
   34   16   17 1     
   35   16   35 1     
   36   16   36 1     
   37   18   19 ar    
   38   18   37 1     
   39    2   38 1     
   40    2   39 1     
   41    5   40 1     
   42    5   41 1     
   43   12   42 1     
   44   12   43 1     
   45   17   44 1     
   46   17   45 1     
   47   19   46 1     
@<TRIPOS>SUBSTRUCTURE
      1 S1             1
@<TRIPOS>SET
LONE_PAIRS      STATIC     ATOMS    <user>   **** ""
9 38 39 40 41 42 43 44 45 46
DONOR_HYDROGENS      STATIC     ATOMS    <user>   **** ""
1 29
ATOM$BLUE        STATIC     ATOMS    COLORGROUP SYSTEM
9 38 39 40 41 42 43 44 45 46
ATOM$RED        STATIC     ATOMS    COLORGROUP SYSTEM
1 29
