AV-unprocessed.smi:1240|AV-procd|sdf|5207|dock10
  -GOLD-   22720 4293D 1   1.00000     0.00000
 Structure written by MMmdl.
 49 51  0  0  0  0  0  0  0  0  3 V2000
  153.1769  140.2650  160.0887 O   0  0  0  0  0  0  0  0  0  0  0  0
  153.8019  141.2147  160.5588 C   0  0  0  0  0  0  0  0  0  0  0  0
  154.8253  141.0751  161.4119 N   0  0  0  0  0  0  0  0  0  0  0  0
  155.3684  139.8007  161.8678 C   0  0  0  0  0  0  0  0  0  0  0  0
  155.9538  138.9556  160.7043 C   0  0  2  0  0  0  0  0  0  0  0  0
  155.4673  137.4779  160.6982 C   0  0  2  0  0  0  0  0  0  0  0  0
  155.9599  136.6649  159.5114 C   0  0  0  0  0  0  0  0  0  0  0  0
  155.0112  135.4737  159.5224 C   0  0  0  0  0  0  0  0  0  0  0  0
  153.7594  136.0075  159.9298 O   0  0  0  0  0  0  0  0  0  0  0  0
  153.9518  137.2684  160.5637 C   0  0  0  0  0  0  0  0  0  0  0  0
  157.4476  138.9968  160.6832 N   0  3  0  0  0  0  0  0  0  0  0  0
  158.0153  140.3573  160.5177 C   0  0  0  0  0  0  0  0  0  0  0  0
  159.5374  140.2733  160.3107 C   0  0  0  0  0  0  0  0  0  0  0  0
  160.1345  139.5807  161.4008 O   0  0  0  0  0  0  0  0  0  0  0  0
  159.6532  138.2469  161.5168 C   0  0  0  0  0  0  0  0  0  0  0  0
  158.1383  138.2698  161.7790 C   0  0  0  0  0  0  0  0  0  0  0  0
  153.5543  142.5120  160.3075 N   0  0  0  0  0  0  0  0  0  0  0  0
  152.5963  143.0815  159.4244 C   0  0  0  0  0  0  0  0  0  0  0  0
  151.9163  142.2052  158.5496 C   0  0  0  0  0  0  0  0  0  0  0  0
  150.9425  142.7180  157.6685 C   0  0  0  0  0  0  0  0  0  0  0  0
  150.6606  144.0383  157.6728 N   0  3  0  0  0  0  0  0  0  0  0  0
  151.2741  144.9129  158.4985 C   0  0  0  0  0  0  0  0  0  0  0  0
  152.2569  144.4588  159.4016 C   0  0  0  0  0  0  0  0  0  0  0  0
  155.2727  141.9109  161.7594 H   0  0  0  0  0  0  0  0  0  0  0  0
  156.1344  140.0226  162.6107 H   0  0  0  0  0  0  0  0  0  0  0  0
  154.5881  139.2343  162.3787 H   0  0  0  0  0  0  0  0  0  0  0  0
  155.6168  139.4010  159.7666 H   0  0  0  0  0  0  0  0  0  0  0  0
  155.7937  136.9786  161.6116 H   0  0  0  0  0  0  0  0  0  0  0  0
  155.8418  137.2285  158.5846 H   0  0  0  0  0  0  0  0  0  0  0  0
  157.0043  136.3636  159.5983 H   0  0  0  0  0  0  0  0  0  0  0  0
  154.9412  134.9811  158.5525 H   0  0  0  0  0  0  0  0  0  0  0  0
  155.3339  134.7355  160.2577 H   0  0  0  0  0  0  0  0  0  0  0  0
  153.4452  137.2889  161.5287 H   0  0  0  0  0  0  0  0  0  0  0  0
  153.5043  138.0347  159.9298 H   0  0  0  0  0  0  0  0  0  0  0  0
  157.5591  140.8525  159.6599 H   0  0  0  0  0  0  0  0  0  0  0  0
  157.7967  140.9667  161.3951 H   0  0  0  0  0  0  0  0  0  0  0  0
  159.7756  139.7707  159.3718 H   0  0  0  0  0  0  0  0  0  0  0  0
  159.9641  141.2749  160.2524 H   0  0  0  0  0  0  0  0  0  0  0  0
  159.8843  137.6826  160.6119 H   0  0  0  0  0  0  0  0  0  0  0  0
  160.1705  137.7547  162.3405 H   0  0  0  0  0  0  0  0  0  0  0  0
  157.9480  138.7562  162.7364 H   0  0  0  0  0  0  0  0  0  0  0  0
  157.7680  137.2480  161.8554 H   0  0  0  0  0  0  0  0  0  0  0  0
  154.0986  143.1763  160.8382 H   0  0  0  0  0  0  0  0  0  0  0  0
  152.1383  141.1478  158.5476 H   0  0  0  0  0  0  0  0  0  0  0  0
  150.3832  142.1151  156.9681 H   0  0  0  0  0  0  0  0  0  0  0  0
  150.9579  145.9427  158.4177 H   0  0  0  0  0  0  0  0  0  0  0  0
  152.7180  145.1740  160.0650 H   0  0  0  0  0  0  0  0  0  0  0  0
  157.7021  138.5092  159.8359 H   0  0  0  0  0  0  0  0  0  0  0  0
  149.9511  144.3891  157.0287 H   0  0  0  0  0  0  0  0  0  0  0  0
  1  2  2  0  0  0  0
  2  3  1  0  0  0  0
  2 17  1  0  0  0  0
  3  4  1  0  0  0  0
  3 24  1  0  0  0  0
  4  5  1  0  0  0  0
  4 25  1  0  0  0  0
  4 26  1  0  0  0  0
  5  6  1  0  0  0  0
  5 11  1  0  0  0  0
  5 27  1  0  0  0  0
  6 10  1  0  0  0  0
  6  7  1  0  0  0  0
  6 28  1  0  0  0  0
  7  8  1  0  0  0  0
  7 29  1  0  0  0  0
  7 30  1  0  0  0  0
  8  9  1  0  0  0  0
  8 31  1  0  0  0  0
  8 32  1  0  0  0  0
  9 10  1  0  0  0  0
 10 33  1  0  0  0  0
 10 34  1  0  0  0  0
 11 16  1  0  0  0  0
 11 12  1  0  0  0  0
 11 48  1  0  0  0  0
 12 13  1  0  0  0  0
 12 35  1  0  0  0  0
 12 36  1  0  0  0  0
 13 14  1  0  0  0  0
 13 37  1  0  0  0  0
 13 38  1  0  0  0  0
 14 15  1  0  0  0  0
 15 16  1  0  0  0  0
 15 39  1  0  0  0  0
 15 40  1  0  0  0  0
 16 41  1  0  0  0  0
 16 42  1  0  0  0  0
 17 18  1  0  0  0  0
 17 43  1  0  0  0  0
 18 23  1  0  0  0  0
 18 19  2  0  0  0  0
 19 20  1  0  0  0  0
 19 44  1  0  0  0  0
 20 21  2  0  0  0  0
 20 45  1  0  0  0  0
 21 22  1  0  0  0  0
 21 49  1  0  0  0  0
 22 23  2  0  0  0  0
 22 46  1  0  0  0  0
 23 47  1  0  0  0  0
M  CHG  1  11   1
M  CHG  1  21   1
M  END
> <s_m_source_file>
AV-unprocessed.smi

> <i_m_source_file_index>
1240

> <i_lp_mmshare_version>
43012

> <i_f3d_flags>
0

> <s_epik_input>
W2NIXTFbY0hdbltjSF1bY0hdYzFbTkhdQyg9TylbTkhdW0NIMl1bQ0BIXShbQ0BASF0yW0NIMl1bQ0gyXU9bQ0gyXTIpTjNbQ0gyXVtDSDJdT1tDSDJdW0NIMl0z

> <s_epik_cmdline>
J2VwaWtfcHl0aG9uJywgJy1waCcsICc3LjAnLCAnLXRuJywgJzgnLCAnLW1hJywgJzIwMCcsICctbWV0YWxfYmluZGluZycsICctaW1hZScsICc8aW5maWxlLm1hZT4nLCAnLW9tYWUnLCAnPG91dGZpbGUubWFlPic=

> <r_epik_Ionization_Penalty>
2.08105

> <r_epik_Ionization_Penalty_Charging>
2.08103

> <r_epik_Ionization_Penalty_Neutral>
2.04144e-05

> <r_epik_State_Penalty>
2.15598

> <r_epik_Charging_Adjusted_Penalty>
4.23701

> <i_epik_Tot_Q>
2

> <i_epik_Tot_abs_Q>
2

> <r_epik_Metal_State_Penalty>
2.25158

> <b_epik_Metal_Only>
0

> <s_lp_Force_Field>
OPLS_2005

> <r_lp_Energy>
50.7828

> <b_lp_Chiralities_Consistent>
1

> <s_lp_Variant>
AV-unprocessed.smi:1240-13

> <Gold.Version>
5.8.1

> <Gold.Id.Protein>
6NUR|6NUR_protein|mol2

> <Gold.PLP.Fitness>
40.9209

> <Gold.PLP.PLP>
-33.1348

> <Gold.PLP.part.hbond>
-3.0000

> <Gold.PLP.part.metal>
0.0000

> <Gold.PLP.part.buried>
-5.7601

> <Gold.PLP.part.nonpolar>
-24.0801

> <Gold.PLP.part.repulsive>
0.1174

> <Gold.PLP.ligand.clash>
0.0000

> <Gold.PLP.ligand.torsion>
0.7412

> <Gold.PLP.Chemscore.Hbond>
3.0000

> <Gold.PLP.Chemscore.CHOScore>
0.0000

> <Gold.PLP.Chemscore.Metal>
0.0000

> <Gold.Chemscore.Hbonds>
donor molecule, donor type, donor heavy atom, donor atom, acceptor molecule, acceptor atom, score
      L1  H    21    49       P1  8028  2.00
      P1  H  6896  6908       L1     9  1.00

> <Gold.PLP.Chemscore.Internal.Correction>
0.2684

> <Gold.Rescore>
     Score         DG    S(hbond)    S(metal)    S(lipo)     H(rot)  DE(clash)    DE(int)     intcor
     15.45     -17.76       1.99        0.00      86.44       1.74       0.09       2.23       ----

> <Gold.Chemscore.Fitness>
15.4484

> <Gold.Chemscore.DG>
-17.7641

> <Gold.Chemscore.ZeroCoef>
-5.4800

> <Gold.Chemscore.Hbond>
1.9851

> <Gold.Chemscore.Metal>
0.0000

> <Gold.Chemscore.Lipo>
86.4414

> <Gold.Chemscore.Internal_Hbond>
0.0000

> <Gold.Chemscore.DEClash>
0.0869

> <Gold.Chemscore.DEInternal>
2.2288

> <Gold.Chemscore.Rot>
1.7421

> <Gold.Chemscore.Internal.Correction>
   9.000000E+99

> <Gold.Chemscore.Hbonds>
donor molecule, donor type, donor heavy atom, donor atom, acceptor molecule, acceptor atom, score
      L1  H    21    49       P1  8028  0.65
      P1  H  6896  6908       L1     9  0.74

> <Gold.Chemscore.Hbond.Weighted>
-6.6301

> <Gold.Chemscore.Metal.Weighted>
-0.0000

> <Gold.Chemscore.Lipo.Weighted>
-10.1136

> <Gold.Chemscore.Internal_Hbond.Weighted>
0.0000

> <Gold.Chemscore.DEClash.Weighted>
0.0869

> <Gold.Chemscore.DEInternal.Weighted>
2.2288

> <Gold.Chemscore.Rot.Weighted>
4.4597

> <Gold.Chemscore.Internal.Correction.Weighted>
   9.000000E+99

> <Gold.Protein.RotatedTorsions>
[ 6907 6896 6895 6894 ] final  -57.84 input  -60.11 | X-H torsion
[ 7974 7965 7964 7962 ] final -137.00 input  175.53 | X-H torsion
[ 8008 7997 7996 7995 ] final  178.13 input   59.86 | X-H torsion
[ 10167 10162 10161 10158 ] final   98.09 input  -65.29 | X-H torsion
[ 10718 10713 10712 10709 ] final  167.69 input   66.30 | X-H torsion
[ 10763 10752 10751 10750 ] final   59.20 input  -60.55 | X-H torsion
[ 11005 11000 10999 10996 ] final   65.14 input  -57.11 | X-H torsion

> <Gold.Protein.ActiveResidues>
 VAL166  LYS551  ARG553  GLY616  TRP617  ASP618  TYR619  PRO620  LYS621  CYS622 
 ASP623  PHE694  ASN695  SER759  ASP760  ASP761  ALA762  ILE779  LEU786  VAL792 
 PHE793  MET794  SER795  GLU796  ALA797  LYS798  CYS799  TRP800  GLU811  SER814 

> <Gold.Protein.RotatedAtoms>
  150.8054  134.7175  159.6638 H   0  0  0  0  0  0  0  0  0  0  0  0  # atno 6907 bound_to 6896
  152.4173  134.6016  160.0011 H   0  0  0  0  0  0  0  0  0  0  0  0  # atno 6908 bound_to 6896
  151.6241  133.3300  159.3130 H   0  0  0  0  0  0  0  0  0  0  0  0  # atno 6909 bound_to 6896
  144.8879  140.6600  143.5164 H   0  0  0  0  0  0  0  0  0  0  0  0  # atno 7974 bound_to 7965
  156.0580  140.1341  156.9974 H   0  0  0  0  0  0  0  0  0  0  0  0  # atno 8008 bound_to 7997
  154.4467  140.0997  156.6546 H   0  0  0  0  0  0  0  0  0  0  0  0  # atno 8009 bound_to 7997
  155.5421  140.3461  155.4451 H   0  0  0  0  0  0  0  0  0  0  0  0  # atno 8010 bound_to 7997
  139.7740  144.6912  151.0115 H   0  0  0  0  0  0  0  0  0  0  0  0  # atno 10167 bound_to 10162
  157.0479  131.0305  151.2691 H   0  0  0  0  0  0  0  0  0  0  0  0  # atno 10718 bound_to 10713
  152.9889  135.5580  154.5675 H   0  0  0  0  0  0  0  0  0  0  0  0  # atno 10763 bound_to 10752
  154.5082  135.2801  155.1367 H   0  0  0  0  0  0  0  0  0  0  0  0  # atno 10764 bound_to 10752
  154.2770  135.6352  153.5385 H   0  0  0  0  0  0  0  0  0  0  0  0  # atno 10765 bound_to 10752
  139.9913  134.6586  156.0086 H   0  0  0  0  0  0  0  0  0  0  0  0  # atno 11005 bound_to 11000
  145.3836  139.1631  143.4267 LP  0  0  0  0  0  0  0  0  0  0  0  0  # atno 17320 bound_to 7965
  146.3035  140.3919  142.8695 LP  0  0  0  0  0  0  0  0  0  0  0  0  # atno 17321 bound_to 7965
  140.7815  143.4556  151.0350 LP  0  0  0  0  0  0  0  0  0  0  0  0  # atno 17342 bound_to 10162
  139.8239  143.7783  152.3178 LP  0  0  0  0  0  0  0  0  0  0  0  0  # atno 17343 bound_to 10162
  157.5053  130.7905  149.7647 LP  0  0  0  0  0  0  0  0  0  0  0  0  # atno 17370 bound_to 10713
  156.0017  130.3877  150.2581 LP  0  0  0  0  0  0  0  0  0  0  0  0  # atno 17371 bound_to 10713
  141.1568  133.6542  156.4188 LP  0  0  0  0  0  0  0  0  0  0  0  0  # atno 17394 bound_to 11000
  140.4902  134.6582  157.5207 LP  0  0  0  0  0  0  0  0  0  0  0  0  # atno 17395 bound_to 11000

$$$$
