AV-unprocessed.smi:1434|AV-procd|sdf|5856|dock10
  -GOLD-   22720 5533D 1   1.00000     0.00000
 Structure written by MMmdl.
 44 45  0  0  0  0  0  0  0  0  3 V2000
  142.8668  137.6277  153.7565 C   0  0  0  0  0  0  0  0  0  0  0  0
  144.0068  136.6815  154.8533 S   0  0  0  0  0  0  0  0  0  0  0  0
  143.1651  136.0773  155.8998 O   0  0  0  0  0  0  0  0  0  0  0  0
  144.7145  135.7554  153.9564 O   0  0  0  0  0  0  0  0  0  0  0  0
  145.0044  137.8471  155.3952 N   0  5  0  0  0  0  0  0  0  0  0  0
  146.1203  138.3316  154.5917 C   0  0  1  0  0  0  0  0  0  0  0  0
  145.8114  138.1764  153.0796 C   0  0  0  0  0  0  0  0  0  0  0  0
  146.8327  138.9026  152.1644 C   0  0  0  0  0  0  0  0  0  0  0  0
  147.0564  140.3761  152.5759 C   0  0  0  0  0  0  0  0  0  0  0  0
  147.4363  140.3861  154.0078 N   0  0  0  0  0  0  0  0  0  0  0  0
  148.6361  140.7886  154.5072 C   0  0  0  0  0  0  0  0  0  0  0  0
  149.6566  140.8867  153.8244 O   0  0  0  0  0  0  0  0  0  0  0  0
  148.6379  141.0666  155.8212 N   0  0  0  0  0  0  0  0  0  0  0  0
  149.8025  141.5121  156.5732 C   0  0  0  0  0  0  0  0  0  0  0  0
  149.3868  142.0261  157.9583 C   0  0  0  0  0  0  0  0  0  0  0  0
  150.4225  142.9560  158.5602 C   0  0  0  0  0  0  0  0  0  0  0  0
  151.6351  142.4784  159.1034 C   0  0  0  0  0  0  0  0  0  0  0  0
  152.5601  143.3992  159.6385 C   0  0  0  0  0  0  0  0  0  0  0  0
  152.2537  144.7757  159.6202 C   0  0  0  0  0  0  0  0  0  0  0  0
  151.0293  145.1976  159.0634 C   0  0  0  0  0  0  0  0  0  0  0  0
  150.1699  144.2853  158.5582 N   0  3  0  0  0  0  0  0  0  0  0  0
  146.3733  139.8363  154.8824 C   0  0  0  0  0  0  0  0  0  0  0  0
  142.1925  136.9328  153.2573 H   0  0  0  0  0  0  0  0  0  0  0  0
  143.4472  138.1675  153.0088 H   0  0  0  0  0  0  0  0  0  0  0  0
  142.2813  138.3338  154.3444 H   0  0  0  0  0  0  0  0  0  0  0  0
  147.0421  137.7928  154.8144 H   0  0  0  0  0  0  0  0  0  0  0  0
  145.7651  137.1208  152.8104 H   0  0  0  0  0  0  0  0  0  0  0  0
  144.8204  138.5842  152.8729 H   0  0  0  0  0  0  0  0  0  0  0  0
  147.7882  138.3744  152.1821 H   0  0  0  0  0  0  0  0  0  0  0  0
  146.4875  138.8595  151.1310 H   0  0  0  0  0  0  0  0  0  0  0  0
  147.7797  140.8375  151.9042 H   0  0  0  0  0  0  0  0  0  0  0  0
  146.1330  140.9435  152.4509 H   0  0  0  0  0  0  0  0  0  0  0  0
  147.7704  140.9643  156.3273 H   0  0  0  0  0  0  0  0  0  0  0  0
  150.5080  140.6861  156.6805 H   0  0  0  0  0  0  0  0  0  0  0  0
  150.3079  142.2992  156.0115 H   0  0  0  0  0  0  0  0  0  0  0  0
  148.4339  142.5536  157.8919 H   0  0  0  0  0  0  0  0  0  0  0  0
  149.2267  141.1859  158.6357 H   0  0  0  0  0  0  0  0  0  0  0  0
  151.8573  141.4211  159.1079 H   0  0  0  0  0  0  0  0  0  0  0  0
  153.4942  143.0537  160.0572 H   0  0  0  0  0  0  0  0  0  0  0  0
  152.9485  145.4969  160.0256 H   0  0  0  0  0  0  0  0  0  0  0  0
  150.7143  146.2294  159.0062 H   0  0  0  0  0  0  0  0  0  0  0  0
  145.4601  140.4082  154.7086 H   0  0  0  0  0  0  0  0  0  0  0  0
  146.5986  139.9696  155.9417 H   0  0  0  0  0  0  0  0  0  0  0  0
  149.2906  144.6140  158.1585 H   0  0  0  0  0  0  0  0  0  0  0  0
  1  2  1  0  0  0  0
  1 23  1  0  0  0  0
  1 24  1  0  0  0  0
  1 25  1  0  0  0  0
  2  3  2  0  0  0  0
  2  4  2  0  0  0  0
  2  5  1  0  0  0  0
  5  6  1  0  0  0  0
  6 22  1  0  0  0  0
  6  7  1  0  0  0  0
  6 26  1  0  0  0  0
  7  8  1  0  0  0  0
  7 27  1  0  0  0  0
  7 28  1  0  0  0  0
  8  9  1  0  0  0  0
  8 29  1  0  0  0  0
  8 30  1  0  0  0  0
  9 10  1  0  0  0  0
  9 31  1  0  0  0  0
  9 32  1  0  0  0  0
 10 11  1  0  0  0  0
 10 22  1  0  0  0  0
 11 12  2  0  0  0  0
 11 13  1  0  0  0  0
 13 14  1  0  0  0  0
 13 33  1  0  0  0  0
 14 15  1  0  0  0  0
 14 34  1  0  0  0  0
 14 35  1  0  0  0  0
 15 16  1  0  0  0  0
 15 36  1  0  0  0  0
 15 37  1  0  0  0  0
 16 21  1  0  0  0  0
 16 17  2  0  0  0  0
 17 18  1  0  0  0  0
 17 38  1  0  0  0  0
 18 19  2  0  0  0  0
 18 39  1  0  0  0  0
 19 20  1  0  0  0  0
 19 40  1  0  0  0  0
 20 21  2  0  0  0  0
 20 41  1  0  0  0  0
 21 44  1  0  0  0  0
 22 42  1  0  0  0  0
 22 43  1  0  0  0  0
M  CHG  1   5  -1
M  CHG  1  21   1
M  END
> <s_m_source_file>
AV-unprocessed.smi

> <i_m_source_file_index>
1434

> <i_lp_mmshare_version>
43012

> <i_f3d_flags>
0

> <s_epik_input>
W0NIM11TKD1PKSg9TylbTkhdW0NAQEhdMVtDSDJdW0NIMl1bQ0gyXU4oW0NIMl0xKUMoPU8pW05IXVtDSDJdW0NIMl1jMltjSF1bY0hdW2NIXVtjSF1uMg==

> <s_epik_cmdline>
J2VwaWtfcHl0aG9uJywgJy1waCcsICc3LjAnLCAnLXRuJywgJzgnLCAnLW1hJywgJzIwMCcsICctbWV0YWxfYmluZGluZycsICctaW1hZScsICc8aW5maWxlLm1hZT4nLCAnLW9tYWUnLCAnPG91dGZpbGUubWFlPic=

> <r_epik_Ionization_Penalty>
8.07847

> <r_epik_Ionization_Penalty_Charging>
8.0784

> <r_epik_Ionization_Penalty_Neutral>
6.25603e-05

> <r_epik_State_Penalty>
8.17261

> <r_epik_Charging_Adjusted_Penalty>
16.251

> <i_epik_Tot_Q>
0

> <i_epik_Tot_abs_Q>
2

> <r_epik_Metal_State_Penalty>
4.14042

> <b_epik_Metal_Only>
1

> <s_lp_Force_Field>
OPLS_2005

> <r_lp_Energy>
28.6508

> <b_lp_Chiralities_Consistent>
1

> <s_lp_Variant>
AV-unprocessed.smi:1434-8

> <Gold.Version>
5.8.1

> <Gold.Id.Protein>
6NUR|6NUR_protein|mol2

> <Gold.PLP.Fitness>
41.3725

> <Gold.PLP.PLP>
-33.4432

> <Gold.PLP.part.hbond>
-3.7492

> <Gold.PLP.part.metal>
0.0000

> <Gold.PLP.part.buried>
-2.0772

> <Gold.PLP.part.nonpolar>
-29.7174

> <Gold.PLP.part.repulsive>
2.6442

> <Gold.PLP.ligand.clash>
0.2579

> <Gold.PLP.ligand.torsion>
1.4040

> <Gold.PLP.Chemscore.Hbond>
3.3089

> <Gold.PLP.Chemscore.CHOScore>
0.0000

> <Gold.PLP.Chemscore.Metal>
0.0000

> <Gold.Chemscore.Hbonds>
donor molecule, donor type, donor heavy atom, donor atom, acceptor molecule, acceptor atom, score
      L1  H    21    44       P1  8029  1.51
      P1  H  7989  7998       L1    12  0.43
      P1  H  8011  8017       L1    12  0.71

> <Gold.PLP.Chemscore.Internal.Correction>
1.0685

> <Gold.Rescore>
     Score         DG    S(hbond)    S(metal)    S(lipo)     H(rot)  DE(clash)    DE(int)     intcor
     13.87     -16.72       1.57        0.00      90.01       1.77       0.37       2.48       ----

> <Gold.Chemscore.Fitness>
13.8655

> <Gold.Chemscore.DG>
-16.7229

> <Gold.Chemscore.ZeroCoef>
-5.4800

> <Gold.Chemscore.Hbond>
1.5665

> <Gold.Chemscore.Metal>
0.0000

> <Gold.Chemscore.Lipo>
90.0150

> <Gold.Chemscore.Internal_Hbond>
0.0000

> <Gold.Chemscore.DEClash>
0.3747

> <Gold.Chemscore.DEInternal>
2.4827

> <Gold.Chemscore.Rot>
1.7661

> <Gold.Chemscore.Internal.Correction>
   9.000000E+99

> <Gold.Chemscore.Hbonds>
donor molecule, donor type, donor heavy atom, donor atom, acceptor molecule, acceptor atom, score
      L1  H    21    44       P1  8029  0.17
      P1  H  7989  7998       L1    12  0.43
      P1  H  8011  8017       L1    12  0.66

> <Gold.Chemscore.Hbond.Weighted>
-5.2322

> <Gold.Chemscore.Metal.Weighted>
-0.0000

> <Gold.Chemscore.Lipo.Weighted>
-10.5318

> <Gold.Chemscore.Internal_Hbond.Weighted>
0.0000

> <Gold.Chemscore.DEClash.Weighted>
0.3747

> <Gold.Chemscore.DEInternal.Weighted>
2.4827

> <Gold.Chemscore.Rot.Weighted>
4.5211

> <Gold.Chemscore.Internal.Correction.Weighted>
   9.000000E+99

> <Gold.Protein.RotatedTorsions>
[ 6907 6896 6895 6894 ] final  -71.25 input  -60.11 | X-H torsion
[ 7974 7965 7964 7962 ] final  -28.25 input  175.53 | X-H torsion
[ 8008 7997 7996 7995 ] final -100.42 input   59.86 | X-H torsion
[ 10167 10162 10161 10158 ] final  146.56 input  -65.29 | X-H torsion
[ 10718 10713 10712 10709 ] final -120.10 input   66.30 | X-H torsion
[ 10763 10752 10751 10750 ] final  -39.02 input  -60.55 | X-H torsion
[ 11005 11000 10999 10996 ] final  -69.57 input  -57.11 | X-H torsion

> <Gold.Protein.ActiveResidues>
 VAL166  LYS551  ARG553  GLY616  TRP617  ASP618  TYR619  PRO620  LYS621  CYS622 
 ASP623  PHE694  ASN695  SER759  ASP760  ASP761  ALA762  ILE779  LEU786  VAL792 
 PHE793  MET794  SER795  GLU796  ALA797  LYS798  CYS799  TRP800  GLU811  SER814 

> <Gold.Protein.RotatedAtoms>
  150.7221  134.5335  159.5711 H   0  0  0  0  0  0  0  0  0  0  0  0  # atno 6907 bound_to 6896
  152.2863  134.7769  160.0396 H   0  0  0  0  0  0  0  0  0  0  0  0  # atno 6908 bound_to 6896
  151.8398  133.3386  159.3676 H   0  0  0  0  0  0  0  0  0  0  0  0  # atno 6909 bound_to 6896
  146.1301  140.5258  142.8697 H   0  0  0  0  0  0  0  0  0  0  0  0  # atno 7974 bound_to 7965
  154.8284  140.0441  157.1459 H   0  0  0  0  0  0  0  0  0  0  0  0  # atno 8008 bound_to 7997
  154.9181  140.3023  155.5210 H   0  0  0  0  0  0  0  0  0  0  0  0  # atno 8009 bound_to 7997
  156.2985  140.2346  156.4228 H   0  0  0  0  0  0  0  0  0  0  0  0  # atno 8010 bound_to 7997
  139.4905  144.5820  151.6852 H   0  0  0  0  0  0  0  0  0  0  0  0  # atno 10167 bound_to 10162
  156.1232  130.6339  150.9498 H   0  0  0  0  0  0  0  0  0  0  0  0  # atno 10718 bound_to 10713
  153.9225  135.6781  153.4747 H   0  0  0  0  0  0  0  0  0  0  0  0  # atno 10763 bound_to 10752
  153.1021  135.4823  154.8883 H   0  0  0  0  0  0  0  0  0  0  0  0  # atno 10764 bound_to 10752
  154.7470  135.3175  154.8582 H   0  0  0  0  0  0  0  0  0  0  0  0  # atno 10765 bound_to 10752
  141.1556  133.6768  156.6619 H   0  0  0  0  0  0  0  0  0  0  0  0  # atno 11005 bound_to 11000
  144.7682  140.5578  143.6688 LP  0  0  0  0  0  0  0  0  0  0  0  0  # atno 17320 bound_to 7965
  145.5279  139.1475  143.3516 LP  0  0  0  0  0  0  0  0  0  0  0  0  # atno 17321 bound_to 7965
  140.5428  144.0551  150.6095 LP  0  0  0  0  0  0  0  0  0  0  0  0  # atno 17342 bound_to 10162
  140.3579  143.2925  152.0416 LP  0  0  0  0  0  0  0  0  0  0  0  0  # atno 17343 bound_to 10162
  157.6414  131.0909  150.8242 LP  0  0  0  0  0  0  0  0  0  0  0  0  # atno 17370 bound_to 10713
  156.8336  130.5024  149.5329 LP  0  0  0  0  0  0  0  0  0  0  0  0  # atno 17371 bound_to 10713
  140.3241  134.7984  157.4275 LP  0  0  0  0  0  0  0  0  0  0  0  0  # atno 17394 bound_to 11000
  140.1072  134.5393  155.8298 LP  0  0  0  0  0  0  0  0  0  0  0  0  # atno 17395 bound_to 11000

$$$$
