#       Name:                AV-unprocessed.smi:290
#       Creating user name   scv26
#       Creation time:       Thu Mar 26 22:06:14 2020


#       File generated by GOLD software.
#

@<TRIPOS>MOLECULE
AV-unprocessed.smi:290
    69    72     1
SMALL
NO_CHARGES


@<TRIPOS>ATOM
      1 ****        -6.2832  -3.6933   1.0160 C.3            1 S1                 0.0000
      2 ****        -5.6101  -3.3086  -0.3107 C.3            1 S1                 0.0000
      3 ****        -5.4783  -4.4951  -1.0894 O.3            1 S1                 0.0000
      4 ****        -4.3388  -4.3700  -1.9210 C.3            1 S1                 0.0000
      5 ****        -3.3311  -3.7091  -0.9935 C.3            1 S1                 0.0000
      6 ****        -4.1810  -2.7009  -0.2240 C.3            1 S1                 0.0000
      7 ****        -4.1818  -1.4898  -0.9615 O.3            1 S1                 0.0000
      8 ****        -3.6448  -2.3991   1.2005 C.3            1 S1                 0.0000
      9 ****        -2.2851  -1.8818   1.2081 N.pl3          1 S1                 0.0000
     10 ****        -1.1226  -2.6158   1.2955 C.2            1 S1                 0.0000
     11 ****        -0.0193  -1.9181   1.2747 N.2            1 S1                 0.0000
     12 ****        -0.4569  -0.6043   1.1733 C.ar           1 S1                 0.0000
     13 ****         0.2021   0.6494   1.0964 C.ar           1 S1                 0.0000
     14 ****         1.5513   0.7424   1.1062 N.3            1 S1                 0.0000
     15 ****         2.0964   1.4573   2.2447 C.3            1 S1                 0.0000
     16 ****         3.5360   1.7985   1.8622 C.3            1 S1                 0.0000
     17 ****         3.6277   1.6101   0.3327 C.3            1 S1                 0.0000
     18 ****         4.2885   2.7842  -0.3209 N.4            1 S1                 1.0000
     19 ****         5.7362   2.8346   0.0118 C.3            1 S1                 0.0000
     20 ****         4.0391   2.9262  -1.7843 C.3            1 S1                 0.0000
     21 ****         4.5501   4.2520  -2.3797 C.3            1 S1                 0.0000
     22 ****         3.8854   5.3466  -1.7842 O.3            1 S1                 0.0000
     23 ****         2.1653   1.3166  -0.0849 C.3            1 S1                 0.0000
     24 ****         2.0314   0.3404  -1.2748 C.3            1 S1                 0.0000
     25 ****        -0.5642   1.7678   0.9962 N.ar           1 S1                 0.0000
     26 ****        -1.8969   1.6626   0.9795 C.ar           1 S1                 0.0000
     27 ****        -2.6485   0.5611   1.0447 N.ar           1 S1                 0.0000
     28 ****        -1.8780  -0.5611   1.1372 C.ar           1 S1                 0.0000
     29 ****         4.2230   0.7175   0.1301 H              1 S1                 0.0000
     30 ****         1.6574   2.2548  -0.3140 H              1 S1                 0.0000
     31 ****        -6.4269  -2.8234   1.6568 H              1 S1                 0.0000
     32 ****        -5.6972  -4.4306   1.5648 H              1 S1                 0.0000
     33 ****        -7.2659  -4.1291   0.8340 H              1 S1                 0.0000
     34 ****        -6.2778  -2.6339  -0.8501 H              1 S1                 0.0000
     35 ****        -4.0010  -5.3371  -2.2932 H              1 S1                 0.0000
     36 ****        -4.5704  -3.7298  -2.7736 H              1 S1                 0.0000
     37 ****        -2.9354  -4.4638  -0.3128 H              1 S1                 0.0000
     38 ****        -2.4871  -3.2641  -1.5225 H              1 S1                 0.0000
     39 ****        -4.7327  -0.8655  -0.5140 H              1 S1                 0.0000
     40 ****        -4.2869  -1.6768   1.7062 H              1 S1                 0.0000
     41 ****        -3.6547  -3.3022   1.8114 H              1 S1                 0.0000
     42 ****        -1.1179  -3.6937   1.3694 H              1 S1                 0.0000
     43 ****         1.5337   2.3721   2.4371 H              1 S1                 0.0000
     44 ****         2.0571   0.8430   3.1448 H              1 S1                 0.0000
     45 ****         3.7698   2.8153   2.1803 H              1 S1                 0.0000
     46 ****         4.2362   1.1302   2.3646 H              1 S1                 0.0000
     47 ****         6.2877   2.0687  -0.5351 H              1 S1                 0.0000
     48 ****         5.9145   2.6751   1.0749 H              1 S1                 0.0000
     49 ****         6.1691   3.8057  -0.2242 H              1 S1                 0.0000
     50 ****         4.4957   2.0857  -2.3086 H              1 S1                 0.0000
     51 ****         2.9715   2.8899  -1.9924 H              1 S1                 0.0000
     52 ****         5.6281   4.3678  -2.2772 H              1 S1                 0.0000
     53 ****         4.3442   4.2749  -3.4503 H              1 S1                 0.0000
     54 ****         2.9703   5.3111  -2.0192 H              1 S1                 0.0000
     55 ****         2.5226   0.7009  -2.1760 H              1 S1                 0.0000
     56 ****         0.9852   0.1716  -1.5316 H              1 S1                 0.0000
     57 ****         2.4685  -0.6296  -1.0351 H              1 S1                 0.0000
     58 ****        -2.4390   2.5935   0.9008 H              1 S1                 0.0000
     59 ****         3.8684   3.6002   0.1014 H              1 S1                 0.0000
     60 ****        -6.2944  -4.6193  -1.6537 LP             1 S1                 0.0000
     61 ****        -5.3682  -5.2838  -0.4845 LP             1 S1                 0.0000
     62 ****        -4.5380  -1.6554  -1.8811 LP             1 S1                 0.0000
     63 ****        -3.2498  -1.1328  -1.0243 LP             1 S1                 0.0000
     64 ****         0.9221  -2.2523   1.3211 LP             1 S1                 0.0000
     65 ****         1.7894  -0.2277   1.1530 LP             1 S1                 0.0000
     66 ****         4.2844   6.2022  -2.1141 LP             1 S1                 0.0000
     67 ****         3.9794   5.2966  -0.7898 LP             1 S1                 0.0000
     68 ****        -0.1319   2.6674   0.9351 LP             1 S1                 0.0000
     69 ****        -3.6483   0.5588   1.0279 LP             1 S1                 0.0000
@<TRIPOS>BOND
    1    1    2 1     
    2    1   31 1     
    3    1   32 1     
    4    1   33 1     
    5    2    6 1     
    6    2    3 1     
    7    2   34 1     
    8    3    4 1     
    9    4    5 1     
   10    4   35 1     
   11    4   36 1     
   12    5    6 1     
   13    5   37 1     
   14    5   38 1     
   15    6    7 1     
   16    6    8 1     
   17    7   39 1     
   18    8    9 1     
   19    8   40 1     
   20    8   41 1     
   21    9   28 1     
   22    9   10 1     
   23   10   11 2     
   24   10   42 1     
   25   11   12 1     
   26   12   28 ar    
   27   12   13 ar    
   28   13   14 1     
   29   13   25 ar    
   30   14   23 1     
   31   14   15 1     
   32   15   16 1     
   33   15   43 1     
   34   15   44 1     
   35   16   17 1     
   36   16   45 1     
   37   16   46 1     
   38   17   29 1     
   39   17   18 1     
   40   17   23 1     
   41   18   19 1     
   42   18   20 1     
   43   18   59 1     
   44   19   47 1     
   45   19   48 1     
   46   19   49 1     
   47   20   21 1     
   48   20   50 1     
   49   20   51 1     
   50   21   22 1     
   51   21   52 1     
   52   21   53 1     
   53   22   54 1     
   54   23   30 1     
   55   23   24 1     
   56   24   55 1     
   57   24   56 1     
   58   24   57 1     
   59   25   26 ar    
   60   26   27 ar    
   61   26   58 1     
   62   27   28 ar    
   63    3   60 1     
   64    3   61 1     
   65    7   62 1     
   66    7   63 1     
   67   11   64 1     
   68   14   65 1     
   69   22   66 1     
   70   22   67 1     
   71   25   68 1     
   72   27   69 1     
@<TRIPOS>SUBSTRUCTURE
      1 S1             1
@<TRIPOS>SET
LONE_PAIRS      STATIC     ATOMS    <user>   **** ""
10 60 61 62 63 64 65 66 67 68 69
DONOR_HYDROGENS      STATIC     ATOMS    <user>   **** ""
3 39 59 54
ATOM$BLUE        STATIC     ATOMS    COLORGROUP SYSTEM
10 60 61 62 63 64 65 66 67 68 69
ATOM$RED        STATIC     ATOMS    COLORGROUP SYSTEM
3 39 59 54
