AV-unprocessed.smi:3285|AV-procd|sdf|12587|dock5
  -GOLD-   2272018513D 1   1.00000     0.00000
 Structure written by MMmdl.
 45 46  0  0  0  0  0  0  0  0  2 V2000
  150.3455  130.5654  154.9406 C   0  0  0  0  0  0  0  0  0  0  0  0
  150.4698  131.8379  155.7285 C   0  0  0  0  0  0  0  0  0  0  0  0
  151.1262  131.8355  156.8763 N   0  0  0  0  0  0  0  0  0  0  0  0
  151.0651  133.1474  157.3556 O   0  0  0  0  0  0  0  0  0  0  0  0
  150.3676  133.8978  156.4656 C   0  0  0  0  0  0  0  0  0  0  0  0
  150.1913  135.3405  156.7999 C   0  0  0  0  0  0  0  0  0  0  0  0
  149.9613  133.1295  155.4093 C   0  0  0  0  0  0  0  0  0  0  0  0
  149.1705  133.5405  154.1970 C   0  0  0  0  0  0  0  0  0  0  0  0
  147.7678  134.0291  154.5807 C   0  0  0  0  0  0  0  0  0  0  0  0
  147.1607  134.8095  153.4825 N   0  3  0  0  0  0  0  0  0  0  0  0
  146.1850  134.0732  152.6486 C   0  0  1  0  0  0  0  0  0  0  0  0
  145.4178  135.0626  151.7535 C   0  0  0  0  0  0  0  0  0  0  0  0
  144.4187  134.3429  150.8341 C   0  0  0  0  0  0  0  0  0  0  0  0
  145.1178  133.2717  149.9745 C   0  0  2  0  0  0  0  0  0  0  0  0
  144.1454  132.6062  148.9869 C   0  0  0  0  0  0  0  0  0  0  0  0
  145.8953  132.2569  150.8513 C   0  0  2  0  0  0  0  0  0  0  0  0
  144.9960  131.2802  151.6362 C   0  0  0  0  0  0  0  0  0  0  0  0
  146.8790  132.9979  151.7823 C   0  0  0  0  0  0  0  0  0  0  0  0
  150.8589  130.6498  153.9830 H   0  0  0  0  0  0  0  0  0  0  0  0
  149.3001  130.3330  154.7380 H   0  0  0  0  0  0  0  0  0  0  0  0
  150.7741  129.7154  155.4730 H   0  0  0  0  0  0  0  0  0  0  0  0
  150.2961  135.9616  155.9106 H   0  0  0  0  0  0  0  0  0  0  0  0
  150.9349  135.6680  157.5268 H   0  0  0  0  0  0  0  0  0  0  0  0
  149.2030  135.5190  157.2228 H   0  0  0  0  0  0  0  0  0  0  0  0
  149.6892  134.3283  153.6495 H   0  0  0  0  0  0  0  0  0  0  0  0
  149.0841  132.7061  153.4999 H   0  0  0  0  0  0  0  0  0  0  0  0
  147.1360  133.1741  154.8210 H   0  0  0  0  0  0  0  0  0  0  0  0
  147.8231  134.6511  155.4753 H   0  0  0  0  0  0  0  0  0  0  0  0
  146.6763  135.5894  153.9033 H   0  0  0  0  0  0  0  0  0  0  0  0
  145.4661  133.5965  153.3163 H   0  0  0  0  0  0  0  0  0  0  0  0
  144.8870  135.7900  152.3687 H   0  0  0  0  0  0  0  0  0  0  0  0
  146.1214  135.6310  151.1435 H   0  0  0  0  0  0  0  0  0  0  0  0
  143.6266  133.8903  151.4315 H   0  0  0  0  0  0  0  0  0  0  0  0
  143.9308  135.0748  150.1893 H   0  0  0  0  0  0  0  0  0  0  0  0
  145.8591  133.7908  149.3646 H   0  0  0  0  0  0  0  0  0  0  0  0
  143.3088  132.1312  149.4997 H   0  0  0  0  0  0  0  0  0  0  0  0
  144.6494  131.8457  148.3900 H   0  0  0  0  0  0  0  0  0  0  0  0
  143.7287  133.3410  148.2974 H   0  0  0  0  0  0  0  0  0  0  0  0
  146.4983  131.6429  150.1806 H   0  0  0  0  0  0  0  0  0  0  0  0
  144.3008  131.7981  152.2962 H   0  0  0  0  0  0  0  0  0  0  0  0
  145.5952  130.6101  152.2531 H   0  0  0  0  0  0  0  0  0  0  0  0
  144.4096  130.6513  150.9665 H   0  0  0  0  0  0  0  0  0  0  0  0
  147.6506  133.4727  151.1743 H   0  0  0  0  0  0  0  0  0  0  0  0
  147.3973  132.2712  152.4078 H   0  0  0  0  0  0  0  0  0  0  0  0
  147.8913  135.1711  152.8861 H   0  0  0  0  0  0  0  0  0  0  0  0
  1  2  1  0  0  0  0
  1 19  1  0  0  0  0
  1 20  1  0  0  0  0
  1 21  1  0  0  0  0
  2  7  1  0  0  0  0
  2  3  2  0  0  0  0
  3  4  1  0  0  0  0
  4  5  1  0  0  0  0
  5  6  1  0  0  0  0
  5  7  2  0  0  0  0
  6 22  1  0  0  0  0
  6 23  1  0  0  0  0
  6 24  1  0  0  0  0
  7  8  1  0  0  0  0
  8  9  1  0  0  0  0
  8 25  1  0  0  0  0
  8 26  1  0  0  0  0
  9 10  1  0  0  0  0
  9 27  1  0  0  0  0
  9 28  1  0  0  0  0
 10 11  1  0  0  0  0
 10 29  1  0  0  0  0
 10 45  1  0  0  0  0
 11 18  1  0  0  0  0
 11 12  1  0  0  0  0
 11 30  1  0  0  0  0
 12 13  1  0  0  0  0
 12 31  1  0  0  0  0
 12 32  1  0  0  0  0
 13 14  1  0  0  0  0
 13 33  1  0  0  0  0
 13 34  1  0  0  0  0
 14 15  1  0  0  0  0
 14 16  1  0  0  0  0
 14 35  1  0  0  0  0
 15 36  1  0  0  0  0
 15 37  1  0  0  0  0
 15 38  1  0  0  0  0
 16 17  1  0  0  0  0
 16 18  1  0  0  0  0
 16 39  1  0  0  0  0
 17 40  1  0  0  0  0
 17 41  1  0  0  0  0
 17 42  1  0  0  0  0
 18 43  1  0  0  0  0
 18 44  1  0  0  0  0
M  CHG  1  10   1
M  END
> <s_m_source_file>
AV-unprocessed.smi

> <i_m_source_file_index>
3285

> <i_lp_mmshare_version>
43012

> <i_f3d_flags>
0

> <s_epik_input>
W0NIM11jMW5vYyhbQ0gzXSljMVtDSDJdW0NIMl1bTkhdW0NAQEhdMltDSDJdW0NIMl1bQ0BASF0oW0NIM10pW0NAQEhdKFtDSDNdKVtDSDJdMg==

> <s_epik_cmdline>
J2VwaWtfcHl0aG9uJywgJy1waCcsICc3LjAnLCAnLXRuJywgJzgnLCAnLW1hJywgJzIwMCcsICctbWV0YWxfYmluZGluZycsICctaW1hZScsICc8aW5maWxlLm1hZT4nLCAnLW9tYWUnLCAnPG91dGZpbGUubWFlPic=

> <r_lp_tautomer_probability>
1

> <r_epik_Ionization_Penalty>
0.000204615

> <r_epik_Ionization_Penalty_Charging>
0.000204615

> <r_epik_Ionization_Penalty_Neutral>
9.28663e-11

> <r_epik_State_Penalty>
-0

> <r_epik_Charging_Adjusted_Penalty>
0.000204615

> <i_epik_Tot_Q>
1

> <i_epik_Tot_abs_Q>
1

> <r_epik_Metal_State_Penalty>
-0

> <b_epik_Metal_Only>
0

> <s_lp_Force_Field>
OPLS_2005

> <r_lp_Energy>
12.1842

> <b_lp_Chiralities_Consistent>
1

> <s_lp_Variant>
AV-unprocessed.smi:3285-8

> <Gold.Version>
5.8.1

> <Gold.Id.Protein>
6NUR|6NUR_protein|mol2

> <Gold.PLP.Fitness>
42.1750

> <Gold.PLP.PLP>
-34.2430

> <Gold.PLP.part.hbond>
-2.0000

> <Gold.PLP.part.metal>
0.0000

> <Gold.PLP.part.buried>
-3.2630

> <Gold.PLP.part.nonpolar>
-28.6387

> <Gold.PLP.part.repulsive>
0.0000

> <Gold.PLP.ligand.clash>
0.0000

> <Gold.PLP.ligand.torsion>
0.4277

> <Gold.PLP.Chemscore.Hbond>
2.9199

> <Gold.PLP.Chemscore.CHOScore>
0.0000

> <Gold.PLP.Chemscore.Metal>
0.0000

> <Gold.Chemscore.Hbonds>
donor molecule, donor type, donor heavy atom, donor atom, acceptor molecule, acceptor atom, score
      L1  H    10    45       P1  7948  2.00
      P1  H  6896  6907       L1     4  0.86

> <Gold.PLP.Chemscore.Internal.Correction>
0.0277

> <Gold.Rescore>
     Score         DG    S(hbond)    S(metal)    S(lipo)     H(rot)  DE(clash)    DE(int)     intcor
     18.62     -18.99       1.88        0.00      91.17       1.35       0.00       0.36       ----

> <Gold.Chemscore.Fitness>
18.6242

> <Gold.Chemscore.DG>
-18.9880

> <Gold.Chemscore.ZeroCoef>
-5.4800

> <Gold.Chemscore.Hbond>
1.8826

> <Gold.Chemscore.Metal>
0.0000

> <Gold.Chemscore.Lipo>
91.1707

> <Gold.Chemscore.Internal_Hbond>
0.0000

> <Gold.Chemscore.DEClash>
0.0015

> <Gold.Chemscore.DEInternal>
0.3624

> <Gold.Chemscore.Rot>
1.3465

> <Gold.Chemscore.Internal.Correction>
   9.000000E+99

> <Gold.Chemscore.Hbonds>
donor molecule, donor type, donor heavy atom, donor atom, acceptor molecule, acceptor atom, score
      L1  H    10    45       P1  7948  1.00
      P1  H  6896  6907       L1     4  0.80

> <Gold.Chemscore.Hbond.Weighted>
-6.2881

> <Gold.Chemscore.Metal.Weighted>
-0.0000

> <Gold.Chemscore.Lipo.Weighted>
-10.6670

> <Gold.Chemscore.Internal_Hbond.Weighted>
0.0000

> <Gold.Chemscore.DEClash.Weighted>
0.0015

> <Gold.Chemscore.DEInternal.Weighted>
0.3624

> <Gold.Chemscore.Rot.Weighted>
3.4470

> <Gold.Chemscore.Internal.Correction.Weighted>
   9.000000E+99

> <Gold.Protein.RotatedTorsions>
[ 6907 6896 6895 6894 ] final -159.70 input  -60.11 | X-H torsion
[ 7974 7965 7964 7962 ] final  177.82 input  175.53 | X-H torsion
[ 8008 7997 7996 7995 ] final -128.49 input   59.86 | X-H torsion
[ 10167 10162 10161 10158 ] final   23.69 input  -65.29 | X-H torsion
[ 10718 10713 10712 10709 ] final  149.83 input   66.30 | X-H torsion
[ 10763 10752 10751 10750 ] final  -84.72 input  -60.55 | X-H torsion
[ 11005 11000 10999 10996 ] final -177.99 input  -57.11 | X-H torsion

> <Gold.Protein.ActiveResidues>
 VAL166  LYS551  ARG553  GLY616  TRP617  ASP618  TYR619  PRO620  LYS621  CYS622 
 ASP623  PHE694  ASN695  SER759  ASP760  ASP761  ALA762  ILE779  LEU786  VAL792 
 PHE793  MET794  SER795  GLU796  ALA797  LYS798  CYS799  TRP800  GLU811  SER814 

> <Gold.Protein.RotatedAtoms>
  151.3376  133.3975  159.2667 H   0  0  0  0  0  0  0  0  0  0  0  0  # atno 6907 bound_to 6896
  150.9904  134.9241  159.7907 H   0  0  0  0  0  0  0  0  0  0  0  0  # atno 6908 bound_to 6896
  152.5245  134.3341  159.9245 H   0  0  0  0  0  0  0  0  0  0  0  0  # atno 6909 bound_to 6896
  144.7164  140.0305  143.6439 H   0  0  0  0  0  0  0  0  0  0  0  0  # atno 7974 bound_to 7965
  155.2636  140.0437  157.3000 H   0  0  0  0  0  0  0  0  0  0  0  0  # atno 8008 bound_to 7997
  154.5696  140.2370  155.8181 H   0  0  0  0  0  0  0  0  0  0  0  0  # atno 8009 bound_to 7997
  156.2112  140.2998  155.9744 H   0  0  0  0  0  0  0  0  0  0  0  0  # atno 8010 bound_to 7997
  140.5248  143.9941  150.6435 H   0  0  0  0  0  0  0  0  0  0  0  0  # atno 10167 bound_to 10162
  157.2912  131.0853  151.1460 H   0  0  0  0  0  0  0  0  0  0  0  0  # atno 10718 bound_to 10713
  154.6028  135.5510  153.7392 H   0  0  0  0  0  0  0  0  0  0  0  0  # atno 10763 bound_to 10752
  153.0162  135.6370  154.1690 H   0  0  0  0  0  0  0  0  0  0  0  0  # atno 10764 bound_to 10752
  154.1629  135.2896  155.3083 H   0  0  0  0  0  0  0  0  0  0  0  0  # atno 10765 bound_to 10752
  140.4347  134.6486  157.4729 H   0  0  0  0  0  0  0  0  0  0  0  0  # atno 11005 bound_to 11000
  146.0106  139.3167  143.0872 LP  0  0  0  0  0  0  0  0  0  0  0  0  # atno 17320 bound_to 7965
  145.8686  140.9433  143.0662 LP  0  0  0  0  0  0  0  0  0  0  0  0  # atno 17321 bound_to 7965
  140.3300  143.3083  152.0697 LP  0  0  0  0  0  0  0  0  0  0  0  0  # atno 17342 bound_to 10162
  139.4935  144.6515  151.6664 LP  0  0  0  0  0  0  0  0  0  0  0  0  # atno 17343 bound_to 10162
  157.2856  130.6771  149.6088 LP  0  0  0  0  0  0  0  0  0  0  0  0  # atno 17370 bound_to 10713
  155.9667  130.4436  150.5429 LP  0  0  0  0  0  0  0  0  0  0  0  0  # atno 17371 bound_to 10713
  140.0110  134.6690  155.9380 LP  0  0  0  0  0  0  0  0  0  0  0  0  # atno 17394 bound_to 11000
  141.1731  133.6538  156.4725 LP  0  0  0  0  0  0  0  0  0  0  0  0  # atno 17395 bound_to 11000

$$$$
