AV-unprocessed.smi:844|AV-procd|sdf|3926|dock3
  -GOLD-   22720 1383D 1   1.00000     0.00000
 Structure written by MMmdl.
 33 35  0  0  0  0  0  0  0  0  2 V2000
  149.5494  142.4078  157.2012 O   0  0  0  0  0  0  0  0  0  0  0  0
  150.3738  141.2605  157.2003 C   0  0  1  0  0  0  0  0  0  0  0  0
  150.9947  141.1202  155.7956 C   0  0  0  0  0  0  0  0  0  0  0  0
  150.2571  140.1782  154.9444 N   0  0  0  0  0  0  0  0  0  0  0  0
  150.5818  138.9174  154.5487 C   0  0  0  0  0  0  0  0  0  0  0  0
  149.5582  138.4518  153.7805 N   0  3  0  0  0  0  0  0  0  0  0  0
  148.5674  139.4311  153.6802 C   0  0  0  0  0  0  0  0  0  0  0  0
  147.3458  139.4282  153.0141 C   0  0  0  0  0  0  0  0  0  0  0  0
  146.5668  140.5997  153.1159 C   0  0  0  0  0  0  0  0  0  0  0  0
  147.0093  141.7148  153.8574 C   0  0  0  0  0  0  0  0  0  0  0  0
  148.2493  141.7064  154.5294 C   0  0  0  0  0  0  0  0  0  0  0  0
  149.0123  140.5444  154.4235 C   0  0  0  0  0  0  0  0  0  0  0  0
  151.4337  141.3056  158.2956 C   0  0  0  0  0  0  0  0  0  0  0  0
  151.9786  140.1077  158.8097 C   0  0  0  0  0  0  0  0  0  0  0  0
  152.9433  140.1460  159.8346 C   0  0  0  0  0  0  0  0  0  0  0  0
  153.3685  141.3826  160.3556 C   0  0  0  0  0  0  0  0  0  0  0  0
  154.2934  141.4198  161.3436 F   0  0  0  0  0  0  0  0  0  0  0  0
  152.8273  142.5804  159.8516 C   0  0  0  0  0  0  0  0  0  0  0  0
  151.8621  142.5444  158.8265 C   0  0  0  0  0  0  0  0  0  0  0  0
  151.3419  143.7069  158.3638 F   0  0  0  0  0  0  0  0  0  0  0  0
  149.7024  142.8882  156.4018 H   0  0  0  0  0  0  0  0  0  0  0  0
  149.7095  140.4165  157.3852 H   0  0  0  0  0  0  0  0  0  0  0  0
  151.0290  142.0831  155.2840 H   0  0  0  0  0  0  0  0  0  0  0  0
  152.0252  140.7683  155.8639 H   0  0  0  0  0  0  0  0  0  0  0  0
  151.4831  138.3800  154.8068 H   0  0  0  0  0  0  0  0  0  0  0  0
  147.0038  138.5755  152.4460 H   0  0  0  0  0  0  0  0  0  0  0  0
  145.6104  140.6442  152.6153 H   0  0  0  0  0  0  0  0  0  0  0  0
  146.3851  142.5949  153.9122 H   0  0  0  0  0  0  0  0  0  0  0  0
  148.5799  142.5643  155.0963 H   0  0  0  0  0  0  0  0  0  0  0  0
  151.6547  139.1525  158.4224 H   0  0  0  0  0  0  0  0  0  0  0  0
  153.3557  139.2262  160.2224 H   0  0  0  0  0  0  0  0  0  0  0  0
  153.1510  143.5290  160.2540 H   0  0  0  0  0  0  0  0  0  0  0  0
  149.5397  137.5326  153.3574 H   0  0  0  0  0  0  0  0  0  0  0  0
  1  2  1  0  0  0  0
  1 21  1  0  0  0  0
  2  3  1  0  0  0  0
  2 13  1  0  0  0  0
  2 22  1  0  0  0  0
  3  4  1  0  0  0  0
  3 23  1  0  0  0  0
  3 24  1  0  0  0  0
  4 12  1  0  0  0  0
  4  5  1  0  0  0  0
  5  6  2  0  0  0  0
  5 25  1  0  0  0  0
  6  7  1  0  0  0  0
  6 33  1  0  0  0  0
  7 12  2  0  0  0  0
  7  8  1  0  0  0  0
  8  9  2  0  0  0  0
  8 26  1  0  0  0  0
  9 10  1  0  0  0  0
  9 27  1  0  0  0  0
 10 11  2  0  0  0  0
 10 28  1  0  0  0  0
 11 12  1  0  0  0  0
 11 29  1  0  0  0  0
 13 19  1  0  0  0  0
 13 14  2  0  0  0  0
 14 15  1  0  0  0  0
 14 30  1  0  0  0  0
 15 16  2  0  0  0  0
 15 31  1  0  0  0  0
 16 17  1  0  0  0  0
 16 18  1  0  0  0  0
 18 19  2  0  0  0  0
 18 32  1  0  0  0  0
 19 20  1  0  0  0  0
M  CHG  1   6   1
M  END
> <s_m_source_file>
AV-unprocessed.smi

> <i_m_source_file_index>
844

> <i_lp_mmshare_version>
43012

> <i_f3d_flags>
0

> <s_epik_input>
RmMxW2NIXWMoRilbY0hdW2NIXWMxW0NASF0oW09IXSlbQ0gyXW4oW2NIXW4yKWMoYzIzKVtjSF1bY0hdW2NIXVtjSF0z

> <s_epik_cmdline>
J2VwaWtfcHl0aG9uJywgJy1waCcsICc3LjAnLCAnLXRuJywgJzgnLCAnLW1hJywgJzIwMCcsICctbWV0YWxfYmluZGluZycsICctaW1hZScsICc8aW5maWxlLm1hZT4nLCAnLW9tYWUnLCAnPG91dGZpbGUubWFlPic=

> <r_epik_Ionization_Penalty>
1.3029

> <r_epik_Ionization_Penalty_Charging>
1.3029

> <r_epik_Ionization_Penalty_Neutral>
1.79538e-06

> <r_epik_State_Penalty>
1.377

> <r_epik_Charging_Adjusted_Penalty>
2.6799

> <i_epik_Tot_Q>
1

> <i_epik_Tot_abs_Q>
1

> <r_epik_Metal_State_Penalty>
5.40879

> <b_epik_Metal_Only>
0

> <s_lp_Force_Field>
OPLS_2005

> <r_lp_Energy>
17.7817

> <b_lp_Chiralities_Consistent>
1

> <s_lp_Variant>
AV-unprocessed.smi:844-4

> <Gold.Version>
5.8.1

> <Gold.Id.Protein>
6NUR|6NUR_protein|mol2

> <Gold.PLP.Fitness>
48.6856

> <Gold.PLP.PLP>
-44.1040

> <Gold.PLP.part.hbond>
-2.9192

> <Gold.PLP.part.metal>
0.0000

> <Gold.PLP.part.buried>
4.2498

> <Gold.PLP.part.nonpolar>
-45.2242

> <Gold.PLP.part.repulsive>
0.0581

> <Gold.PLP.ligand.clash>
0.0000

> <Gold.PLP.ligand.torsion>
1.3763

> <Gold.PLP.Chemscore.Hbond>
2.4401

> <Gold.PLP.Chemscore.CHOScore>
0.0000

> <Gold.PLP.Chemscore.Metal>
0.0000

> <Gold.Chemscore.Hbonds>
donor molecule, donor type, donor heavy atom, donor atom, acceptor molecule, acceptor atom, score
      L1  H     1    21       P1  8028  0.47
      L1  H     6    33       P1  7948  1.98

> <Gold.PLP.Chemscore.Internal.Correction>
0.0138

> <Gold.Rescore>
     Score         DG    S(hbond)    S(metal)    S(lipo)     H(rot)  DE(clash)    DE(int)     intcor
     12.03     -17.17       1.34        0.00     106.84       2.06       1.97       3.17       ----

> <Gold.Chemscore.Fitness>
12.0286

> <Gold.Chemscore.DG>
-17.1726

> <Gold.Chemscore.ZeroCoef>
-5.4800

> <Gold.Chemscore.Hbond>
1.3369

> <Gold.Chemscore.Metal>
0.0000

> <Gold.Chemscore.Lipo>
106.8374

> <Gold.Chemscore.Internal_Hbond>
0.0000

> <Gold.Chemscore.DEClash>
1.9715

> <Gold.Chemscore.DEInternal>
3.1724

> <Gold.Chemscore.Rot>
2.0597

> <Gold.Chemscore.Internal.Correction>
   9.000000E+99

> <Gold.Chemscore.Hbonds>
donor molecule, donor type, donor heavy atom, donor atom, acceptor molecule, acceptor atom, score
      L1  H     1    21       P1  8028  0.47
      L1  H     6    33       P1  7948  0.78

> <Gold.Chemscore.Hbond.Weighted>
-4.4654

> <Gold.Chemscore.Metal.Weighted>
-0.0000

> <Gold.Chemscore.Lipo.Weighted>
-12.5000

> <Gold.Chemscore.Internal_Hbond.Weighted>
0.0000

> <Gold.Chemscore.DEClash.Weighted>
1.9715

> <Gold.Chemscore.DEInternal.Weighted>
3.1724

> <Gold.Chemscore.Rot.Weighted>
5.2728

> <Gold.Chemscore.Internal.Correction.Weighted>
   9.000000E+99

> <Gold.Protein.RotatedTorsions>
[ 6907 6896 6895 6894 ] final  173.05 input  -60.11 | X-H torsion
[ 7974 7965 7964 7962 ] final  116.97 input  175.53 | X-H torsion
[ 8008 7997 7996 7995 ] final   33.65 input   59.86 | X-H torsion
[ 10167 10162 10161 10158 ] final -115.41 input  -65.29 | X-H torsion
[ 10718 10713 10712 10709 ] final  100.55 input   66.30 | X-H torsion
[ 10763 10752 10751 10750 ] final  152.30 input  -60.55 | X-H torsion
[ 11005 11000 10999 10996 ] final    1.06 input  -57.11 | X-H torsion

> <Gold.Protein.ActiveResidues>
 VAL166  LYS551  ARG553  GLY616  TRP617  ASP618  TYR619  PRO620  LYS621  CYS622 
 ASP623  PHE694  ASN695  SER759  ASP760  ASP761  ALA762  ILE779  LEU786  VAL792 
 PHE793  MET794  SER795  GLU796  ALA797  LYS798  CYS799  TRP800  GLU811  SER814 

> <Gold.Protein.RotatedAtoms>
  151.7745  133.3344  159.3453 H   0  0  0  0  0  0  0  0  0  0  0  0  # atno 6907 bound_to 6896
  150.7449  134.5988  159.6035 H   0  0  0  0  0  0  0  0  0  0  0  0  # atno 6908 bound_to 6896
  152.3318  134.7250  160.0339 H   0  0  0  0  0  0  0  0  0  0  0  0  # atno 6909 bound_to 6896
  145.1731  139.3091  143.4457 H   0  0  0  0  0  0  0  0  0  0  0  0  # atno 7974 bound_to 7965
  155.1420  140.3267  155.4450 H   0  0  0  0  0  0  0  0  0  0  0  0  # atno 8008 bound_to 7997
  156.2601  140.1992  156.6485 H   0  0  0  0  0  0  0  0  0  0  0  0  # atno 8009 bound_to 7997
  154.6535  140.0555  156.9969 H   0  0  0  0  0  0  0  0  0  0  0  0  # atno 8010 bound_to 7997
  140.0904  143.4705  152.1873 H   0  0  0  0  0  0  0  0  0  0  0  0  # atno 10167 bound_to 10162
  157.6851  131.0701  150.5118 H   0  0  0  0  0  0  0  0  0  0  0  0  # atno 10718 bound_to 10713
  154.1177  135.2835  155.3216 H   0  0  0  0  0  0  0  0  0  0  0  0  # atno 10763 bound_to 10752
  154.6445  135.5391  153.7831 H   0  0  0  0  0  0  0  0  0  0  0  0  # atno 10764 bound_to 10752
  153.0323  135.6494  154.1333 H   0  0  0  0  0  0  0  0  0  0  0  0  # atno 10765 bound_to 10752
  140.6197  133.9673  155.8218 H   0  0  0  0  0  0  0  0  0  0  0  0  # atno 11005 bound_to 11000
  146.3465  140.1883  142.8589 LP  0  0  0  0  0  0  0  0  0  0  0  0  # atno 17320 bound_to 7965
  145.0213  140.8796  143.5165 LP  0  0  0  0  0  0  0  0  0  0  0  0  # atno 17321 bound_to 7965
  139.5728  144.7472  151.3845 LP  0  0  0  0  0  0  0  0  0  0  0  0  # atno 17342 bound_to 10162
  140.7031  143.7581  150.7437 LP  0  0  0  0  0  0  0  0  0  0  0  0  # atno 17343 bound_to 10162
  156.5435  130.4214  149.6142 LP  0  0  0  0  0  0  0  0  0  0  0  0  # atno 17370 bound_to 10713
  156.2965  130.7153  151.2014 LP  0  0  0  0  0  0  0  0  0  0  0  0  # atno 17371 bound_to 10713
  141.0751  134.0147  157.3470 LP  0  0  0  0  0  0  0  0  0  0  0  0  # atno 17394 bound_to 11000
  139.9158  135.0196  156.7876 LP  0  0  0  0  0  0  0  0  0  0  0  0  # atno 17395 bound_to 11000

$$$$
