AV-unprocessed.smi:2569|AV-procd|sdf|10104|dock10
  -GOLD-   2272014123D 1   1.00000     0.00000
 Structure written by MMmdl.
 40 42  0  0  0  0  0  0  0  0  2 V2000
  152.7375  142.8966  160.9889 C   0  0  0  0  0  0  0  0  0  0  0  0
  152.3494  142.2641  159.6630 C   0  0  0  0  0  0  0  0  0  0  0  0
  151.4399  142.9515  158.8284 C   0  0  0  0  0  0  0  0  0  0  0  0
  151.1064  142.3488  157.6212 C   0  0  0  0  0  0  0  0  0  0  0  0
  150.2519  142.7651  156.5983 N   0  3  0  0  0  0  0  0  0  0  0  0
  150.2444  141.8337  155.6052 C   0  0  0  0  0  0  0  0  0  0  0  0
  151.0834  140.8291  155.9774 N   0  0  0  0  0  0  0  0  0  0  0  0
  151.4294  139.5890  155.2676 C   0  0  0  0  0  0  0  0  0  0  0  0
  150.1896  138.7731  154.8543 C   0  0  2  0  0  0  0  0  0  0  0  0
  149.4260  139.4964  153.9071 O   0  0  0  0  0  0  0  0  0  0  0  0
  149.3117  138.4101  156.0674 C   0  0  0  0  0  0  0  0  0  0  0  0
  149.9988  137.5515  157.0183 N   0  0  0  0  0  0  0  0  0  0  0  0
  151.2336  137.0630  156.7452 N   0  0  0  0  0  0  0  0  0  0  0  0
  151.5847  136.3397  157.7693 N   0  0  0  0  0  0  0  0  0  0  0  0
  150.6004  136.3312  158.7400 N   0  0  0  0  0  0  0  0  0  0  0  0
  149.6444  137.0942  158.2266 C   0  0  0  0  0  0  0  0  0  0  0  0
  148.3435  137.4127  158.8869 C   0  0  0  0  0  0  0  0  0  0  0  0
  151.6437  141.1065  157.2306 C   0  0  0  0  0  0  0  0  0  0  0  0
  152.5398  140.4150  158.0434 C   0  0  0  0  0  0  0  0  0  0  0  0
  152.8916  141.0113  159.2756 C   0  0  0  0  0  0  0  0  0  0  0  0
  153.8671  140.2796  160.1821 C   0  0  0  0  0  0  0  0  0  0  0  0
  152.2093  143.8365  161.1523 H   0  0  0  0  0  0  0  0  0  0  0  0
  153.8071  143.1065  161.0131 H   0  0  0  0  0  0  0  0  0  0  0  0
  152.4956  142.2318  161.8182 H   0  0  0  0  0  0  0  0  0  0  0  0
  151.0222  143.9050  159.1171 H   0  0  0  0  0  0  0  0  0  0  0  0
  149.6741  141.8826  154.6887 H   0  0  0  0  0  0  0  0  0  0  0  0
  151.9936  139.8767  154.3796 H   0  0  0  0  0  0  0  0  0  0  0  0
  152.1094  138.9963  155.8796 H   0  0  0  0  0  0  0  0  0  0  0  0
  150.5231  137.8539  154.3707 H   0  0  0  0  0  0  0  0  0  0  0  0
  149.8672  139.4609  153.0724 H   0  0  0  0  0  0  0  0  0  0  0  0
  149.0040  139.3164  156.5910 H   0  0  0  0  0  0  0  0  0  0  0  0
  148.3948  137.9174  155.7427 H   0  0  0  0  0  0  0  0  0  0  0  0
  148.2624  136.8886  159.8395 H   0  0  0  0  0  0  0  0  0  0  0  0
  147.5129  137.1057  158.2514 H   0  0  0  0  0  0  0  0  0  0  0  0
  148.2694  138.4842  159.0728 H   0  0  0  0  0  0  0  0  0  0  0  0
  152.9522  139.4603  157.7540 H   0  0  0  0  0  0  0  0  0  0  0  0
  154.1975  139.3398  159.7385 H   0  0  0  0  0  0  0  0  0  0  0  0
  153.3996  140.0488  161.1394 H   0  0  0  0  0  0  0  0  0  0  0  0
  154.7517  140.8899  160.3659 H   0  0  0  0  0  0  0  0  0  0  0  0
  149.7112  143.6204  156.5776 H   0  0  0  0  0  0  0  0  0  0  0  0
  1  2  1  0  0  0  0
  1 22  1  0  0  0  0
  1 23  1  0  0  0  0
  1 24  1  0  0  0  0
  2 20  1  0  0  0  0
  2  3  2  0  0  0  0
  3  4  1  0  0  0  0
  3 25  1  0  0  0  0
  4 18  2  0  0  0  0
  4  5  1  0  0  0  0
  5  6  2  0  0  0  0
  5 40  1  0  0  0  0
  6  7  1  0  0  0  0
  6 26  1  0  0  0  0
  7  8  1  0  0  0  0
  7 18  1  0  0  0  0
  8  9  1  0  0  0  0
  8 27  1  0  0  0  0
  8 28  1  0  0  0  0
  9 10  1  0  0  0  0
  9 11  1  0  0  0  0
  9 29  1  0  0  0  0
 10 30  1  0  0  0  0
 11 12  1  0  0  0  0
 11 31  1  0  0  0  0
 11 32  1  0  0  0  0
 12 16  1  0  0  0  0
 12 13  1  0  0  0  0
 13 14  2  0  0  0  0
 14 15  1  0  0  0  0
 15 16  2  0  0  0  0
 16 17  1  0  0  0  0
 17 33  1  0  0  0  0
 17 34  1  0  0  0  0
 17 35  1  0  0  0  0
 18 19  1  0  0  0  0
 19 20  2  0  0  0  0
 19 36  1  0  0  0  0
 20 21  1  0  0  0  0
 21 37  1  0  0  0  0
 21 38  1  0  0  0  0
 21 39  1  0  0  0  0
M  CHG  1   5   1
M  END
> <s_m_source_file>
AV-unprocessed.smi

> <i_m_source_file_index>
2569

> <i_lp_mmshare_version>
43012

> <i_f3d_flags>
0

> <s_epik_input>
W0NIM11jKFtjSF0xKWMoW0NIM10pW2NIXWMoYzEyKW4oW2NIXW4yKVtDSDJdW0NASF0oW09IXSlbQ0gyXW4zbm5uYzNbQ0gzXQ==

> <s_epik_cmdline>
J2VwaWtfcHl0aG9uJywgJy1waCcsICc3LjAnLCAnLXRuJywgJzgnLCAnLW1hJywgJzIwMCcsICctbWV0YWxfYmluZGluZycsICctaW1hZScsICc8aW5maWxlLm1hZT4nLCAnLW9tYWUnLCAnPG91dGZpbGUubWFlPic=

> <r_lp_tautomer_probability>
1

> <r_epik_Ionization_Penalty>
1.13338

> <r_epik_Ionization_Penalty_Charging>
1.13335

> <r_epik_Ionization_Penalty_Neutral>
3.02334e-05

> <r_epik_State_Penalty>
1.19324

> <r_epik_Charging_Adjusted_Penalty>
2.3266

> <i_epik_Tot_Q>
1

> <i_epik_Tot_abs_Q>
1

> <r_epik_Metal_State_Penalty>
1.27602

> <b_epik_Metal_Only>
0

> <s_lp_Force_Field>
OPLS_2005

> <r_lp_Energy>
15.9129

> <b_lp_Chiralities_Consistent>
1

> <s_lp_Variant>
AV-unprocessed.smi:2569-3

> <Gold.Version>
5.8.1

> <Gold.Id.Protein>
6NUR|6NUR_protein|mol2

> <Gold.PLP.Fitness>
48.9236

> <Gold.PLP.PLP>
-37.7214

> <Gold.PLP.part.hbond>
-4.0000

> <Gold.PLP.part.metal>
0.0000

> <Gold.PLP.part.buried>
-4.3087

> <Gold.PLP.part.nonpolar>
-28.4538

> <Gold.PLP.part.repulsive>
0.0614

> <Gold.PLP.ligand.clash>
0.0000

> <Gold.PLP.ligand.torsion>
0.0923

> <Gold.PLP.Chemscore.Hbond>
3.7930

> <Gold.PLP.Chemscore.CHOScore>
0.0000

> <Gold.PLP.Chemscore.Metal>
0.0000

> <Gold.Chemscore.Hbonds>
donor molecule, donor type, donor heavy atom, donor atom, acceptor molecule, acceptor atom, score
      L1  H     5    40       P1  8028  1.92
      L1  H    10    30       P1  7957  0.82
      P1  H  6896  6907       L1    15  0.93

> <Gold.PLP.Chemscore.Internal.Correction>
0.0077

> <Gold.Rescore>
     Score         DG    S(hbond)    S(metal)    S(lipo)     H(rot)  DE(clash)    DE(int)     intcor
     16.07     -17.42       2.57        0.00      85.39       2.59       0.06       1.29       ----

> <Gold.Chemscore.Fitness>
16.0712

> <Gold.Chemscore.DG>
-17.4200

> <Gold.Chemscore.ZeroCoef>
-5.4800

> <Gold.Chemscore.Hbond>
2.5654

> <Gold.Chemscore.Metal>
0.0000

> <Gold.Chemscore.Lipo>
85.3873

> <Gold.Chemscore.Internal_Hbond>
0.0000

> <Gold.Chemscore.DEClash>
0.0625

> <Gold.Chemscore.DEInternal>
1.2863

> <Gold.Chemscore.Rot>
2.5854

> <Gold.Chemscore.Internal.Correction>
   9.000000E+99

> <Gold.Chemscore.Hbonds>
donor molecule, donor type, donor heavy atom, donor atom, acceptor molecule, acceptor atom, score
      L1  H     5    40       P1  8028  0.92
      L1  H    10    30       P1  7957  0.77
      P1  H  6896  6907       L1    15  0.49

> <Gold.Chemscore.Hbond.Weighted>
-8.5683

> <Gold.Chemscore.Metal.Weighted>
-0.0000

> <Gold.Chemscore.Lipo.Weighted>
-9.9903

> <Gold.Chemscore.Internal_Hbond.Weighted>
0.0000

> <Gold.Chemscore.DEClash.Weighted>
0.0625

> <Gold.Chemscore.DEInternal.Weighted>
1.2863

> <Gold.Chemscore.Rot.Weighted>
6.6187

> <Gold.Chemscore.Internal.Correction.Weighted>
   9.000000E+99

> <Gold.Protein.RotatedTorsions>
[ 6907 6896 6895 6894 ] final  -47.61 input  -60.11 | X-H torsion
[ 7974 7965 7964 7962 ] final   -6.41 input  175.53 | X-H torsion
[ 8008 7997 7996 7995 ] final  134.19 input   59.86 | X-H torsion
[ 10167 10162 10161 10158 ] final -107.21 input  -65.29 | X-H torsion
[ 10718 10713 10712 10709 ] final -165.26 input   66.30 | X-H torsion
[ 10763 10752 10751 10750 ] final  -61.60 input  -60.55 | X-H torsion
[ 11005 11000 10999 10996 ] final  -43.45 input  -57.11 | X-H torsion

> <Gold.Protein.ActiveResidues>
 VAL166  LYS551  ARG553  GLY616  TRP617  ASP618  TYR619  PRO620  LYS621  CYS622 
 ASP623  PHE694  ASN695  SER759  ASP760  ASP761  ALA762  ILE779  LEU786  VAL792 
 PHE793  MET794  SER795  GLU796  ALA797  LYS798  CYS799  TRP800  GLU811  SER814 

> <Gold.Protein.RotatedAtoms>
  150.8990  134.8401  159.7346 H   0  0  0  0  0  0  0  0  0  0  0  0  # atno 6907 bound_to 6896
  152.4881  134.4531  159.9591 H   0  0  0  0  0  0  0  0  0  0  0  0  # atno 6908 bound_to 6896
  151.4585  133.3560  159.2841 H   0  0  0  0  0  0  0  0  0  0  0  0  # atno 6909 bound_to 6896
  146.2331  140.2166  142.8336 H   0  0  0  0  0  0  0  0  0  0  0  0  # atno 7974 bound_to 7965
  156.2997  140.2502  156.3376 H   0  0  0  0  0  0  0  0  0  0  0  0  # atno 8008 bound_to 7997
  154.9086  140.0404  157.1952 H   0  0  0  0  0  0  0  0  0  0  0  0  # atno 8009 bound_to 7997
  154.8428  140.2893  155.5652 H   0  0  0  0  0  0  0  0  0  0  0  0  # atno 8010 bound_to 7997
  140.1794  143.3979  152.1293 H   0  0  0  0  0  0  0  0  0  0  0  0  # atno 10167 bound_to 10162
  156.6509  130.9007  151.3013 H   0  0  0  0  0  0  0  0  0  0  0  0  # atno 10718 bound_to 10713
  154.2871  135.6260  153.5370 H   0  0  0  0  0  0  0  0  0  0  0  0  # atno 10763 bound_to 10752
  152.9857  135.5647  154.5431 H   0  0  0  0  0  0  0  0  0  0  0  0  # atno 10764 bound_to 10752
  154.5034  135.2873  155.1378 H   0  0  0  0  0  0  0  0  0  0  0  0  # atno 10765 bound_to 10752
  141.0384  133.6790  156.2735 H   0  0  0  0  0  0  0  0  0  0  0  0  # atno 11005 bound_to 11000
  144.9665  140.8326  143.5481 LP  0  0  0  0  0  0  0  0  0  0  0  0  # atno 17320 bound_to 7965
  145.2142  139.2190  143.5127 LP  0  0  0  0  0  0  0  0  0  0  0  0  # atno 17321 bound_to 7965
  139.5303  144.7151  151.5081 LP  0  0  0  0  0  0  0  0  0  0  0  0  # atno 17342 bound_to 10162
  140.6530  143.8658  150.6805 LP  0  0  0  0  0  0  0  0  0  0  0  0  # atno 17343 bound_to 10162
  157.7141  130.9476  150.1192 LP  0  0  0  0  0  0  0  0  0  0  0  0  # atno 17370 bound_to 10713
  156.2085  130.3665  149.8700 LP  0  0  0  0  0  0  0  0  0  0  0  0  # atno 17371 bound_to 10713
  140.6279  134.5294  157.5556 LP  0  0  0  0  0  0  0  0  0  0  0  0  # atno 17394 bound_to 11000
  139.9258  134.8059  156.1074 LP  0  0  0  0  0  0  0  0  0  0  0  0  # atno 17395 bound_to 11000

$$$$
