AV-unprocessed.smi:1100|AV-procd|sdf|4760|dock6
  -GOLD-   22720 3293D 1   1.00000     0.00000
 Structure written by MMmdl.
 43 44  0  0  0  0  0  0  0  0  1 V2000
  150.2823  137.2036  156.7111 C   0  0  0  0  0  0  0  0  0  0  0  0
  149.3908  137.4424  155.4656 C   0  0  1  0  0  0  0  0  0  0  0  0
  148.2174  136.4186  155.4801 C   0  0  0  0  0  0  0  0  0  0  0  0
  148.0191  135.7415  154.2010 N   0  0  0  0  0  0  0  0  0  0  0  0
  146.9024  135.0968  153.8336 C   0  0  0  0  0  0  0  0  0  0  0  0
  145.9209  134.9806  154.5664 O   0  0  0  0  0  0  0  0  0  0  0  0
  147.0107  134.6314  152.5758 N   0  0  0  0  0  0  0  0  0  0  0  0
  146.0789  133.9104  151.8159 C   0  0  0  0  0  0  0  0  0  0  0  0
  144.6362  133.9282  152.0114 C   0  0  0  0  0  0  0  0  0  0  0  0
  143.8235  133.1967  151.2232 C   0  0  0  0  0  0  0  0  0  0  0  0
  144.3480  132.3569  150.1435 C   0  0  0  0  0  0  0  0  0  0  0  0
  143.6146  131.6872  149.4156 O   0  0  0  0  0  0  0  0  0  0  0  0
  145.7045  132.3629  149.9991 N   0  0  0  0  0  0  0  0  0  0  0  0
  146.3291  131.5523  148.9509 C   0  0  0  0  0  0  0  0  0  0  0  0
  146.5477  133.1264  150.8278 C   0  0  0  0  0  0  0  0  0  0  0  0
  148.9402  138.8488  155.3456 N   0  0  0  0  0  0  0  0  0  0  0  0
  150.0593  139.7987  155.3483 C   0  0  0  0  0  0  0  0  0  0  0  0
  149.6064  141.2604  155.1910 C   0  0  0  0  0  0  0  0  0  0  0  0
  148.8515  141.4014  153.9960 O   0  0  0  0  0  0  0  0  0  0  0  0
  147.7095  140.5562  153.9855 C   0  0  0  0  0  0  0  0  0  0  0  0
  148.1475  139.0885  154.1337 C   0  0  0  0  0  0  0  0  0  0  0  0
  150.5742  136.1601  156.8211 H   0  0  0  0  0  0  0  0  0  0  0  0
  149.7687  137.4983  157.6268 H   0  0  0  0  0  0  0  0  0  0  0  0
  151.2209  137.7533  156.6583 H   0  0  0  0  0  0  0  0  0  0  0  0
  150.0033  137.2153  154.5917 H   0  0  0  0  0  0  0  0  0  0  0  0
  148.3992  135.6583  156.2403 H   0  0  0  0  0  0  0  0  0  0  0  0
  147.2685  136.8886  155.7354 H   0  0  0  0  0  0  0  0  0  0  0  0
  148.7798  135.7907  153.5392 H   0  0  0  0  0  0  0  0  0  0  0  0
  147.8751  134.8381  152.0973 H   0  0  0  0  0  0  0  0  0  0  0  0
  144.1769  134.5101  152.7935 H   0  0  0  0  0  0  0  0  0  0  0  0
  142.7575  133.2246  151.3945 H   0  0  0  0  0  0  0  0  0  0  0  0
  147.4086  131.6955  148.8939 H   0  0  0  0  0  0  0  0  0  0  0  0
  145.9189  131.8048  147.9719 H   0  0  0  0  0  0  0  0  0  0  0  0
  146.1482  130.4918  149.1318 H   0  0  0  0  0  0  0  0  0  0  0  0
  147.6015  133.0391  150.6045 H   0  0  0  0  0  0  0  0  0  0  0  0
  150.6129  139.7371  156.2836 H   0  0  0  0  0  0  0  0  0  0  0  0
  150.7580  139.5488  154.5485 H   0  0  0  0  0  0  0  0  0  0  0  0
  149.0094  141.5754  156.0483 H   0  0  0  0  0  0  0  0  0  0  0  0
  150.4721  141.9212  155.1440 H   0  0  0  0  0  0  0  0  0  0  0  0
  147.0295  140.8400  154.7903 H   0  0  0  0  0  0  0  0  0  0  0  0
  147.1719  140.6975  153.0478 H   0  0  0  0  0  0  0  0  0  0  0  0
  148.7179  138.7901  153.2527 H   0  0  0  0  0  0  0  0  0  0  0  0
  147.2395  138.4893  154.1421 H   0  0  0  0  0  0  0  0  0  0  0  0
  1  2  1  0  0  0  0
  1 22  1  0  0  0  0
  1 23  1  0  0  0  0
  1 24  1  0  0  0  0
  2  3  1  0  0  0  0
  2 16  1  0  0  0  0
  2 25  1  0  0  0  0
  3  4  1  0  0  0  0
  3 26  1  0  0  0  0
  3 27  1  0  0  0  0
  4  5  1  0  0  0  0
  4 28  1  0  0  0  0
  5  6  2  0  0  0  0
  5  7  1  0  0  0  0
  7  8  1  0  0  0  0
  7 29  1  0  0  0  0
  8 15  2  0  0  0  0
  8  9  1  0  0  0  0
  9 10  2  0  0  0  0
  9 30  1  0  0  0  0
 10 11  1  0  0  0  0
 10 31  1  0  0  0  0
 11 12  2  0  0  0  0
 11 13  1  0  0  0  0
 13 14  1  0  0  0  0
 13 15  1  0  0  0  0
 14 32  1  0  0  0  0
 14 33  1  0  0  0  0
 14 34  1  0  0  0  0
 15 35  1  0  0  0  0
 16 21  1  0  0  0  0
 16 17  1  0  0  0  0
 17 18  1  0  0  0  0
 17 36  1  0  0  0  0
 17 37  1  0  0  0  0
 18 19  1  0  0  0  0
 18 38  1  0  0  0  0
 18 39  1  0  0  0  0
 19 20  1  0  0  0  0
 20 21  1  0  0  0  0
 20 40  1  0  0  0  0
 20 41  1  0  0  0  0
 21 42  1  0  0  0  0
 21 43  1  0  0  0  0
M  END
> <s_m_source_file>
AV-unprocessed.smi

> <i_m_source_file_index>
1100

> <i_lp_mmshare_version>
43012

> <i_f3d_flags>
0

> <s_epik_input>
W0NIMl0xW0NIMl1PW0NIMl1bQ0gyXU4xW0NASF0oW0NIM10pW0NIMl1bTkhdQyg9TylbTkhdYzJbY0hdW2NIXWMoPU8pbihbQ0gzXSlbY0hdMg==

> <s_epik_cmdline>
J2VwaWtfcHl0aG9uJywgJy1waCcsICc3LjAnLCAnLXRuJywgJzgnLCAnLW1hJywgJzIwMCcsICctbWV0YWxfYmluZGluZycsICctaW1hZScsICc8aW5maWxlLm1hZT4nLCAnLW9tYWUnLCAnPG91dGZpbGUubWFlPic=

> <r_lp_tautomer_probability>
1

> <r_epik_Ionization_Penalty>
0.266016

> <r_epik_Ionization_Penalty_Charging>
5.79683e-06

> <r_epik_Ionization_Penalty_Neutral>
0.26601

> <r_epik_State_Penalty>
0.257924

> <r_epik_Charging_Adjusted_Penalty>
0.25793

> <i_epik_Tot_Q>
0

> <i_epik_Tot_abs_Q>
0

> <r_epik_Metal_State_Penalty>
0.260326

> <b_epik_Metal_Only>
0

> <s_lp_Force_Field>
OPLS_2005

> <r_lp_Energy>
41.8839

> <b_lp_Chiralities_Consistent>
1

> <s_lp_Variant>
AV-unprocessed.smi:1100-2

> <Gold.Version>
5.8.1

> <Gold.Id.Protein>
6NUR|6NUR_protein|mol2

> <Gold.PLP.Fitness>
42.6442

> <Gold.PLP.PLP>
-32.3143

> <Gold.PLP.part.hbond>
-4.8106

> <Gold.PLP.part.metal>
0.0000

> <Gold.PLP.part.buried>
-1.8671

> <Gold.PLP.part.nonpolar>
-27.4258

> <Gold.PLP.part.repulsive>
1.2531

> <Gold.PLP.ligand.clash>
0.0000

> <Gold.PLP.ligand.torsion>
0.9004

> <Gold.PLP.Chemscore.Hbond>
3.1680

> <Gold.PLP.Chemscore.CHOScore>
0.8643

> <Gold.PLP.Chemscore.Metal>
0.0000

> <Gold.Chemscore.Hbonds>
donor molecule, donor type, donor heavy atom, donor atom, acceptor molecule, acceptor atom, score
      L1  H     4    28       P1  7948  0.75
      L1  H     7    29       P1  7948  0.80
      P1  H  8011  8017       L1    19  0.48
      P1  H 10785 10796       L1    12  0.91
      L1  C    15    35       P1 10747  0.83

> <Gold.PLP.Chemscore.Internal.Correction>
0.0338

> <Gold.Rescore>
     Score         DG    S(hbond)    S(metal)    S(lipo)     H(rot)  DE(clash)    DE(int)     intcor
     18.23     -20.95       3.35        0.00      69.15       1.49       1.03       1.69       ----

> <Gold.Chemscore.Fitness>
18.2296

> <Gold.Chemscore.DG>
-20.9479

> <Gold.Chemscore.ZeroCoef>
-5.4800

> <Gold.Chemscore.Hbond>
3.3537

> <Gold.Chemscore.Metal>
0.0000

> <Gold.Chemscore.Lipo>
69.1505

> <Gold.Chemscore.Internal_Hbond>
0.0000

> <Gold.Chemscore.DEClash>
1.0272

> <Gold.Chemscore.DEInternal>
1.6912

> <Gold.Chemscore.Rot>
1.4938

> <Gold.Chemscore.Internal.Correction>
   9.000000E+99

> <Gold.Chemscore.Hbonds>
donor molecule, donor type, donor heavy atom, donor atom, acceptor molecule, acceptor atom, score
      L1  H     4    28       P1  7948  0.72
      L1  H     7    29       P1  7948  0.48
      P1  H  8011  8017       L1    19  0.46
      P1  H 10785 10796       L1    12  0.90

> <Gold.Chemscore.Hbond.Weighted>
-11.2015

> <Gold.Chemscore.Metal.Weighted>
-0.0000

> <Gold.Chemscore.Lipo.Weighted>
-8.0906

> <Gold.Chemscore.Internal_Hbond.Weighted>
0.0000

> <Gold.Chemscore.DEClash.Weighted>
1.0272

> <Gold.Chemscore.DEInternal.Weighted>
1.6912

> <Gold.Chemscore.Rot.Weighted>
3.8242

> <Gold.Chemscore.Internal.Correction.Weighted>
   9.000000E+99

> <Gold.Protein.RotatedTorsions>
[ 6907 6896 6895 6894 ] final   27.49 input  -60.11 | X-H torsion
[ 7974 7965 7964 7962 ] final   20.13 input  175.53 | X-H torsion
[ 8008 7997 7996 7995 ] final  162.03 input   59.86 | X-H torsion
[ 10167 10162 10161 10158 ] final  160.58 input  -65.29 | X-H torsion
[ 10718 10713 10712 10709 ] final   60.74 input   66.30 | X-H torsion
[ 10763 10752 10751 10750 ] final   94.68 input  -60.55 | X-H torsion
[ 11005 11000 10999 10996 ] final -139.41 input  -57.11 | X-H torsion

> <Gold.Protein.ActiveResidues>
 VAL166  LYS551  ARG553  GLY616  TRP617  ASP618  TYR619  PRO620  LYS621  CYS622 
 ASP623  PHE694  ASN695  SER759  ASP760  ASP761  ALA762  ILE779  LEU786  VAL792 
 PHE793  MET794  SER795  GLU796  ALA797  LYS798  CYS799  TRP800  GLU811  SER814 

> <Gold.Protein.RotatedAtoms>
  152.0030  134.9918  160.0565 H   0  0  0  0  0  0  0  0  0  0  0  0  # atno 6907 bound_to 6896
  152.1501  133.4512  159.4818 H   0  0  0  0  0  0  0  0  0  0  0  0  # atno 6908 bound_to 6896
  150.6874  134.2117  159.4405 H   0  0  0  0  0  0  0  0  0  0  0  0  # atno 6909 bound_to 6896
  146.2123  139.8213  142.8679 H   0  0  0  0  0  0  0  0  0  0  0  0  # atno 7974 bound_to 7965
  156.2061  140.1761  156.7797 H   0  0  0  0  0  0  0  0  0  0  0  0  # atno 8008 bound_to 7997
  154.5657  140.0691  156.8917 H   0  0  0  0  0  0  0  0  0  0  0  0  # atno 8009 bound_to 7997
  155.2766  140.3346  155.4263 H   0  0  0  0  0  0  0  0  0  0  0  0  # atno 8010 bound_to 7997
  139.4841  144.4620  151.8691 H   0  0  0  0  0  0  0  0  0  0  0  0  # atno 10167 bound_to 10162
  157.5776  130.8956  149.9373 H   0  0  0  0  0  0  0  0  0  0  0  0  # atno 10718 bound_to 10713
  153.2444  135.4281  155.0732 H   0  0  0  0  0  0  0  0  0  0  0  0  # atno 10763 bound_to 10752
  154.8355  135.3410  154.6602 H   0  0  0  0  0  0  0  0  0  0  0  0  # atno 10764 bound_to 10752
  153.7025  135.7027  153.5116 H   0  0  0  0  0  0  0  0  0  0  0  0  # atno 10765 bound_to 10752
  140.8522  134.2272  157.4754 H   0  0  0  0  0  0  0  0  0  0  0  0  # atno 11005 bound_to 11000
  145.3093  141.0215  143.3563 LP  0  0  0  0  0  0  0  0  0  0  0  0  # atno 17320 bound_to 7965
  144.8947  139.4727  143.6661 LP  0  0  0  0  0  0  0  0  0  0  0  0  # atno 17321 bound_to 7965
  140.4083  144.2402  150.5890 LP  0  0  0  0  0  0  0  0  0  0  0  0  # atno 17342 bound_to 10162
  140.4990  143.2323  151.8706 LP  0  0  0  0  0  0  0  0  0  0  0  0  # atno 17343 bound_to 10162
  156.0820  130.3672  150.0561 LP  0  0  0  0  0  0  0  0  0  0  0  0  # atno 17370 bound_to 10713
  156.8705  130.9522  151.3610 LP  0  0  0  0  0  0  0  0  0  0  0  0  # atno 17371 bound_to 10713
  139.8704  134.9689  156.4646 LP  0  0  0  0  0  0  0  0  0  0  0  0  # atno 17394 bound_to 11000
  140.8777  133.7941  155.9433 LP  0  0  0  0  0  0  0  0  0  0  0  0  # atno 17395 bound_to 11000

$$$$
