AV-unprocessed.smi:260|AV-procd|sdf|1978|dock5
  -GOLD-   2262021153D 1   1.00000     0.00000
 Structure written by MMmdl.
 53 56  0  0  0  0  0  0  0  0  1 V2000
  145.8871  133.4657  151.8734 C   0  0  0  0  0  0  0  0  0  0  0  0
  145.3493  134.8166  151.8355 N   0  0  0  0  0  0  0  0  0  0  0  0
  145.6339  135.7731  152.7336 C   0  0  0  0  0  0  0  0  0  0  0  0
  146.3833  135.5677  153.6895 O   0  0  0  0  0  0  0  0  0  0  0  0
  144.9859  137.1715  152.5581 C   0  0  2  0  0  0  0  0  0  0  0  0
  143.4558  137.0299  152.6752 C   0  0  0  0  0  0  0  0  0  0  0  0
  145.4039  137.9066  151.2641 C   0  0  0  0  0  0  0  0  0  0  0  0
  146.7530  138.5562  151.5980 C   0  0  0  0  0  0  0  0  0  0  0  0
  146.7795  138.6720  153.0492 N   0  0  0  0  0  0  0  0  0  0  0  0
  147.4781  139.6618  153.6637 C   0  0  0  0  0  0  0  0  0  0  0  0
  146.9300  140.9042  153.7298 N   0  0  0  0  0  0  0  0  0  0  0  0
  147.5861  141.9063  154.3210 C   0  0  0  0  0  0  0  0  0  0  0  0
  148.7834  141.8872  154.9083 N   0  0  0  0  0  0  0  0  0  0  0  0
  149.3359  140.6419  154.8607 C   0  0  0  0  0  0  0  0  0  0  0  0
  148.7588  139.4824  154.2660 C   0  0  0  0  0  0  0  0  0  0  0  0
  149.6180  138.4000  154.4281 N   0  0  0  0  0  0  0  0  0  0  0  0
  150.6431  138.8922  155.0679 C   0  0  0  0  0  0  0  0  0  0  0  0
  150.5582  140.2325  155.3638 N   0  0  0  0  0  0  0  0  0  0  0  0
  151.5537  141.0289  156.0605 C   0  0  0  0  0  0  0  0  0  0  0  0
  151.6987  140.6214  157.5398 C   0  0  1  0  0  0  0  0  0  0  0  0
  152.6153  139.5485  157.6403 O   0  0  0  0  0  0  0  0  0  0  0  0
  152.1959  141.7831  158.4194 C   0  0  2  0  0  0  0  0  0  0  0  0
  152.4769  141.4033  159.8745 C   0  0  0  0  0  0  0  0  0  0  0  0
  152.3107  142.7143  160.6271 C   0  0  0  0  0  0  0  0  0  0  0  0
  151.5709  143.6194  159.6385 C   0  0  0  0  0  0  0  0  0  0  0  0
  151.1831  142.7658  158.5709 O   0  0  0  0  0  0  0  0  0  0  0  0
  145.5427  138.1454  153.6144 C   0  0  0  0  0  0  0  0  0  0  0  0
  145.4597  132.8731  151.0646 H   0  0  0  0  0  0  0  0  0  0  0  0
  145.6480  132.9766  152.8187 H   0  0  0  0  0  0  0  0  0  0  0  0
  146.9711  133.4787  151.7519 H   0  0  0  0  0  0  0  0  0  0  0  0
  144.7255  135.0446  151.0748 H   0  0  0  0  0  0  0  0  0  0  0  0
  142.9598  137.9979  152.5957 H   0  0  0  0  0  0  0  0  0  0  0  0
  143.1631  136.5957  153.6321 H   0  0  0  0  0  0  0  0  0  0  0  0
  143.0562  136.3932  151.8850 H   0  0  0  0  0  0  0  0  0  0  0  0
  145.4452  137.2807  150.3720 H   0  0  0  0  0  0  0  0  0  0  0  0
  144.6828  138.6964  151.0480 H   0  0  0  0  0  0  0  0  0  0  0  0
  147.5791  137.9202  151.2787 H   0  0  0  0  0  0  0  0  0  0  0  0
  146.8516  139.5233  151.1035 H   0  0  0  0  0  0  0  0  0  0  0  0
  147.0794  142.8600  154.3223 H   0  0  0  0  0  0  0  0  0  0  0  0
  151.4962  138.2881  155.3413 H   0  0  0  0  0  0  0  0  0  0  0  0
  152.5084  140.9365  155.5411 H   0  0  0  0  0  0  0  0  0  0  0  0
  151.2598  142.0764  155.9841 H   0  0  0  0  0  0  0  0  0  0  0  0
  150.7340  140.2749  157.9132 H   0  0  0  0  0  0  0  0  0  0  0  0
  152.5881  139.2129  158.5233 H   0  0  0  0  0  0  0  0  0  0  0  0
  153.0788  142.2496  157.9775 H   0  0  0  0  0  0  0  0  0  0  0  0
  151.7348  140.6856  160.2268 H   0  0  0  0  0  0  0  0  0  0  0  0
  153.4634  140.9595  160.0103 H   0  0  0  0  0  0  0  0  0  0  0  0
  151.7421  142.5671  161.5458 H   0  0  0  0  0  0  0  0  0  0  0  0
  153.2756  143.1463  160.8945 H   0  0  0  0  0  0  0  0  0  0  0  0
  150.7037  144.1070  160.0844 H   0  0  0  0  0  0  0  0  0  0  0  0
  152.2373  144.3938  159.2558 H   0  0  0  0  0  0  0  0  0  0  0  0
  144.8452  138.9664  153.7880 H   0  0  0  0  0  0  0  0  0  0  0  0
  145.7286  137.6624  154.5748 H   0  0  0  0  0  0  0  0  0  0  0  0
  1  2  1  0  0  0  0
  1 28  1  0  0  0  0
  1 29  1  0  0  0  0
  1 30  1  0  0  0  0
  2  3  1  0  0  0  0
  2 31  1  0  0  0  0
  3  4  2  0  0  0  0
  3  5  1  0  0  0  0
  5 27  1  0  0  0  0
  5  6  1  0  0  0  0
  5  7  1  0  0  0  0
  6 32  1  0  0  0  0
  6 33  1  0  0  0  0
  6 34  1  0  0  0  0
  7  8  1  0  0  0  0
  7 35  1  0  0  0  0
  7 36  1  0  0  0  0
  8  9  1  0  0  0  0
  8 37  1  0  0  0  0
  8 38  1  0  0  0  0
  9 10  1  0  0  0  0
  9 27  1  0  0  0  0
 10 15  1  0  0  0  0
 10 11  2  0  0  0  0
 11 12  1  0  0  0  0
 12 13  2  0  0  0  0
 12 39  1  0  0  0  0
 13 14  1  0  0  0  0
 14 18  1  0  0  0  0
 14 15  2  0  0  0  0
 15 16  1  0  0  0  0
 16 17  2  0  0  0  0
 17 18  1  0  0  0  0
 17 40  1  0  0  0  0
 18 19  1  0  0  0  0
 19 20  1  0  0  0  0
 19 41  1  0  0  0  0
 19 42  1  0  0  0  0
 20 21  1  0  0  0  0
 20 22  1  0  0  0  0
 20 43  1  0  0  0  0
 21 44  1  0  0  0  0
 22 26  1  0  0  0  0
 22 23  1  0  0  0  0
 22 45  1  0  0  0  0
 23 24  1  0  0  0  0
 23 46  1  0  0  0  0
 23 47  1  0  0  0  0
 24 25  1  0  0  0  0
 24 48  1  0  0  0  0
 24 49  1  0  0  0  0
 25 26  1  0  0  0  0
 25 50  1  0  0  0  0
 25 51  1  0  0  0  0
 27 52  1  0  0  0  0
 27 53  1  0  0  0  0
M  END
> <s_m_source_file>
AV-unprocessed.smi

> <i_m_source_file_index>
260

> <i_lp_mmshare_version>
43012

> <i_f3d_flags>
0

> <s_epik_input>
W0NIM11bTkhdQyg9TylbQ0BAXTEoW0NIM10pW0NIMl1bQ0gyXU4oW0NIMl0xKWMobltjSF1uMiljKGMyMyluW2NIXW4zW0NIMl1bQ0BIXShbT0hdKVtDQEBIXTRbQ0gyXVtDSDJdW0NIMl1PNA==

> <s_epik_cmdline>
J2VwaWtfcHl0aG9uJywgJy1waCcsICc3LjAnLCAnLXRuJywgJzgnLCAnLW1hJywgJzIwMCcsICctbWV0YWxfYmluZGluZycsICctaW1hZScsICc8aW5maWxlLm1hZT4nLCAnLW9tYWUnLCAnPG91dGZpbGUubWFlPic=

> <r_lp_tautomer_probability>
1

> <r_epik_Ionization_Penalty>
0.00115068

> <r_epik_Ionization_Penalty_Charging>
0

> <r_epik_Ionization_Penalty_Neutral>
0.00115068

> <r_epik_State_Penalty>
0.000668876

> <r_epik_Charging_Adjusted_Penalty>
0.000668876

> <i_epik_Tot_Q>
0

> <i_epik_Tot_abs_Q>
0

> <r_epik_Metal_State_Penalty>
-0

> <b_epik_Metal_Only>
0

> <s_lp_Force_Field>
OPLS_2005

> <r_lp_Energy>
50.1788

> <b_lp_Chiralities_Consistent>
1

> <s_lp_Variant>
AV-unprocessed.smi:260-4

> <Gold.Version>
5.8.1

> <Gold.Id.Protein>
6NUR|6NUR_protein|mol2

> <Gold.PLP.Fitness>
40.2554

> <Gold.PLP.PLP>
-39.8222

> <Gold.PLP.part.hbond>
-1.0000

> <Gold.PLP.part.metal>
0.0000

> <Gold.PLP.part.buried>
1.2576

> <Gold.PLP.part.nonpolar>
-42.4253

> <Gold.PLP.part.repulsive>
1.2924

> <Gold.PLP.ligand.clash>
0.0000

> <Gold.PLP.ligand.torsion>
1.8604

> <Gold.PLP.Chemscore.Hbond>
1.0000

> <Gold.PLP.Chemscore.CHOScore>
0.2694

> <Gold.PLP.Chemscore.Metal>
0.0000

> <Gold.Chemscore.Hbonds>
donor molecule, donor type, donor heavy atom, donor atom, acceptor molecule, acceptor atom, score
      P1  H  7997  8009       L1    21  0.89
      L1  C    12    39       P1  8028  0.09

> <Gold.PLP.Chemscore.Internal.Correction>
0.3457

> <Gold.Rescore>
     Score         DG    S(hbond)    S(metal)    S(lipo)     H(rot)  DE(clash)    DE(int)     intcor
      6.89     -11.43       0.50        0.00      91.81       2.53       2.35       2.19       ----

> <Gold.Chemscore.Fitness>
6.8869

> <Gold.Chemscore.DG>
-11.4256

> <Gold.Chemscore.ZeroCoef>
-5.4800

> <Gold.Chemscore.Hbond>
0.5000

> <Gold.Chemscore.Metal>
0.0000

> <Gold.Chemscore.Lipo>
91.8119

> <Gold.Chemscore.Internal_Hbond>
0.0000

> <Gold.Chemscore.DEClash>
2.3537

> <Gold.Chemscore.DEInternal>
2.1850

> <Gold.Chemscore.Rot>
2.5259

> <Gold.Chemscore.Internal.Correction>
   9.000000E+99

> <Gold.Chemscore.Hbonds>
donor molecule, donor type, donor heavy atom, donor atom, acceptor molecule, acceptor atom, score
      P1  H  7997  8009       L1    21  0.64

> <Gold.Chemscore.Hbond.Weighted>
-1.6700

> <Gold.Chemscore.Metal.Weighted>
-0.0000

> <Gold.Chemscore.Lipo.Weighted>
-10.7420

> <Gold.Chemscore.Internal_Hbond.Weighted>
0.0000

> <Gold.Chemscore.DEClash.Weighted>
2.3537

> <Gold.Chemscore.DEInternal.Weighted>
2.1850

> <Gold.Chemscore.Rot.Weighted>
6.4663

> <Gold.Chemscore.Internal.Correction.Weighted>
   9.000000E+99

> <Gold.Protein.RotatedTorsions>
[ 6907 6896 6895 6894 ] final   63.48 input  -60.11 | X-H torsion
[ 7974 7965 7964 7962 ] final  113.73 input  175.53 | X-H torsion
[ 8008 7997 7996 7995 ] final  174.86 input   59.86 | X-H torsion
[ 10167 10162 10161 10158 ] final  -38.68 input  -65.29 | X-H torsion
[ 10718 10713 10712 10709 ] final  143.76 input   66.30 | X-H torsion
[ 10763 10752 10751 10750 ] final  106.54 input  -60.55 | X-H torsion
[ 11005 11000 10999 10996 ] final  -11.29 input  -57.11 | X-H torsion

> <Gold.Protein.ActiveResidues>
 VAL166  LYS551  ARG553  GLY616  TRP617  ASP618  TYR619  PRO620  LYS621  CYS622 
 ASP623  PHE694  ASN695  SER759  ASP760  ASP761  ALA762  ILE779  LEU786  VAL792 
 PHE793  MET794  SER795  GLU796  ALA797  LYS798  CYS799  TRP800  GLU811  SER814 

> <Gold.Protein.RotatedAtoms>
  152.4256  134.5874  159.9964 H   0  0  0  0  0  0  0  0  0  0  0  0  # atno 6907 bound_to 6896
  151.6011  133.3350  159.3055 H   0  0  0  0  0  0  0  0  0  0  0  0  # atno 6908 bound_to 6896
  150.8146  134.7357  159.6784 H   0  0  0  0  0  0  0  0  0  0  0  0  # atno 6909 bound_to 6896
  145.2133  139.2896  143.4257 H   0  0  0  0  0  0  0  0  0  0  0  0  # atno 7974 bound_to 7965
  156.0930  140.1423  156.9567 H   0  0  0  0  0  0  0  0  0  0  0  0  # atno 8008 bound_to 7997
  154.4654  140.0928  156.7052 H   0  0  0  0  0  0  0  0  0  0  0  0  # atno 8009 bound_to 7997
  155.4887  140.3447  155.4353 H   0  0  0  0  0  0  0  0  0  0  0  0  # atno 8010 bound_to 7997
  140.7085  143.3262  151.2675 H   0  0  0  0  0  0  0  0  0  0  0  0  # atno 10167 bound_to 10162
  157.3652  131.0971  151.0879 H   0  0  0  0  0  0  0  0  0  0  0  0  # atno 10718 bound_to 10713
  153.3944  135.3874  155.1945 H   0  0  0  0  0  0  0  0  0  0  0  0  # atno 10763 bound_to 10752
  154.8723  135.3756  154.4697 H   0  0  0  0  0  0  0  0  0  0  0  0  # atno 10764 bound_to 10752
  153.5188  135.7087  153.5804 H   0  0  0  0  0  0  0  0  0  0  0  0  # atno 10765 bound_to 10752
  140.7537  133.8571  155.9066 H   0  0  0  0  0  0  0  0  0  0  0  0  # atno 11005 bound_to 11000
  146.3393  140.2415  142.8596 LP  0  0  0  0  0  0  0  0  0  0  0  0  # atno 17320 bound_to 7965
  144.9835  140.8481  143.5383 LP  0  0  0  0  0  0  0  0  0  0  0  0  # atno 17321 bound_to 7965
  139.6731  143.9986  152.2765 LP  0  0  0  0  0  0  0  0  0  0  0  0  # atno 17342 bound_to 10162
  139.9591  144.6570  150.8097 LP  0  0  0  0  0  0  0  0  0  0  0  0  # atno 17343 bound_to 10162
  157.2004  130.6392  149.5736 LP  0  0  0  0  0  0  0  0  0  0  0  0  # atno 17370 bound_to 10713
  155.9745  130.4693  150.6389 LP  0  0  0  0  0  0  0  0  0  0  0  0  # atno 17371 bound_to 10713
  140.9727  134.1509  157.4562 LP  0  0  0  0  0  0  0  0  0  0  0  0  # atno 17394 bound_to 11000
  139.8783  134.9984  156.5899 LP  0  0  0  0  0  0  0  0  0  0  0  0  # atno 17395 bound_to 11000

$$$$
