AV-unprocessed.smi:2414|AV-procd|sdf|9541|dock1
  -GOLD-   2272013173D 1   1.00000     0.00000
 Structure written by MMmdl.
 43 44  0  0  0  0  0  0  0  0  1 V2000
  151.5314  142.1315  158.5996 C   0  0  0  0  0  0  0  0  0  0  0  0
  151.1271  141.4352  157.3443 C   0  0  0  0  0  0  0  0  0  0  0  0
  150.8866  141.9984  156.1157 C   0  0  0  0  0  0  0  0  0  0  0  0
  150.5247  141.0750  155.1324 N   0  0  0  0  0  0  0  0  0  0  0  0
  150.4868  139.8222  155.5958 C   0  0  0  0  0  0  0  0  0  0  0  0
  150.1296  138.6352  154.7575 C   0  0  1  0  0  0  0  0  0  0  0  0
  151.2904  137.6282  154.6771 C   0  0  0  0  0  0  0  0  0  0  0  0
  148.7840  138.0168  155.1945 C   0  0  0  0  0  0  0  0  0  0  0  0
  148.3676  136.9139  154.3347 N   0  0  0  0  0  0  0  0  0  0  0  0
  147.3451  136.0860  154.5873 C   0  0  0  0  0  0  0  0  0  0  0  0
  146.6448  136.1416  155.5983 O   0  0  0  0  0  0  0  0  0  0  0  0
  147.1726  135.1978  153.6009 N   0  0  0  0  0  0  0  0  0  0  0  0
  146.1321  134.1764  153.5713 C   0  0  0  0  0  0  0  0  0  0  0  0
  146.5342  132.9750  152.6884 C   0  0  2  0  0  0  0  0  0  0  0  0
  147.7991  132.2635  153.2050 C   0  0  0  0  0  0  0  0  0  0  0  0
  146.6842  133.3969  151.2152 C   0  0  0  0  0  0  0  0  0  0  0  0
  145.3409  133.0490  150.6120 C   0  0  0  0  0  0  0  0  0  0  0  0
  144.9921  131.7851  151.3820 C   0  0  0  0  0  0  0  0  0  0  0  0
  145.4465  132.0458  152.7035 O   0  0  0  0  0  0  0  0  0  0  0  0
  150.9054  139.7054  157.3016 S   0  0  0  0  0  0  0  0  0  0  0  0
  151.0545  143.1092  158.6735 H   0  0  0  0  0  0  0  0  0  0  0  0
  152.6111  142.2795  158.6272 H   0  0  0  0  0  0  0  0  0  0  0  0
  151.2473  141.5530  159.4790 H   0  0  0  0  0  0  0  0  0  0  0  0
  150.9494  143.0440  155.8525 H   0  0  0  0  0  0  0  0  0  0  0  0
  149.9881  139.0168  153.7454 H   0  0  0  0  0  0  0  0  0  0  0  0
  152.2001  138.1104  154.3184 H   0  0  0  0  0  0  0  0  0  0  0  0
  151.0665  136.8099  153.9928 H   0  0  0  0  0  0  0  0  0  0  0  0
  151.5062  137.1950  155.6542 H   0  0  0  0  0  0  0  0  0  0  0  0
  148.8624  137.6352  156.2129 H   0  0  0  0  0  0  0  0  0  0  0  0
  148.0044  138.7806  155.2128 H   0  0  0  0  0  0  0  0  0  0  0  0
  148.8840  136.7855  153.4768 H   0  0  0  0  0  0  0  0  0  0  0  0
  147.7995  135.2296  152.8102 H   0  0  0  0  0  0  0  0  0  0  0  0
  145.9399  133.8502  154.5942 H   0  0  0  0  0  0  0  0  0  0  0  0
  145.2004  134.6047  153.1970 H   0  0  0  0  0  0  0  0  0  0  0  0
  148.6541  132.9401  153.2136 H   0  0  0  0  0  0  0  0  0  0  0  0
  148.0566  131.4116  152.5752 H   0  0  0  0  0  0  0  0  0  0  0  0
  147.6657  131.8838  154.2182 H   0  0  0  0  0  0  0  0  0  0  0  0
  146.9447  134.4485  151.0892 H   0  0  0  0  0  0  0  0  0  0  0  0
  147.4584  132.8080  150.7207 H   0  0  0  0  0  0  0  0  0  0  0  0
  144.6136  133.8342  150.8229 H   0  0  0  0  0  0  0  0  0  0  0  0
  145.3808  132.8953  149.5335 H   0  0  0  0  0  0  0  0  0  0  0  0
  143.9266  131.5558  151.3604 H   0  0  0  0  0  0  0  0  0  0  0  0
  145.5358  130.9287  150.9804 H   0  0  0  0  0  0  0  0  0  0  0  0
  1  2  1  0  0  0  0
  1 21  1  0  0  0  0
  1 22  1  0  0  0  0
  1 23  1  0  0  0  0
  2 20  1  0  0  0  0
  2  3  2  0  0  0  0
  3  4  1  0  0  0  0
  3 24  1  0  0  0  0
  4  5  2  0  0  0  0
  5  6  1  0  0  0  0
  5 20  1  0  0  0  0
  6  7  1  0  0  0  0
  6  8  1  0  0  0  0
  6 25  1  0  0  0  0
  7 26  1  0  0  0  0
  7 27  1  0  0  0  0
  7 28  1  0  0  0  0
  8  9  1  0  0  0  0
  8 29  1  0  0  0  0
  8 30  1  0  0  0  0
  9 10  1  0  0  0  0
  9 31  1  0  0  0  0
 10 11  2  0  0  0  0
 10 12  1  0  0  0  0
 12 13  1  0  0  0  0
 12 32  1  0  0  0  0
 13 14  1  0  0  0  0
 13 33  1  0  0  0  0
 13 34  1  0  0  0  0
 14 19  1  0  0  0  0
 14 15  1  0  0  0  0
 14 16  1  0  0  0  0
 15 35  1  0  0  0  0
 15 36  1  0  0  0  0
 15 37  1  0  0  0  0
 16 17  1  0  0  0  0
 16 38  1  0  0  0  0
 16 39  1  0  0  0  0
 17 18  1  0  0  0  0
 17 40  1  0  0  0  0
 17 41  1  0  0  0  0
 18 19  1  0  0  0  0
 18 42  1  0  0  0  0
 18 43  1  0  0  0  0
M  END
> <s_m_source_file>
AV-unprocessed.smi

> <i_m_source_file_index>
2414

> <i_lp_mmshare_version>
43012

> <i_f3d_flags>
0

> <s_epik_input>
W0NIM11jMVtjSF1uYyhzMSlbQ0BIXShbQ0gzXSlbQ0gyXVtOSF1DKD1PKVtOSF1bQ0gyXVtDQEBdMihbQ0gzXSlbQ0gyXVtDSDJdW0NIMl1PMg==

> <s_epik_cmdline>
J2VwaWtfcHl0aG9uJywgJy1waCcsICc3LjAnLCAnLXRuJywgJzgnLCAnLW1hJywgJzIwMCcsICctbWV0YWxfYmluZGluZycsICctaW1hZScsICc8aW5maWxlLm1hZT4nLCAnLW9tYWUnLCAnPG91dGZpbGUubWFlPic=

> <r_epik_Ionization_Penalty>
0.000646956

> <r_epik_Ionization_Penalty_Charging>
0

> <r_epik_Ionization_Penalty_Neutral>
0.000646956

> <r_epik_State_Penalty>
0.000375727

> <r_epik_Charging_Adjusted_Penalty>
0.000375727

> <i_epik_Tot_Q>
0

> <i_epik_Tot_abs_Q>
0

> <r_epik_Metal_State_Penalty>
-0

> <b_epik_Metal_Only>
0

> <s_lp_Force_Field>
OPLS_2005

> <r_lp_Energy>
8.05024

> <b_lp_Chiralities_Consistent>
1

> <s_lp_Variant>
AV-unprocessed.smi:2414-4

> <Gold.Version>
5.8.1

> <Gold.Id.Protein>
6NUR|6NUR_protein|mol2

> <Gold.PLP.Fitness>
41.6675

> <Gold.PLP.PLP>
-31.2015

> <Gold.PLP.part.hbond>
-3.0000

> <Gold.PLP.part.metal>
0.0000

> <Gold.PLP.part.buried>
-3.9710

> <Gold.PLP.part.nonpolar>
-24.5856

> <Gold.PLP.part.repulsive>
0.2956

> <Gold.PLP.ligand.clash>
0.0000

> <Gold.PLP.ligand.torsion>
0.2908

> <Gold.PLP.Chemscore.Hbond>
2.6260

> <Gold.PLP.Chemscore.CHOScore>
1.0000

> <Gold.PLP.Chemscore.Metal>
0.0000

> <Gold.Chemscore.Hbonds>
donor molecule, donor type, donor heavy atom, donor atom, acceptor molecule, acceptor atom, score
      L1  H     9    31       P1  7948  1.00
      L1  H    12    32       P1  7948  0.94
      P1  H  7989  7998       L1     4  0.69
      L1  C     3    24       P1  8028  0.64

> <Gold.PLP.Chemscore.Internal.Correction>
0.1696

> <Gold.Rescore>
     Score         DG    S(hbond)    S(metal)    S(lipo)     H(rot)  DE(clash)    DE(int)     intcor
     19.33     -19.64       2.64        0.00      81.79       1.65       0.06       0.25       ----

> <Gold.Chemscore.Fitness>
19.3257

> <Gold.Chemscore.DG>
-19.6381

> <Gold.Chemscore.ZeroCoef>
-5.4800

> <Gold.Chemscore.Hbond>
2.6403

> <Gold.Chemscore.Metal>
0.0000

> <Gold.Chemscore.Lipo>
81.7851

> <Gold.Chemscore.Internal_Hbond>
0.0000

> <Gold.Chemscore.DEClash>
0.0611

> <Gold.Chemscore.DEInternal>
0.2512

> <Gold.Chemscore.Rot>
1.6522

> <Gold.Chemscore.Internal.Correction>
   9.000000E+99

> <Gold.Chemscore.Hbonds>
donor molecule, donor type, donor heavy atom, donor atom, acceptor molecule, acceptor atom, score
      L1  H     9    31       P1  7948  0.95
      L1  H    12    32       P1  7948  0.92
      P1  H  7989  7998       L1     4  0.26

> <Gold.Chemscore.Hbond.Weighted>
-8.8188

> <Gold.Chemscore.Metal.Weighted>
-0.0000

> <Gold.Chemscore.Lipo.Weighted>
-9.5689

> <Gold.Chemscore.Internal_Hbond.Weighted>
0.0000

> <Gold.Chemscore.DEClash.Weighted>
0.0611

> <Gold.Chemscore.DEInternal.Weighted>
0.2512

> <Gold.Chemscore.Rot.Weighted>
4.2295

> <Gold.Chemscore.Internal.Correction.Weighted>
   9.000000E+99

> <Gold.Protein.RotatedTorsions>
[ 6907 6896 6895 6894 ] final  103.94 input  -60.11 | X-H torsion
[ 7974 7965 7964 7962 ] final -100.38 input  175.53 | X-H torsion
[ 8008 7997 7996 7995 ] final -117.31 input   59.86 | X-H torsion
[ 10167 10162 10161 10158 ] final  -84.32 input  -65.29 | X-H torsion
[ 10718 10713 10712 10709 ] final -159.00 input   66.30 | X-H torsion
[ 10763 10752 10751 10750 ] final  -35.70 input  -60.55 | X-H torsion
[ 11005 11000 10999 10996 ] final   28.23 input  -57.11 | X-H torsion

> <Gold.Protein.ActiveResidues>
 VAL166  LYS551  ARG553  GLY616  TRP617  ASP618  TYR619  PRO620  LYS621  CYS622 
 ASP623  PHE694  ASN695  SER759  ASP760  ASP761  ALA762  ILE779  LEU786  VAL792 
 PHE793  MET794  SER795  GLU796  ALA797  LYS798  CYS799  TRP800  GLU811  SER814 

> <Gold.Protein.RotatedAtoms>
  152.5280  133.9750  159.7779 H   0  0  0  0  0  0  0  0  0  0  0  0  # atno 6907 bound_to 6896
  151.0015  133.6044  159.2701 H   0  0  0  0  0  0  0  0  0  0  0  0  # atno 6908 bound_to 6896
  151.3151  135.0810  159.9339 H   0  0  0  0  0  0  0  0  0  0  0  0  # atno 6909 bound_to 6896
  145.2953  140.9363  143.2855 H   0  0  0  0  0  0  0  0  0  0  0  0  # atno 7974 bound_to 7965
  155.0818  140.0394  157.2641 H   0  0  0  0  0  0  0  0  0  0  0  0  # atno 8008 bound_to 7997
  154.6901  140.2651  155.6796 H   0  0  0  0  0  0  0  0  0  0  0  0  # atno 8009 bound_to 7997
  156.2725  140.2761  156.1476 H   0  0  0  0  0  0  0  0  0  0  0  0  # atno 8010 bound_to 7997
  140.4144  143.2609  151.8975 H   0  0  0  0  0  0  0  0  0  0  0  0  # atno 10167 bound_to 10162
  156.5620  130.8651  151.2812 H   0  0  0  0  0  0  0  0  0  0  0  0  # atno 10718 bound_to 10713
  153.8676  135.6834  153.4777 H   0  0  0  0  0  0  0  0  0  0  0  0  # atno 10763 bound_to 10752
  153.1306  135.4700  154.9340 H   0  0  0  0  0  0  0  0  0  0  0  0  # atno 10764 bound_to 10752
  154.7729  135.3244  154.8102 H   0  0  0  0  0  0  0  0  0  0  0  0  # atno 10765 bound_to 10752
  140.3178  134.2577  155.7722 H   0  0  0  0  0  0  0  0  0  0  0  0  # atno 11005 bound_to 11000
  144.9139  139.4495  143.6574 LP  0  0  0  0  0  0  0  0  0  0  0  0  # atno 17320 bound_to 7965
  146.3171  139.7962  142.8975 LP  0  0  0  0  0  0  0  0  0  0  0  0  # atno 17321 bound_to 7965
  139.4782  144.5503  151.8395 LP  0  0  0  0  0  0  0  0  0  0  0  0  # atno 17342 bound_to 10162
  140.4603  144.1732  150.5905 LP  0  0  0  0  0  0  0  0  0  0  0  0  # atno 17343 bound_to 10162
  157.7366  130.9782  150.2148 LP  0  0  0  0  0  0  0  0  0  0  0  0  # atno 17370 bound_to 10713
  156.2790  130.3731  149.7954 LP  0  0  0  0  0  0  0  0  0  0  0  0  # atno 17371 bound_to 10713
  141.2093  133.7751  157.0002 LP  0  0  0  0  0  0  0  0  0  0  0  0  # atno 17394 bound_to 11000
  140.0968  134.9559  157.1861 LP  0  0  0  0  0  0  0  0  0  0  0  0  # atno 17395 bound_to 11000

$$$$
