AV-unprocessed.smi:1056|AV-procd|sdf|4643|dock1
  -GOLD-   22720 3143D 1   1.00000     0.00000
 Structure written by MMmdl.
 44 46  0  0  0  0  0  0  0  0  3 V2000
  152.8848  143.0925  161.1095 C   0  0  0  0  0  0  0  0  0  0  0  0
  152.3646  142.4823  159.8198 C   0  0  0  0  0  0  0  0  0  0  0  0
  152.3914  141.0780  159.6647 C   0  0  0  0  0  0  0  0  0  0  0  0
  151.9171  140.4709  158.4815 C   0  0  0  0  0  0  0  0  0  0  0  0
  151.8508  139.1365  158.1191 N   0  0  0  0  0  0  0  0  0  0  0  0
  151.3153  139.2139  156.9044 C   0  0  0  0  0  0  0  0  0  0  0  0
  151.0328  140.4438  156.4333 N   0  0  0  0  0  0  0  0  0  0  0  0
  150.4537  140.7797  155.1452 C   0  0  0  0  0  0  0  0  0  0  0  0
  149.1163  141.5308  155.2829 C   0  0  1  0  0  0  0  0  0  0  0  0
  148.8832  142.2876  154.1108 O   0  0  0  0  0  0  0  0  0  0  0  0
  147.9347  140.5638  155.4904 C   0  0  0  0  0  0  0  0  0  0  0  0
  146.8042  141.2035  156.2081 N   0  3  2  0  0  0  0  0  0  0  0  0
  146.1990  142.3436  155.4709 C   0  0  0  0  0  0  0  0  0  0  0  0
  144.8582  142.7417  156.1161 C   0  0  0  0  0  0  0  0  0  0  0  0
  145.0110  142.8635  157.5710 N   0  5  0  0  0  0  0  0  0  0  0  0
  145.9745  142.2668  158.3406 C   0  0  0  0  0  0  0  0  0  0  0  0
  146.0075  142.2684  159.5690 O   0  0  0  0  0  0  0  0  0  0  0  0
  147.1549  141.5737  157.6072 C   0  0  0  0  0  0  0  0  0  0  0  0
  151.4118  141.3141  157.4493 C   0  0  0  0  0  0  0  0  0  0  0  0
  151.3790  142.7125  157.5916 C   0  0  0  0  0  0  0  0  0  0  0  0
  151.8574  143.3026  158.7803 C   0  0  0  0  0  0  0  0  0  0  0  0
  151.8199  144.8136  158.9246 C   0  0  0  0  0  0  0  0  0  0  0  0
  153.2280  142.3248  161.8036 H   0  0  0  0  0  0  0  0  0  0  0  0
  152.1003  143.6645  161.6056 H   0  0  0  0  0  0  0  0  0  0  0  0
  153.7238  143.7581  160.9058 H   0  0  0  0  0  0  0  0  0  0  0  0
  152.7775  140.4530  160.4565 H   0  0  0  0  0  0  0  0  0  0  0  0
  151.1224  138.3254  156.3209 H   0  0  0  0  0  0  0  0  0  0  0  0
  151.1723  141.3760  154.5807 H   0  0  0  0  0  0  0  0  0  0  0  0
  150.3100  139.8532  154.5880 H   0  0  0  0  0  0  0  0  0  0  0  0
  149.1914  142.2230  156.1209 H   0  0  0  0  0  0  0  0  0  0  0  0
  148.8360  143.2017  154.3476 H   0  0  0  0  0  0  0  0  0  0  0  0
  147.6012  140.2070  154.5145 H   0  0  0  0  0  0  0  0  0  0  0  0
  148.2520  139.6790  156.0445 H   0  0  0  0  0  0  0  0  0  0  0  0
  146.8905  143.1879  155.4776 H   0  0  0  0  0  0  0  0  0  0  0  0
  146.0272  142.0907  154.4255 H   0  0  0  0  0  0  0  0  0  0  0  0
  144.5015  143.6668  155.6642 H   0  0  0  0  0  0  0  0  0  0  0  0
  144.1149  141.9836  155.8682 H   0  0  0  0  0  0  0  0  0  0  0  0
  147.4410  140.6782  158.1606 H   0  0  0  0  0  0  0  0  0  0  0  0
  148.0131  142.2475  157.6098 H   0  0  0  0  0  0  0  0  0  0  0  0
  150.9898  143.3255  156.7923 H   0  0  0  0  0  0  0  0  0  0  0  0
  151.4067  145.2886  158.0344 H   0  0  0  0  0  0  0  0  0  0  0  0
  152.8248  145.2076  159.0781 H   0  0  0  0  0  0  0  0  0  0  0  0
  151.2014  145.1009  159.7751 H   0  0  0  0  0  0  0  0  0  0  0  0
  146.0813  140.5024  156.2866 H   0  0  0  0  0  0  0  0  0  0  0  0
  1  2  1  0  0  0  0
  1 23  1  0  0  0  0
  1 24  1  0  0  0  0
  1 25  1  0  0  0  0
  2 21  1  0  0  0  0
  2  3  2  0  0  0  0
  3  4  1  0  0  0  0
  3 26  1  0  0  0  0
  4 19  2  0  0  0  0
  4  5  1  0  0  0  0
  5  6  2  0  0  0  0
  6  7  1  0  0  0  0
  6 27  1  0  0  0  0
  7  8  1  0  0  0  0
  7 19  1  0  0  0  0
  8  9  1  0  0  0  0
  8 28  1  0  0  0  0
  8 29  1  0  0  0  0
  9 10  1  0  0  0  0
  9 11  1  0  0  0  0
  9 30  1  0  0  0  0
 10 31  1  0  0  0  0
 11 12  1  0  0  0  0
 11 32  1  0  0  0  0
 11 33  1  0  0  0  0
 12 18  1  0  0  0  0
 12 13  1  0  0  0  0
 12 44  1  0  0  0  0
 13 14  1  0  0  0  0
 13 34  1  0  0  0  0
 13 35  1  0  0  0  0
 14 15  1  0  0  0  0
 14 36  1  0  0  0  0
 14 37  1  0  0  0  0
 15 16  1  0  0  0  0
 16 17  2  0  0  0  0
 16 18  1  0  0  0  0
 18 38  1  0  0  0  0
 18 39  1  0  0  0  0
 19 20  1  0  0  0  0
 20 21  2  0  0  0  0
 20 40  1  0  0  0  0
 21 22  1  0  0  0  0
 22 41  1  0  0  0  0
 22 42  1  0  0  0  0
 22 43  1  0  0  0  0
M  CHG  1  12   1
M  CHG  1  15  -1
M  END
> <s_m_source_file>
AV-unprocessed.smi

> <i_m_source_file_index>
1056

> <i_lp_mmshare_version>
43012

> <i_f3d_flags>
0

> <s_epik_input>
W0NIM11jKFtjSF0xKWMoW0NIM10pW2NIXWMoYzEyKW4oW2NIXW4yKVtDSDJdW0NASF0oW09IXSlbQ0gyXU4zW0NIMl1bQ0gyXVtOSF1DKD1PKVtDSDJdMw==

> <s_epik_cmdline>
J2VwaWtfcHl0aG9uJywgJy1waCcsICc3LjAnLCAnLXRuJywgJzgnLCAnLW1hJywgJzIwMCcsICctbWV0YWxfYmluZGluZycsICctaW1hZScsICc8aW5maWxlLm1hZT4nLCAnLW9tYWUnLCAnPG91dGZpbGUubWFlPic=

> <r_epik_Ionization_Penalty>
5.13411

> <r_epik_Ionization_Penalty_Charging>
5.04792

> <r_epik_Ionization_Penalty_Neutral>
0.0861879

> <r_epik_State_Penalty>
5.18224

> <r_epik_Charging_Adjusted_Penalty>
10.2302

> <i_epik_Tot_Q>
0

> <i_epik_Tot_abs_Q>
2

> <r_epik_Metal_State_Penalty>
1.33873

> <b_epik_Metal_Only>
1

> <s_lp_Force_Field>
OPLS_2005

> <r_lp_Energy>
15.7703

> <b_lp_Chiralities_Consistent>
1

> <s_lp_Variant>
AV-unprocessed.smi:1056-14

> <Gold.Version>
5.8.1

> <Gold.Id.Protein>
6NUR|6NUR_protein|mol2

> <Gold.PLP.Fitness>
45.1039

> <Gold.PLP.PLP>
-39.3099

> <Gold.PLP.part.hbond>
-3.0000

> <Gold.PLP.part.metal>
0.0000

> <Gold.PLP.part.buried>
-3.4663

> <Gold.PLP.part.nonpolar>
-32.6889

> <Gold.PLP.part.repulsive>
0.0694

> <Gold.PLP.ligand.clash>
0.0000

> <Gold.PLP.ligand.torsion>
0.5444

> <Gold.PLP.Chemscore.Hbond>
2.2560

> <Gold.PLP.Chemscore.CHOScore>
0.0000

> <Gold.PLP.Chemscore.Metal>
0.0000

> <Gold.Chemscore.Hbonds>
donor molecule, donor type, donor heavy atom, donor atom, acceptor molecule, acceptor atom, score
      L1  H    10    31       P1  8028  1.00
      P1  H  6934  6946       L1    17  1.00
      P1  H  8011  8017       L1    10  0.24

> <Gold.PLP.Chemscore.Internal.Correction>
0.1148

> <Gold.Rescore>
     Score         DG    S(hbond)    S(metal)    S(lipo)     H(rot)  DE(clash)    DE(int)     intcor
     16.52     -18.11       1.98        0.00     101.97       2.31       0.29       1.30       ----

> <Gold.Chemscore.Fitness>
16.5184

> <Gold.Chemscore.DG>
-18.1114

> <Gold.Chemscore.ZeroCoef>
-5.4800

> <Gold.Chemscore.Hbond>
1.9839

> <Gold.Chemscore.Metal>
0.0000

> <Gold.Chemscore.Lipo>
101.9732

> <Gold.Chemscore.Internal_Hbond>
0.0000

> <Gold.Chemscore.DEClash>
0.2944

> <Gold.Chemscore.DEInternal>
1.2986

> <Gold.Chemscore.Rot>
2.3147

> <Gold.Chemscore.Internal.Correction>
   9.000000E+99

> <Gold.Chemscore.Hbonds>
donor molecule, donor type, donor heavy atom, donor atom, acceptor molecule, acceptor atom, score
      L1  H    10    31       P1  8028  0.96
      P1  H  6934  6946       L1    17  0.93
      P1  H  8011  8017       L1    10  0.05

> <Gold.Chemscore.Hbond.Weighted>
-6.6261

> <Gold.Chemscore.Metal.Weighted>
-0.0000

> <Gold.Chemscore.Lipo.Weighted>
-11.9309

> <Gold.Chemscore.Internal_Hbond.Weighted>
0.0000

> <Gold.Chemscore.DEClash.Weighted>
0.2944

> <Gold.Chemscore.DEInternal.Weighted>
1.2986

> <Gold.Chemscore.Rot.Weighted>
5.9256

> <Gold.Chemscore.Internal.Correction.Weighted>
   9.000000E+99

> <Gold.Protein.RotatedTorsions>
[ 6907 6896 6895 6894 ] final  -86.66 input  -60.11 | X-H torsion
[ 7974 7965 7964 7962 ] final   43.91 input  175.53 | X-H torsion
[ 8008 7997 7996 7995 ] final -135.76 input   59.86 | X-H torsion
[ 10167 10162 10161 10158 ] final -120.15 input  -65.29 | X-H torsion
[ 10718 10713 10712 10709 ] final -124.60 input   66.30 | X-H torsion
[ 10763 10752 10751 10750 ] final -107.30 input  -60.55 | X-H torsion
[ 11005 11000 10999 10996 ] final  167.02 input  -57.11 | X-H torsion

> <Gold.Protein.ActiveResidues>
 VAL166  LYS551  ARG553  GLY616  TRP617  ASP618  TYR619  PRO620  LYS621  CYS622 
 ASP623  PHE694  ASN695  SER759  ASP760  ASP761  ALA762  ILE779  LEU786  VAL792 
 PHE793  MET794  SER795  GLU796  ALA797  LYS798  CYS799  TRP800  GLU811  SER814 

> <Gold.Protein.RotatedAtoms>
  150.6866  134.3015  159.4708 H   0  0  0  0  0  0  0  0  0  0  0  0  # atno 6907 bound_to 6896
  152.0911  134.9404  160.0581 H   0  0  0  0  0  0  0  0  0  0  0  0  # atno 6908 bound_to 6896
  152.0720  133.4076  159.4500 H   0  0  0  0  0  0  0  0  0  0  0  0  # atno 6909 bound_to 6896
  146.0614  139.5133  142.9655 H   0  0  0  0  0  0  0  0  0  0  0  0  # atno 7974 bound_to 7965
  155.3841  140.0496  157.3043 H   0  0  0  0  0  0  0  0  0  0  0  0  # atno 8008 bound_to 7997
  154.5068  140.2177  155.9196 H   0  0  0  0  0  0  0  0  0  0  0  0  # atno 8009 bound_to 7997
  156.1535  140.3131  155.8693 H   0  0  0  0  0  0  0  0  0  0  0  0  # atno 8010 bound_to 7997
  140.0389  143.5173  152.2140 H   0  0  0  0  0  0  0  0  0  0  0  0  # atno 10167 bound_to 10162
  156.1601  130.6596  151.0038 H   0  0  0  0  0  0  0  0  0  0  0  0  # atno 10718 bound_to 10713
  154.8067  135.4680  154.0410 H   0  0  0  0  0  0  0  0  0  0  0  0  # atno 10763 bound_to 10752
  153.1873  135.6850  153.8405 H   0  0  0  0  0  0  0  0  0  0  0  0  # atno 10764 bound_to 10752
  153.7935  135.3240  155.3359 H   0  0  0  0  0  0  0  0  0  0  0  0  # atno 10765 bound_to 10752
  140.2724  134.7816  157.3687 H   0  0  0  0  0  0  0  0  0  0  0  0  # atno 11005 bound_to 11000
  145.6553  141.0253  143.1738 LP  0  0  0  0  0  0  0  0  0  0  0  0  # atno 17320 bound_to 7965
  144.7177  139.8138  143.7393 LP  0  0  0  0  0  0  0  0  0  0  0  0  # atno 17321 bound_to 7965
  139.6026  144.7587  151.3135 LP  0  0  0  0  0  0  0  0  0  0  0  0  # atno 17342 bound_to 10162
  140.7269  143.6978  150.7869 LP  0  0  0  0  0  0  0  0  0  0  0  0  # atno 17343 bound_to 10162
  157.6726  131.0858  150.7574 LP  0  0  0  0  0  0  0  0  0  0  0  0  # atno 17370 bound_to 10713
  156.7638  130.4807  149.5432 LP  0  0  0  0  0  0  0  0  0  0  0  0  # atno 17371 bound_to 10713
  140.1360  134.5033  155.8068 LP  0  0  0  0  0  0  0  0  0  0  0  0  # atno 17394 bound_to 11000
  141.2175  133.6807  156.7125 LP  0  0  0  0  0  0  0  0  0  0  0  0  # atno 17395 bound_to 11000

$$$$
