AV-unprocessed.smi:290|AV-procd|sdf|2224|dock4
  -GOLD-   2262022 73D 1   1.00000     0.00000
 Structure written by MMmdl.
 59 62  0  0  0  0  0  0  0  0  2 V2000
  152.2010  144.6465  159.8268 C   0  0  0  0  0  0  0  0  0  0  0  0
  152.8969  143.3392  159.4177 C   0  0  1  0  0  0  0  0  0  0  0  0
  153.4486  142.6702  160.5507 O   0  0  0  0  0  0  0  0  0  0  0  0
  153.1387  141.2822  160.5089 C   0  0  0  0  0  0  0  0  0  0  0  0
  152.7230  141.0051  159.0680 C   0  0  0  0  0  0  0  0  0  0  0  0
  152.0301  142.3005  158.6691 C   0  0  1  0  0  0  0  0  0  0  0  0
  150.7133  142.2849  159.1956 O   0  0  0  0  0  0  0  0  0  0  0  0
  151.8792  142.5214  157.1413 C   0  0  0  0  0  0  0  0  0  0  0  0
  150.9201  141.6467  156.4842 N   0  0  0  0  0  0  0  0  0  0  0  0
  149.5630  141.8496  156.3598 C   0  0  0  0  0  0  0  0  0  0  0  0
  148.9148  140.9155  155.7177 N   0  0  0  0  0  0  0  0  0  0  0  0
  149.9038  140.0097  155.3586 C   0  0  0  0  0  0  0  0  0  0  0  0
  149.9038  138.7826  154.6471 C   0  0  0  0  0  0  0  0  0  0  0  0
  148.7624  138.2491  154.1579 N   0  0  0  0  0  0  0  0  0  0  0  0
  147.8201  139.2283  153.6390 C   0  0  0  0  0  0  0  0  0  0  0  0
  146.4844  138.4891  153.4889 C   0  0  0  0  0  0  0  0  0  0  0  0
  146.6262  137.2227  154.3612 C   0  0  1  0  0  0  0  0  0  0  0  0
  146.4606  135.9291  153.6270 N   0  3  2  0  0  0  0  0  0  0  0  0
  145.5732  135.9736  152.4361 C   0  0  0  0  0  0  0  0  0  0  0  0
  146.1475  134.7790  154.5130 C   0  0  0  0  0  0  0  0  0  0  0  0
  145.7829  133.5152  153.7161 C   0  0  0  0  0  0  0  0  0  0  0  0
  144.3821  133.4318  153.5607 O   0  0  0  0  0  0  0  0  0  0  0  0
  147.9964  137.3881  155.0488 C   0  0  1  0  0  0  0  0  0  0  0  0
  148.7278  136.0974  155.4694 C   0  0  0  0  0  0  0  0  0  0  0  0
  151.0929  138.1487  154.4686 N   0  0  0  0  0  0  0  0  0  0  0  0
  152.2144  138.6868  154.9584 C   0  0  0  0  0  0  0  0  0  0  0  0
  152.3657  139.8238  155.6415 N   0  0  0  0  0  0  0  0  0  0  0  0
  151.1714  140.4575  155.8222 C   0  0  0  0  0  0  0  0  0  0  0  0
  145.8762  137.2547  155.1513 H   0  0  0  0  0  0  0  0  0  0  0  0
  147.8120  137.9566  155.9623 H   0  0  0  0  0  0  0  0  0  0  0  0
  151.7766  145.1517  158.9589 H   0  0  0  0  0  0  0  0  0  0  0  0
  152.9101  145.3302  160.2935 H   0  0  0  0  0  0  0  0  0  0  0  0
  151.3977  144.4700  160.5422 H   0  0  0  0  0  0  0  0  0  0  0  0
  153.7626  143.5938  158.8080 H   0  0  0  0  0  0  0  0  0  0  0  0
  153.9863  140.6740  160.8255 H   0  0  0  0  0  0  0  0  0  0  0  0
  152.3094  141.0880  161.1900 H   0  0  0  0  0  0  0  0  0  0  0  0
  153.6219  140.8442  158.4742 H   0  0  0  0  0  0  0  0  0  0  0  0
  152.0933  140.1204  158.9668 H   0  0  0  0  0  0  0  0  0  0  0  0
  150.3347  143.1438  159.0870 H   0  0  0  0  0  0  0  0  0  0  0  0
  151.5836  143.5523  156.9417 H   0  0  0  0  0  0  0  0  0  0  0  0
  152.8448  142.3858  156.6515 H   0  0  0  0  0  0  0  0  0  0  0  0
  149.0644  142.7170  156.7678 H   0  0  0  0  0  0  0  0  0  0  0  0
  147.7117  140.0618  154.3350 H   0  0  0  0  0  0  0  0  0  0  0  0
  148.1629  139.6304  152.6850 H   0  0  0  0  0  0  0  0  0  0  0  0
  145.6636  139.1168  153.8371 H   0  0  0  0  0  0  0  0  0  0  0  0
  146.2799  138.2701  152.4427 H   0  0  0  0  0  0  0  0  0  0  0  0
  144.5189  135.9741  152.7120 H   0  0  0  0  0  0  0  0  0  0  0  0
  145.7458  135.0929  151.8170 H   0  0  0  0  0  0  0  0  0  0  0  0
  145.7623  136.8463  151.8127 H   0  0  0  0  0  0  0  0  0  0  0  0
  146.9948  134.5838  155.1718 H   0  0  0  0  0  0  0  0  0  0  0  0
  145.3086  135.0253  155.1665 H   0  0  0  0  0  0  0  0  0  0  0  0
  146.2610  133.4919  152.7374 H   0  0  0  0  0  0  0  0  0  0  0  0
  146.1200  132.6289  154.2541 H   0  0  0  0  0  0  0  0  0  0  0  0
  144.0446  132.8119  154.1899 H   0  0  0  0  0  0  0  0  0  0  0  0
  148.0869  135.4738  156.0930 H   0  0  0  0  0  0  0  0  0  0  0  0
  149.6215  136.3268  156.0507 H   0  0  0  0  0  0  0  0  0  0  0  0
  149.0444  135.5022  154.6138 H   0  0  0  0  0  0  0  0  0  0  0  0
  153.1199  138.1257  154.7800 H   0  0  0  0  0  0  0  0  0  0  0  0
  147.3769  135.7199  153.2559 H   0  0  0  0  0  0  0  0  0  0  0  0
  1  2  1  0  0  0  0
  1 31  1  0  0  0  0
  1 32  1  0  0  0  0
  1 33  1  0  0  0  0
  2  6  1  0  0  0  0
  2  3  1  0  0  0  0
  2 34  1  0  0  0  0
  3  4  1  0  0  0  0
  4  5  1  0  0  0  0
  4 35  1  0  0  0  0
  4 36  1  0  0  0  0
  5  6  1  0  0  0  0
  5 37  1  0  0  0  0
  5 38  1  0  0  0  0
  6  7  1  0  0  0  0
  6  8  1  0  0  0  0
  7 39  1  0  0  0  0
  8  9  1  0  0  0  0
  8 40  1  0  0  0  0
  8 41  1  0  0  0  0
  9 28  1  0  0  0  0
  9 10  1  0  0  0  0
 10 11  2  0  0  0  0
 10 42  1  0  0  0  0
 11 12  1  0  0  0  0
 12 28  2  0  0  0  0
 12 13  1  0  0  0  0
 13 14  1  0  0  0  0
 13 25  2  0  0  0  0
 14 23  1  0  0  0  0
 14 15  1  0  0  0  0
 15 16  1  0  0  0  0
 15 43  1  0  0  0  0
 15 44  1  0  0  0  0
 16 17  1  0  0  0  0
 16 45  1  0  0  0  0
 16 46  1  0  0  0  0
 17 29  1  0  0  0  0
 17 18  1  0  0  0  0
 17 23  1  0  0  0  0
 18 19  1  0  0  0  0
 18 20  1  0  0  0  0
 18 59  1  0  0  0  0
 19 47  1  0  0  0  0
 19 48  1  0  0  0  0
 19 49  1  0  0  0  0
 20 21  1  0  0  0  0
 20 50  1  0  0  0  0
 20 51  1  0  0  0  0
 21 22  1  0  0  0  0
 21 52  1  0  0  0  0
 21 53  1  0  0  0  0
 22 54  1  0  0  0  0
 23 30  1  0  0  0  0
 23 24  1  0  0  0  0
 24 55  1  0  0  0  0
 24 56  1  0  0  0  0
 24 57  1  0  0  0  0
 25 26  1  0  0  0  0
 26 27  2  0  0  0  0
 26 58  1  0  0  0  0
 27 28  1  0  0  0  0
M  CHG  1  18   1
M  END
> <s_m_source_file>
AV-unprocessed.smi

> <i_m_source_file_index>
290

> <i_lp_mmshare_version>
43012

> <i_f3d_flags>
0

> <s_epik_input>
W0NIMl0xW0NIMl1PW0NAQEhdKFtDSDNdKVtDQEBdMShbT0hdKVtDSDJdbihbY0hdbjIpYyhjMjMpbltjSF1uYzNONFtDSDJdW0NIMl1bQ0BIXShbQ0BIXTRbQ0gzXSlOKFtDSDNdKVtDSDJdW0NIMl1bT0hd

> <s_epik_cmdline>
J2VwaWtfcHl0aG9uJywgJy1waCcsICc3LjAnLCAnLXRuJywgJzgnLCAnLW1hJywgJzIwMCcsICctbWV0YWxfYmluZGluZycsICctaW1hZScsICc8aW5maWxlLm1hZT4nLCAnLW9tYWUnLCAnPG91dGZpbGUubWFlPic=

> <r_lp_tautomer_probability>
1

> <r_epik_Ionization_Penalty>
0.0036983

> <r_epik_Ionization_Penalty_Charging>
0.0032725

> <r_epik_Ionization_Penalty_Neutral>
0.000425798

> <r_epik_State_Penalty>
-0

> <r_epik_Charging_Adjusted_Penalty>
0.0032725

> <i_epik_Tot_Q>
1

> <i_epik_Tot_abs_Q>
1

> <r_epik_Metal_State_Penalty>
-0

> <b_epik_Metal_Only>
0

> <s_lp_Force_Field>
OPLS_2005

> <r_lp_Energy>
72.0744

> <b_lp_Chiralities_Consistent>
1

> <s_lp_Variant>
AV-unprocessed.smi:290-10

> <Gold.Version>
5.8.1

> <Gold.Id.Protein>
6NUR|6NUR_protein|mol2

> <Gold.PLP.Fitness>
50.8614

> <Gold.PLP.PLP>
-40.1553

> <Gold.PLP.part.hbond>
-4.2193

> <Gold.PLP.part.metal>
0.0000

> <Gold.PLP.part.buried>
-4.0361

> <Gold.PLP.part.nonpolar>
-33.2661

> <Gold.PLP.part.repulsive>
0.8569

> <Gold.PLP.ligand.clash>
0.0000

> <Gold.PLP.ligand.torsion>
2.0340

> <Gold.PLP.Chemscore.Hbond>
3.9913

> <Gold.PLP.Chemscore.CHOScore>
0.8720

> <Gold.PLP.Chemscore.Metal>
0.0000

> <Gold.Chemscore.Hbonds>
donor molecule, donor type, donor heavy atom, donor atom, acceptor molecule, acceptor atom, score
      L1  H    18    59       P1  7948  1.31
      L1  H    22    54       P1 10957  0.99
      P1  H  7997  8010       L1    27  0.88
      L1  C    10    42       P1  8028  0.88

> <Gold.PLP.Chemscore.Internal.Correction>
0.1846

> <Gold.Rescore>
     Score         DG    S(hbond)    S(metal)    S(lipo)     H(rot)  DE(clash)    DE(int)     intcor
      9.37     -12.50       1.80        0.00      88.91       3.67       0.11       3.02       ----

> <Gold.Chemscore.Fitness>
9.3690

> <Gold.Chemscore.DG>
-12.4989

> <Gold.Chemscore.ZeroCoef>
-5.4800

> <Gold.Chemscore.Hbond>
1.7968

> <Gold.Chemscore.Metal>
0.0000

> <Gold.Chemscore.Lipo>
88.9051

> <Gold.Chemscore.Internal_Hbond>
0.0000

> <Gold.Chemscore.DEClash>
0.1132

> <Gold.Chemscore.DEInternal>
3.0167

> <Gold.Chemscore.Rot>
3.6658

> <Gold.Chemscore.Internal.Correction>
   9.000000E+99

> <Gold.Chemscore.Hbonds>
donor molecule, donor type, donor heavy atom, donor atom, acceptor molecule, acceptor atom, score
      L1  H    18    59       P1  7948  0.63
      L1  H    22    54       P1 10957  0.91
      P1  H  7997  8010       L1    27  0.67

> <Gold.Chemscore.Hbond.Weighted>
-6.0014

> <Gold.Chemscore.Metal.Weighted>
-0.0000

> <Gold.Chemscore.Lipo.Weighted>
-10.4019

> <Gold.Chemscore.Internal_Hbond.Weighted>
0.0000

> <Gold.Chemscore.DEClash.Weighted>
0.1132

> <Gold.Chemscore.DEInternal.Weighted>
3.0167

> <Gold.Chemscore.Rot.Weighted>
9.3844

> <Gold.Chemscore.Internal.Correction.Weighted>
   9.000000E+99

> <Gold.Protein.RotatedTorsions>
[ 6907 6896 6895 6894 ] final -126.89 input  -60.11 | X-H torsion
[ 7974 7965 7964 7962 ] final  -56.23 input  175.53 | X-H torsion
[ 8008 7997 7996 7995 ] final   91.06 input   59.86 | X-H torsion
[ 10167 10162 10161 10158 ] final  -25.05 input  -65.29 | X-H torsion
[ 10718 10713 10712 10709 ] final    0.26 input   66.30 | X-H torsion
[ 10763 10752 10751 10750 ] final  143.31 input  -60.55 | X-H torsion
[ 11005 11000 10999 10996 ] final   75.78 input  -57.11 | X-H torsion

> <Gold.Protein.ActiveResidues>
 VAL166  LYS551  ARG553  GLY616  TRP617  ASP618  TYR619  PRO620  LYS621  CYS622 
 ASP623  PHE694  ASN695  SER759  ASP760  ASP761  ALA762  ILE779  LEU786  VAL792 
 PHE793  MET794  SER795  GLU796  ALA797  LYS798  CYS799  TRP800  GLU811  SER814 

> <Gold.Protein.RotatedAtoms>
  150.9015  133.7112  159.2877 H   0  0  0  0  0  0  0  0  0  0  0  0  # atno 6907 bound_to 6896
  151.4629  135.1038  159.9739 H   0  0  0  0  0  0  0  0  0  0  0  0  # atno 6908 bound_to 6896
  152.4879  133.8374  159.7190 H   0  0  0  0  0  0  0  0  0  0  0  0  # atno 6909 bound_to 6896
  145.8651  140.8257  142.9917 H   0  0  0  0  0  0  0  0  0  0  0  0  # atno 7974 bound_to 7965
  156.0193  140.3342  155.7022 H   0  0  0  0  0  0  0  0  0  0  0  0  # atno 8008 bound_to 7997
  155.6045  140.0659  157.2741 H   0  0  0  0  0  0  0  0  0  0  0  0  # atno 8009 bound_to 7997
  154.4310  140.1804  156.1196 H   0  0  0  0  0  0  0  0  0  0  0  0  # atno 8010 bound_to 7997
  140.7287  143.4299  151.0819 H   0  0  0  0  0  0  0  0  0  0  0  0  # atno 10167 bound_to 10162
  156.8307  130.5487  149.5687 H   0  0  0  0  0  0  0  0  0  0  0  0  # atno 10718 bound_to 10713
  153.9702  135.2951  155.3428 H   0  0  0  0  0  0  0  0  0  0  0  0  # atno 10763 bound_to 10752
  154.7326  135.5061  153.8992 H   0  0  0  0  0  0  0  0  0  0  0  0  # atno 10764 bound_to 10752
  153.0903  135.6706  153.9978 H   0  0  0  0  0  0  0  0  0  0  0  0  # atno 10765 bound_to 10752
  139.9328  134.7546  156.1314 H   0  0  0  0  0  0  0  0  0  0  0  0  # atno 11005 bound_to 11000
  144.6726  140.1154  143.7453 LP  0  0  0  0  0  0  0  0  0  0  0  0  # atno 17320 bound_to 7965
  145.9203  139.2541  143.1385 LP  0  0  0  0  0  0  0  0  0  0  0  0  # atno 17321 bound_to 7965
  139.7954  143.8159  152.3157 LP  0  0  0  0  0  0  0  0  0  0  0  0  # atno 17342 bound_to 10162
  139.8157  144.7317  150.9638 LP  0  0  0  0  0  0  0  0  0  0  0  0  # atno 17343 bound_to 10162
  156.0936  130.5915  150.9775 LP  0  0  0  0  0  0  0  0  0  0  0  0  # atno 17370 bound_to 10713
  157.6408  131.0910  150.8255 LP  0  0  0  0  0  0  0  0  0  0  0  0  # atno 17371 bound_to 10713
  141.0926  133.6708  156.2574 LP  0  0  0  0  0  0  0  0  0  0  0  0  # atno 17394 bound_to 11000
  140.6156  134.5414  157.5540 LP  0  0  0  0  0  0  0  0  0  0  0  0  # atno 17395 bound_to 11000

$$$$
