AV-unprocessed.smi:1272|AV-procd|sdf|5336|dock2
  -GOLD-   22720 4463D 1   1.00000     0.00000
 Structure written by MMmdl.
 46 48  0  0  0  0  0  0  0  0  2 V2000
  154.9761  141.2341  160.2911 C   0  0  0  0  0  0  0  0  0  0  0  0
  153.6033  140.6006  160.0336 C   0  0  0  0  0  0  0  0  0  0  0  0
  152.7889  141.4414  159.1596 N   0  0  0  0  0  0  0  0  0  0  0  0
  152.3484  141.1286  157.9179 C   0  0  0  0  0  0  0  0  0  0  0  0
  152.5460  140.0684  157.3245 O   0  0  0  0  0  0  0  0  0  0  0  0
  151.6459  142.1838  157.4433 N   0  0  0  0  0  0  0  0  0  0  0  0
  150.9591  142.2627  156.1556 C   0  0  0  0  0  0  0  0  0  0  0  0
  150.4508  140.8811  155.6998 C   0  0  2  0  0  0  0  0  0  0  0  0
  151.5091  140.2069  155.0468 O   0  0  0  0  0  0  0  0  0  0  0  0
  149.2869  141.0036  154.6964 C   0  0  0  0  0  0  0  0  0  0  0  0
  148.1679  141.8195  155.2322 N   0  3  0  0  0  0  0  0  0  0  0  0
  146.9790  141.8499  154.3443 C   0  0  0  0  0  0  0  0  0  0  0  0
  145.8878  142.7539  154.9415 C   0  0  0  0  0  0  0  0  0  0  0  0
  145.5473  142.2931  156.2430 O   0  0  0  0  0  0  0  0  0  0  0  0
  146.6569  142.3373  157.1312 C   0  0  0  0  0  0  0  0  0  0  0  0
  147.7766  141.4228  156.6055 C   0  0  0  0  0  0  0  0  0  0  0  0
  151.6321  143.1991  158.4103 C   0  0  0  0  0  0  0  0  0  0  0  0
  151.0381  144.4732  158.4049 C   0  0  0  0  0  0  0  0  0  0  0  0
  151.2093  145.2707  159.5606 C   0  0  0  0  0  0  0  0  0  0  0  0
  151.9529  144.7918  160.6705 C   0  0  0  0  0  0  0  0  0  0  0  0
  152.5401  143.5050  160.6489 C   0  0  0  0  0  0  0  0  0  0  0  0
  152.3524  142.7326  159.4896 C   0  0  0  0  0  0  0  0  0  0  0  0
  155.5739  140.6064  160.9519 H   0  0  0  0  0  0  0  0  0  0  0  0
  154.8779  142.2129  160.7616 H   0  0  0  0  0  0  0  0  0  0  0  0
  155.5322  141.3621  159.3620 H   0  0  0  0  0  0  0  0  0  0  0  0
  153.7299  139.6121  159.5894 H   0  0  0  0  0  0  0  0  0  0  0  0
  153.0810  140.4427  160.9775 H   0  0  0  0  0  0  0  0  0  0  0  0
  150.1170  142.9444  156.2803 H   0  0  0  0  0  0  0  0  0  0  0  0
  151.5957  142.7176  155.3946 H   0  0  0  0  0  0  0  0  0  0  0  0
  150.1407  140.2995  156.5673 H   0  0  0  0  0  0  0  0  0  0  0  0
  151.4207  139.2787  155.2041 H   0  0  0  0  0  0  0  0  0  0  0  0
  149.6296  141.4451  153.7593 H   0  0  0  0  0  0  0  0  0  0  0  0
  148.9336  140.0018  154.4452 H   0  0  0  0  0  0  0  0  0  0  0  0
  147.2477  142.2145  153.3534 H   0  0  0  0  0  0  0  0  0  0  0  0
  146.5912  140.8381  154.2162 H   0  0  0  0  0  0  0  0  0  0  0  0
  146.2203  143.7923  154.9836 H   0  0  0  0  0  0  0  0  0  0  0  0
  144.9967  142.7299  154.3144 H   0  0  0  0  0  0  0  0  0  0  0  0
  147.0102  143.3639  157.2402 H   0  0  0  0  0  0  0  0  0  0  0  0
  146.3332  142.0063  158.1179 H   0  0  0  0  0  0  0  0  0  0  0  0
  147.4433  140.3838  156.6057 H   0  0  0  0  0  0  0  0  0  0  0  0
  148.6397  141.4846  157.2692 H   0  0  0  0  0  0  0  0  0  0  0  0
  150.4730  144.8313  157.5572 H   0  0  0  0  0  0  0  0  0  0  0  0
  150.7692  146.2563  159.5988 H   0  0  0  0  0  0  0  0  0  0  0  0
  152.0722  145.4170  161.5431 H   0  0  0  0  0  0  0  0  0  0  0  0
  153.1071  143.1352  161.4903 H   0  0  0  0  0  0  0  0  0  0  0  0
  148.5139  142.7664  155.3000 H   0  0  0  0  0  0  0  0  0  0  0  0
  1  2  1  0  0  0  0
  1 23  1  0  0  0  0
  1 24  1  0  0  0  0
  1 25  1  0  0  0  0
  2  3  1  0  0  0  0
  2 26  1  0  0  0  0
  2 27  1  0  0  0  0
  3 22  1  0  0  0  0
  3  4  1  0  0  0  0
  4  5  2  0  0  0  0
  4  6  1  0  0  0  0
  6  7  1  0  0  0  0
  6 17  1  0  0  0  0
  7  8  1  0  0  0  0
  7 28  1  0  0  0  0
  7 29  1  0  0  0  0
  8  9  1  0  0  0  0
  8 10  1  0  0  0  0
  8 30  1  0  0  0  0
  9 31  1  0  0  0  0
 10 11  1  0  0  0  0
 10 32  1  0  0  0  0
 10 33  1  0  0  0  0
 11 16  1  0  0  0  0
 11 12  1  0  0  0  0
 11 46  1  0  0  0  0
 12 13  1  0  0  0  0
 12 34  1  0  0  0  0
 12 35  1  0  0  0  0
 13 14  1  0  0  0  0
 13 36  1  0  0  0  0
 13 37  1  0  0  0  0
 14 15  1  0  0  0  0
 15 16  1  0  0  0  0
 15 38  1  0  0  0  0
 15 39  1  0  0  0  0
 16 40  1  0  0  0  0
 16 41  1  0  0  0  0
 17 22  2  0  0  0  0
 17 18  1  0  0  0  0
 18 19  2  0  0  0  0
 18 42  1  0  0  0  0
 19 20  1  0  0  0  0
 19 43  1  0  0  0  0
 20 21  2  0  0  0  0
 20 44  1  0  0  0  0
 21 22  1  0  0  0  0
 21 45  1  0  0  0  0
M  CHG  1  11   1
M  END
> <s_m_source_file>
AV-unprocessed.smi

> <i_m_source_file_index>
1272

> <i_lp_mmshare_version>
43012

> <i_f3d_flags>
0

> <s_epik_input>
W2NIXTFbY0hdW2NIXVtjSF1jKGMxMiluKFtDSDJdW0NIM10pYyg9TyluMltDSDJdW0NASF0oW09IXSlbQ0gyXU4zW0NIMl1bQ0gyXU9bQ0gyXVtDSDJdMw==

> <s_epik_cmdline>
J2VwaWtfcHl0aG9uJywgJy1waCcsICc3LjAnLCAnLXRuJywgJzgnLCAnLW1hJywgJzIwMCcsICctbWV0YWxfYmluZGluZycsICctaW1hZScsICc8aW5maWxlLm1hZT4nLCAnLW9tYWUnLCAnPG91dGZpbGUubWFlPic=

> <r_epik_Ionization_Penalty>
0.706332

> <r_epik_Ionization_Penalty_Charging>
0.706318

> <r_epik_Ionization_Penalty_Neutral>
1.42224e-05

> <r_epik_State_Penalty>
0.729493

> <r_epik_Charging_Adjusted_Penalty>
1.43581

> <i_epik_Tot_Q>
1

> <i_epik_Tot_abs_Q>
1

> <r_epik_Metal_State_Penalty>
0.729493

> <b_epik_Metal_Only>
0

> <s_lp_Force_Field>
OPLS_2005

> <r_lp_Energy>
52.302

> <b_lp_Chiralities_Consistent>
1

> <s_lp_Variant>
AV-unprocessed.smi:1272-3

> <Gold.Version>
5.8.1

> <Gold.Id.Protein>
6NUR|6NUR_protein|mol2

> <Gold.PLP.Fitness>
61.4607

> <Gold.PLP.PLP>
-51.0514

> <Gold.PLP.part.hbond>
-3.0000

> <Gold.PLP.part.metal>
0.0000

> <Gold.PLP.part.buried>
-7.5349

> <Gold.PLP.part.nonpolar>
-40.1982

> <Gold.PLP.part.repulsive>
0.2527

> <Gold.PLP.ligand.clash>
0.0000

> <Gold.PLP.ligand.torsion>
0.6925

> <Gold.PLP.Chemscore.Hbond>
3.9100

> <Gold.PLP.Chemscore.CHOScore>
0.0000

> <Gold.PLP.Chemscore.Metal>
0.0000

> <Gold.Chemscore.Hbonds>
donor molecule, donor type, donor heavy atom, donor atom, acceptor molecule, acceptor atom, score
      L1  H    11    46       P1  8028  2.00
      P1  H  7989  7998       L1     9  1.00
      P1  H  7997  8009       L1     5  1.00

> <Gold.PLP.Chemscore.Internal.Correction>
0.0642

> <Gold.Rescore>
     Score         DG    S(hbond)    S(metal)    S(lipo)     H(rot)  DE(clash)    DE(int)     intcor
     20.31     -22.37       2.69        0.00     116.40       2.23       0.05       2.01       ----

> <Gold.Chemscore.Fitness>
20.3064

> <Gold.Chemscore.DG>
-22.3730

> <Gold.Chemscore.ZeroCoef>
-5.4800

> <Gold.Chemscore.Hbond>
2.6887

> <Gold.Chemscore.Metal>
0.0000

> <Gold.Chemscore.Lipo>
116.3951

> <Gold.Chemscore.Internal_Hbond>
0.0000

> <Gold.Chemscore.DEClash>
0.0523

> <Gold.Chemscore.DEInternal>
2.0143

> <Gold.Chemscore.Rot>
2.2287

> <Gold.Chemscore.Internal.Correction>
   9.000000E+99

> <Gold.Chemscore.Hbonds>
donor molecule, donor type, donor heavy atom, donor atom, acceptor molecule, acceptor atom, score
      L1  H    11    46       P1  8028  0.95
      P1  H  7989  7998       L1     9  0.57
      P1  H  7997  8009       L1     5  0.53

> <Gold.Chemscore.Hbond.Weighted>
-8.9802

> <Gold.Chemscore.Metal.Weighted>
-0.0000

> <Gold.Chemscore.Lipo.Weighted>
-13.6182

> <Gold.Chemscore.Internal_Hbond.Weighted>
0.0000

> <Gold.Chemscore.DEClash.Weighted>
0.0523

> <Gold.Chemscore.DEInternal.Weighted>
2.0143

> <Gold.Chemscore.Rot.Weighted>
5.7054

> <Gold.Chemscore.Internal.Correction.Weighted>
   9.000000E+99

> <Gold.Protein.RotatedTorsions>
[ 6907 6896 6895 6894 ] final  -29.75 input  -60.11 | X-H torsion
[ 7974 7965 7964 7962 ] final  -10.25 input  175.53 | X-H torsion
[ 8008 7997 7996 7995 ] final  171.31 input   59.86 | X-H torsion
[ 10167 10162 10161 10158 ] final -176.61 input  -65.29 | X-H torsion
[ 10718 10713 10712 10709 ] final  150.21 input   66.30 | X-H torsion
[ 10763 10752 10751 10750 ] final  -55.96 input  -60.55 | X-H torsion
[ 11005 11000 10999 10996 ] final  151.32 input  -57.11 | X-H torsion

> <Gold.Protein.ActiveResidues>
 VAL166  LYS551  ARG553  GLY616  TRP617  ASP618  TYR619  PRO620  LYS621  CYS622 
 ASP623  PHE694  ASN695  SER759  ASP760  ASP761  ALA762  ILE779  LEU786  VAL792 
 PHE793  MET794  SER795  GLU796  ALA797  LYS798  CYS799  TRP800  GLU811  SER814 

> <Gold.Protein.RotatedAtoms>
  151.1149  135.0047  159.8511 H   0  0  0  0  0  0  0  0  0  0  0  0  # atno 6907 bound_to 6896
  152.5445  134.1791  159.8638 H   0  0  0  0  0  0  0  0  0  0  0  0  # atno 6908 bound_to 6896
  151.1844  133.4660  159.2627 H   0  0  0  0  0  0  0  0  0  0  0  0  # atno 6909 bound_to 6896
  146.2226  140.2737  142.8358 H   0  0  0  0  0  0  0  0  0  0  0  0  # atno 7974 bound_to 7965
  156.1283  140.1515  156.9104 H   0  0  0  0  0  0  0  0  0  0  0  0  # atno 8008 bound_to 7997
  154.4889  140.0857  156.7589 H   0  0  0  0  0  0  0  0  0  0  0  0  # atno 8009 bound_to 7997
  155.4303  140.3427  155.4282 H   0  0  0  0  0  0  0  0  0  0  0  0  # atno 8010 bound_to 7997
  139.5521  144.2082  152.1095 H   0  0  0  0  0  0  0  0  0  0  0  0  # atno 10167 bound_to 10162
  157.2864  131.0845  151.1494 H   0  0  0  0  0  0  0  0  0  0  0  0  # atno 10718 bound_to 10713
  154.1992  135.6414  153.5082 H   0  0  0  0  0  0  0  0  0  0  0  0  # atno 10763 bound_to 10752
  153.0016  135.5447  154.6334 H   0  0  0  0  0  0  0  0  0  0  0  0  # atno 10764 bound_to 10752
  154.5742  135.2919  155.0770 H   0  0  0  0  0  0  0  0  0  0  0  0  # atno 10765 bound_to 10752
  140.1209  134.8864  157.2070 H   0  0  0  0  0  0  0  0  0  0  0  0  # atno 11005 bound_to 11000
  144.9249  140.7910  143.5725 LP  0  0  0  0  0  0  0  0  0  0  0  0  # atno 17320 bound_to 7965
  145.2676  139.1967  143.4859 LP  0  0  0  0  0  0  0  0  0  0  0  0  # atno 17321 bound_to 7965
  140.1580  144.5053  150.6649 LP  0  0  0  0  0  0  0  0  0  0  0  0  # atno 17342 bound_to 10162
  140.6786  143.2316  151.5443 LP  0  0  0  0  0  0  0  0  0  0  0  0  # atno 17343 bound_to 10162
  157.2908  130.6795  149.6113 LP  0  0  0  0  0  0  0  0  0  0  0  0  # atno 17370 bound_to 10713
  155.9665  130.4421  150.5369 LP  0  0  0  0  0  0  0  0  0  0  0  0  # atno 17371 bound_to 10713
  140.2967  134.3179  155.7300 LP  0  0  0  0  0  0  0  0  0  0  0  0  # atno 17394 bound_to 11000
  141.2151  133.7567  156.9581 LP  0  0  0  0  0  0  0  0  0  0  0  0  # atno 17395 bound_to 11000

$$$$
