AV-unprocessed.smi:189|AV-procd|sdf|1478|dock4
  -GOLD-   2262019293D 1   1.00000     0.00000
 Structure written by MMmdl.
 53 57  0  0  0  0  0  0  0  0  1 V2000
  154.1359  139.8789  159.5847 C   0  0  0  0  0  0  0  0  0  0  0  0
  152.8617  140.7302  159.6804 C   0  0  1  0  0  0  0  0  0  0  0  0
  152.8355  141.6778  160.9044 C   0  0  0  0  0  0  0  0  0  0  0  0
  152.6674  143.0642  160.2829 C   0  0  2  0  0  0  0  0  0  0  0  0
  151.8980  144.1391  161.0599 C   0  0  0  0  0  0  0  0  0  0  0  0
  151.7855  145.4075  160.1865 C   0  0  0  0  0  0  0  0  0  0  0  0
  151.1909  145.1140  158.7889 C   0  0  0  0  0  0  0  0  0  0  0  0
  151.9257  143.9672  158.0628 C   0  0  0  0  0  0  0  0  0  0  0  0
  151.9551  142.7372  158.9824 C   0  0  1  0  0  0  0  0  0  0  0  0
  152.6800  141.5767  158.4975 N   0  0  0  0  0  0  0  0  0  0  0  0
  152.1545  140.9664  157.4119 C   0  0  0  0  0  0  0  0  0  0  0  0
  152.8787  139.9556  156.8730 N   0  0  0  0  0  0  0  0  0  0  0  0
  152.4243  139.3087  155.7957 C   0  0  0  0  0  0  0  0  0  0  0  0
  151.2934  139.5093  155.1160 N   0  0  0  0  0  0  0  0  0  0  0  0
  150.5610  140.5240  155.6588 C   0  0  0  0  0  0  0  0  0  0  0  0
  150.9151  141.3033  156.7959 C   0  0  0  0  0  0  0  0  0  0  0  0
  149.9270  142.2481  157.0475 N   0  0  0  0  0  0  0  0  0  0  0  0
  149.0393  142.0374  156.1148 C   0  0  0  0  0  0  0  0  0  0  0  0
  149.3359  141.0147  155.2421 N   0  0  0  0  0  0  0  0  0  0  0  0
  148.5277  140.5635  154.1201 C   0  0  0  0  0  0  0  0  0  0  0  0
  147.0241  140.8924  154.2739 C   0  0  1  0  0  0  0  0  0  0  0  0
  146.2914  140.1868  153.2874 O   0  0  0  0  0  0  0  0  0  0  0  0
  146.4464  140.5459  155.6439 C   0  0  0  0  0  0  0  0  0  0  0  0
  145.3877  141.6200  155.8497 C   0  0  0  0  0  0  0  0  0  0  0  0
  146.0133  142.7728  155.3137 O   0  0  0  0  0  0  0  0  0  0  0  0
  146.7117  142.3957  154.1316 C   0  0  0  0  0  0  0  0  0  0  0  0
  154.2621  139.2648  160.4763 H   0  0  0  0  0  0  0  0  0  0  0  0
  155.0223  140.5055  159.4812 H   0  0  0  0  0  0  0  0  0  0  0  0
  154.0989  139.2085  158.7255 H   0  0  0  0  0  0  0  0  0  0  0  0
  152.0154  140.0485  159.7707 H   0  0  0  0  0  0  0  0  0  0  0  0
  151.9857  141.4339  161.5431 H   0  0  0  0  0  0  0  0  0  0  0  0
  153.7381  141.6172  161.5133 H   0  0  0  0  0  0  0  0  0  0  0  0
  153.6642  143.4470  160.0533 H   0  0  0  0  0  0  0  0  0  0  0  0
  150.9028  143.7761  161.3200 H   0  0  0  0  0  0  0  0  0  0  0  0
  152.4067  144.3688  161.9965 H   0  0  0  0  0  0  0  0  0  0  0  0
  151.1809  146.1575  160.6970 H   0  0  0  0  0  0  0  0  0  0  0  0
  152.7767  145.8461  160.0655 H   0  0  0  0  0  0  0  0  0  0  0  0
  150.1384  144.8494  158.8984 H   0  0  0  0  0  0  0  0  0  0  0  0
  151.2164  146.0165  158.1776 H   0  0  0  0  0  0  0  0  0  0  0  0
  151.4218  143.7347  157.1241 H   0  0  0  0  0  0  0  0  0  0  0  0
  152.9412  144.2740  157.8088 H   0  0  0  0  0  0  0  0  0  0  0  0
  150.9276  142.4446  159.2046 H   0  0  0  0  0  0  0  0  0  0  0  0
  153.0575  138.5162  155.4253 H   0  0  0  0  0  0  0  0  0  0  0  0
  148.1355  142.6242  156.0401 H   0  0  0  0  0  0  0  0  0  0  0  0
  148.9214  141.0260  153.2141 H   0  0  0  0  0  0  0  0  0  0  0  0
  148.6700  139.4887  154.0004 H   0  0  0  0  0  0  0  0  0  0  0  0
  145.4714  140.6342  153.1450 H   0  0  0  0  0  0  0  0  0  0  0  0
  146.0510  139.5314  155.7128 H   0  0  0  0  0  0  0  0  0  0  0  0
  147.2097  140.6576  156.4146 H   0  0  0  0  0  0  0  0  0  0  0  0
  144.4811  141.3939  155.2859 H   0  0  0  0  0  0  0  0  0  0  0  0
  145.1209  141.7556  156.8980 H   0  0  0  0  0  0  0  0  0  0  0  0
  147.6132  143.0024  154.0395 H   0  0  0  0  0  0  0  0  0  0  0  0
  146.0892  142.6047  153.2599 H   0  0  0  0  0  0  0  0  0  0  0  0
  1  2  1  0  0  0  0
  1 27  1  0  0  0  0
  1 28  1  0  0  0  0
  1 29  1  0  0  0  0
  2 10  1  0  0  0  0
  2  3  1  0  0  0  0
  2 30  1  0  0  0  0
  3  4  1  0  0  0  0
  3 31  1  0  0  0  0
  3 32  1  0  0  0  0
  4  9  1  0  0  0  0
  4  5  1  0  0  0  0
  4 33  1  0  0  0  0
  5  6  1  0  0  0  0
  5 34  1  0  0  0  0
  5 35  1  0  0  0  0
  6  7  1  0  0  0  0
  6 36  1  0  0  0  0
  6 37  1  0  0  0  0
  7  8  1  0  0  0  0
  7 38  1  0  0  0  0
  7 39  1  0  0  0  0
  8  9  1  0  0  0  0
  8 40  1  0  0  0  0
  8 41  1  0  0  0  0
  9 10  1  0  0  0  0
  9 42  1  0  0  0  0
 10 11  1  0  0  0  0
 11 16  1  0  0  0  0
 11 12  2  0  0  0  0
 12 13  1  0  0  0  0
 13 14  2  0  0  0  0
 13 43  1  0  0  0  0
 14 15  1  0  0  0  0
 15 19  1  0  0  0  0
 15 16  2  0  0  0  0
 16 17  1  0  0  0  0
 17 18  2  0  0  0  0
 18 19  1  0  0  0  0
 18 44  1  0  0  0  0
 19 20  1  0  0  0  0
 20 21  1  0  0  0  0
 20 45  1  0  0  0  0
 20 46  1  0  0  0  0
 21 26  1  0  0  0  0
 21 22  1  0  0  0  0
 21 23  1  0  0  0  0
 22 47  1  0  0  0  0
 23 24  1  0  0  0  0
 23 48  1  0  0  0  0
 23 49  1  0  0  0  0
 24 25  1  0  0  0  0
 24 50  1  0  0  0  0
 24 51  1  0  0  0  0
 25 26  1  0  0  0  0
 26 52  1  0  0  0  0
 26 53  1  0  0  0  0
M  END
> <s_m_source_file>
AV-unprocessed.smi

> <i_m_source_file_index>
189

> <i_lp_mmshare_version>
43012

> <i_f3d_flags>
0

> <s_epik_input>
W0NIMl0xW0NIMl1bQ0gyXVtDSDJdW0NASF0oW0NASF0xMilOKFtDQEhdKFtDSDNdKVtDSDJdMiljKG5bY0hdbjMpYyhjMzQpbltjSF1uNFtDSDJdW0NAQF01KFtPSF0pW0NIMl1bQ0gyXU9bQ0gyXTU=

> <s_epik_cmdline>
J2VwaWtfcHl0aG9uJywgJy1waCcsICc3LjAnLCAnLXRuJywgJzgnLCAnLW1hJywgJzIwMCcsICctbWV0YWxfYmluZGluZycsICctaW1hZScsICc8aW5maWxlLm1hZT4nLCAnLW9tYWUnLCAnPG91dGZpbGUubWFlPic=

> <r_lp_tautomer_probability>
1

> <r_epik_Ionization_Penalty>
0.00594261

> <r_epik_Ionization_Penalty_Charging>
0

> <r_epik_Ionization_Penalty_Neutral>
0.00594261

> <r_epik_State_Penalty>
0.00429776

> <r_epik_Charging_Adjusted_Penalty>
0.00429776

> <i_epik_Tot_Q>
0

> <i_epik_Tot_abs_Q>
0

> <r_epik_Metal_State_Penalty>
-0

> <b_epik_Metal_Only>
0

> <s_lp_Force_Field>
OPLS_2005

> <r_lp_Energy>
58.2794

> <b_lp_Chiralities_Consistent>
1

> <s_lp_Variant>
AV-unprocessed.smi:189-4

> <Gold.Version>
5.8.1

> <Gold.Id.Protein>
6NUR|6NUR_protein|mol2

> <Gold.PLP.Fitness>
57.4845

> <Gold.PLP.PLP>
-50.8863

> <Gold.PLP.part.hbond>
-2.4237

> <Gold.PLP.part.metal>
0.0000

> <Gold.PLP.part.buried>
-1.1528

> <Gold.PLP.part.nonpolar>
-46.9048

> <Gold.PLP.part.repulsive>
1.2778

> <Gold.PLP.ligand.clash>
0.0000

> <Gold.PLP.ligand.torsion>
0.4844

> <Gold.PLP.Chemscore.Hbond>
1.9713

> <Gold.PLP.Chemscore.CHOScore>
0.5463

> <Gold.PLP.Chemscore.Metal>
0.0000

> <Gold.Chemscore.Hbonds>
donor molecule, donor type, donor heavy atom, donor atom, acceptor molecule, acceptor atom, score
      L1  H    22    47       P1 10175  0.93
      P1  H  7989  7998       L1    14  0.18
      P1  H  7997  8009       L1    12  0.99
      L1  C    18    44       P1  8028  0.50

> <Gold.PLP.Chemscore.Internal.Correction>
0.0146

> <Gold.Rescore>
     Score         DG    S(hbond)    S(metal)    S(lipo)     H(rot)  DE(clash)    DE(int)     intcor
     14.71     -20.25       1.61        0.00     124.78       2.03       1.41       4.13       ----

> <Gold.Chemscore.Fitness>
14.7095

> <Gold.Chemscore.DG>
-20.2518

> <Gold.Chemscore.ZeroCoef>
-5.4800

> <Gold.Chemscore.Hbond>
1.6072

> <Gold.Chemscore.Metal>
0.0000

> <Gold.Chemscore.Lipo>
124.7845

> <Gold.Chemscore.Internal_Hbond>
0.0000

> <Gold.Chemscore.DEClash>
1.4082

> <Gold.Chemscore.DEInternal>
4.1342

> <Gold.Chemscore.Rot>
2.0297

> <Gold.Chemscore.Internal.Correction>
   9.000000E+99

> <Gold.Chemscore.Hbonds>
donor molecule, donor type, donor heavy atom, donor atom, acceptor molecule, acceptor atom, score
      L1  H    22    47       P1 10175  0.73
      P1  H  7997  8009       L1    12  0.66

> <Gold.Chemscore.Hbond.Weighted>
-5.3680

> <Gold.Chemscore.Metal.Weighted>
-0.0000

> <Gold.Chemscore.Lipo.Weighted>
-14.5998

> <Gold.Chemscore.Internal_Hbond.Weighted>
0.0000

> <Gold.Chemscore.DEClash.Weighted>
1.4082

> <Gold.Chemscore.DEInternal.Weighted>
4.1342

> <Gold.Chemscore.Rot.Weighted>
5.1960

> <Gold.Chemscore.Internal.Correction.Weighted>
   9.000000E+99

> <Gold.Protein.RotatedTorsions>
[ 6907 6896 6895 6894 ] final   64.54 input  -60.11 | X-H torsion
[ 7974 7965 7964 7962 ] final  -16.63 input  175.53 | X-H torsion
[ 8008 7997 7996 7995 ] final  168.60 input   59.86 | X-H torsion
[ 10167 10162 10161 10158 ] final  -46.22 input  -65.29 | X-H torsion
[ 10718 10713 10712 10709 ] final  125.24 input   66.30 | X-H torsion
[ 10763 10752 10751 10750 ] final  146.89 input  -60.55 | X-H torsion
[ 11005 11000 10999 10996 ] final -162.61 input  -57.11 | X-H torsion

> <Gold.Protein.ActiveResidues>
 VAL166  LYS551  ARG553  GLY616  TRP617  ASP618  TYR619  PRO620  LYS621  CYS622 
 ASP623  PHE694  ASN695  SER759  ASP760  ASP761  ALA762  ILE779  LEU786  VAL792 
 PHE793  MET794  SER795  GLU796  ALA797  LYS798  CYS799  TRP800  GLU811  SER814 

> <Gold.Protein.RotatedAtoms>
  152.4339  134.5723  159.9924 H   0  0  0  0  0  0  0  0  0  0  0  0  # atno 6907 bound_to 6896
  151.5839  133.3369  159.3022 H   0  0  0  0  0  0  0  0  0  0  0  0  # atno 6908 bound_to 6896
  150.8235  134.7490  159.6858 H   0  0  0  0  0  0  0  0  0  0  0  0  # atno 6909 bound_to 6896
  146.1979  140.3664  142.8434 H   0  0  0  0  0  0  0  0  0  0  0  0  # atno 7974 bound_to 7965
  156.1533  140.1586  156.8734 H   0  0  0  0  0  0  0  0  0  0  0  0  # atno 8008 bound_to 7997
  154.5091  140.0805  156.7990 H   0  0  0  0  0  0  0  0  0  0  0  0  # atno 8009 bound_to 7997
  155.3853  140.3407  155.4251 H   0  0  0  0  0  0  0  0  0  0  0  0  # atno 8010 bound_to 7997
  140.6826  143.2841  151.3751 H   0  0  0  0  0  0  0  0  0  0  0  0  # atno 10167 bound_to 10162
  157.5520  131.1093  150.8686 H   0  0  0  0  0  0  0  0  0  0  0  0  # atno 10718 bound_to 10713
  154.0294  135.2899  155.3370 H   0  0  0  0  0  0  0  0  0  0  0  0  # atno 10763 bound_to 10752
  154.6997  135.5193  153.8512 H   0  0  0  0  0  0  0  0  0  0  0  0  # atno 10764 bound_to 10752
  153.0646  135.6626  154.0508 H   0  0  0  0  0  0  0  0  0  0  0  0  # atno 10765 bound_to 10752
  140.6074  134.4885  157.5212 H   0  0  0  0  0  0  0  0  0  0  0  0  # atno 11005 bound_to 11000
  144.8618  140.7151  143.6102 LP  0  0  0  0  0  0  0  0  0  0  0  0  # atno 17320 bound_to 7965
  145.3584  139.1688  143.4397 LP  0  0  0  0  0  0  0  0  0  0  0  0  # atno 17321 bound_to 7965
  139.6160  144.1002  152.2346 LP  0  0  0  0  0  0  0  0  0  0  0  0  # atno 17342 bound_to 10162
  140.0431  144.5991  150.7395 LP  0  0  0  0  0  0  0  0  0  0  0  0  # atno 17343 bound_to 10162
  156.9209  130.5314  149.5279 LP  0  0  0  0  0  0  0  0  0  0  0  0  # atno 17370 bound_to 10713
  156.0585  130.5642  150.9142 LP  0  0  0  0  0  0  0  0  0  0  0  0  # atno 17371 bound_to 10713
  139.9207  134.8155  156.1222 LP  0  0  0  0  0  0  0  0  0  0  0  0  # atno 17394 bound_to 11000
  141.0831  133.6745  156.2379 LP  0  0  0  0  0  0  0  0  0  0  0  0  # atno 17395 bound_to 11000

$$$$
