#       Name:                AV-unprocessed.smi:2526
#       Creating user name   scv26
#       Creation time:       Fri Mar 27 13:58:17 2020


#       File generated by GOLD software.
#

@<TRIPOS>MOLECULE
AV-unprocessed.smi:2526
    32    33     1
SMALL
NO_CHARGES


@<TRIPOS>ATOM
      1 ****        -3.9640   0.4540  -0.7130 C.3            1 S1                 0.0000
      2 ****        -2.6844  -0.2213  -0.6853 N.pl3          1 S1                 0.0000
      3 ****        -1.4212   0.3281  -0.6989 C.2            1 S1                 0.0000
      4 ****        -0.5196  -0.7008  -0.6543 C.2            1 S1                 0.0000
      5 ****         0.9966  -0.6590  -0.6429 C.3            1 S1                 0.0000
      6 ****         1.4860   0.5411  -1.3272 N.am           1 S1                 0.0000
      7 ****         1.8860   1.6891  -0.7480 C.2            1 S1                 0.0000
      8 ****         2.1683   2.6791  -1.4187 O.2            1 S1                 0.0000
      9 ****         2.0418   1.7468   0.7816 C.3            1 S1                 0.0000
     10 ****         1.3770   0.5784   1.5313 C.3            1 S1                 0.0000
     11 ****         1.5953  -0.7425   0.7829 C.3            1 S1                 0.0000
     12 ****         1.0700  -1.8622   1.5435 N.3            1 S1                 0.0000
     13 ****        -1.3533  -1.8564  -0.6214 C.2            1 S1                 0.0000
     14 ****        -2.6441  -1.5677  -0.6397 N.2            1 S1                 0.0000
     15 ****        -3.8166   1.5343  -0.7229 H              1 S1                 0.0000
     16 ****        -4.5432   0.1841   0.1705 H              1 S1                 0.0000
     17 ****        -4.5159   0.1632  -1.6073 H              1 S1                 0.0000
     18 ****        -1.2681   1.3968  -0.7337 H              1 S1                 0.0000
     19 ****         1.3800  -1.5067  -1.2119 H              1 S1                 0.0000
     20 ****         1.4395   0.5273  -2.3359 H              1 S1                 0.0000
     21 ****         3.1113   1.7445   0.9941 H              1 S1                 0.0000
     22 ****         1.6553   2.6964   1.1524 H              1 S1                 0.0000
     23 ****         1.7912   0.5144   2.5381 H              1 S1                 0.0000
     24 ****         0.3109   0.7758   1.6524 H              1 S1                 0.0000
     25 ****         2.6707  -0.9033   0.6945 H              1 S1                 0.0000
     26 ****         1.2738  -2.7269   1.0631 H              1 S1                 0.0000
     27 ****         1.5326  -1.9127   2.4400 H              1 S1                 0.0000
     28 ****        -1.0566  -2.8941  -0.5825 H              1 S1                 0.0000
     29 ****         2.1032   2.6426  -2.4159 LP             1 S1                 0.0000
     30 ****         2.4632   3.5213  -0.9674 LP             1 S1                 0.0000
     31 ****         0.0844  -1.7319   1.6515 LP             1 S1                 0.0000
     32 ****        -3.4152  -2.2042  -0.6234 LP             1 S1                 0.0000
@<TRIPOS>BOND
    1    1    2 1     
    2    1   15 1     
    3    1   16 1     
    4    1   17 1     
    5    2   14 1     
    6    2    3 1     
    7    3    4 2     
    8    3   18 1     
    9    4    5 1     
   10    4   13 1     
   11    5   11 1     
   12    5    6 1     
   13    5   19 1     
   14    6    7 am    
   15    6   20 1     
   16    7    8 2     
   17    7    9 1     
   18    9   10 1     
   19    9   21 1     
   20    9   22 1     
   21   10   11 1     
   22   10   23 1     
   23   10   24 1     
   24   11   12 1     
   25   11   25 1     
   26   12   26 1     
   27   12   27 1     
   28   13   14 2     
   29   13   28 1     
   30    8   29 1     
   31    8   30 1     
   32   12   31 1     
   33   14   32 1     
@<TRIPOS>SUBSTRUCTURE
      1 S1             1
@<TRIPOS>SET
LONE_PAIRS      STATIC     ATOMS    <user>   **** ""
4 29 30 31 32
DONOR_HYDROGENS      STATIC     ATOMS    <user>   **** ""
3 20 26 27
ATOM$BLUE        STATIC     ATOMS    COLORGROUP SYSTEM
4 29 30 31 32
ATOM$RED        STATIC     ATOMS    COLORGROUP SYSTEM
3 20 26 27
