AV-unprocessed.smi:1086|AV-procd|sdf|4724|dock1
  -GOLD-   22720 3253D 1   1.00000     0.00000
 Structure written by MMmdl.
 41 42  0  0  0  0  0  0  0  0  1 V2000
  150.5769  142.1375  157.9027 C   0  0  0  0  0  0  0  0  0  0  0  0
  151.0934  141.6497  156.6692 O   0  0  0  0  0  0  0  0  0  0  0  0
  150.5315  140.5110  156.1290 C   0  0  0  0  0  0  0  0  0  0  0  0
  149.7261  139.7001  156.9532 C   0  0  0  0  0  0  0  0  0  0  0  0
  149.1536  138.5331  156.4115 C   0  0  0  0  0  0  0  0  0  0  0  0
  149.4132  138.2090  155.0584 C   0  0  0  0  0  0  0  0  0  0  0  0
  148.8897  137.0683  154.3918 N   0  0  0  0  0  0  0  0  0  0  0  0
  148.0726  136.1172  154.8757 C   0  0  0  0  0  0  0  0  0  0  0  0
  147.6125  136.0847  156.0169 O   0  0  0  0  0  0  0  0  0  0  0  0
  147.8245  135.1762  153.9526 N   0  0  0  0  0  0  0  0  0  0  0  0
  146.9724  134.0052  154.1546 C   0  0  0  0  0  0  0  0  0  0  0  0
  147.0344  132.9947  152.9932 C   0  0  0  0  0  0  0  0  0  0  0  0
  147.6958  131.9636  153.1324 O   0  0  0  0  0  0  0  0  0  0  0  0
  146.3559  133.2669  151.8517 N   0  0  0  0  0  0  0  0  0  0  0  0
  146.2821  132.3941  150.6719 C   0  0  0  0  0  0  0  0  0  0  0  0
  144.8629  131.8045  150.5847 C   0  0  0  0  0  0  0  0  0  0  0  0
  143.8062  132.9253  150.5393 C   0  0  0  0  0  0  0  0  0  0  0  0
  144.0178  133.9571  151.6644 C   0  0  0  0  0  0  0  0  0  0  0  0
  145.4807  134.4377  151.7091 C   0  0  0  0  0  0  0  0  0  0  0  0
  150.2178  139.0964  154.3143 C   0  0  0  0  0  0  0  0  0  0  0  0
  150.7703  140.2156  154.8275 N   0  0  0  0  0  0  0  0  0  0  0  0
  151.1203  143.0371  158.1912 H   0  0  0  0  0  0  0  0  0  0  0  0
  150.6991  141.4065  158.7034 H   0  0  0  0  0  0  0  0  0  0  0  0
  149.5220  142.4021  157.8166 H   0  0  0  0  0  0  0  0  0  0  0  0
  149.5481  139.9702  157.9836 H   0  0  0  0  0  0  0  0  0  0  0  0
  148.5224  137.9231  157.0385 H   0  0  0  0  0  0  0  0  0  0  0  0
  149.2353  136.9195  153.4551 H   0  0  0  0  0  0  0  0  0  0  0  0
  148.2408  135.2828  153.0392 H   0  0  0  0  0  0  0  0  0  0  0  0
  147.2937  133.5100  155.0711 H   0  0  0  0  0  0  0  0  0  0  0  0
  145.9431  134.3328  154.3100 H   0  0  0  0  0  0  0  0  0  0  0  0
  146.4933  132.9835  149.7784 H   0  0  0  0  0  0  0  0  0  0  0  0
  147.0222  131.5955  150.6672 H   0  0  0  0  0  0  0  0  0  0  0  0
  144.7723  131.1700  149.7027 H   0  0  0  0  0  0  0  0  0  0  0  0
  144.6813  131.1636  151.4488 H   0  0  0  0  0  0  0  0  0  0  0  0
  143.8678  133.4327  149.5758 H   0  0  0  0  0  0  0  0  0  0  0  0
  142.8035  132.5012  150.6004 H   0  0  0  0  0  0  0  0  0  0  0  0
  143.3474  134.8055  151.5242 H   0  0  0  0  0  0  0  0  0  0  0  0
  143.7545  133.5092  152.6237 H   0  0  0  0  0  0  0  0  0  0  0  0
  145.6071  135.1635  152.5135 H   0  0  0  0  0  0  0  0  0  0  0  0
  145.7316  134.9687  150.7898 H   0  0  0  0  0  0  0  0  0  0  0  0
  150.4329  138.9001  153.2740 H   0  0  0  0  0  0  0  0  0  0  0  0
  1  2  1  0  0  0  0
  1 22  1  0  0  0  0
  1 23  1  0  0  0  0
  1 24  1  0  0  0  0
  2  3  1  0  0  0  0
  3 21  1  0  0  0  0
  3  4  2  0  0  0  0
  4  5  1  0  0  0  0
  4 25  1  0  0  0  0
  5  6  2  0  0  0  0
  5 26  1  0  0  0  0
  6  7  1  0  0  0  0
  6 20  1  0  0  0  0
  7  8  1  0  0  0  0
  7 27  1  0  0  0  0
  8  9  2  0  0  0  0
  8 10  1  0  0  0  0
 10 11  1  0  0  0  0
 10 28  1  0  0  0  0
 11 12  1  0  0  0  0
 11 29  1  0  0  0  0
 11 30  1  0  0  0  0
 12 13  2  0  0  0  0
 12 14  1  0  0  0  0
 14 19  1  0  0  0  0
 14 15  1  0  0  0  0
 15 16  1  0  0  0  0
 15 31  1  0  0  0  0
 15 32  1  0  0  0  0
 16 17  1  0  0  0  0
 16 33  1  0  0  0  0
 16 34  1  0  0  0  0
 17 18  1  0  0  0  0
 17 35  1  0  0  0  0
 17 36  1  0  0  0  0
 18 19  1  0  0  0  0
 18 37  1  0  0  0  0
 18 38  1  0  0  0  0
 19 39  1  0  0  0  0
 19 40  1  0  0  0  0
 20 21  2  0  0  0  0
 20 41  1  0  0  0  0
M  END
> <s_m_source_file>
AV-unprocessed.smi

> <i_m_source_file_index>
1086

> <i_lp_mmshare_version>
43012

> <i_f3d_flags>
0

> <s_epik_input>
W0NIM11PYzFbY0hdW2NIXWMoW2NIXW4xKVtOSF1DKD1PKVtOSF1bQ0gyXUMoPU8pTjJbQ0gyXVtDSDJdW0NIMl1bQ0gyXVtDSDJdMg==

> <s_epik_cmdline>
J2VwaWtfcHl0aG9uJywgJy1waCcsICc3LjAnLCAnLXRuJywgJzgnLCAnLW1hJywgJzIwMCcsICctbWV0YWxfYmluZGluZycsICctaW1hZScsICc8aW5maWxlLm1hZT4nLCAnLW9tYWUnLCAnPG91dGZpbGUubWFlPic=

> <r_lp_tautomer_probability>
1

> <r_epik_Ionization_Penalty>
0.0001417

> <r_epik_Ionization_Penalty_Charging>
0

> <r_epik_Ionization_Penalty_Neutral>
0.0001417

> <r_epik_State_Penalty>
-0

> <r_epik_Charging_Adjusted_Penalty>
0

> <i_epik_Tot_Q>
0

> <i_epik_Tot_abs_Q>
0

> <r_epik_Metal_State_Penalty>
-0

> <b_epik_Metal_Only>
0

> <s_lp_Force_Field>
OPLS_2005

> <r_lp_Energy>
23.1479

> <b_lp_Chiralities_Consistent>
1

> <s_lp_Variant>
AV-unprocessed.smi:1086-1

> <Gold.Version>
5.8.1

> <Gold.Id.Protein>
6NUR|6NUR_protein|mol2

> <Gold.PLP.Fitness>
40.9069

> <Gold.PLP.PLP>
-29.8068

> <Gold.PLP.part.hbond>
-3.0000

> <Gold.PLP.part.metal>
0.0000

> <Gold.PLP.part.buried>
-5.0595

> <Gold.PLP.part.nonpolar>
-22.6178

> <Gold.PLP.part.repulsive>
0.2597

> <Gold.PLP.ligand.clash>
0.0000

> <Gold.PLP.ligand.torsion>
0.4716

> <Gold.PLP.Chemscore.Hbond>
3.0000

> <Gold.PLP.Chemscore.CHOScore>
1.0000

> <Gold.PLP.Chemscore.Metal>
0.0000

> <Gold.Chemscore.Hbonds>
donor molecule, donor type, donor heavy atom, donor atom, acceptor molecule, acceptor atom, score
      L1  H     7    27       P1  7948  0.98
      L1  H    10    28       P1  7948  1.00
      P1  H  7989  7998       L1    21  1.00
      L1  C    20    41       P1  7957  1.00

> <Gold.PLP.Chemscore.Internal.Correction>
0.0433

> <Gold.Rescore>
     Score         DG    S(hbond)    S(metal)    S(lipo)     H(rot)  DE(clash)    DE(int)     intcor
     16.48     -17.95       2.76        0.00      61.72       1.55       0.02       1.44       ----

> <Gold.Chemscore.Fitness>
16.4791

> <Gold.Chemscore.DG>
-17.9471

> <Gold.Chemscore.ZeroCoef>
-5.4800

> <Gold.Chemscore.Hbond>
2.7604

> <Gold.Chemscore.Metal>
0.0000

> <Gold.Chemscore.Lipo>
61.7167

> <Gold.Chemscore.Internal_Hbond>
0.0000

> <Gold.Chemscore.DEClash>
0.0234

> <Gold.Chemscore.DEInternal>
1.4446

> <Gold.Chemscore.Rot>
1.5521

> <Gold.Chemscore.Internal.Correction>
   9.000000E+99

> <Gold.Chemscore.Hbonds>
donor molecule, donor type, donor heavy atom, donor atom, acceptor molecule, acceptor atom, score
      L1  H     7    27       P1  7948  0.92
      L1  H    10    28       P1  7948  0.94
      P1  H  7989  7998       L1    21  0.40

> <Gold.Chemscore.Hbond.Weighted>
-9.2197

> <Gold.Chemscore.Metal.Weighted>
-0.0000

> <Gold.Chemscore.Lipo.Weighted>
-7.2209

> <Gold.Chemscore.Internal_Hbond.Weighted>
0.0000

> <Gold.Chemscore.DEClash.Weighted>
0.0234

> <Gold.Chemscore.DEInternal.Weighted>
1.4446

> <Gold.Chemscore.Rot.Weighted>
3.9734

> <Gold.Chemscore.Internal.Correction.Weighted>
   9.000000E+99

> <Gold.Protein.RotatedTorsions>
[ 6907 6896 6895 6894 ] final  -23.34 input  -60.11 | X-H torsion
[ 7974 7965 7964 7962 ] final  -29.79 input  175.53 | X-H torsion
[ 8008 7997 7996 7995 ] final  -38.31 input   59.86 | X-H torsion
[ 10167 10162 10161 10158 ] final  -20.19 input  -65.29 | X-H torsion
[ 10718 10713 10712 10709 ] final   57.54 input   66.30 | X-H torsion
[ 10763 10752 10751 10750 ] final   32.25 input  -60.55 | X-H torsion
[ 11005 11000 10999 10996 ] final  -66.16 input  -57.11 | X-H torsion

> <Gold.Protein.ActiveResidues>
 VAL166  LYS551  ARG553  GLY616  TRP617  ASP618  TYR619  PRO620  LYS621  CYS622 
 ASP623  PHE694  ASN695  SER759  ASP760  ASP761  ALA762  ILE779  LEU786  VAL792 
 PHE793  MET794  SER795  GLU796  ALA797  LYS798  CYS799  TRP800  GLU811  SER814 

> <Gold.Protein.RotatedAtoms>
  151.2054  135.0460  159.8889 H   0  0  0  0  0  0  0  0  0  0  0  0  # atno 6907 bound_to 6896
  152.5429  134.0803  159.8243 H   0  0  0  0  0  0  0  0  0  0  0  0  # atno 6908 bound_to 6896
  151.0949  133.5239  159.2645 H   0  0  0  0  0  0  0  0  0  0  0  0  # atno 6909 bound_to 6896
  146.1191  140.5457  142.8743 H   0  0  0  0  0  0  0  0  0  0  0  0  # atno 7974 bound_to 7965
  154.4039  140.1581  156.2680 H   0  0  0  0  0  0  0  0  0  0  0  0  # atno 8008 bound_to 7997
  155.8978  140.3435  155.5982 H   0  0  0  0  0  0  0  0  0  0  0  0  # atno 8009 bound_to 7997
  155.7483  140.0801  157.2204 H   0  0  0  0  0  0  0  0  0  0  0  0  # atno 8010 bound_to 7997
  140.7274  143.4746  151.0199 H   0  0  0  0  0  0  0  0  0  0  0  0  # atno 10167 bound_to 10162
  157.5523  130.8774  149.8981 H   0  0  0  0  0  0  0  0  0  0  0  0  # atno 10718 bound_to 10713
  153.0272  135.6418  154.1325 H   0  0  0  0  0  0  0  0  0  0  0  0  # atno 10763 bound_to 10752
  154.1053  135.2856  155.3244 H   0  0  0  0  0  0  0  0  0  0  0  0  # atno 10764 bound_to 10752
  154.6370  135.5473  153.7808 H   0  0  0  0  0  0  0  0  0  0  0  0  # atno 10765 bound_to 10752
  141.1475  133.6694  156.6097 H   0  0  0  0  0  0  0  0  0  0  0  0  # atno 11005 bound_to 11000
  144.7580  140.5354  143.6755 LP  0  0  0  0  0  0  0  0  0  0  0  0  # atno 17320 bound_to 7965
  145.5504  139.1476  143.3397 LP  0  0  0  0  0  0  0  0  0  0  0  0  # atno 17321 bound_to 7965
  139.8441  143.7525  152.3179 LP  0  0  0  0  0  0  0  0  0  0  0  0  # atno 17342 bound_to 10162
  139.7684  144.7484  151.0261 LP  0  0  0  0  0  0  0  0  0  0  0  0  # atno 17343 bound_to 10162
  156.0587  130.3703  150.1031 LP  0  0  0  0  0  0  0  0  0  0  0  0  # atno 17370 bound_to 10713
  156.9203  130.9681  151.3549 LP  0  0  0  0  0  0  0  0  0  0  0  0  # atno 17371 bound_to 10713
  140.3624  134.7676  157.4543 LP  0  0  0  0  0  0  0  0  0  0  0  0  # atno 17394 bound_to 11000
  140.0775  134.5777  155.8576 LP  0  0  0  0  0  0  0  0  0  0  0  0  # atno 17395 bound_to 11000

$$$$
