AV-unprocessed.smi:3330|AV-procd|sdf|12809|dock6
  -GOLD-   2272019173D 1   1.00000     0.00000
 Structure written by MMmdl.
 38 39  0  0  0  0  0  0  0  0  3 V2000
  147.2322  135.1431  156.4022 C   0  0  0  0  0  0  0  0  0  0  0  0
  147.4329  134.9821  154.8861 C   0  0  2  0  0  0  0  0  0  0  0  0
  148.2505  136.1181  154.4039 N   0  3  0  0  0  0  0  0  0  0  0  0
  149.5069  136.3520  155.1467 C   0  0  0  0  0  0  0  0  0  0  0  0
  150.2809  137.5637  154.5959 C   0  0  0  0  0  0  0  0  0  0  0  0
  151.3839  137.9721  155.4756 N   0  0  0  0  0  0  0  0  0  0  0  0
  152.1336  137.1295  156.1938 C   0  0  0  0  0  0  0  0  0  0  0  0
  152.0471  135.9030  156.2496 O   0  0  0  0  0  0  0  0  0  0  0  0
  153.1680  137.9512  156.9263 C   0  0  0  0  0  0  0  0  0  0  0  0
  152.8639  139.2929  156.4841 N   0  5  0  0  0  0  0  0  0  0  0  0
  151.8082  139.2394  155.6398 C   0  0  0  0  0  0  0  0  0  0  0  0
  151.2769  140.1874  155.0630 O   0  0  0  0  0  0  0  0  0  0  0  0
  146.0920  134.9080  154.1061 C   0  0  2  0  0  0  0  0  0  0  0  0
  144.8764  134.6251  155.0100 C   0  0  0  0  0  0  0  0  0  0  0  0
  146.1497  133.9213  153.0333 N   0  0  0  0  0  0  0  0  0  0  0  0
  145.2348  132.9327  152.7333 C   0  0  0  0  0  0  0  0  0  0  0  0
  145.7049  132.2572  151.6438 C   0  0  0  0  0  0  0  0  0  0  0  0
  146.9320  132.9113  151.3438 C   0  0  0  0  0  0  0  0  0  0  0  0
  147.1949  133.9063  152.1751 N   0  0  0  0  0  0  0  0  0  0  0  0
  146.7399  134.2753  156.8403 H   0  0  0  0  0  0  0  0  0  0  0  0
  146.6313  136.0234  156.6336 H   0  0  0  0  0  0  0  0  0  0  0  0
  148.1903  135.2536  156.9115 H   0  0  0  0  0  0  0  0  0  0  0  0
  147.9841  134.0530  154.7290 H   0  0  0  0  0  0  0  0  0  0  0  0
  148.4717  135.9699  153.4298 H   0  0  0  0  0  0  0  0  0  0  0  0
  149.2687  136.5133  156.1988 H   0  0  0  0  0  0  0  0  0  0  0  0
  150.1351  135.4629  155.0963 H   0  0  0  0  0  0  0  0  0  0  0  0
  150.6725  137.3311  153.6044 H   0  0  0  0  0  0  0  0  0  0  0  0
  149.5911  138.3961  154.4470 H   0  0  0  0  0  0  0  0  0  0  0  0
  153.0566  137.8155  158.0028 H   0  0  0  0  0  0  0  0  0  0  0  0
  154.1693  137.6222  156.6463 H   0  0  0  0  0  0  0  0  0  0  0  0
  145.9231  135.8769  153.6332 H   0  0  0  0  0  0  0  0  0  0  0  0
  144.6915  135.4438  155.7048 H   0  0  0  0  0  0  0  0  0  0  0  0
  145.0146  133.7154  155.5952 H   0  0  0  0  0  0  0  0  0  0  0  0
  143.9692  134.5025  154.4171 H   0  0  0  0  0  0  0  0  0  0  0  0
  144.3341  132.7927  153.3130 H   0  0  0  0  0  0  0  0  0  0  0  0
  145.2441  131.4211  151.1388 H   0  0  0  0  0  0  0  0  0  0  0  0
  147.6340  132.6948  150.5521 H   0  0  0  0  0  0  0  0  0  0  0  0
  147.6931  136.9571  154.4786 H   0  0  0  0  0  0  0  0  0  0  0  0
  1  2  1  0  0  0  0
  1 20  1  0  0  0  0
  1 21  1  0  0  0  0
  1 22  1  0  0  0  0
  2  3  1  0  0  0  0
  2 13  1  0  0  0  0
  2 23  1  0  0  0  0
  3  4  1  0  0  0  0
  3 24  1  0  0  0  0
  3 38  1  0  0  0  0
  4  5  1  0  0  0  0
  4 25  1  0  0  0  0
  4 26  1  0  0  0  0
  5  6  1  0  0  0  0
  5 27  1  0  0  0  0
  5 28  1  0  0  0  0
  6 11  1  0  0  0  0
  6  7  1  0  0  0  0
  7  8  2  0  0  0  0
  7  9  1  0  0  0  0
  9 10  1  0  0  0  0
  9 29  1  0  0  0  0
  9 30  1  0  0  0  0
 10 11  1  0  0  0  0
 11 12  2  0  0  0  0
 13 14  1  0  0  0  0
 13 15  1  0  0  0  0
 13 31  1  0  0  0  0
 14 32  1  0  0  0  0
 14 33  1  0  0  0  0
 14 34  1  0  0  0  0
 15 19  1  0  0  0  0
 15 16  1  0  0  0  0
 16 17  2  0  0  0  0
 16 35  1  0  0  0  0
 17 18  1  0  0  0  0
 17 36  1  0  0  0  0
 18 19  2  0  0  0  0
 18 37  1  0  0  0  0
M  CHG  1   3   1
M  CHG  1  10  -1
M  END
> <s_m_source_file>
AV-unprocessed.smi

> <i_m_source_file_index>
3330

> <i_lp_mmshare_version>
43012

> <i_f3d_flags>
0

> <s_epik_input>
bjFbY0hdW2NIXVtjSF1uMVtDQEBIXShbQ0gzXSlbQ0BIXShbQ0gzXSlbTkhdW0NIMl1bQ0gyXU4yQyg9TylbQ0gyXVtOSF1DMj1P

> <s_epik_cmdline>
J2VwaWtfcHl0aG9uJywgJy1waCcsICc3LjAnLCAnLXRuJywgJzgnLCAnLW1hJywgJzIwMCcsICctbWV0YWxfYmluZGluZycsICctaW1hZScsICc8aW5maWxlLm1hZT4nLCAnLW9tYWUnLCAnPG91dGZpbGUubWFlPic=

> <r_lp_tautomer_probability>
1

> <r_epik_Ionization_Penalty>
5.18149

> <r_epik_Ionization_Penalty_Charging>
5.18148

> <r_epik_Ionization_Penalty_Neutral>
9.83265e-06

> <r_epik_State_Penalty>
5.18201

> <r_epik_Charging_Adjusted_Penalty>
10.3635

> <i_epik_Tot_Q>
0

> <i_epik_Tot_abs_Q>
2

> <r_epik_Metal_State_Penalty>
1.25422

> <b_epik_Metal_Only>
1

> <s_lp_Force_Field>
OPLS_2005

> <r_lp_Energy>
23.9108

> <b_lp_Chiralities_Consistent>
1

> <s_lp_Variant>
AV-unprocessed.smi:3330-9

> <Gold.Version>
5.8.1

> <Gold.Id.Protein>
6NUR|6NUR_protein|mol2

> <Gold.PLP.Fitness>
40.9206

> <Gold.PLP.PLP>
-20.2532

> <Gold.PLP.part.hbond>
-4.0000

> <Gold.PLP.part.metal>
0.0000

> <Gold.PLP.part.buried>
-2.3181

> <Gold.PLP.part.nonpolar>
-15.7039

> <Gold.PLP.part.repulsive>
1.8329

> <Gold.PLP.ligand.clash>
0.0000

> <Gold.PLP.ligand.torsion>
1.7345

> <Gold.PLP.Chemscore.Hbond>
6.0000

> <Gold.PLP.Chemscore.CHOScore>
2.0000

> <Gold.PLP.Chemscore.Metal>
0.0000

> <Gold.Chemscore.Hbonds>
donor molecule, donor type, donor heavy atom, donor atom, acceptor molecule, acceptor atom, score
      L1  H     3    24       P1  7948  2.00
      P1  H  7989  7998       L1    12  1.00
      P1  H  7997  8010       L1    10  2.00
      P1  H 10752 10763       L1     8  1.00
      L1  C    16    35       P1 10957  1.00
      L1  C    18    37       P1 10747  1.00

> <Gold.PLP.Chemscore.Internal.Correction>
0.1363

> <Gold.Rescore>
     Score         DG    S(hbond)    S(metal)    S(lipo)     H(rot)  DE(clash)    DE(int)     intcor
     10.12     -13.47       3.10        0.00      36.60       2.59       0.27       3.08       ----

> <Gold.Chemscore.Fitness>
10.1196

> <Gold.Chemscore.DG>
-13.4687

> <Gold.Chemscore.ZeroCoef>
-5.4800

> <Gold.Chemscore.Hbond>
3.0950

> <Gold.Chemscore.Metal>
0.0000

> <Gold.Chemscore.Lipo>
36.6011

> <Gold.Chemscore.Internal_Hbond>
0.0000

> <Gold.Chemscore.DEClash>
0.2700

> <Gold.Chemscore.DEInternal>
3.0791

> <Gold.Chemscore.Rot>
2.5903

> <Gold.Chemscore.Internal.Correction>
   9.000000E+99

> <Gold.Chemscore.Hbonds>
donor molecule, donor type, donor heavy atom, donor atom, acceptor molecule, acceptor atom, score
      L1  H     3    24       P1  7948  1.00
      P1  H  7989  7998       L1    12  0.98
      P1  H  7997  8010       L1    10  0.60
      P1  H 10752 10763       L1     8  0.30

> <Gold.Chemscore.Hbond.Weighted>
-10.3374

> <Gold.Chemscore.Metal.Weighted>
-0.0000

> <Gold.Chemscore.Lipo.Weighted>
-4.2823

> <Gold.Chemscore.Internal_Hbond.Weighted>
0.0000

> <Gold.Chemscore.DEClash.Weighted>
0.2700

> <Gold.Chemscore.DEInternal.Weighted>
3.0791

> <Gold.Chemscore.Rot.Weighted>
6.6311

> <Gold.Chemscore.Internal.Correction.Weighted>
   9.000000E+99

> <Gold.Protein.RotatedTorsions>
[ 6907 6896 6895 6894 ] final -123.65 input  -60.11 | X-H torsion
[ 7974 7965 7964 7962 ] final -174.03 input  175.53 | X-H torsion
[ 8008 7997 7996 7995 ] final   78.54 input   59.86 | X-H torsion
[ 10167 10162 10161 10158 ] final  -45.72 input  -65.29 | X-H torsion
[ 10718 10713 10712 10709 ] final    6.73 input   66.30 | X-H torsion
[ 10763 10752 10751 10750 ] final   98.27 input  -60.55 | X-H torsion
[ 11005 11000 10999 10996 ] final  153.58 input  -57.11 | X-H torsion

> <Gold.Protein.ActiveResidues>
 VAL166  LYS551  ARG553  GLY616  TRP617  ASP618  TYR619  PRO620  LYS621  CYS622 
 ASP623  PHE694  ASN695  SER759  ASP760  ASP761  ALA762  ILE779  LEU786  VAL792 
 PHE793  MET794  SER795  GLU796  ALA797  LYS798  CYS799  TRP800  GLU811  SER814 

> <Gold.Protein.RotatedAtoms>
  150.8691  133.7531  159.2966 H   0  0  0  0  0  0  0  0  0  0  0  0  # atno 6907 bound_to 6896
  151.5149  135.1064  159.9873 H   0  0  0  0  0  0  0  0  0  0  0  0  # atno 6908 bound_to 6896
  152.4682  133.7926  159.6965 H   0  0  0  0  0  0  0  0  0  0  0  0  # atno 6909 bound_to 6896
  144.7134  140.1532  143.6382 H   0  0  0  0  0  0  0  0  0  0  0  0  # atno 7974 bound_to 7965
  155.8571  140.3455  155.5731 H   0  0  0  0  0  0  0  0  0  0  0  0  # atno 8008 bound_to 7997
  155.7974  140.0880  157.1995 H   0  0  0  0  0  0  0  0  0  0  0  0  # atno 8009 bound_to 7997
  154.4010  140.1472  156.3222 H   0  0  0  0  0  0  0  0  0  0  0  0  # atno 8010 bound_to 7997
  140.6847  143.2866  151.3679 H   0  0  0  0  0  0  0  0  0  0  0  0  # atno 10167 bound_to 10162
  156.9264  130.5810  149.5648 H   0  0  0  0  0  0  0  0  0  0  0  0  # atno 10718 bound_to 10713
  153.2871  135.4154  155.1132 H   0  0  0  0  0  0  0  0  0  0  0  0  # atno 10763 bound_to 10752
  154.8508  135.3509  154.6032 H   0  0  0  0  0  0  0  0  0  0  0  0  # atno 10764 bound_to 10752
  153.6454  135.7055  153.5285 H   0  0  0  0  0  0  0  0  0  0  0  0  # atno 10765 bound_to 10752
  140.1411  134.8738  157.2332 H   0  0  0  0  0  0  0  0  0  0  0  0  # atno 11005 bound_to 11000
  145.9097  139.2480  143.1444 LP  0  0  0  0  0  0  0  0  0  0  0  0  # atno 17320 bound_to 7965
  145.9728  140.8746  143.0154 LP  0  0  0  0  0  0  0  0  0  0  0  0  # atno 17321 bound_to 7965
  139.6195  144.0935  152.2378 LP  0  0  0  0  0  0  0  0  0  0  0  0  # atno 17342 bound_to 10162
  140.0375  144.6033  150.7438 LP  0  0  0  0  0  0  0  0  0  0  0  0  # atno 17343 bound_to 10162
  156.0467  130.5542  150.8897 LP  0  0  0  0  0  0  0  0  0  0  0  0  # atno 17370 bound_to 10713
  157.5875  131.0945  150.9173 LP  0  0  0  0  0  0  0  0  0  0  0  0  # atno 17371 bound_to 10713
  140.2721  134.3448  155.7370 LP  0  0  0  0  0  0  0  0  0  0  0  0  # atno 17394 bound_to 11000
  141.2186  133.7429  156.9238 LP  0  0  0  0  0  0  0  0  0  0  0  0  # atno 17395 bound_to 11000

$$$$
