AV-unprocessed.smi:1065|AV-procd|sdf|4667|dock6
  -GOLD-   22720 3183D 1   1.00000     0.00000
 Structure written by MMmdl.
 39 40  0  0  0  0  0  0  0  0  1 V2000
  153.9774  141.5659  161.5912 C   0  0  0  0  0  0  0  0  0  0  0  0
  153.0326  141.4870  160.3839 C   0  0  0  0  0  0  0  0  0  0  0  0
  152.6363  142.8596  159.8029 C   0  0  2  0  0  0  0  0  0  0  0  0
  152.4591  143.8985  160.9287 C   0  0  0  0  0  0  0  0  0  0  0  0
  152.0570  145.2797  160.3816 C   0  0  0  0  0  0  0  0  0  0  0  0
  150.7863  145.2232  159.5101 C   0  0  2  0  0  0  0  0  0  0  0  0
  149.5103  145.0173  160.3556 C   0  0  0  0  0  0  0  0  0  0  0  0
  148.3731  144.6653  159.5163 N   0  0  0  0  0  0  0  0  0  0  0  0
  147.2634  144.0455  159.9432 C   0  0  0  0  0  0  0  0  0  0  0  0
  147.0540  143.7609  161.1218 O   0  0  0  0  0  0  0  0  0  0  0  0
  146.2347  143.6808  158.8724 C   0  0  0  0  0  0  0  0  0  0  0  0
  146.4988  142.3610  158.3294 N   0  0  0  0  0  0  0  0  0  0  0  0
  147.1635  141.9790  157.2368 C   0  0  0  0  0  0  0  0  0  0  0  0
  147.1497  140.6627  157.0921 N   0  0  0  0  0  0  0  0  0  0  0  0
  146.4194  140.2328  158.1877 N   0  0  0  0  0  0  0  0  0  0  0  0
  146.0301  141.2359  158.9255 N   0  0  0  0  0  0  0  0  0  0  0  0
  150.9675  144.1738  158.3903 C   0  0  0  0  0  0  0  0  0  0  0  0
  151.3587  142.7908  158.9387 C   0  0  0  0  0  0  0  0  0  0  0  0
  154.1558  140.5731  162.0050 H   0  0  0  0  0  0  0  0  0  0  0  0
  153.5538  142.1832  162.3838 H   0  0  0  0  0  0  0  0  0  0  0  0
  154.9467  141.9829  161.3197 H   0  0  0  0  0  0  0  0  0  0  0  0
  153.4845  140.8703  159.6060 H   0  0  0  0  0  0  0  0  0  0  0  0
  152.1303  140.9610  160.6977 H   0  0  0  0  0  0  0  0  0  0  0  0
  153.4549  143.2020  159.1681 H   0  0  0  0  0  0  0  0  0  0  0  0
  151.7104  143.5492  161.6404 H   0  0  0  0  0  0  0  0  0  0  0  0
  153.3878  143.9947  161.4925 H   0  0  0  0  0  0  0  0  0  0  0  0
  151.9193  145.9810  161.2052 H   0  0  0  0  0  0  0  0  0  0  0  0
  152.8801  145.6751  159.7852 H   0  0  0  0  0  0  0  0  0  0  0  0
  150.6854  146.1968  159.0278 H   0  0  0  0  0  0  0  0  0  0  0  0
  149.6691  144.2410  161.1050 H   0  0  0  0  0  0  0  0  0  0  0  0
  149.2683  145.9322  160.8975 H   0  0  0  0  0  0  0  0  0  0  0  0
  148.4563  144.8642  158.5295 H   0  0  0  0  0  0  0  0  0  0  0  0
  145.2299  143.6896  159.2964 H   0  0  0  0  0  0  0  0  0  0  0  0
  146.2549  144.4184  158.0685 H   0  0  0  0  0  0  0  0  0  0  0  0
  147.6466  142.6597  156.5510 H   0  0  0  0  0  0  0  0  0  0  0  0
  150.0673  144.0906  157.7807 H   0  0  0  0  0  0  0  0  0  0  0  0
  151.7503  144.5141  157.7113 H   0  0  0  0  0  0  0  0  0  0  0  0
  151.5068  142.1134  158.0980 H   0  0  0  0  0  0  0  0  0  0  0  0
  150.5351  142.3768  159.5213 H   0  0  0  0  0  0  0  0  0  0  0  0
  1  2  1  0  0  0  0
  1 19  1  0  0  0  0
  1 20  1  0  0  0  0
  1 21  1  0  0  0  0
  2  3  1  0  0  0  0
  2 22  1  0  0  0  0
  2 23  1  0  0  0  0
  3 18  1  0  0  0  0
  3  4  1  0  0  0  0
  3 24  1  0  0  0  0
  4  5  1  0  0  0  0
  4 25  1  0  0  0  0
  4 26  1  0  0  0  0
  5  6  1  0  0  0  0
  5 27  1  0  0  0  0
  5 28  1  0  0  0  0
  6  7  1  0  0  0  0
  6 17  1  0  0  0  0
  6 29  1  0  0  0  0
  7  8  1  0  0  0  0
  7 30  1  0  0  0  0
  7 31  1  0  0  0  0
  8  9  1  0  0  0  0
  8 32  1  0  0  0  0
  9 10  2  0  0  0  0
  9 11  1  0  0  0  0
 11 12  1  0  0  0  0
 11 33  1  0  0  0  0
 11 34  1  0  0  0  0
 12 16  1  0  0  0  0
 12 13  1  0  0  0  0
 13 14  2  0  0  0  0
 13 35  1  0  0  0  0
 14 15  1  0  0  0  0
 15 16  2  0  0  0  0
 17 18  1  0  0  0  0
 17 36  1  0  0  0  0
 17 37  1  0  0  0  0
 18 38  1  0  0  0  0
 18 39  1  0  0  0  0
M  END
> <s_m_source_file>
AV-unprocessed.smi

> <i_m_source_file_index>
1065

> <i_lp_mmshare_version>
43012

> <i_f3d_flags>
0

> <s_epik_input>
W0NIM11bQ0gyXVtDQEBIXTFbQ0gyXVtDSDJdW0NASF0oW0NIMl1bQ0gyXTEpW0NIMl1bTkhdQyg9TylbQ0gyXW4yW2NIXW5ubjI=

> <s_epik_cmdline>
J2VwaWtfcHl0aG9uJywgJy1waCcsICc3LjAnLCAnLXRuJywgJzgnLCAnLW1hJywgJzIwMCcsICctbWV0YWxfYmluZGluZycsICctaW1hZScsICc8aW5maWxlLm1hZT4nLCAnLW9tYWUnLCAnPG91dGZpbGUubWFlPic=

> <r_lp_tautomer_probability>
1

> <r_epik_Ionization_Penalty>
4.54759e-07

> <r_epik_Ionization_Penalty_Charging>
0

> <r_epik_Ionization_Penalty_Neutral>
4.54759e-07

> <r_epik_State_Penalty>
-0

> <r_epik_Charging_Adjusted_Penalty>
0

> <i_epik_Tot_Q>
0

> <i_epik_Tot_abs_Q>
0

> <r_epik_Metal_State_Penalty>
-0

> <b_epik_Metal_Only>
0

> <s_lp_Force_Field>
OPLS_2005

> <r_lp_Energy>
15.297

> <b_lp_Chiralities_Consistent>
1

> <s_lp_Variant>
AV-unprocessed.smi:1065-2

> <Gold.Version>
5.8.1

> <Gold.Id.Protein>
6NUR|6NUR_protein|mol2

> <Gold.PLP.Fitness>
46.2575

> <Gold.PLP.PLP>
-38.1120

> <Gold.PLP.part.hbond>
-3.9449

> <Gold.PLP.part.metal>
0.0000

> <Gold.PLP.part.buried>
-5.6102

> <Gold.PLP.part.nonpolar>
-27.9528

> <Gold.PLP.part.repulsive>
0.2317

> <Gold.PLP.ligand.clash>
0.0000

> <Gold.PLP.ligand.torsion>
1.2006

> <Gold.PLP.Chemscore.Hbond>
2.5200

> <Gold.PLP.Chemscore.CHOScore>
0.9886

> <Gold.PLP.Chemscore.Metal>
0.0000

> <Gold.Chemscore.Hbonds>
donor molecule, donor type, donor heavy atom, donor atom, acceptor molecule, acceptor atom, score
      L1  H     8    32       P1  8029  0.86
      P1  H  6933  6944       L1    10  0.99
      P1  H  6934  6946       L1    16  0.67
      L1  C    13    35       P1  8028  0.94

> <Gold.PLP.Chemscore.Internal.Correction>
0.0210

> <Gold.Rescore>
     Score         DG    S(hbond)    S(metal)    S(lipo)     H(rot)  DE(clash)    DE(int)     intcor
     17.65     -18.86       2.48        0.00      97.05       2.45       0.31       0.90       ----

> <Gold.Chemscore.Fitness>
17.6526

> <Gold.Chemscore.DG>
-18.8601

> <Gold.Chemscore.ZeroCoef>
-5.4800

> <Gold.Chemscore.Hbond>
2.4850

> <Gold.Chemscore.Metal>
0.0000

> <Gold.Chemscore.Lipo>
97.0533

> <Gold.Chemscore.Internal_Hbond>
0.0000

> <Gold.Chemscore.DEClash>
0.3096

> <Gold.Chemscore.DEInternal>
0.8979

> <Gold.Chemscore.Rot>
2.4512

> <Gold.Chemscore.Internal.Correction>
   9.000000E+99

> <Gold.Chemscore.Hbonds>
donor molecule, donor type, donor heavy atom, donor atom, acceptor molecule, acceptor atom, score
      L1  H     8    32       P1  8029  0.81
      P1  H  6933  6944       L1    10  0.32
      P1  H  6934  6946       L1    16  0.19

> <Gold.Chemscore.Hbond.Weighted>
-8.2999

> <Gold.Chemscore.Metal.Weighted>
-0.0000

> <Gold.Chemscore.Lipo.Weighted>
-11.3552

> <Gold.Chemscore.Internal_Hbond.Weighted>
0.0000

> <Gold.Chemscore.DEClash.Weighted>
0.3096

> <Gold.Chemscore.DEInternal.Weighted>
0.8979

> <Gold.Chemscore.Rot.Weighted>
6.2750

> <Gold.Chemscore.Internal.Correction.Weighted>
   9.000000E+99

> <Gold.Protein.RotatedTorsions>
[ 6907 6896 6895 6894 ] final -161.67 input  -60.11 | X-H torsion
[ 7974 7965 7964 7962 ] final -177.33 input  175.53 | X-H torsion
[ 8008 7997 7996 7995 ] final   51.92 input   59.86 | X-H torsion
[ 10167 10162 10161 10158 ] final  -89.62 input  -65.29 | X-H torsion
[ 10718 10713 10712 10709 ] final  178.30 input   66.30 | X-H torsion
[ 10763 10752 10751 10750 ] final -146.75 input  -60.55 | X-H torsion
[ 11005 11000 10999 10996 ] final   31.46 input  -57.11 | X-H torsion

> <Gold.Protein.ActiveResidues>
 VAL166  LYS551  ARG553  GLY616  TRP617  ASP618  TYR619  PRO620  LYS621  CYS622 
 ASP623  PHE694  ASN695  SER759  ASP760  ASP761  ALA762  ILE779  LEU786  VAL792 
 PHE793  MET794  SER795  GLU796  ALA797  LYS798  CYS799  TRP800  GLU811  SER814 

> <Gold.Protein.RotatedAtoms>
  151.3683  133.3864  159.2696 H   0  0  0  0  0  0  0  0  0  0  0  0  # atno 6907 bound_to 6896
  150.9671  134.9051  159.7776 H   0  0  0  0  0  0  0  0  0  0  0  0  # atno 6908 bound_to 6896
  152.5171  134.3644  159.9348 H   0  0  0  0  0  0  0  0  0  0  0  0  # atno 6909 bound_to 6896
  144.7127  140.1036  143.6415 H   0  0  0  0  0  0  0  0  0  0  0  0  # atno 7974 bound_to 7965
  155.4432  140.3455  155.4292 H   0  0  0  0  0  0  0  0  0  0  0  0  # atno 8008 bound_to 7997
  156.1266  140.1502  156.9157 H   0  0  0  0  0  0  0  0  0  0  0  0  # atno 8009 bound_to 7997
  154.4862  140.0854  156.7472 H   0  0  0  0  0  0  0  0  0  0  0  0  # atno 8010 bound_to 7997
  140.3630  143.2832  151.9592 H   0  0  0  0  0  0  0  0  0  0  0  0  # atno 10167 bound_to 10162
  156.8925  130.9852  151.3047 H   0  0  0  0  0  0  0  0  0  0  0  0  # atno 10718 bound_to 10713
  154.8320  135.3378  154.6711 H   0  0  0  0  0  0  0  0  0  0  0  0  # atno 10763 bound_to 10752
  153.7330  135.6951  153.4989 H   0  0  0  0  0  0  0  0  0  0  0  0  # atno 10764 bound_to 10752
  153.2299  135.4420  155.0535 H   0  0  0  0  0  0  0  0  0  0  0  0  # atno 10765 bound_to 10752
  140.2837  134.2943  155.7794 H   0  0  0  0  0  0  0  0  0  0  0  0  # atno 11005 bound_to 11000
  145.9516  139.2738  143.1208 LP  0  0  0  0  0  0  0  0  0  0  0  0  # atno 17320 bound_to 7965
  145.9316  140.9044  143.0353 LP  0  0  0  0  0  0  0  0  0  0  0  0  # atno 17321 bound_to 7965
  139.4812  144.5976  151.7663 LP  0  0  0  0  0  0  0  0  0  0  0  0  # atno 17342 bound_to 10162
  140.5108  144.1027  150.5995 LP  0  0  0  0  0  0  0  0  0  0  0  0  # atno 17343 bound_to 10162
  157.6075  130.8558  149.8898 LP  0  0  0  0  0  0  0  0  0  0  0  0  # atno 17370 bound_to 10713
  156.0622  130.3698  150.0958 LP  0  0  0  0  0  0  0  0  0  0  0  0  # atno 17371 bound_to 10713
  141.2158  133.7541  156.9519 LP  0  0  0  0  0  0  0  0  0  0  0  0  # atno 17394 bound_to 11000
  140.1259  134.9387  157.2270 LP  0  0  0  0  0  0  0  0  0  0  0  0  # atno 17395 bound_to 11000

$$$$
