AV-unprocessed.smi:2265|AV-procd|sdf|9145|dock3
  -GOLD-   2272012353D 1   1.00000     0.00000
 Structure written by MMmdl.
 36 37  0  0  0  0  0  0  0  0  1 V2000
  152.6231  138.6973  154.4462 C   0  0  0  0  0  0  0  0  0  0  0  0
  151.1031  138.6868  154.6404 C   0  0  0  0  0  0  0  0  0  0  0  0
  150.4533  140.0263  154.2694 C   0  0  0  0  0  0  0  0  0  0  0  0
  148.9476  140.0104  154.4637 C   0  0  2  0  0  0  0  0  0  0  0  0
  148.0714  141.0565  153.8276 C   0  0  0  0  0  0  0  0  0  0  0  0
  148.2329  141.0250  155.3341 C   0  0  2  0  0  0  0  0  0  0  0  0
  148.9804  142.0914  155.9315 N   0  0  0  0  0  0  0  0  0  0  0  0
  149.7149  142.0489  157.0574 C   0  0  0  0  0  0  0  0  0  0  0  0
  149.7787  141.0193  157.7290 O   0  0  0  0  0  0  0  0  0  0  0  0
  150.3073  143.2234  157.3680 N   0  0  0  0  0  0  0  0  0  0  0  0
  151.1064  143.5285  158.4766 C   0  0  0  0  0  0  0  0  0  0  0  0
  151.0389  144.6618  159.1178 N   0  0  0  0  0  0  0  0  0  0  0  0
  151.8512  144.9307  160.2195 C   0  0  0  0  0  0  0  0  0  0  0  0
  152.7365  144.0200  160.6626 C   0  0  0  0  0  0  0  0  0  0  0  0
  152.8638  142.7771  160.0268 N   0  0  0  0  0  0  0  0  0  0  0  0
  153.8451  141.8250  160.5477 C   0  0  0  0  0  0  0  0  0  0  0  0
  152.1007  142.4621  158.9451 C   0  0  0  0  0  0  0  0  0  0  0  0
  152.1805  141.3856  158.3498 O   0  0  0  0  0  0  0  0  0  0  0  0
  153.0554  137.7330  154.7136 H   0  0  0  0  0  0  0  0  0  0  0  0
  153.0943  139.4577  155.0696 H   0  0  0  0  0  0  0  0  0  0  0  0
  152.8863  138.9038  153.4086 H   0  0  0  0  0  0  0  0  0  0  0  0
  150.6684  137.8904  154.0354 H   0  0  0  0  0  0  0  0  0  0  0  0
  150.8758  138.4445  155.6792 H   0  0  0  0  0  0  0  0  0  0  0  0
  150.8704  140.8261  154.8822 H   0  0  0  0  0  0  0  0  0  0  0  0
  150.6866  140.2705  153.2323 H   0  0  0  0  0  0  0  0  0  0  0  0
  148.5341  139.0041  154.5003 H   0  0  0  0  0  0  0  0  0  0  0  0
  148.5607  141.8595  153.2791 H   0  0  0  0  0  0  0  0  0  0  0  0
  147.1189  140.7286  153.4169 H   0  0  0  0  0  0  0  0  0  0  0  0
  147.3576  140.6704  155.8768 H   0  0  0  0  0  0  0  0  0  0  0  0
  148.8798  142.9960  155.4942 H   0  0  0  0  0  0  0  0  0  0  0  0
  150.1366  143.9775  156.7189 H   0  0  0  0  0  0  0  0  0  0  0  0
  151.7306  145.8963  160.6882 H   0  0  0  0  0  0  0  0  0  0  0  0
  153.3868  144.1828  161.5097 H   0  0  0  0  0  0  0  0  0  0  0  0
  154.6440  141.6690  159.8217 H   0  0  0  0  0  0  0  0  0  0  0  0
  153.3778  140.8606  160.7522 H   0  0  0  0  0  0  0  0  0  0  0  0
  154.3042  142.1660  161.4762 H   0  0  0  0  0  0  0  0  0  0  0  0
  1  2  1  0  0  0  0
  1 19  1  0  0  0  0
  1 20  1  0  0  0  0
  1 21  1  0  0  0  0
  2  3  1  0  0  0  0
  2 22  1  0  0  0  0
  2 23  1  0  0  0  0
  3  4  1  0  0  0  0
  3 24  1  0  0  0  0
  3 25  1  0  0  0  0
  4  6  1  0  0  0  0
  4  5  1  0  0  0  0
  4 26  1  0  0  0  0
  5  6  1  0  0  0  0
  5 27  1  0  0  0  0
  5 28  1  0  0  0  0
  6  7  1  0  0  0  0
  6 29  1  0  0  0  0
  7  8  1  0  0  0  0
  7 30  1  0  0  0  0
  8  9  2  0  0  0  0
  8 10  1  0  0  0  0
 10 11  1  0  0  0  0
 10 31  1  0  0  0  0
 11 17  1  0  0  0  0
 11 12  2  0  0  0  0
 12 13  1  0  0  0  0
 13 14  2  0  0  0  0
 13 32  1  0  0  0  0
 14 15  1  0  0  0  0
 14 33  1  0  0  0  0
 15 16  1  0  0  0  0
 15 17  1  0  0  0  0
 16 34  1  0  0  0  0
 16 35  1  0  0  0  0
 16 36  1  0  0  0  0
 17 18  2  0  0  0  0
M  END
> <s_m_source_file>
AV-unprocessed.smi

> <i_m_source_file_index>
2265

> <i_lp_mmshare_version>
43012

> <i_f3d_flags>
0

> <s_epik_input>
W0NIM11bQ0gyXVtDSDJdW0NAQEhdMVtDSDJdW0NASF0xW05IXUMoPU8pW05IXWMybltjSF1bY0hdbihbQ0gzXSljMj1P

> <s_epik_cmdline>
J2VwaWtfcHl0aG9uJywgJy1waCcsICc3LjAnLCAnLXRuJywgJzgnLCAnLW1hJywgJzIwMCcsICctbWV0YWxfYmluZGluZycsICctaW1hZScsICc8aW5maWxlLm1hZT4nLCAnLW9tYWUnLCAnPG91dGZpbGUubWFlPic=

> <r_lp_tautomer_probability>
1

> <r_epik_Ionization_Penalty>
0.000728552

> <r_epik_Ionization_Penalty_Charging>
1.67739e-07

> <r_epik_Ionization_Penalty_Neutral>
0.000728385

> <r_epik_State_Penalty>
-0

> <r_epik_Charging_Adjusted_Penalty>
1.67739e-07

> <i_epik_Tot_Q>
0

> <i_epik_Tot_abs_Q>
0

> <r_epik_Metal_State_Penalty>
-0

> <b_epik_Metal_Only>
0

> <s_lp_Force_Field>
OPLS_2005

> <r_lp_Energy>
43.9494

> <b_lp_Chiralities_Consistent>
1

> <s_lp_Variant>
AV-unprocessed.smi:2265-3

> <Gold.Version>
5.8.1

> <Gold.Id.Protein>
6NUR|6NUR_protein|mol2

> <Gold.PLP.Fitness>
42.2387

> <Gold.PLP.PLP>
-38.0907

> <Gold.PLP.part.hbond>
-2.0000

> <Gold.PLP.part.metal>
0.0000

> <Gold.PLP.part.buried>
-2.3615

> <Gold.PLP.part.nonpolar>
-34.2619

> <Gold.PLP.part.repulsive>
0.2641

> <Gold.PLP.ligand.clash>
0.0000

> <Gold.PLP.ligand.torsion>
1.0824

> <Gold.PLP.Chemscore.Hbond>
1.9120

> <Gold.PLP.Chemscore.CHOScore>
0.0000

> <Gold.PLP.Chemscore.Metal>
0.0000

> <Gold.Chemscore.Hbonds>
donor molecule, donor type, donor heavy atom, donor atom, acceptor molecule, acceptor atom, score
      L1  H     7    30       P1  8028  0.98
      L1  H    10    31       P1  8028  0.90

> <Gold.PLP.Chemscore.Internal.Correction>
0.5769

> <Gold.Rescore>
     Score         DG    S(hbond)    S(metal)    S(lipo)     H(rot)  DE(clash)    DE(int)     intcor
     14.92     -16.35       1.88        0.00      71.28       1.46       0.18       1.25       ----

> <Gold.Chemscore.Fitness>
14.9164

> <Gold.Chemscore.DG>
-16.3491

> <Gold.Chemscore.ZeroCoef>
-5.4800

> <Gold.Chemscore.Hbond>
1.8766

> <Gold.Chemscore.Metal>
0.0000

> <Gold.Chemscore.Lipo>
71.2826

> <Gold.Chemscore.Internal_Hbond>
0.0000

> <Gold.Chemscore.DEClash>
0.1794

> <Gold.Chemscore.DEInternal>
1.2533

> <Gold.Chemscore.Rot>
1.4604

> <Gold.Chemscore.Internal.Correction>
   9.000000E+99

> <Gold.Chemscore.Hbonds>
donor molecule, donor type, donor heavy atom, donor atom, acceptor molecule, acceptor atom, score
      L1  H     7    30       P1  8028  0.93
      L1  H    10    31       P1  8028  0.88

> <Gold.Chemscore.Hbond.Weighted>
-6.2678

> <Gold.Chemscore.Metal.Weighted>
-0.0000

> <Gold.Chemscore.Lipo.Weighted>
-8.3401

> <Gold.Chemscore.Internal_Hbond.Weighted>
0.0000

> <Gold.Chemscore.DEClash.Weighted>
0.1794

> <Gold.Chemscore.DEInternal.Weighted>
1.2533

> <Gold.Chemscore.Rot.Weighted>
3.7387

> <Gold.Chemscore.Internal.Correction.Weighted>
   9.000000E+99

> <Gold.Protein.RotatedTorsions>
[ 6907 6896 6895 6894 ] final   61.70 input  -60.11 | X-H torsion
[ 7974 7965 7964 7962 ] final  -86.32 input  175.53 | X-H torsion
[ 8008 7997 7996 7995 ] final  120.34 input   59.86 | X-H torsion
[ 10167 10162 10161 10158 ] final  -68.61 input  -65.29 | X-H torsion
[ 10718 10713 10712 10709 ] final  -37.18 input   66.30 | X-H torsion
[ 10763 10752 10751 10750 ] final   47.83 input  -60.55 | X-H torsion
[ 11005 11000 10999 10996 ] final  -80.23 input  -57.11 | X-H torsion

> <Gold.Protein.ActiveResidues>
 VAL166  LYS551  ARG553  GLY616  TRP617  ASP618  TYR619  PRO620  LYS621  CYS622 
 ASP623  PHE694  ASN695  SER759  ASP760  ASP761  ALA762  ILE779  LEU786  VAL792 
 PHE793  MET794  SER795  GLU796  ALA797  LYS798  CYS799  TRP800  GLU811  SER814 

> <Gold.Protein.RotatedAtoms>
  152.4111  134.6123  160.0028 H   0  0  0  0  0  0  0  0  0  0  0  0  # atno 6907 bound_to 6896
  151.6300  133.3327  159.3114 H   0  0  0  0  0  0  0  0  0  0  0  0  # atno 6908 bound_to 6896
  150.8002  134.7130  159.6659 H   0  0  0  0  0  0  0  0  0  0  0  0  # atno 6909 bound_to 6896
  145.4814  140.9557  143.1862 H   0  0  0  0  0  0  0  0  0  0  0  0  # atno 7974 bound_to 7965
  156.2638  140.2833  156.1133 H   0  0  0  0  0  0  0  0  0  0  0  0  # atno 8008 bound_to 7997
  155.1233  140.0392  157.2773 H   0  0  0  0  0  0  0  0  0  0  0  0  # atno 8009 bound_to 7997
  154.6654  140.2576  155.7070 H   0  0  0  0  0  0  0  0  0  0  0  0  # atno 8010 bound_to 7997
  140.5494  143.2312  151.6940 H   0  0  0  0  0  0  0  0  0  0  0  0  # atno 10167 bound_to 10162
  156.3183  130.4262  149.7985 H   0  0  0  0  0  0  0  0  0  0  0  0  # atno 10718 bound_to 10713
  152.9796  135.5964  154.3826 H   0  0  0  0  0  0  0  0  0  0  0  0  # atno 10763 bound_to 10752
  154.3489  135.2767  155.2384 H   0  0  0  0  0  0  0  0  0  0  0  0  # atno 10764 bound_to 10752
  154.4432  135.6008  153.6198 H   0  0  0  0  0  0  0  0  0  0  0  0  # atno 10765 bound_to 10752
  141.1668  133.7141  156.8242 H   0  0  0  0  0  0  0  0  0  0  0  0  # atno 11005 bound_to 11000
  144.7887  139.6374  143.7123 LP  0  0  0  0  0  0  0  0  0  0  0  0  # atno 17320 bound_to 7965
  146.2339  139.5866  142.9537 LP  0  0  0  0  0  0  0  0  0  0  0  0  # atno 17321 bound_to 7965
  139.5021  144.3842  152.0345 LP  0  0  0  0  0  0  0  0  0  0  0  0  # atno 17342 bound_to 10162
  140.2958  144.3703  150.6075 LP  0  0  0  0  0  0  0  0  0  0  0  0  # atno 17343 bound_to 10162
  156.5302  130.8254  151.3234 LP  0  0  0  0  0  0  0  0  0  0  0  0  # atno 17370 bound_to 10713
  157.7406  130.9854  150.2390 LP  0  0  0  0  0  0  0  0  0  0  0  0  # atno 17371 bound_to 10713
  140.2097  134.8836  157.3261 LP  0  0  0  0  0  0  0  0  0  0  0  0  # atno 17394 bound_to 11000
  140.2100  134.4151  155.7618 LP  0  0  0  0  0  0  0  0  0  0  0  0  # atno 17395 bound_to 11000

$$$$
