#       Name:                AV-unprocessed.smi:1834
#       Creating user name   scv26
#       Creation time:       Fri Mar 27 09:16:29 2020


#       File generated by GOLD software.
#

@<TRIPOS>MOLECULE
AV-unprocessed.smi:1834
    49    50     1
SMALL
NO_CHARGES


@<TRIPOS>ATOM
      1 ****        -5.3434   2.0320  -2.5080 C.3            1 S1                 0.0000
      2 ****        -5.0844   1.9591  -0.9960 C.3            1 S1                 0.0000
      3 ****        -3.6387   1.8767  -0.6672 N.4            1 S1                 1.0000
      4 ****        -3.3586   2.3080   0.7260 C.3            1 S1                 0.0000
      5 ****        -1.8477   2.3512   0.9956 C.3            1 S1                 0.0000
      6 ****        -1.1988   0.9920   0.7087 C.3            1 S1                 0.0000
      7 ****        -1.5193   0.5306  -0.7276 C.3            1 S1                 0.0000
      8 ****        -0.9353  -0.8598  -1.0591 C.3            1 S1                 0.0000
      9 ****         0.5234  -0.8915  -0.9860 N.am           1 S1                 0.0000
     10 ****         1.2400  -1.3776   0.0386 C.2            1 S1                 0.0000
     11 ****         0.7325  -1.8392   1.0609 O.2            1 S1                 0.0000
     12 ****         2.5591  -1.2854  -0.2045 N.am           1 S1                 0.0000
     13 ****         3.5972  -1.6652   0.5872 C.2            1 S1                 0.0000
     14 ****         3.5693  -2.1930   1.8493 C.2            1 S1                 0.0000
     15 ****         4.9518  -2.3766   2.1430 C.2            1 S1                 0.0000
     16 ****         5.5646  -2.9303   3.3955 C.3            1 S1                 0.0000
     17 ****         5.7429  -1.9917   1.1478 N.2            1 S1                 0.0000
     18 ****         4.9084  -1.5504   0.1820 N.pl3          1 S1                 0.0000
     19 ****         5.4452  -1.0484  -1.0677 C.3            1 S1                 0.0000
     20 ****        -3.0467   0.5420  -0.9536 C.3            1 S1                 0.0000
     21 ****        -6.4041   2.1878  -2.7066 H              1 S1                 0.0000
     22 ****        -5.0525   1.1157  -3.0206 H              1 S1                 0.0000
     23 ****        -4.7989   2.8605  -2.9617 H              1 S1                 0.0000
     24 ****        -5.5031   2.8605  -0.5467 H              1 S1                 0.0000
     25 ****        -5.6190   1.1175  -0.5531 H              1 S1                 0.0000
     26 ****        -3.7790   3.2995   0.8993 H              1 S1                 0.0000
     27 ****        -3.8482   1.6284   1.4256 H              1 S1                 0.0000
     28 ****        -1.3851   3.1178   0.3725 H              1 S1                 0.0000
     29 ****        -1.6620   2.6405   2.0305 H              1 S1                 0.0000
     30 ****        -0.1222   1.0738   0.8586 H              1 S1                 0.0000
     31 ****        -1.5583   0.2525   1.4259 H              1 S1                 0.0000
     32 ****        -1.0757   1.2498  -1.4185 H              1 S1                 0.0000
     33 ****        -1.3753  -1.6209  -0.4122 H              1 S1                 0.0000
     34 ****        -1.2108  -1.1379  -2.0769 H              1 S1                 0.0000
     35 ****         1.0251  -0.5306  -1.7845 H              1 S1                 0.0000
     36 ****         2.8216  -0.8897  -1.0951 H              1 S1                 0.0000
     37 ****         2.7183  -2.4178   2.4745 H              1 S1                 0.0000
     38 ****         4.7979  -3.2222   4.1135 H              1 S1                 0.0000
     39 ****         6.2066  -2.1926   3.8774 H              1 S1                 0.0000
     40 ****         6.1696  -3.8114   3.1804 H              1 S1                 0.0000
     41 ****         5.0099  -1.6004  -1.9012 H              1 S1                 0.0000
     42 ****         6.5296  -1.1660  -1.0957 H              1 S1                 0.0000
     43 ****         5.2008   0.0092  -1.1723 H              1 S1                 0.0000
     44 ****        -3.5264  -0.2089  -0.3233 H              1 S1                 0.0000
     45 ****        -3.2512   0.2605  -1.9861 H              1 S1                 0.0000
     46 ****        -3.1713   2.5421  -1.2664 H              1 S1                 0.0000
     47 ****        -0.2624  -1.8647   1.1575 LP             1 S1                 0.0000
     48 ****         1.3153  -2.1886   1.7945 LP             1 S1                 0.0000
     49 ****         6.7421  -2.0222   1.1197 LP             1 S1                 0.0000
@<TRIPOS>BOND
    1    1    2 1     
    2    1   21 1     
    3    1   22 1     
    4    1   23 1     
    5    2    3 1     
    6    2   24 1     
    7    2   25 1     
    8    3   20 1     
    9    3    4 1     
   10    3   46 1     
   11    4    5 1     
   12    4   26 1     
   13    4   27 1     
   14    5    6 1     
   15    5   28 1     
   16    5   29 1     
   17    6    7 1     
   18    6   30 1     
   19    6   31 1     
   20    7    8 1     
   21    7   20 1     
   22    7   32 1     
   23    8    9 1     
   24    8   33 1     
   25    8   34 1     
   26    9   10 am    
   27    9   35 1     
   28   10   11 2     
   29   10   12 am    
   30   12   13 1     
   31   12   36 1     
   32   13   18 1     
   33   13   14 2     
   34   14   15 1     
   35   14   37 1     
   36   15   16 1     
   37   15   17 2     
   38   16   38 1     
   39   16   39 1     
   40   16   40 1     
   41   17   18 1     
   42   18   19 1     
   43   19   41 1     
   44   19   42 1     
   45   19   43 1     
   46   20   44 1     
   47   20   45 1     
   48   11   47 1     
   49   11   48 1     
   50   17   49 1     
@<TRIPOS>SUBSTRUCTURE
      1 S1             1
@<TRIPOS>SET
LONE_PAIRS      STATIC     ATOMS    <user>   **** ""
3 47 48 49
DONOR_HYDROGENS      STATIC     ATOMS    <user>   **** ""
3 46 35 36
ATOM$BLUE        STATIC     ATOMS    COLORGROUP SYSTEM
3 47 48 49
ATOM$RED        STATIC     ATOMS    COLORGROUP SYSTEM
3 46 35 36
