AV-unprocessed.smi:3303|AV-procd|sdf|12671|dock6
  -GOLD-   2272019 03D 1   1.00000     0.00000
 Structure written by MMmdl.
 45 46  0  0  0  0  0  0  0  0  3 V2000
  149.0073  132.8425  152.8990 C   0  0  0  0  0  0  0  0  0  0  0  0
  147.6244  132.6550  153.5580 C   0  0  2  0  0  0  0  0  0  0  0  0
  147.0361  131.2671  153.2376 C   0  0  0  0  0  0  0  0  0  0  0  0
  146.6266  131.1451  151.8123 N   0  3  1  0  0  0  0  0  0  0  0  0
  146.2016  129.7579  151.5038 C   0  0  0  0  0  0  0  0  0  0  0  0
  145.6306  132.1878  151.4173 C   0  0  2  0  0  0  0  0  0  0  0  0
  145.2444  132.1033  149.9276 C   0  0  0  0  0  0  0  0  0  0  0  0
  146.1622  133.6046  151.7304 C   0  0  0  0  0  0  0  0  0  0  0  0
  146.5922  133.7467  153.2028 C   0  0  2  0  0  0  0  0  0  0  0  0
  147.1125  135.0989  153.5158 N   0  3  0  0  0  0  0  0  0  0  0  0
  147.6913  135.2599  154.8665 C   0  0  0  0  0  0  0  0  0  0  0  0
  147.7305  136.7396  155.2734 C   0  0  0  0  0  0  0  0  0  0  0  0
  149.1110  137.3464  155.1079 C   0  0  0  0  0  0  0  0  0  0  0  0
  150.2251  136.8027  155.7829 C   0  0  0  0  0  0  0  0  0  0  0  0
  151.4843  137.4034  155.5900 C   0  0  0  0  0  0  0  0  0  0  0  0
  151.5797  138.5200  154.7372 C   0  0  0  0  0  0  0  0  0  0  0  0
  150.4070  138.9879  154.1113 C   0  0  0  0  0  0  0  0  0  0  0  0
  149.1946  138.4186  154.2886 N   0  0  0  0  0  0  0  0  0  0  0  0
  148.9547  132.7987  151.8113 H   0  0  0  0  0  0  0  0  0  0  0  0
  149.6974  132.0618  153.2209 H   0  0  0  0  0  0  0  0  0  0  0  0
  149.4585  133.7966  153.1715 H   0  0  0  0  0  0  0  0  0  0  0  0
  147.7865  132.6952  154.6362 H   0  0  0  0  0  0  0  0  0  0  0  0
  147.7705  130.4969  153.4786 H   0  0  0  0  0  0  0  0  0  0  0  0
  146.1702  131.0760  153.8738 H   0  0  0  0  0  0  0  0  0  0  0  0
  145.2483  129.5251  151.9803 H   0  0  0  0  0  0  0  0  0  0  0  0
  146.9409  129.0388  151.8585 H   0  0  0  0  0  0  0  0  0  0  0  0
  146.1026  129.5959  150.4309 H   0  0  0  0  0  0  0  0  0  0  0  0
  144.7273  132.0260  152.0082 H   0  0  0  0  0  0  0  0  0  0  0  0
  144.5954  132.9331  149.6462 H   0  0  0  0  0  0  0  0  0  0  0  0
  144.6948  131.1911  149.6964 H   0  0  0  0  0  0  0  0  0  0  0  0
  146.1244  132.1417  149.2847 H   0  0  0  0  0  0  0  0  0  0  0  0
  146.9981  133.8423  151.0712 H   0  0  0  0  0  0  0  0  0  0  0  0
  145.3822  134.3299  151.4987 H   0  0  0  0  0  0  0  0  0  0  0  0
  145.7161  133.5834  153.8332 H   0  0  0  0  0  0  0  0  0  0  0  0
  147.8454  135.3064  152.8523 H   0  0  0  0  0  0  0  0  0  0  0  0
  147.1020  134.6974  155.5903 H   0  0  0  0  0  0  0  0  0  0  0  0
  148.7006  134.8467  154.8790 H   0  0  0  0  0  0  0  0  0  0  0  0
  147.0146  137.3092  154.6794 H   0  0  0  0  0  0  0  0  0  0  0  0
  147.4224  136.8502  156.3143 H   0  0  0  0  0  0  0  0  0  0  0  0
  150.1224  135.9449  156.4311 H   0  0  0  0  0  0  0  0  0  0  0  0
  152.3610  137.0146  156.0869 H   0  0  0  0  0  0  0  0  0  0  0  0
  152.5290  139.0060  154.5664 H   0  0  0  0  0  0  0  0  0  0  0  0
  150.4438  139.8416  153.4509 H   0  0  0  0  0  0  0  0  0  0  0  0
  146.3710  135.7735  153.3905 H   0  0  0  0  0  0  0  0  0  0  0  0
  147.4571  131.3136  151.2622 H   0  0  0  0  0  0  0  0  0  0  0  0
  1  2  1  0  0  0  0
  1 19  1  0  0  0  0
  1 20  1  0  0  0  0
  1 21  1  0  0  0  0
  2  9  1  0  0  0  0
  2  3  1  0  0  0  0
  2 22  1  0  0  0  0
  3  4  1  0  0  0  0
  3 23  1  0  0  0  0
  3 24  1  0  0  0  0
  4  5  1  0  0  0  0
  4  6  1  0  0  0  0
  4 45  1  0  0  0  0
  5 25  1  0  0  0  0
  5 26  1  0  0  0  0
  5 27  1  0  0  0  0
  6  7  1  0  0  0  0
  6  8  1  0  0  0  0
  6 28  1  0  0  0  0
  7 29  1  0  0  0  0
  7 30  1  0  0  0  0
  7 31  1  0  0  0  0
  8  9  1  0  0  0  0
  8 32  1  0  0  0  0
  8 33  1  0  0  0  0
  9 10  1  0  0  0  0
  9 34  1  0  0  0  0
 10 11  1  0  0  0  0
 10 35  1  0  0  0  0
 10 44  1  0  0  0  0
 11 12  1  0  0  0  0
 11 36  1  0  0  0  0
 11 37  1  0  0  0  0
 12 13  1  0  0  0  0
 12 38  1  0  0  0  0
 12 39  1  0  0  0  0
 13 18  1  0  0  0  0
 13 14  2  0  0  0  0
 14 15  1  0  0  0  0
 14 40  1  0  0  0  0
 15 16  2  0  0  0  0
 15 41  1  0  0  0  0
 16 17  1  0  0  0  0
 16 42  1  0  0  0  0
 17 18  2  0  0  0  0
 17 43  1  0  0  0  0
M  CHG  1   4   1
M  CHG  1  10   1
M  END
> <s_m_source_file>
AV-unprocessed.smi

> <i_m_source_file_index>
3303

> <i_lp_mmshare_version>
43012

> <i_f3d_flags>
0

> <s_epik_input>
W0NIM11bQ0BASF0xW0NIMl1OKFtDSDNdKVtDQEBIXShbQ0gzXSlbQ0gyXVtDQEhdMVtOSF1bQ0gyXVtDSDJdYzJbY0hdW2NIXVtjSF1bY0hdbjI=

> <s_epik_cmdline>
J2VwaWtfcHl0aG9uJywgJy1waCcsICc3LjAnLCAnLXRuJywgJzgnLCAnLW1hJywgJzIwMCcsICctbWV0YWxfYmluZGluZycsICctaW1hZScsICc8aW5maWxlLm1hZT4nLCAnLW9tYWUnLCAnPG91dGZpbGUubWFlPic=

> <r_epik_Ionization_Penalty>
0.0769462

> <r_epik_Ionization_Penalty_Charging>
0.0759813

> <r_epik_Ionization_Penalty_Neutral>
0.000964829

> <r_epik_State_Penalty>
0.0654373

> <r_epik_Charging_Adjusted_Penalty>
0.141419

> <i_epik_Tot_Q>
2

> <i_epik_Tot_abs_Q>
2

> <r_epik_Metal_State_Penalty>
0.0656439

> <b_epik_Metal_Only>
0

> <s_lp_Force_Field>
OPLS_2005

> <r_lp_Energy>
31.1482

> <b_lp_Chiralities_Consistent>
1

> <s_lp_Variant>
AV-unprocessed.smi:3303-15

> <Gold.Version>
5.8.1

> <Gold.Id.Protein>
6NUR|6NUR_protein|mol2

> <Gold.PLP.Fitness>
40.6922

> <Gold.PLP.PLP>
-29.6169

> <Gold.PLP.part.hbond>
-2.0000

> <Gold.PLP.part.metal>
0.0000

> <Gold.PLP.part.buried>
-3.9422

> <Gold.PLP.part.nonpolar>
-23.0170

> <Gold.PLP.part.repulsive>
0.2123

> <Gold.PLP.ligand.clash>
0.0000

> <Gold.PLP.ligand.torsion>
0.4308

> <Gold.PLP.Chemscore.Hbond>
3.0000

> <Gold.PLP.Chemscore.CHOScore>
0.9766

> <Gold.PLP.Chemscore.Metal>
0.0000

> <Gold.Chemscore.Hbonds>
donor molecule, donor type, donor heavy atom, donor atom, acceptor molecule, acceptor atom, score
      L1  H     4    45       P1 10747  1.00
      L1  H    10    35       P1  7948  2.00
      L1  C    17    43       P1  7957  0.98

> <Gold.PLP.Chemscore.Internal.Correction>
0.0069

> <Gold.Rescore>
     Score         DG    S(hbond)    S(metal)    S(lipo)     H(rot)  DE(clash)    DE(int)     intcor
     18.38     -18.92       1.99        0.00      88.22       1.37       0.06       0.48       ----

> <Gold.Chemscore.Fitness>
18.3785

> <Gold.Chemscore.DG>
-18.9215

> <Gold.Chemscore.ZeroCoef>
-5.4800

> <Gold.Chemscore.Hbond>
1.9875

> <Gold.Chemscore.Metal>
0.0000

> <Gold.Chemscore.Lipo>
88.2187

> <Gold.Chemscore.Internal_Hbond>
0.0000

> <Gold.Chemscore.DEClash>
0.0580

> <Gold.Chemscore.DEInternal>
0.4849

> <Gold.Chemscore.Rot>
1.3744

> <Gold.Chemscore.Internal.Correction>
   9.000000E+99

> <Gold.Chemscore.Hbonds>
donor molecule, donor type, donor heavy atom, donor atom, acceptor molecule, acceptor atom, score
      L1  H     4    45       P1 10747  0.98
      L1  H    10    35       P1  7948  1.00

> <Gold.Chemscore.Hbond.Weighted>
-6.6383

> <Gold.Chemscore.Metal.Weighted>
-0.0000

> <Gold.Chemscore.Lipo.Weighted>
-10.3216

> <Gold.Chemscore.Internal_Hbond.Weighted>
0.0000

> <Gold.Chemscore.DEClash.Weighted>
0.0580

> <Gold.Chemscore.DEInternal.Weighted>
0.4849

> <Gold.Chemscore.Rot.Weighted>
3.5185

> <Gold.Chemscore.Internal.Correction.Weighted>
   9.000000E+99

> <Gold.Protein.RotatedTorsions>
[ 6907 6896 6895 6894 ] final -166.01 input  -60.11 | X-H torsion
[ 7974 7965 7964 7962 ] final -166.63 input  175.53 | X-H torsion
[ 8008 7997 7996 7995 ] final -122.35 input   59.86 | X-H torsion
[ 10167 10162 10161 10158 ] final  114.08 input  -65.29 | X-H torsion
[ 10718 10713 10712 10709 ] final -101.79 input   66.30 | X-H torsion
[ 10763 10752 10751 10750 ] final  130.40 input  -60.55 | X-H torsion
[ 11005 11000 10999 10996 ] final  100.43 input  -57.11 | X-H torsion

> <Gold.Protein.ActiveResidues>
 VAL166  LYS551  ARG553  GLY616  TRP617  ASP618  TYR619  PRO620  LYS621  CYS622 
 ASP623  PHE694  ASN695  SER759  ASP760  ASP761  ALA762  ILE779  LEU786  VAL792 
 PHE793  MET794  SER795  GLU796  ALA797  LYS798  CYS799  TRP800  GLU811  SER814 

> <Gold.Protein.RotatedAtoms>
  151.4368  133.3654  159.2776 H   0  0  0  0  0  0  0  0  0  0  0  0  # atno 6907 bound_to 6896
  150.9186  134.8605  159.7484 H   0  0  0  0  0  0  0  0  0  0  0  0  # atno 6908 bound_to 6896
  152.4970  134.4304  159.9562 H   0  0  0  0  0  0  0  0  0  0  0  0  # atno 6909 bound_to 6896
  144.7241  140.2638  143.6261 H   0  0  0  0  0  0  0  0  0  0  0  0  # atno 7974 bound_to 7965
  155.1628  140.0406  157.2846 H   0  0  0  0  0  0  0  0  0  0  0  0  # atno 8008 bound_to 7997
  154.6324  140.2527  155.7391 H   0  0  0  0  0  0  0  0  0  0  0  0  # atno 8009 bound_to 7997
  156.2491  140.2872  156.0682 H   0  0  0  0  0  0  0  0  0  0  0  0  # atno 8010 bound_to 7997
  139.6414  144.7124  151.2229 H   0  0  0  0  0  0  0  0  0  0  0  0  # atno 10167 bound_to 10162
  156.0206  130.5390  150.7015 H   0  0  0  0  0  0  0  0  0  0  0  0  # atno 10718 bound_to 10713
  153.7575  135.3201  155.3331 H   0  0  0  0  0  0  0  0  0  0  0  0  # atno 10763 bound_to 10752
  154.8242  135.4582  154.0871 H   0  0  0  0  0  0  0  0  0  0  0  0  # atno 10764 bound_to 10752
  153.2092  135.6933  153.8218 H   0  0  0  0  0  0  0  0  0  0  0  0  # atno 10765 bound_to 10752
  139.8771  134.9140  156.4755 H   0  0  0  0  0  0  0  0  0  0  0  0  # atno 11005 bound_to 11000
  145.8109  139.2003  143.1993 LP  0  0  0  0  0  0  0  0  0  0  0  0  # atno 17320 bound_to 7965
  146.0596  140.7984  142.9741 LP  0  0  0  0  0  0  0  0  0  0  0  0  # atno 17321 bound_to 7965
  140.7493  143.6305  150.8428 LP  0  0  0  0  0  0  0  0  0  0  0  0  # atno 17342 bound_to 10162
  139.9943  143.5813  152.2899 LP  0  0  0  0  0  0  0  0  0  0  0  0  # atno 17343 bound_to 10162
  157.4674  131.0889  151.0680 LP  0  0  0  0  0  0  0  0  0  0  0  0  # atno 17370 bound_to 10713
  157.1150  130.6038  149.5491 LP  0  0  0  0  0  0  0  0  0  0  0  0  # atno 17371 bound_to 10713
  140.8765  133.7950  155.9420 LP  0  0  0  0  0  0  0  0  0  0  0  0  # atno 17394 bound_to 11000
  140.8899  134.2508  157.5100 LP  0  0  0  0  0  0  0  0  0  0  0  0  # atno 17395 bound_to 11000

$$$$
