AV-unprocessed.smi:2278|AV-procd|sdf|9179|dock10
  -GOLD-   2272012393D 1   1.00000     0.00000
 Structure written by MMmdl.
 46 47  0  0  0  0  0  0  0  0  2 V2000
  151.2746  141.1680  157.1136 C   0  0  0  0  0  0  0  0  0  0  0  0
  150.0656  140.9340  156.2255 C   0  0  0  0  0  0  0  0  0  0  0  0
  150.3220  140.2851  155.0143 N   0  0  0  0  0  0  0  0  0  0  0  0
  149.3513  140.0382  154.1972 C   0  0  0  0  0  0  0  0  0  0  0  0
  148.0263  140.4020  154.4913 N   0  0  0  0  0  0  0  0  0  0  0  0
  147.0169  140.0440  153.4785 C   0  0  0  0  0  0  0  0  0  0  0  0
  147.2132  138.6171  152.9174 C   0  0  2  0  0  0  0  0  0  0  0  0
  147.3311  138.7213  151.5127 O   0  0  0  0  0  0  0  0  0  0  0  0
  146.0447  137.6593  153.2383 C   0  0  0  0  0  0  0  0  0  0  0  0
  146.1772  136.3460  152.5581 N   0  3  2  0  0  0  0  0  0  0  0  0
  145.2390  136.2087  151.4145 C   0  0  0  0  0  0  0  0  0  0  0  0
  145.4909  134.9029  150.6423 C   0  0  0  0  0  0  0  0  0  0  0  0
  145.3896  133.6780  151.5665 C   0  0  1  0  0  0  0  0  0  0  0  0
  145.6716  132.3713  150.8117 C   0  0  0  0  0  0  0  0  0  0  0  0
  146.3424  133.8637  152.7593 C   0  0  0  0  0  0  0  0  0  0  0  0
  146.0732  135.1904  153.4887 C   0  0  0  0  0  0  0  0  0  0  0  0
  147.6914  141.0486  155.6459 C   0  0  0  0  0  0  0  0  0  0  0  0
  146.5270  141.3656  155.8960 O   0  0  0  0  0  0  0  0  0  0  0  0
  148.8062  141.3200  156.5678 C   0  0  0  0  0  0  0  0  0  0  0  0
  148.4661  142.0239  157.8757 C   0  0  0  0  0  0  0  0  0  0  0  0
  151.4068  142.2327  157.3075 H   0  0  0  0  0  0  0  0  0  0  0  0
  152.1886  140.7986  156.6465 H   0  0  0  0  0  0  0  0  0  0  0  0
  151.1539  140.6519  158.0664 H   0  0  0  0  0  0  0  0  0  0  0  0
  149.4971  139.5333  153.2405 H   0  0  0  0  0  0  0  0  0  0  0  0
  146.0044  140.1510  153.8719 H   0  0  0  0  0  0  0  0  0  0  0  0
  147.0632  140.7657  152.6600 H   0  0  0  0  0  0  0  0  0  0  0  0
  148.1536  138.2173  153.2948 H   0  0  0  0  0  0  0  0  0  0  0  0
  147.1122  139.6040  151.2544 H   0  0  0  0  0  0  0  0  0  0  0  0
  145.9627  137.4825  154.3105 H   0  0  0  0  0  0  0  0  0  0  0  0
  145.1131  138.1425  152.9389 H   0  0  0  0  0  0  0  0  0  0  0  0
  144.2109  136.2401  151.7792 H   0  0  0  0  0  0  0  0  0  0  0  0
  145.3606  137.0527  150.7342 H   0  0  0  0  0  0  0  0  0  0  0  0
  144.7724  134.8158  149.8263 H   0  0  0  0  0  0  0  0  0  0  0  0
  146.4790  134.9384  150.1806 H   0  0  0  0  0  0  0  0  0  0  0  0
  144.3698  133.6254  151.9510 H   0  0  0  0  0  0  0  0  0  0  0  0
  146.6800  132.3615  150.3969 H   0  0  0  0  0  0  0  0  0  0  0  0
  144.9714  132.2359  149.9869 H   0  0  0  0  0  0  0  0  0  0  0  0
  145.5744  131.5081  151.4705 H   0  0  0  0  0  0  0  0  0  0  0  0
  146.2313  133.0336  153.4580 H   0  0  0  0  0  0  0  0  0  0  0  0
  147.3776  133.8412  152.4155 H   0  0  0  0  0  0  0  0  0  0  0  0
  146.7857  135.2935  154.3062 H   0  0  0  0  0  0  0  0  0  0  0  0
  145.0795  135.1734  153.9396 H   0  0  0  0  0  0  0  0  0  0  0  0
  147.7512  141.4306  158.4465 H   0  0  0  0  0  0  0  0  0  0  0  0
  148.0150  142.9957  157.6737 H   0  0  0  0  0  0  0  0  0  0  0  0
  149.3332  142.1915  158.5121 H   0  0  0  0  0  0  0  0  0  0  0  0
  147.1067  136.3282  152.1623 H   0  0  0  0  0  0  0  0  0  0  0  0
  1  2  1  0  0  0  0
  1 21  1  0  0  0  0
  1 22  1  0  0  0  0
  1 23  1  0  0  0  0
  2 19  2  0  0  0  0
  2  3  1  0  0  0  0
  3  4  2  0  0  0  0
  4  5  1  0  0  0  0
  4 24  1  0  0  0  0
  5  6  1  0  0  0  0
  5 17  1  0  0  0  0
  6  7  1  0  0  0  0
  6 25  1  0  0  0  0
  6 26  1  0  0  0  0
  7  8  1  0  0  0  0
  7  9  1  0  0  0  0
  7 27  1  0  0  0  0
  8 28  1  0  0  0  0
  9 10  1  0  0  0  0
  9 29  1  0  0  0  0
  9 30  1  0  0  0  0
 10 16  1  0  0  0  0
 10 11  1  0  0  0  0
 10 46  1  0  0  0  0
 11 12  1  0  0  0  0
 11 31  1  0  0  0  0
 11 32  1  0  0  0  0
 12 13  1  0  0  0  0
 12 33  1  0  0  0  0
 12 34  1  0  0  0  0
 13 14  1  0  0  0  0
 13 15  1  0  0  0  0
 13 35  1  0  0  0  0
 14 36  1  0  0  0  0
 14 37  1  0  0  0  0
 14 38  1  0  0  0  0
 15 16  1  0  0  0  0
 15 39  1  0  0  0  0
 15 40  1  0  0  0  0
 16 41  1  0  0  0  0
 16 42  1  0  0  0  0
 17 18  2  0  0  0  0
 17 19  1  0  0  0  0
 19 20  1  0  0  0  0
 20 43  1  0  0  0  0
 20 44  1  0  0  0  0
 20 45  1  0  0  0  0
M  CHG  1  10   1
M  END
> <s_m_source_file>
AV-unprocessed.smi

> <i_m_source_file_index>
2278

> <i_lp_mmshare_version>
43012

> <i_f3d_flags>
0

> <s_epik_input>
W0NIM11jMW5bY0hdbihjKD1PKWMxW0NIM10pW0NIMl1bQ0BIXShbT0hdKVtDSDJdTjJbQ0gyXVtDSDJdW0NIXShbQ0gzXSlbQ0gyXVtDSDJdMg==

> <s_epik_cmdline>
J2VwaWtfcHl0aG9uJywgJy1waCcsICc3LjAnLCAnLXRuJywgJzgnLCAnLW1hJywgJzIwMCcsICctbWV0YWxfYmluZGluZycsICctaW1hZScsICc8aW5maWxlLm1hZT4nLCAnLW9tYWUnLCAnPG91dGZpbGUubWFlPic=

> <r_lp_tautomer_probability>
1

> <r_epik_Ionization_Penalty>
0.00139489

> <r_epik_Ionization_Penalty_Charging>
0.00136819

> <r_epik_Ionization_Penalty_Neutral>
2.66975e-05

> <r_epik_State_Penalty>
0.000910892

> <r_epik_Charging_Adjusted_Penalty>
0.00227908

> <i_epik_Tot_Q>
1

> <i_epik_Tot_abs_Q>
1

> <r_epik_Metal_State_Penalty>
-0

> <b_epik_Metal_Only>
0

> <s_lp_Force_Field>
OPLS_2005

> <r_lp_Energy>
28.1947

> <b_lp_Chiralities_Consistent>
1

> <s_lp_Variant>
AV-unprocessed.smi:2278-1

> <Gold.Version>
5.8.1

> <Gold.Id.Protein>
6NUR|6NUR_protein|mol2

> <Gold.PLP.Fitness>
43.5643

> <Gold.PLP.PLP>
-32.1727

> <Gold.PLP.part.hbond>
-5.0000

> <Gold.PLP.part.metal>
0.0000

> <Gold.PLP.part.buried>
-2.8087

> <Gold.PLP.part.nonpolar>
-25.6944

> <Gold.PLP.part.repulsive>
0.1748

> <Gold.PLP.ligand.clash>
0.0000

> <Gold.PLP.ligand.torsion>
1.6725

> <Gold.PLP.Chemscore.Hbond>
3.9000

> <Gold.PLP.Chemscore.CHOScore>
1.0000

> <Gold.PLP.Chemscore.Metal>
0.0000

> <Gold.Chemscore.Hbonds>
donor molecule, donor type, donor heavy atom, donor atom, acceptor molecule, acceptor atom, score
      L1  H    10    46       P1  7948  2.00
      P1  H  7954  7966       L1     8  0.99
      P1  H  7989  7998       L1     3  0.60
      L1  C     4    24       P1  7957  1.00

> <Gold.PLP.Chemscore.Internal.Correction>
0.0365

> <Gold.Rescore>
     Score         DG    S(hbond)    S(metal)    S(lipo)     H(rot)  DE(clash)    DE(int)     intcor
     12.92     -16.31       2.36        0.00      73.41       2.20       1.86       1.53       ----

> <Gold.Chemscore.Fitness>
12.9167

> <Gold.Chemscore.DG>
-16.3095

> <Gold.Chemscore.ZeroCoef>
-5.4800

> <Gold.Chemscore.Hbond>
2.3559

> <Gold.Chemscore.Metal>
0.0000

> <Gold.Chemscore.Lipo>
73.4123

> <Gold.Chemscore.Internal_Hbond>
0.0000

> <Gold.Chemscore.DEClash>
1.8608

> <Gold.Chemscore.DEInternal>
1.5320

> <Gold.Chemscore.Rot>
2.1986

> <Gold.Chemscore.Internal.Correction>
   9.000000E+99

> <Gold.Chemscore.Hbonds>
donor molecule, donor type, donor heavy atom, donor atom, acceptor molecule, acceptor atom, score
      L1  H    10    46       P1  7948  1.00
      P1  H  7954  7966       L1     8  0.45
      P1  H  7989  7998       L1     3  0.06

> <Gold.Chemscore.Hbond.Weighted>
-7.8687

> <Gold.Chemscore.Metal.Weighted>
-0.0000

> <Gold.Chemscore.Lipo.Weighted>
-8.5892

> <Gold.Chemscore.Internal_Hbond.Weighted>
0.0000

> <Gold.Chemscore.DEClash.Weighted>
1.8608

> <Gold.Chemscore.DEInternal.Weighted>
1.5320

> <Gold.Chemscore.Rot.Weighted>
5.6285

> <Gold.Chemscore.Internal.Correction.Weighted>
   9.000000E+99

> <Gold.Protein.RotatedTorsions>
[ 6907 6896 6895 6894 ] final  -45.77 input  -60.11 | X-H torsion
[ 7974 7965 7964 7962 ] final  -19.34 input  175.53 | X-H torsion
[ 8008 7997 7996 7995 ] final -142.29 input   59.86 | X-H torsion
[ 10167 10162 10161 10158 ] final -133.12 input  -65.29 | X-H torsion
[ 10718 10713 10712 10709 ] final  140.77 input   66.30 | X-H torsion
[ 10763 10752 10751 10750 ] final -148.12 input  -60.55 | X-H torsion
[ 11005 11000 10999 10996 ] final -160.67 input  -57.11 | X-H torsion

> <Gold.Protein.ActiveResidues>
 VAL166  LYS551  ARG553  GLY616  TRP617  ASP618  TYR619  PRO620  LYS621  CYS622 
 ASP623  PHE694  ASN695  SER759  ASP760  ASP761  ALA762  ILE779  LEU786  VAL792 
 PHE793  MET794  SER795  GLU796  ALA797  LYS798  CYS799  TRP800  GLU811  SER814 

> <Gold.Protein.RotatedAtoms>
  150.9183  134.8601  159.7471 H   0  0  0  0  0  0  0  0  0  0  0  0  # atno 6907 bound_to 6896
  152.4980  134.4256  159.9505 H   0  0  0  0  0  0  0  0  0  0  0  0  # atno 6908 bound_to 6896
  151.4292  133.3636  159.2801 H   0  0  0  0  0  0  0  0  0  0  0  0  # atno 6909 bound_to 6896
  146.1846  140.4049  142.8481 H   0  0  0  0  0  0  0  0  0  0  0  0  # atno 7974 bound_to 7965
  155.4919  140.0568  157.2952 H   0  0  0  0  0  0  0  0  0  0  0  0  # atno 8008 bound_to 7997
  154.4620  140.2001  156.0170 H   0  0  0  0  0  0  0  0  0  0  0  0  # atno 8009 bound_to 7997
  156.0907  140.3234  155.7816 H   0  0  0  0  0  0  0  0  0  0  0  0  # atno 8010 bound_to 7997
  139.9015  143.6602  152.2594 H   0  0  0  0  0  0  0  0  0  0  0  0  # atno 10167 bound_to 10162
  157.3995  131.1015  151.0565 H   0  0  0  0  0  0  0  0  0  0  0  0  # atno 10718 bound_to 10713
  154.8250  135.3342  154.6925 H   0  0  0  0  0  0  0  0  0  0  0  0  # atno 10763 bound_to 10752
  153.7552  135.6936  153.4941 H   0  0  0  0  0  0  0  0  0  0  0  0  # atno 10764 bound_to 10752
  153.2148  135.4469  155.0372 H   0  0  0  0  0  0  0  0  0  0  0  0  # atno 10765 bound_to 10752
  140.6289  134.4672  157.5228 H   0  0  0  0  0  0  0  0  0  0  0  0  # atno 11005 bound_to 11000
  144.8374  140.6804  143.6251 LP  0  0  0  0  0  0  0  0  0  0  0  0  # atno 17320 bound_to 7965
  145.3976  139.1604  143.4195 LP  0  0  0  0  0  0  0  0  0  0  0  0  # atno 17321 bound_to 7965
  139.7021  144.7633  151.1255 LP  0  0  0  0  0  0  0  0  0  0  0  0  # atno 17342 bound_to 10162
  140.7706  143.5444  150.9276 LP  0  0  0  0  0  0  0  0  0  0  0  0  # atno 17343 bound_to 10162
  157.1569  130.6209  149.5599 LP  0  0  0  0  0  0  0  0  0  0  0  0  # atno 17370 bound_to 10713
  155.9819  130.4830  150.6855 LP  0  0  0  0  0  0  0  0  0  0  0  0  # atno 17371 bound_to 10713
  139.9124  134.8317  156.1483 LP  0  0  0  0  0  0  0  0  0  0  0  0  # atno 17394 bound_to 11000
  141.0689  133.6806  156.2101 LP  0  0  0  0  0  0  0  0  0  0  0  0  # atno 17395 bound_to 11000

$$$$
