#       Name:                AV-unprocessed.smi:2763
#       Creating user name   scv26
#       Creation time:       Fri Mar 27 15:08:51 2020


#       File generated by GOLD software.
#

@<TRIPOS>MOLECULE
AV-unprocessed.smi:2763
    42    43     1
SMALL
NO_CHARGES


@<TRIPOS>ATOM
      1 ****        -1.1223   1.7553   0.7757 O.2            1 S1                 0.0000
      2 ****        -1.6275   0.6401   0.9087 C.2            1 S1                 0.0000
      3 ****        -0.9108  -0.4878   1.0187 N.am           1 S1                 0.0000
      4 ****         0.5453  -0.5605   1.0012 C.3            1 S1                 0.0000
      5 ****         1.0933  -0.5633  -0.4360 C.3            1 S1                 0.0000
      6 ****         2.6259  -0.6653  -0.4879 C.3            1 S1                 0.0000
      7 ****         3.1643  -0.5390  -1.9265 C.3            1 S1                 0.0000
      8 ****         4.6864  -0.7204  -1.9501 C.3            1 S1                 0.0000
      9 ****         5.0613  -2.0320  -1.2521 C.3            1 S1                 0.0000
     10 ****         4.4269  -2.0915   0.1465 C.3            1 S1                 0.0000
     11 ****         3.0154  -1.9302   0.0452 O.3            1 S1                 0.0000
     12 ****        -2.9466   0.3837   0.9592 N.am           1 S1                 0.0000
     13 ****        -4.0245   1.3068   0.9049 C.ar           1 S1                 0.0000
     14 ****        -5.3117   0.7265   0.9720 C.ar           1 S1                 0.0000
     15 ****        -6.4492   1.5559   0.9294 C.ar           1 S1                 0.0000
     16 ****        -6.2679   2.9461   0.8215 C.ar           1 S1                 0.0000
     17 ****        -7.3312   3.7834   0.7778 F              1 S1                 0.0000
     18 ****        -4.9533   3.4441   0.7605 C.ar           1 S1                 0.0000
     19 ****        -3.8622   2.6500   0.8010 N.ar           1 S1                 0.0000
     20 ****        -1.4072  -1.3605   1.1231 H              1 S1                 0.0000
     21 ****         0.9711   0.2662   1.5724 H              1 S1                 0.0000
     22 ****         0.8397  -1.4755   1.5157 H              1 S1                 0.0000
     23 ****         0.6520  -1.3872  -0.9986 H              1 S1                 0.0000
     24 ****         0.7818   0.3531  -0.9393 H              1 S1                 0.0000
     25 ****         3.0508   0.1300   0.1275 H              1 S1                 0.0000
     26 ****         2.6974  -1.2922  -2.5627 H              1 S1                 0.0000
     27 ****         2.9000   0.4320  -2.3462 H              1 S1                 0.0000
     28 ****         5.0554  -0.7143  -2.9760 H              1 S1                 0.0000
     29 ****         5.1636   0.1171  -1.4396 H              1 S1                 0.0000
     30 ****         4.7110  -2.8769  -1.8464 H              1 S1                 0.0000
     31 ****         6.1451  -2.1266  -1.1804 H              1 S1                 0.0000
     32 ****         4.6389  -3.0532   0.6141 H              1 S1                 0.0000
     33 ****         4.8454  -1.3227   0.7980 H              1 S1                 0.0000
     34 ****        -3.2106  -0.5855   1.0568 H              1 S1                 0.0000
     35 ****        -5.4313  -0.3441   1.0554 H              1 S1                 0.0000
     36 ****        -7.4415   1.1322   0.9791 H              1 S1                 0.0000
     37 ****        -4.7715   4.5055   0.6776 H              1 S1                 0.0000
     38 ****        -0.1276   1.8532   0.7450 LP             1 S1                 0.0000
     39 ****        -1.7068   2.5630   0.6983 LP             1 S1                 0.0000
     40 ****         2.6561  -2.6491  -0.5499 LP             1 S1                 0.0000
     41 ****         2.6192  -2.0247   0.9585 LP             1 S1                 0.0000
     42 ****        -2.9455   3.0469   0.7550 LP             1 S1                 0.0000
@<TRIPOS>BOND
    1    1    2 2     
    2    2    3 am    
    3    2   12 am    
    4    3    4 1     
    5    3   20 1     
    6    4    5 1     
    7    4   21 1     
    8    4   22 1     
    9    5    6 1     
   10    5   23 1     
   11    5   24 1     
   12    6   11 1     
   13    6    7 1     
   14    6   25 1     
   15    7    8 1     
   16    7   26 1     
   17    7   27 1     
   18    8    9 1     
   19    8   28 1     
   20    8   29 1     
   21    9   10 1     
   22    9   30 1     
   23    9   31 1     
   24   10   11 1     
   25   10   32 1     
   26   10   33 1     
   27   12   13 1     
   28   12   34 1     
   29   13   19 ar    
   30   13   14 ar    
   31   14   15 ar    
   32   14   35 1     
   33   15   16 ar    
   34   15   36 1     
   35   16   17 1     
   36   16   18 ar    
   37   18   19 ar    
   38   18   37 1     
   39    1   38 1     
   40    1   39 1     
   41   11   40 1     
   42   11   41 1     
   43   19   42 1     
@<TRIPOS>SUBSTRUCTURE
      1 S1             1
@<TRIPOS>SET
LONE_PAIRS      STATIC     ATOMS    <user>   **** ""
5 38 39 40 41 42
DONOR_HYDROGENS      STATIC     ATOMS    <user>   **** ""
2 20 34
ATOM$BLUE        STATIC     ATOMS    COLORGROUP SYSTEM
5 38 39 40 41 42
ATOM$RED        STATIC     ATOMS    COLORGROUP SYSTEM
2 20 34
