AV-unprocessed.smi:1057|AV-procd|sdf|4651|dock4
  -GOLD-   22720 3163D 1   1.00000     0.00000
 Structure written by MMmdl.
 45 46  0  0  0  0  0  0  0  0  2 V2000
  144.9697  133.1490  162.5036 C   0  0  0  0  0  0  0  0  0  0  0  0
  145.8038  134.0302  162.3665 C   0  0  0  0  0  0  0  0  0  0  0  0
  146.7997  135.1004  162.2084 C   0  0  0  0  0  0  0  0  0  0  0  0
  147.2295  135.2412  160.8253 N   0  0  0  0  0  0  0  0  0  0  0  0
  148.1292  136.1395  160.4007 C   0  0  0  0  0  0  0  0  0  0  0  0
  148.6908  136.9373  161.1534 O   0  0  0  0  0  0  0  0  0  0  0  0
  148.4509  136.1103  158.9016 C   0  0  0  0  0  0  0  0  0  0  0  0
  148.4537  137.4396  158.2950 N   0  0  0  0  0  0  0  0  0  0  0  0
  149.3742  138.3882  158.5201 C   0  0  0  0  0  0  0  0  0  0  0  0
  150.3167  138.2516  159.3000 O   0  0  0  0  0  0  0  0  0  0  0  0
  149.1431  139.4793  157.7716 N   0  0  0  0  0  0  0  0  0  0  0  0
  149.9016  140.6827  157.7189 C   0  0  0  0  0  0  0  0  0  0  0  0
  150.9797  140.9458  158.6020 C   0  0  0  0  0  0  0  0  0  0  0  0
  151.6731  142.1694  158.5115 C   0  0  0  0  0  0  0  0  0  0  0  0
  151.2743  143.1140  157.5475 C   0  0  0  0  0  0  0  0  0  0  0  0
  150.2353  142.8395  156.7308 N   0  3  0  0  0  0  0  0  0  0  0  0
  149.5377  141.6783  156.7773 C   0  0  0  0  0  0  0  0  0  0  0  0
  148.4725  141.4977  155.8806 N   0  0  0  0  0  0  0  0  0  0  0  0
  147.2935  142.2924  156.2133 C   0  0  0  0  0  0  0  0  0  0  0  0
  146.0933  141.8734  155.3469 C   0  0  0  0  0  0  0  0  0  0  0  0
  146.4454  141.9369  153.8516 C   0  0  0  0  0  0  0  0  0  0  0  0
  147.7102  141.1107  153.5662 C   0  0  0  0  0  0  0  0  0  0  0  0
  148.8702  141.5500  154.4761 C   0  0  0  0  0  0  0  0  0  0  0  0
  144.2394  132.3810  162.6272 H   0  0  0  0  0  0  0  0  0  0  0  0
  146.3582  136.0321  162.5648 H   0  0  0  0  0  0  0  0  0  0  0  0
  147.6545  134.8690  162.8452 H   0  0  0  0  0  0  0  0  0  0  0  0
  146.8152  134.6173  160.1478 H   0  0  0  0  0  0  0  0  0  0  0  0
  149.4397  135.6711  158.7682 H   0  0  0  0  0  0  0  0  0  0  0  0
  147.7465  135.4583  158.3819 H   0  0  0  0  0  0  0  0  0  0  0  0
  147.7187  137.6338  157.6308 H   0  0  0  0  0  0  0  0  0  0  0  0
  148.3924  139.4071  157.1003 H   0  0  0  0  0  0  0  0  0  0  0  0
  151.2772  140.2349  159.3579 H   0  0  0  0  0  0  0  0  0  0  0  0
  152.4965  142.3819  159.1778 H   0  0  0  0  0  0  0  0  0  0  0  0
  151.7467  144.0759  157.4102 H   0  0  0  0  0  0  0  0  0  0  0  0
  147.0500  142.1687  157.2695 H   0  0  0  0  0  0  0  0  0  0  0  0
  147.5123  143.3496  156.0568 H   0  0  0  0  0  0  0  0  0  0  0  0
  145.7925  140.8576  155.6074 H   0  0  0  0  0  0  0  0  0  0  0  0
  145.2369  142.5139  155.5582 H   0  0  0  0  0  0  0  0  0  0  0  0
  145.6121  141.5702  153.2515 H   0  0  0  0  0  0  0  0  0  0  0  0
  146.6106  142.9740  153.5569 H   0  0  0  0  0  0  0  0  0  0  0  0
  147.4991  140.0528  153.7290 H   0  0  0  0  0  0  0  0  0  0  0  0
  147.9965  141.2123  152.5191 H   0  0  0  0  0  0  0  0  0  0  0  0
  149.1758  142.5656  154.2207 H   0  0  0  0  0  0  0  0  0  0  0  0
  149.7345  140.9047  154.3137 H   0  0  0  0  0  0  0  0  0  0  0  0
  149.9621  143.5427  156.0440 H   0  0  0  0  0  0  0  0  0  0  0  0
  1  2  3  0  0  0  0
  1 24  1  0  0  0  0
  2  3  1  0  0  0  0
  3  4  1  0  0  0  0
  3 25  1  0  0  0  0
  3 26  1  0  0  0  0
  4  5  1  0  0  0  0
  4 27  1  0  0  0  0
  5  6  2  0  0  0  0
  5  7  1  0  0  0  0
  7  8  1  0  0  0  0
  7 28  1  0  0  0  0
  7 29  1  0  0  0  0
  8  9  1  0  0  0  0
  8 30  1  0  0  0  0
  9 10  2  0  0  0  0
  9 11  1  0  0  0  0
 11 12  1  0  0  0  0
 11 31  1  0  0  0  0
 12 17  1  0  0  0  0
 12 13  2  0  0  0  0
 13 14  1  0  0  0  0
 13 32  1  0  0  0  0
 14 15  2  0  0  0  0
 14 33  1  0  0  0  0
 15 16  1  0  0  0  0
 15 34  1  0  0  0  0
 16 17  2  0  0  0  0
 16 45  1  0  0  0  0
 17 18  1  0  0  0  0
 18 23  1  0  0  0  0
 18 19  1  0  0  0  0
 19 20  1  0  0  0  0
 19 35  1  0  0  0  0
 19 36  1  0  0  0  0
 20 21  1  0  0  0  0
 20 37  1  0  0  0  0
 20 38  1  0  0  0  0
 21 22  1  0  0  0  0
 21 39  1  0  0  0  0
 21 40  1  0  0  0  0
 22 23  1  0  0  0  0
 22 41  1  0  0  0  0
 22 42  1  0  0  0  0
 23 43  1  0  0  0  0
 23 44  1  0  0  0  0
M  CHG  1  16   1
M  END
> <s_m_source_file>
AV-unprocessed.smi

> <i_m_source_file_index>
1057

> <i_lp_mmshare_version>
43012

> <i_f3d_flags>
0

> <s_epik_input>
W0NIXSNDW0NIMl1bTkhdQyg9TylbQ0gyXVtOSF1DKD1PKVtOSF1jMVtjSF1bY0hdW2NIXW5jMU4yW0NIMl1bQ0gyXVtDSDJdW0NIMl1bQ0gyXTI=

> <s_epik_cmdline>
J2VwaWtfcHl0aG9uJywgJy1waCcsICc3LjAnLCAnLXRuJywgJzgnLCAnLW1hJywgJzIwMCcsICctbWV0YWxfYmluZGluZycsICctaW1hZScsICc8aW5maWxlLm1hZT4nLCAnLW9tYWUnLCAnPG91dGZpbGUubWFlPic=

> <r_lp_tautomer_probability>
0.999994

> <r_epik_Ionization_Penalty>
0.641093

> <r_epik_Ionization_Penalty_Charging>
0.641074

> <r_epik_Ionization_Penalty_Neutral>
1.89753e-05

> <r_epik_State_Penalty>
0.658761

> <r_epik_Charging_Adjusted_Penalty>
1.29984

> <i_epik_Tot_Q>
1

> <i_epik_Tot_abs_Q>
1

> <r_epik_Metal_State_Penalty>
0.833895

> <b_epik_Metal_Only>
0

> <s_lp_Force_Field>
OPLS_2005

> <r_lp_Energy>
23.0781

> <b_lp_Chiralities_Consistent>
1

> <s_lp_Variant>
AV-unprocessed.smi:1057-2

> <Gold.Version>
5.8.1

> <Gold.Id.Protein>
6NUR|6NUR_protein|mol2

> <Gold.PLP.Fitness>
45.3106

> <Gold.PLP.PLP>
-36.8236

> <Gold.PLP.part.hbond>
-2.8886

> <Gold.PLP.part.metal>
0.0000

> <Gold.PLP.part.buried>
-3.6226

> <Gold.PLP.part.nonpolar>
-31.5983

> <Gold.PLP.part.repulsive>
0.4602

> <Gold.PLP.ligand.clash>
0.0000

> <Gold.PLP.ligand.torsion>
0.3605

> <Gold.PLP.Chemscore.Hbond>
3.0000

> <Gold.PLP.Chemscore.CHOScore>
0.0000

> <Gold.PLP.Chemscore.Metal>
0.0000

> <Gold.Chemscore.Hbonds>
donor molecule, donor type, donor heavy atom, donor atom, acceptor molecule, acceptor atom, score
      L1  H    16    45       P1  8028  1.86
      P1  H  6931  6943       L1     6  1.00

> <Gold.PLP.Chemscore.Internal.Correction>
0.2081

> <Gold.Rescore>
     Score         DG    S(hbond)    S(metal)    S(lipo)     H(rot)  DE(clash)    DE(int)     intcor
     14.69     -16.52       1.98        0.00      77.56       1.82       0.17       1.66       ----

> <Gold.Chemscore.Fitness>
14.6895

> <Gold.Chemscore.DG>
-16.5185

> <Gold.Chemscore.ZeroCoef>
-5.4800

> <Gold.Chemscore.Hbond>
1.9799

> <Gold.Chemscore.Metal>
0.0000

> <Gold.Chemscore.Lipo>
77.5577

> <Gold.Chemscore.Internal_Hbond>
0.0000

> <Gold.Chemscore.DEClash>
0.1739

> <Gold.Chemscore.DEInternal>
1.6551

> <Gold.Chemscore.Rot>
1.8159

> <Gold.Chemscore.Internal.Correction>
   9.000000E+99

> <Gold.Chemscore.Hbonds>
donor molecule, donor type, donor heavy atom, donor atom, acceptor molecule, acceptor atom, score
      L1  H    16    45       P1  8028  0.89
      P1  H  6931  6943       L1     6  0.93

> <Gold.Chemscore.Hbond.Weighted>
-6.6129

> <Gold.Chemscore.Metal.Weighted>
-0.0000

> <Gold.Chemscore.Lipo.Weighted>
-9.0743

> <Gold.Chemscore.Internal_Hbond.Weighted>
0.0000

> <Gold.Chemscore.DEClash.Weighted>
0.1739

> <Gold.Chemscore.DEInternal.Weighted>
1.6551

> <Gold.Chemscore.Rot.Weighted>
4.6486

> <Gold.Chemscore.Internal.Correction.Weighted>
   9.000000E+99

> <Gold.Protein.RotatedTorsions>
[ 6907 6896 6895 6894 ] final   -1.79 input  -60.11 | X-H torsion
[ 7974 7965 7964 7962 ] final   93.32 input  175.53 | X-H torsion
[ 8008 7997 7996 7995 ] final  146.12 input   59.86 | X-H torsion
[ 10167 10162 10161 10158 ] final   56.27 input  -65.29 | X-H torsion
[ 10718 10713 10712 10709 ] final  -31.66 input   66.30 | X-H torsion
[ 10763 10752 10751 10750 ] final  -48.82 input  -60.55 | X-H torsion
[ 11005 11000 10999 10996 ] final -176.39 input  -57.11 | X-H torsion

> <Gold.Protein.ActiveResidues>
 VAL166  LYS551  ARG553  GLY616  TRP617  ASP618  TYR619  PRO620  LYS621  CYS622 
 ASP623  PHE694  ASN695  SER759  ASP760  ASP761  ALA762  ILE779  LEU786  VAL792 
 PHE793  MET794  SER795  GLU796  ALA797  LYS798  CYS799  TRP800  GLU811  SER814 

> <Gold.Protein.RotatedAtoms>
  151.5403  135.1068  159.9924 H   0  0  0  0  0  0  0  0  0  0  0  0  # atno 6907 bound_to 6896
  152.4538  133.7678  159.6793 H   0  0  0  0  0  0  0  0  0  0  0  0  # atno 6908 bound_to 6896
  150.8475  133.7772  159.3062 H   0  0  0  0  0  0  0  0  0  0  0  0  # atno 6909 bound_to 6896
  145.4805  139.2278  143.2885 H   0  0  0  0  0  0  0  0  0  0  0  0  # atno 7974 bound_to 7965
  156.2864  140.2191  156.5325 H   0  0  0  0  0  0  0  0  0  0  0  0  # atno 8008 bound_to 7997
  154.7437  140.0486  157.0855 H   0  0  0  0  0  0  0  0  0  0  0  0  # atno 8009 bound_to 7997
  155.0198  140.3123  155.4801 H   0  0  0  0  0  0  0  0  0  0  0  0  # atno 8010 bound_to 7997
  140.2105  144.3894  150.6491 H   0  0  0  0  0  0  0  0  0  0  0  0  # atno 10167 bound_to 10162
  156.3845  130.4362  149.7443 H   0  0  0  0  0  0  0  0  0  0  0  0  # atno 10718 bound_to 10713
  154.0840  135.6587  153.4842 H   0  0  0  0  0  0  0  0  0  0  0  0  # atno 10763 bound_to 10752
  153.0345  135.5187  154.7445 H   0  0  0  0  0  0  0  0  0  0  0  0  # atno 10764 bound_to 10752
  154.6549  135.3006  154.9908 H   0  0  0  0  0  0  0  0  0  0  0  0  # atno 10765 bound_to 10752
  140.4526  134.6329  157.4808 H   0  0  0  0  0  0  0  0  0  0  0  0  # atno 11005 bound_to 11000
  146.2343  140.5591  142.8961 LP  0  0  0  0  0  0  0  0  0  0  0  0  # atno 17320 bound_to 7965
  144.7891  140.5997  143.6553 LP  0  0  0  0  0  0  0  0  0  0  0  0  # atno 17321 bound_to 7965
  140.6327  143.2190  151.6461 LP  0  0  0  0  0  0  0  0  0  0  0  0  # atno 17342 bound_to 10162
  139.5182  144.3292  152.0841 LP  0  0  0  0  0  0  0  0  0  0  0  0  # atno 17343 bound_to 10162
  156.4520  130.7911  151.2932 LP  0  0  0  0  0  0  0  0  0  0  0  0  # atno 17370 bound_to 10713
  157.7495  131.0092  150.3259 LP  0  0  0  0  0  0  0  0  0  0  0  0  # atno 17371 bound_to 10713
  139.9997  134.6856  155.9551 LP  0  0  0  0  0  0  0  0  0  0  0  0  # atno 17394 bound_to 11000
  141.1657  133.6537  156.4472 LP  0  0  0  0  0  0  0  0  0  0  0  0  # atno 17395 bound_to 11000

$$$$
