AV-unprocessed.smi:1692|AV-procd|sdf|6780|dock5
  -GOLD-   22720 7543D 1   1.00000     0.00000
 Structure written by MMmdl.
 46 47  0  0  0  0  0  0  0  0  2 V2000
  152.6585  138.1047  155.6061 C   0  0  0  0  0  0  0  0  0  0  0  0
  151.3246  138.8578  155.5565 C   0  0  2  0  0  0  0  0  0  0  0  0
  150.8876  139.1695  154.1105 C   0  0  0  0  0  0  0  0  0  0  0  0
  149.6384  139.9688  154.0862 N   0  3  1  0  0  0  0  0  0  0  0  0
  148.4143  139.1664  154.3510 C   0  0  0  0  0  0  0  0  0  0  0  0
  147.2366  139.5765  153.4510 C   0  0  0  0  0  0  0  0  0  0  0  0
  146.1006  138.5404  153.4722 C   0  0  0  0  0  0  0  0  0  0  0  0
  146.4533  137.3386  152.7249 N   0  0  0  0  0  0  0  0  0  0  0  0
  145.5987  136.3568  152.4022 C   0  0  0  0  0  0  0  0  0  0  0  0
  144.4043  136.3740  152.7024 O   0  0  0  0  0  0  0  0  0  0  0  0
  146.2167  135.3769  151.7196 N   0  0  0  0  0  0  0  0  0  0  0  0
  145.6558  134.1792  151.2011 C   0  0  0  0  0  0  0  0  0  0  0  0
  144.2660  134.2296  150.9501 C   0  0  0  0  0  0  0  0  0  0  0  0
  143.6130  133.0933  150.4346 C   0  0  0  0  0  0  0  0  0  0  0  0
  144.3678  131.9338  150.1834 C   0  0  0  0  0  0  0  0  0  0  0  0
  145.7466  131.9669  150.4618 C   0  0  0  0  0  0  0  0  0  0  0  0
  146.3746  133.0550  150.9561 N   0  0  0  0  0  0  0  0  0  0  0  0
  149.7859  141.1815  154.9315 C   0  0  0  0  0  0  0  0  0  0  0  0
  150.2726  140.8295  156.3541 C   0  0  2  0  0  0  0  0  0  0  0  0
  150.5491  142.0820  157.1926 C   0  0  0  0  0  0  0  0  0  0  0  0
  151.4818  140.0832  156.2638 O   0  0  0  0  0  0  0  0  0  0  0  0
  152.5894  137.1490  155.0855 H   0  0  0  0  0  0  0  0  0  0  0  0
  152.9523  137.9006  156.6361 H   0  0  0  0  0  0  0  0  0  0  0  0
  153.4571  138.6830  155.1408 H   0  0  0  0  0  0  0  0  0  0  0  0
  150.5689  138.2484  156.0546 H   0  0  0  0  0  0  0  0  0  0  0  0
  151.6688  139.7444  153.6107 H   0  0  0  0  0  0  0  0  0  0  0  0
  150.7672  138.2528  153.5318 H   0  0  0  0  0  0  0  0  0  0  0  0
  148.6327  138.1160  154.1546 H   0  0  0  0  0  0  0  0  0  0  0  0
  148.1305  139.2259  155.4017 H   0  0  0  0  0  0  0  0  0  0  0  0
  146.8425  140.5420  153.7663 H   0  0  0  0  0  0  0  0  0  0  0  0
  147.5894  139.7064  152.4269 H   0  0  0  0  0  0  0  0  0  0  0  0
  145.8824  138.2477  154.4996 H   0  0  0  0  0  0  0  0  0  0  0  0
  145.1819  138.9713  153.0706 H   0  0  0  0  0  0  0  0  0  0  0  0
  147.4175  137.2442  152.4406 H   0  0  0  0  0  0  0  0  0  0  0  0
  147.2042  135.5002  151.5520 H   0  0  0  0  0  0  0  0  0  0  0  0
  143.7009  135.1287  151.1482 H   0  0  0  0  0  0  0  0  0  0  0  0
  142.5518  133.1122  150.2358 H   0  0  0  0  0  0  0  0  0  0  0  0
  143.9027  131.0429  149.7881 H   0  0  0  0  0  0  0  0  0  0  0  0
  146.3620  131.0977  150.2834 H   0  0  0  0  0  0  0  0  0  0  0  0
  150.5175  141.8342  154.4528 H   0  0  0  0  0  0  0  0  0  0  0  0
  148.8582  141.7504  154.9714 H   0  0  0  0  0  0  0  0  0  0  0  0
  149.5223  140.2335  156.8751 H   0  0  0  0  0  0  0  0  0  0  0  0
  149.6486  142.6868  157.3031 H   0  0  0  0  0  0  0  0  0  0  0  0
  151.3169  142.7047  156.7323 H   0  0  0  0  0  0  0  0  0  0  0  0
  150.8931  141.8142  158.1919 H   0  0  0  0  0  0  0  0  0  0  0  0
  149.5382  140.2922  153.1346 H   0  0  0  0  0  0  0  0  0  0  0  0
  1  2  1  0  0  0  0
  1 22  1  0  0  0  0
  1 23  1  0  0  0  0
  1 24  1  0  0  0  0
  2 21  1  0  0  0  0
  2  3  1  0  0  0  0
  2 25  1  0  0  0  0
  3  4  1  0  0  0  0
  3 26  1  0  0  0  0
  3 27  1  0  0  0  0
  4  5  1  0  0  0  0
  4 18  1  0  0  0  0
  4 46  1  0  0  0  0
  5  6  1  0  0  0  0
  5 28  1  0  0  0  0
  5 29  1  0  0  0  0
  6  7  1  0  0  0  0
  6 30  1  0  0  0  0
  6 31  1  0  0  0  0
  7  8  1  0  0  0  0
  7 32  1  0  0  0  0
  7 33  1  0  0  0  0
  8  9  1  0  0  0  0
  8 34  1  0  0  0  0
  9 10  2  0  0  0  0
  9 11  1  0  0  0  0
 11 12  1  0  0  0  0
 11 35  1  0  0  0  0
 12 17  1  0  0  0  0
 12 13  2  0  0  0  0
 13 14  1  0  0  0  0
 13 36  1  0  0  0  0
 14 15  2  0  0  0  0
 14 37  1  0  0  0  0
 15 16  1  0  0  0  0
 15 38  1  0  0  0  0
 16 17  2  0  0  0  0
 16 39  1  0  0  0  0
 18 19  1  0  0  0  0
 18 40  1  0  0  0  0
 18 41  1  0  0  0  0
 19 20  1  0  0  0  0
 19 21  1  0  0  0  0
 19 42  1  0  0  0  0
 20 43  1  0  0  0  0
 20 44  1  0  0  0  0
 20 45  1  0  0  0  0
M  CHG  1   4   1
M  END
> <s_m_source_file>
AV-unprocessed.smi

> <i_m_source_file_index>
1692

> <i_lp_mmshare_version>
43012

> <i_f3d_flags>
0

> <s_epik_input>
W0NIM11bQ0BASF0xW0NIMl1OKFtDSDJdW0NASF0oTzEpW0NIM10pW0NIMl1bQ0gyXVtDSDJdW05IXUMoPU8pW05IXWMyW2NIXVtjSF1bY0hdW2NIXW4y

> <s_epik_cmdline>
J2VwaWtfcHl0aG9uJywgJy1waCcsICc3LjAnLCAnLXRuJywgJzgnLCAnLW1hJywgJzIwMCcsICctbWV0YWxfYmluZGluZycsICctaW1hZScsICc8aW5maWxlLm1hZT4nLCAnLW9tYWUnLCAnPG91dGZpbGUubWFlPic=

> <r_epik_Ionization_Penalty>
0.270538

> <r_epik_Ionization_Penalty_Charging>
0.270496

> <r_epik_Ionization_Penalty_Neutral>
4.22978e-05

> <r_epik_State_Penalty>
0.262618

> <r_epik_Charging_Adjusted_Penalty>
0.533114

> <i_epik_Tot_Q>
1

> <i_epik_Tot_abs_Q>
1

> <r_epik_Metal_State_Penalty>
0.262618

> <b_epik_Metal_Only>
0

> <s_lp_Force_Field>
OPLS_2005

> <r_lp_Energy>
18.3

> <b_lp_Chiralities_Consistent>
1

> <s_lp_Variant>
AV-unprocessed.smi:1692-3

> <Gold.Version>
5.8.1

> <Gold.Id.Protein>
6NUR|6NUR_protein|mol2

> <Gold.PLP.Fitness>
45.1005

> <Gold.PLP.PLP>
-34.5745

> <Gold.PLP.part.hbond>
-3.0000

> <Gold.PLP.part.metal>
0.0000

> <Gold.PLP.part.buried>
-3.7245

> <Gold.PLP.part.nonpolar>
-28.9895

> <Gold.PLP.part.repulsive>
0.7341

> <Gold.PLP.ligand.clash>
0.0000

> <Gold.PLP.ligand.torsion>
0.7628

> <Gold.PLP.Chemscore.Hbond>
3.0000

> <Gold.PLP.Chemscore.CHOScore>
0.9955

> <Gold.PLP.Chemscore.Metal>
0.0000

> <Gold.Chemscore.Hbonds>
donor molecule, donor type, donor heavy atom, donor atom, acceptor molecule, acceptor atom, score
      L1  H     4    46       P1  7957  1.00
      L1  H     8    34       P1  7948  1.00
      L1  H    11    35       P1  7948  1.00
      L1  C    16    39       P1 10747  0.79

> <Gold.PLP.Chemscore.Internal.Correction>
0.0652

> <Gold.Rescore>
     Score         DG    S(hbond)    S(metal)    S(lipo)     H(rot)  DE(clash)    DE(int)     intcor
     18.52     -21.15       2.88        0.00      90.77       1.78       0.41       2.22       ----

> <Gold.Chemscore.Fitness>
18.5237

> <Gold.Chemscore.DG>
-21.1503

> <Gold.Chemscore.ZeroCoef>
-5.4800

> <Gold.Chemscore.Hbond>
2.8774

> <Gold.Chemscore.Metal>
0.0000

> <Gold.Chemscore.Lipo>
90.7704

> <Gold.Chemscore.Internal_Hbond>
0.0000

> <Gold.Chemscore.DEClash>
0.4076

> <Gold.Chemscore.DEInternal>
2.2190

> <Gold.Chemscore.Rot>
1.7814

> <Gold.Chemscore.Internal.Correction>
   9.000000E+99

> <Gold.Chemscore.Hbonds>
donor molecule, donor type, donor heavy atom, donor atom, acceptor molecule, acceptor atom, score
      L1  H     4    46       P1  7957  0.94
      L1  H     8    34       P1  7948  0.97
      L1  H    11    35       P1  7948  0.97

> <Gold.Chemscore.Hbond.Weighted>
-9.6104

> <Gold.Chemscore.Metal.Weighted>
-0.0000

> <Gold.Chemscore.Lipo.Weighted>
-10.6201

> <Gold.Chemscore.Internal_Hbond.Weighted>
0.0000

> <Gold.Chemscore.DEClash.Weighted>
0.4076

> <Gold.Chemscore.DEInternal.Weighted>
2.2190

> <Gold.Chemscore.Rot.Weighted>
4.5603

> <Gold.Chemscore.Internal.Correction.Weighted>
   9.000000E+99

> <Gold.Protein.RotatedTorsions>
[ 6907 6896 6895 6894 ] final -117.37 input  -60.11 | X-H torsion
[ 7974 7965 7964 7962 ] final   48.85 input  175.53 | X-H torsion
[ 8008 7997 7996 7995 ] final   -6.99 input   59.86 | X-H torsion
[ 10167 10162 10161 10158 ] final  -11.06 input  -65.29 | X-H torsion
[ 10718 10713 10712 10709 ] final  153.82 input   66.30 | X-H torsion
[ 10763 10752 10751 10750 ] final   95.20 input  -60.55 | X-H torsion
[ 11005 11000 10999 10996 ] final -118.80 input  -57.11 | X-H torsion

> <Gold.Protein.ActiveResidues>
 VAL166  LYS551  ARG553  GLY616  TRP617  ASP618  TYR619  PRO620  LYS621  CYS622 
 ASP623  PHE694  ASN695  SER759  ASP760  ASP761  ALA762  ILE779  LEU786  VAL792 
 PHE793  MET794  SER795  GLU796  ALA797  LYS798  CYS799  TRP800  GLU811  SER814 

> <Gold.Protein.RotatedAtoms>
  150.8131  133.8385  159.3172 H   0  0  0  0  0  0  0  0  0  0  0  0  # atno 6907 bound_to 6896
  151.6165  135.1034  160.0102 H   0  0  0  0  0  0  0  0  0  0  0  0  # atno 6908 bound_to 6896
  152.4223  133.7096  159.6528 H   0  0  0  0  0  0  0  0  0  0  0  0  # atno 6909 bound_to 6896
  146.0164  139.4602  142.9924 H   0  0  0  0  0  0  0  0  0  0  0  0  # atno 7974 bound_to 7965
  154.5882  140.2418  155.7957 H   0  0  0  0  0  0  0  0  0  0  0  0  # atno 8008 bound_to 7997
  156.2228  140.2992  155.9950 H   0  0  0  0  0  0  0  0  0  0  0  0  # atno 8009 bound_to 7997
  155.2420  140.0407  157.2966 H   0  0  0  0  0  0  0  0  0  0  0  0  # atno 8010 bound_to 7997
  140.7129  143.5680  150.9123 H   0  0  0  0  0  0  0  0  0  0  0  0  # atno 10167 bound_to 10162
  157.2397  131.0756  151.1800 H   0  0  0  0  0  0  0  0  0  0  0  0  # atno 10718 bound_to 10713
  153.2504  135.4262  155.0791 H   0  0  0  0  0  0  0  0  0  0  0  0  # atno 10763 bound_to 10752
  154.8379  135.3424  154.6521 H   0  0  0  0  0  0  0  0  0  0  0  0  # atno 10764 bound_to 10752
  153.6942  135.7032  153.5138 H   0  0  0  0  0  0  0  0  0  0  0  0  # atno 10765 bound_to 10752
  141.0261  134.0052  157.3213 H   0  0  0  0  0  0  0  0  0  0  0  0  # atno 11005 bound_to 11000
  145.7261  141.0058  143.1376 LP  0  0  0  0  0  0  0  0  0  0  0  0  # atno 17320 bound_to 7965
  144.6973  139.8928  143.7454 LP  0  0  0  0  0  0  0  0  0  0  0  0  # atno 17321 bound_to 7965
  139.9406  143.6386  152.3054 LP  0  0  0  0  0  0  0  0  0  0  0  0  # atno 17342 bound_to 10162
  139.6869  144.7650  151.1507 LP  0  0  0  0  0  0  0  0  0  0  0  0  # atno 17343 bound_to 10162
  157.3391  130.7024  149.6371 LP  0  0  0  0  0  0  0  0  0  0  0  0  # atno 17370 bound_to 10713
  155.9670  130.4285  150.4791 LP  0  0  0  0  0  0  0  0  0  0  0  0  # atno 17371 bound_to 10713
  139.9177  135.0198  156.7943 LP  0  0  0  0  0  0  0  0  0  0  0  0  # atno 17394 bound_to 11000
  140.6489  133.9749  155.7745 LP  0  0  0  0  0  0  0  0  0  0  0  0  # atno 17395 bound_to 11000

$$$$
