AV-unprocessed.smi:1464|AV-procd|sdf|5935|dock6
  -GOLD-   22720 6 13D 1   1.00000     0.00000
 Structure written by MMmdl.
 40 41  0  0  0  0  0  0  0  0  2 V2000
  143.0824  133.6488  161.8645 C   0  0  0  0  0  0  0  0  0  0  0  0
  144.5706  133.9833  161.6585 C   0  0  2  0  0  0  0  0  0  0  0  0
  145.4296  132.7319  161.9343 C   0  0  0  0  0  0  0  0  0  0  0  0
  146.9275  132.9983  161.7321 C   0  0  0  0  0  0  0  0  0  0  0  0
  147.3998  134.1806  162.5919 C   0  0  0  0  0  0  0  0  0  0  0  0
  146.5690  135.4500  162.3282 C   0  0  1  0  0  0  0  0  0  0  0  0
  146.8630  135.9563  160.9861 N   0  0  0  0  0  0  0  0  0  0  0  0
  147.9805  136.5916  160.6007 C   0  0  0  0  0  0  0  0  0  0  0  0
  148.9349  136.8038  161.3494 O   0  0  0  0  0  0  0  0  0  0  0  0
  148.0237  137.0469  159.1360 C   0  0  0  0  0  0  0  0  0  0  0  0
  149.3139  137.6438  158.7640 N   0  0  0  0  0  0  0  0  0  0  0  0
  150.4608  136.7698  158.9933 N   0  5  0  0  0  0  0  0  0  0  0  0
  151.7088  137.2258  158.7054 C   0  0  0  0  0  0  0  0  0  0  0  0
  152.7225  136.5570  158.8927 O   0  0  0  0  0  0  0  0  0  0  0  0
  151.8377  138.5621  158.1480 C   0  0  0  0  0  0  0  0  0  0  0  0
  150.7589  139.3373  157.9221 C   0  0  0  0  0  0  0  0  0  0  0  0
  149.4037  138.8934  158.2240 C   0  0  0  0  0  0  0  0  0  0  0  0
  148.4127  139.5924  158.0092 O   0  0  0  0  0  0  0  0  0  0  0  0
  145.0526  135.1768  162.5300 C   0  0  1  0  0  0  0  0  0  0  0  0
  144.2056  136.4504  162.3340 C   0  0  0  0  0  0  0  0  0  0  0  0
  142.8626  133.4462  162.9130 H   0  0  0  0  0  0  0  0  0  0  0  0
  142.7961  132.7677  161.2897 H   0  0  0  0  0  0  0  0  0  0  0  0
  142.4365  134.4622  161.5351 H   0  0  0  0  0  0  0  0  0  0  0  0
  144.6983  134.2516  160.6087 H   0  0  0  0  0  0  0  0  0  0  0  0
  145.2600  132.3898  162.9563 H   0  0  0  0  0  0  0  0  0  0  0  0
  145.1183  131.9149  161.2824 H   0  0  0  0  0  0  0  0  0  0  0  0
  147.4994  132.1054  161.9861 H   0  0  0  0  0  0  0  0  0  0  0  0
  147.1263  133.1997  160.6790 H   0  0  0  0  0  0  0  0  0  0  0  0
  147.3184  133.9115  163.6457 H   0  0  0  0  0  0  0  0  0  0  0  0
  148.4576  134.3758  162.4102 H   0  0  0  0  0  0  0  0  0  0  0  0
  146.8833  136.1941  163.0624 H   0  0  0  0  0  0  0  0  0  0  0  0
  146.1396  135.8317  160.2929 H   0  0  0  0  0  0  0  0  0  0  0  0
  147.8037  136.1811  158.5090 H   0  0  0  0  0  0  0  0  0  0  0  0
  147.2230  137.7626  158.9391 H   0  0  0  0  0  0  0  0  0  0  0  0
  152.8201  138.9404  157.9064 H   0  0  0  0  0  0  0  0  0  0  0  0
  150.9009  140.3230  157.5045 H   0  0  0  0  0  0  0  0  0  0  0  0
  144.9266  134.8851  163.5740 H   0  0  0  0  0  0  0  0  0  0  0  0
  144.1504  136.7410  161.2850 H   0  0  0  0  0  0  0  0  0  0  0  0
  144.6267  137.2887  162.8896 H   0  0  0  0  0  0  0  0  0  0  0  0
  143.1863  136.3146  162.6942 H   0  0  0  0  0  0  0  0  0  0  0  0
  1  2  1  0  0  0  0
  1 21  1  0  0  0  0
  1 22  1  0  0  0  0
  1 23  1  0  0  0  0
  2 19  1  0  0  0  0
  2  3  1  0  0  0  0
  2 24  1  0  0  0  0
  3  4  1  0  0  0  0
  3 25  1  0  0  0  0
  3 26  1  0  0  0  0
  4  5  1  0  0  0  0
  4 27  1  0  0  0  0
  4 28  1  0  0  0  0
  5  6  1  0  0  0  0
  5 29  1  0  0  0  0
  5 30  1  0  0  0  0
  6  7  1  0  0  0  0
  6 19  1  0  0  0  0
  6 31  1  0  0  0  0
  7  8  1  0  0  0  0
  7 32  1  0  0  0  0
  8  9  2  0  0  0  0
  8 10  1  0  0  0  0
 10 33  1  0  0  0  0
 10 34  1  0  0  0  0
 10 11  1  0  0  0  0
 11 12  1  0  0  0  0
 11 17  1  0  0  0  0
 12 13  1  0  0  0  0
 13 14  2  0  0  0  0
 13 15  1  0  0  0  0
 15 35  1  0  0  0  0
 15 16  2  0  0  0  0
 16 36  1  0  0  0  0
 16 17  1  0  0  0  0
 17 18  2  0  0  0  0
 19 20  1  0  0  0  0
 19 37  1  0  0  0  0
 20 38  1  0  0  0  0
 20 39  1  0  0  0  0
 20 40  1  0  0  0  0
M  CHG  1  12  -1
M  END
> <s_m_source_file>
AV-unprocessed.smi

> <i_m_source_file_index>
1464

> <i_lp_mmshare_version>
43012

> <i_f3d_flags>
0

> <s_epik_input>
W0NIM11bQ0BASF0xW0NIMl1bQ0gyXVtDSDJdW0NASF0oW0NASF0xW0NIM10pW05IXUMoPU8pW0NIMl1uMltuSF1jKD1PKVtjSF1bY0hdYzI9Tw==

> <s_epik_cmdline>
J2VwaWtfcHl0aG9uJywgJy1waCcsICc3LjAnLCAnLXRuJywgJzgnLCAnLW1hJywgJzIwMCcsICctbWV0YWxfYmluZGluZycsICctaW1hZScsICc8aW5maWxlLm1hZT4nLCAnLW9tYWUnLCAnPG91dGZpbGUubWFlPic=

> <r_lp_tautomer_probability>
1

> <r_epik_Ionization_Penalty>
0.101366

> <r_epik_Ionization_Penalty_Charging>
0.101366

> <r_epik_Ionization_Penalty_Neutral>
1.90469e-08

> <r_epik_State_Penalty>
0.035861

> <r_epik_Charging_Adjusted_Penalty>
0.137227

> <i_epik_Tot_Q>
-1

> <i_epik_Tot_abs_Q>
1

> <r_epik_Metal_State_Penalty>
0.035861

> <b_epik_Metal_Only>
0

> <s_lp_Force_Field>
OPLS_2005

> <r_lp_Energy>
26.1624

> <b_lp_Chiralities_Consistent>
1

> <s_lp_Variant>
AV-unprocessed.smi:1464-1

> <Gold.Version>
5.8.1

> <Gold.Id.Protein>
6NUR|6NUR_protein|mol2

> <Gold.PLP.Fitness>
40.1374

> <Gold.PLP.PLP>
-31.4732

> <Gold.PLP.part.hbond>
-3.4720

> <Gold.PLP.part.metal>
0.0000

> <Gold.PLP.part.buried>
-3.6120

> <Gold.PLP.part.nonpolar>
-24.5305

> <Gold.PLP.part.repulsive>
0.0865

> <Gold.PLP.ligand.clash>
0.0000

> <Gold.PLP.ligand.torsion>
0.2381

> <Gold.PLP.Chemscore.Hbond>
3.0437

> <Gold.PLP.Chemscore.CHOScore>
0.0000

> <Gold.PLP.Chemscore.Metal>
0.0000

> <Gold.Chemscore.Hbonds>
donor molecule, donor type, donor heavy atom, donor atom, acceptor molecule, acceptor atom, score
      P1  H  6896  6907       L1    14  0.05
      P1  H  6896  6909       L1    12  2.00
      P1  H  6931  6943       L1     9  1.00

> <Gold.PLP.Chemscore.Internal.Correction>
0.0093

> <Gold.Rescore>
     Score         DG    S(hbond)    S(metal)    S(lipo)     H(rot)  DE(clash)    DE(int)     intcor
     13.61     -14.78       1.85        0.00      62.67       1.64       0.06       1.11       ----

> <Gold.Chemscore.Fitness>
13.6089

> <Gold.Chemscore.DG>
-14.7770

> <Gold.Chemscore.ZeroCoef>
-5.4800

> <Gold.Chemscore.Hbond>
1.8481

> <Gold.Chemscore.Metal>
0.0000

> <Gold.Chemscore.Lipo>
62.6706

> <Gold.Chemscore.Internal_Hbond>
0.0000

> <Gold.Chemscore.DEClash>
0.0605

> <Gold.Chemscore.DEInternal>
1.1076

> <Gold.Chemscore.Rot>
1.6438

> <Gold.Chemscore.Internal.Correction>
   9.000000E+99

> <Gold.Chemscore.Hbonds>
donor molecule, donor type, donor heavy atom, donor atom, acceptor molecule, acceptor atom, score
      P1  H  6896  6907       L1    14  0.05
      P1  H  6896  6909       L1    12  0.24
      P1  H  6931  6943       L1     9  0.87

> <Gold.Chemscore.Hbond.Weighted>
-6.1725

> <Gold.Chemscore.Metal.Weighted>
-0.0000

> <Gold.Chemscore.Lipo.Weighted>
-7.3325

> <Gold.Chemscore.Internal_Hbond.Weighted>
0.0000

> <Gold.Chemscore.DEClash.Weighted>
0.0605

> <Gold.Chemscore.DEInternal.Weighted>
1.1076

> <Gold.Chemscore.Rot.Weighted>
4.2080

> <Gold.Chemscore.Internal.Correction.Weighted>
   9.000000E+99

> <Gold.Protein.RotatedTorsions>
[ 6907 6896 6895 6894 ] final   76.41 input  -60.11 | X-H torsion
[ 7974 7965 7964 7962 ] final -156.35 input  175.53 | X-H torsion
[ 8008 7997 7996 7995 ] final  -27.14 input   59.86 | X-H torsion
[ 10167 10162 10161 10158 ] final   85.65 input  -65.29 | X-H torsion
[ 10718 10713 10712 10709 ] final -127.27 input   66.30 | X-H torsion
[ 10763 10752 10751 10750 ] final   73.70 input  -60.55 | X-H torsion
[ 11005 11000 10999 10996 ] final   99.75 input  -57.11 | X-H torsion

> <Gold.Protein.ActiveResidues>
 VAL166  LYS551  ARG553  GLY616  TRP617  ASP618  TYR619  PRO620  LYS621  CYS622 
 ASP623  PHE694  ASN695  SER759  ASP760  ASP761  ALA762  ILE779  LEU786  VAL792 
 PHE793  MET794  SER795  GLU796  ALA797  LYS798  CYS799  TRP800  GLU811  SER814 

> <Gold.Protein.RotatedAtoms>
  152.5071  134.3974  159.9404 H   0  0  0  0  0  0  0  0  0  0  0  0  # atno 6907 bound_to 6896
  151.3936  133.3774  159.2731 H   0  0  0  0  0  0  0  0  0  0  0  0  # atno 6908 bound_to 6896
  150.9414  134.8843  159.7673 H   0  0  0  0  0  0  0  0  0  0  0  0  # atno 6909 bound_to 6896
  144.7597  140.4122  143.5985 H   0  0  0  0  0  0  0  0  0  0  0  0  # atno 7974 bound_to 7965
  154.4391  140.1880  156.0885 H   0  0  0  0  0  0  0  0  0  0  0  0  # atno 8008 bound_to 7997
  156.0384  140.3322  155.7190 H   0  0  0  0  0  0  0  0  0  0  0  0  # atno 8009 bound_to 7997
  155.5736  140.0615  157.2791 H   0  0  0  0  0  0  0  0  0  0  0  0  # atno 8010 bound_to 7997
  139.8956  144.6360  150.8692 H   0  0  0  0  0  0  0  0  0  0  0  0  # atno 10167 bound_to 10162
  156.1841  130.6752  151.0342 H   0  0  0  0  0  0  0  0  0  0  0  0  # atno 10718 bound_to 10713
  153.0539  135.5053  154.7933 H   0  0  0  0  0  0  0  0  0  0  0  0  # atno 10763 bound_to 10752
  154.6774  135.2963  154.9661 H   0  0  0  0  0  0  0  0  0  0  0  0  # atno 10764 bound_to 10752
  154.0459  135.6710  153.4847 H   0  0  0  0  0  0  0  0  0  0  0  0  # atno 10765 bound_to 10752
  139.8770  134.9109  156.4653 H   0  0  0  0  0  0  0  0  0  0  0  0  # atno 11005 bound_to 11000
  145.6660  139.1590  143.2781 LP  0  0  0  0  0  0  0  0  0  0  0  0  # atno 17320 bound_to 7965
  146.1647  140.6736  142.9261 LP  0  0  0  0  0  0  0  0  0  0  0  0  # atno 17321 bound_to 7965
  140.7718  143.3476  151.2079 LP  0  0  0  0  0  0  0  0  0  0  0  0  # atno 17342 bound_to 10162
  139.7071  143.9437  152.2931 LP  0  0  0  0  0  0  0  0  0  0  0  0  # atno 17343 bound_to 10162
  157.6887  131.0816  150.7168 LP  0  0  0  0  0  0  0  0  0  0  0  0  # atno 17370 bound_to 10713
  156.7225  130.4685  149.5519 LP  0  0  0  0  0  0  0  0  0  0  0  0  # atno 17371 bound_to 10713
  140.8835  133.7900  155.9492 LP  0  0  0  0  0  0  0  0  0  0  0  0  # atno 17394 bound_to 11000
  140.8829  134.2589  157.5135 LP  0  0  0  0  0  0  0  0  0  0  0  0  # atno 17395 bound_to 11000

$$$$
