AV-unprocessed.smi:437|AV-procd|sdf|2560|dock4
  -GOLD-   2262022523D 1   1.00000     0.00000
 Structure written by MMmdl.
 48 49  0  0  0  0  0  0  0  0  1 V2000
  147.9447  133.4973  153.5873 C   0  0  0  0  0  0  0  0  0  0  0  0
  149.0153  133.4526  154.6441 C   0  0  0  0  0  0  0  0  0  0  0  0
  149.2553  134.5549  155.2750 N   0  0  0  0  0  0  0  0  0  0  0  0
  150.2195  134.6239  156.2619 N   0  0  0  0  0  0  0  0  0  0  0  0
  150.3690  135.9592  156.8603 C   0  0  0  0  0  0  0  0  0  0  0  0
  151.0150  136.9832  155.9133 C   0  0  0  0  0  0  0  0  0  0  0  0
  152.2396  137.1343  155.9006 O   0  0  0  0  0  0  0  0  0  0  0  0
  150.1469  137.6566  155.1314 N   0  0  0  0  0  0  0  0  0  0  0  0
  150.4301  138.6042  154.2171 C   0  0  0  0  0  0  0  0  0  0  0  0
  151.5572  138.9073  153.8198 O   0  0  0  0  0  0  0  0  0  0  0  0
  149.3098  139.1931  153.7736 N   0  0  0  0  0  0  0  0  0  0  0  0
  148.0157  139.1842  154.4578 C   0  0  1  0  0  0  0  0  0  0  0  0
  148.0231  140.1390  155.6723 C   0  0  0  0  0  0  0  0  0  0  0  0
  148.0706  141.6165  155.2483 C   0  0  0  0  0  0  0  0  0  0  0  0
  146.9197  141.9555  154.2897 C   0  0  0  0  0  0  0  0  0  0  0  0
  146.9163  141.0236  153.0674 C   0  0  0  0  0  0  0  0  0  0  0  0
  146.8649  139.5384  153.4833 C   0  0  1  0  0  0  0  0  0  0  0  0
  146.8123  138.6094  152.2580 C   0  0  0  0  0  0  0  0  0  0  0  0
  150.9841  133.5723  156.6756 C   0  0  0  0  0  0  0  0  0  0  0  0
  151.8241  133.6764  157.5708 O   0  0  0  0  0  0  0  0  0  0  0  0
  150.7105  132.3281  155.9530 C   0  0  0  0  0  0  0  0  0  0  0  0
  151.4993  131.2052  156.3455 C   0  0  0  0  0  0  0  0  0  0  0  0
  152.1228  130.2823  156.6616 N   0  0  0  0  0  0  0  0  0  0  0  0
  149.7721  132.2500  154.9765 C   0  0  0  0  0  0  0  0  0  0  0  0
  149.4479  130.9831  154.1971 C   0  0  0  0  0  0  0  0  0  0  0  0
  147.1366  132.8058  153.8263 H   0  0  0  0  0  0  0  0  0  0  0  0
  148.3500  133.2218  152.6134 H   0  0  0  0  0  0  0  0  0  0  0  0
  147.5075  134.4925  153.4921 H   0  0  0  0  0  0  0  0  0  0  0  0
  149.3932  136.3455  157.1609 H   0  0  0  0  0  0  0  0  0  0  0  0
  150.9540  135.8970  157.7798 H   0  0  0  0  0  0  0  0  0  0  0  0
  149.1722  137.4194  155.2424 H   0  0  0  0  0  0  0  0  0  0  0  0
  149.3500  139.6902  152.8961 H   0  0  0  0  0  0  0  0  0  0  0  0
  147.8377  138.1714  154.8241 H   0  0  0  0  0  0  0  0  0  0  0  0
  147.1220  139.9691  156.2628 H   0  0  0  0  0  0  0  0  0  0  0  0
  148.8602  139.9133  156.3338 H   0  0  0  0  0  0  0  0  0  0  0  0
  148.0196  142.2566  156.1294 H   0  0  0  0  0  0  0  0  0  0  0  0
  149.0252  141.8325  154.7670 H   0  0  0  0  0  0  0  0  0  0  0  0
  145.9688  141.8692  154.8170 H   0  0  0  0  0  0  0  0  0  0  0  0
  146.9997  142.9936  153.9656 H   0  0  0  0  0  0  0  0  0  0  0  0
  146.0610  141.2615  152.4342 H   0  0  0  0  0  0  0  0  0  0  0  0
  147.8051  141.2118  152.4637 H   0  0  0  0  0  0  0  0  0  0  0  0
  145.9307  139.3903  154.0273 H   0  0  0  0  0  0  0  0  0  0  0  0
  147.6887  138.7288  151.6207 H   0  0  0  0  0  0  0  0  0  0  0  0
  145.9326  138.8178  151.6487 H   0  0  0  0  0  0  0  0  0  0  0  0
  146.7609  137.5635  152.5619 H   0  0  0  0  0  0  0  0  0  0  0  0
  150.0496  130.1340  154.5192 H   0  0  0  0  0  0  0  0  0  0  0  0
  149.6337  131.1315  153.1330 H   0  0  0  0  0  0  0  0  0  0  0  0
  148.4006  130.7103  154.3288 H   0  0  0  0  0  0  0  0  0  0  0  0
  1  2  1  0  0  0  0
  1 26  1  0  0  0  0
  1 27  1  0  0  0  0
  1 28  1  0  0  0  0
  2 24  1  0  0  0  0
  2  3  2  0  0  0  0
  3  4  1  0  0  0  0
  4  5  1  0  0  0  0
  4 19  1  0  0  0  0
  5  6  1  0  0  0  0
  5 29  1  0  0  0  0
  5 30  1  0  0  0  0
  6  7  2  0  0  0  0
  6  8  1  0  0  0  0
  8  9  1  0  0  0  0
  8 31  1  0  0  0  0
  9 10  2  0  0  0  0
  9 11  1  0  0  0  0
 11 12  1  0  0  0  0
 11 32  1  0  0  0  0
 12 17  1  0  0  0  0
 12 13  1  0  0  0  0
 12 33  1  0  0  0  0
 13 14  1  0  0  0  0
 13 34  1  0  0  0  0
 13 35  1  0  0  0  0
 14 15  1  0  0  0  0
 14 36  1  0  0  0  0
 14 37  1  0  0  0  0
 15 16  1  0  0  0  0
 15 38  1  0  0  0  0
 15 39  1  0  0  0  0
 16 17  1  0  0  0  0
 16 40  1  0  0  0  0
 16 41  1  0  0  0  0
 17 18  1  0  0  0  0
 17 42  1  0  0  0  0
 18 43  1  0  0  0  0
 18 44  1  0  0  0  0
 18 45  1  0  0  0  0
 19 20  2  0  0  0  0
 19 21  1  0  0  0  0
 21 22  1  0  0  0  0
 21 24  2  0  0  0  0
 22 23  3  0  0  0  0
 24 25  1  0  0  0  0
 25 46  1  0  0  0  0
 25 47  1  0  0  0  0
 25 48  1  0  0  0  0
M  END
> <s_m_source_file>
AV-unprocessed.smi

> <i_m_source_file_index>
437

> <i_lp_mmshare_version>
43012

> <i_f3d_flags>
0

> <s_epik_input>
TiNDYyhjMVtDSDNdKWMoPU8pbihuYzFbQ0gzXSlbQ0gyXUMoPU8pW05IXUMoPU8pW05IXVtDQEBIXTJbQ0gyXVtDSDJdW0NIMl1bQ0gyXVtDQEhdMltDSDNd

> <s_epik_cmdline>
J2VwaWtfcHl0aG9uJywgJy1waCcsICc3LjAnLCAnLXRuJywgJzgnLCAnLW1hJywgJzIwMCcsICctbWV0YWxfYmluZGluZycsICctaW1hZScsICc8aW5maWxlLm1hZT4nLCAnLW9tYWUnLCAnPG91dGZpbGUubWFlPic=

> <r_lp_tautomer_probability>
1

> <r_epik_Ionization_Penalty>
3.27035e-05

> <r_epik_Ionization_Penalty_Charging>
1.6965e-11

> <r_epik_Ionization_Penalty_Neutral>
3.27035e-05

> <r_epik_State_Penalty>
-0

> <r_epik_Charging_Adjusted_Penalty>
1.6965e-11

> <i_epik_Tot_Q>
0

> <i_epik_Tot_abs_Q>
0

> <r_epik_Metal_State_Penalty>
-0

> <b_epik_Metal_Only>
0

> <s_lp_Force_Field>
OPLS_2005

> <r_lp_Energy>
26.066

> <b_lp_Chiralities_Consistent>
1

> <s_lp_Variant>
AV-unprocessed.smi:437-2

> <Gold.Version>
5.8.1

> <Gold.Id.Protein>
6NUR|6NUR_protein|mol2

> <Gold.PLP.Fitness>
43.1016

> <Gold.PLP.PLP>
-35.9214

> <Gold.PLP.part.hbond>
-4.0000

> <Gold.PLP.part.metal>
0.0000

> <Gold.PLP.part.buried>
-1.4512

> <Gold.PLP.part.nonpolar>
-31.0064

> <Gold.PLP.part.repulsive>
0.4763

> <Gold.PLP.ligand.clash>
1.5420

> <Gold.PLP.ligand.torsion>
0.8014

> <Gold.PLP.Chemscore.Hbond>
3.4320

> <Gold.PLP.Chemscore.CHOScore>
0.0000

> <Gold.PLP.Chemscore.Metal>
0.0000

> <Gold.Chemscore.Hbonds>
donor molecule, donor type, donor heavy atom, donor atom, acceptor molecule, acceptor atom, score
      L1  H    11    32       P1  7957  1.00
      P1  H  6896  6909       L1    20  0.40
      P1  H  7989  7998       L1    10  0.83
      P1  H 10752 10764       L1     7  0.84

> <Gold.PLP.Chemscore.Internal.Correction>
0.0290

> <Gold.Rescore>
     Score         DG    S(hbond)    S(metal)    S(lipo)     H(rot)  DE(clash)    DE(int)     intcor
     16.29     -19.74       3.06        0.00      68.71       1.57       1.38       2.07       ----

> <Gold.Chemscore.Fitness>
16.2873

> <Gold.Chemscore.DG>
-19.7398

> <Gold.Chemscore.ZeroCoef>
-5.4800

> <Gold.Chemscore.Hbond>
3.0625

> <Gold.Chemscore.Metal>
0.0000

> <Gold.Chemscore.Lipo>
68.7088

> <Gold.Chemscore.Internal_Hbond>
0.0000

> <Gold.Chemscore.DEClash>
1.3848

> <Gold.Chemscore.DEInternal>
2.0677

> <Gold.Chemscore.Rot>
1.5656

> <Gold.Chemscore.Internal.Correction>
   9.000000E+99

> <Gold.Chemscore.Hbonds>
donor molecule, donor type, donor heavy atom, donor atom, acceptor molecule, acceptor atom, score
      L1  H    11    32       P1  7957  1.00
      P1  H  6896  6909       L1    20  0.40
      P1  H  7989  7998       L1    10  0.61
      P1  H 10752 10764       L1     7  0.52

> <Gold.Chemscore.Hbond.Weighted>
-10.2287

> <Gold.Chemscore.Metal.Weighted>
-0.0000

> <Gold.Chemscore.Lipo.Weighted>
-8.0389

> <Gold.Chemscore.Internal_Hbond.Weighted>
0.0000

> <Gold.Chemscore.DEClash.Weighted>
1.3848

> <Gold.Chemscore.DEInternal.Weighted>
2.0677

> <Gold.Chemscore.Rot.Weighted>
4.0079

> <Gold.Chemscore.Internal.Correction.Weighted>
   9.000000E+99

> <Gold.Protein.RotatedTorsions>
[ 6907 6896 6895 6894 ] final  -47.74 input  -60.11 | X-H torsion
[ 7974 7965 7964 7962 ] final -116.35 input  175.53 | X-H torsion
[ 8008 7997 7996 7995 ] final -153.93 input   59.86 | X-H torsion
[ 10167 10162 10161 10158 ] final -156.02 input  -65.29 | X-H torsion
[ 10718 10713 10712 10709 ] final  -65.83 input   66.30 | X-H torsion
[ 10763 10752 10751 10750 ] final  -39.56 input  -60.55 | X-H torsion
[ 11005 11000 10999 10996 ] final  131.15 input  -57.11 | X-H torsion

> <Gold.Protein.ActiveResidues>
 VAL166  LYS551  ARG553  GLY616  TRP617  ASP618  TYR619  PRO620  LYS621  CYS622 
 ASP623  PHE694  ASN695  SER759  ASP760  ASP761  ALA762  ILE779  LEU786  VAL792 
 PHE793  MET794  SER795  GLU796  ALA797  LYS798  CYS799  TRP800  GLU811  SER814 

> <Gold.Protein.RotatedAtoms>
  150.8976  134.8386  159.7337 H   0  0  0  0  0  0  0  0  0  0  0  0  # atno 6907 bound_to 6896
  152.4874  134.4551  159.9597 H   0  0  0  0  0  0  0  0  0  0  0  0  # atno 6908 bound_to 6896
  151.4606  133.3554  159.2844 H   0  0  0  0  0  0  0  0  0  0  0  0  # atno 6909 bound_to 6896
  145.0978  140.8532  143.3944 H   0  0  0  0  0  0  0  0  0  0  0  0  # atno 7974 bound_to 7965
  155.6784  140.0741  157.2494 H   0  0  0  0  0  0  0  0  0  0  0  0  # atno 8008 bound_to 7997
  154.4110  140.1686  156.2007 H   0  0  0  0  0  0  0  0  0  0  0  0  # atno 8009 bound_to 7997
  155.9556  140.3374  155.6448 H   0  0  0  0  0  0  0  0  0  0  0  0  # atno 8010 bound_to 7997
  139.6884  143.9462  152.2373 H   0  0  0  0  0  0  0  0  0  0  0  0  # atno 10167 bound_to 10162
  156.0647  130.4253  150.1621 H   0  0  0  0  0  0  0  0  0  0  0  0  # atno 10718 bound_to 10713
  153.9314  135.6771  153.4745 H   0  0  0  0  0  0  0  0  0  0  0  0  # atno 10763 bound_to 10752
  153.0977  135.4843  154.8807 H   0  0  0  0  0  0  0  0  0  0  0  0  # atno 10764 bound_to 10752
  154.7426  135.3164  154.8659 H   0  0  0  0  0  0  0  0  0  0  0  0  # atno 10765 bound_to 10752
  139.9713  134.9576  156.9397 H   0  0  0  0  0  0  0  0  0  0  0  0  # atno 11005 bound_to 11000
  145.0991  139.2835  143.5695 LP  0  0  0  0  0  0  0  0  0  0  0  0  # atno 17320 bound_to 7965
  146.3530  140.0552  142.8633 LP  0  0  0  0  0  0  0  0  0  0  0  0  # atno 17321 bound_to 7965
  139.9271  144.6764  150.8401 LP  0  0  0  0  0  0  0  0  0  0  0  0  # atno 17342 bound_to 10162
  140.7675  143.3334  151.2361 LP  0  0  0  0  0  0  0  0  0  0  0  0  # atno 17343 bound_to 10162
  156.9683  130.9826  151.3464 LP  0  0  0  0  0  0  0  0  0  0  0  0  # atno 17370 bound_to 10713
  157.5680  130.8291  149.8353 LP  0  0  0  0  0  0  0  0  0  0  0  0  # atno 17371 bound_to 10713
  140.5287  134.0835  155.7310 LP  0  0  0  0  0  0  0  0  0  0  0  0  # atno 17394 bound_to 11000
  141.1393  133.9167  157.2363 LP  0  0  0  0  0  0  0  0  0  0  0  0  # atno 17395 bound_to 11000

$$$$
