AV-unprocessed.smi:2078|AV-procd|sdf|8468|dock6
  -GOLD-   2272011163D 1   1.00000     0.00000
 Structure written by MMmdl.
 41 42  0  0  0  0  0  0  0  0  3 V2000
  149.0971  140.6578  154.1148 C   0  0  0  0  0  0  0  0  0  0  0  0
  149.9358  139.4839  154.4887 C   0  0  0  0  0  0  0  0  0  0  0  0
  149.6386  138.1746  154.7397 C   0  0  0  0  0  0  0  0  0  0  0  0
  150.9074  137.6032  155.0307 C   0  0  0  0  0  0  0  0  0  0  0  0
  151.1381  136.3224  155.3589 N   0  5  0  0  0  0  0  0  0  0  0  0
  150.1102  135.4493  155.4615 C   0  0  0  0  0  0  0  0  0  0  0  0
  149.6415  134.9863  156.5038 O   0  0  0  0  0  0  0  0  0  0  0  0
  149.5932  135.0866  154.2803 N   0  0  0  0  0  0  0  0  0  0  0  0
  148.4888  134.1549  154.0991 C   0  0  0  0  0  0  0  0  0  0  0  0
  148.8869  133.0423  153.1170 C   0  0  0  0  0  0  0  0  0  0  0  0
  147.7241  132.5099  152.3636 N   0  3  2  0  0  0  0  0  0  0  0  0
  147.0852  133.5466  151.5124 C   0  0  0  0  0  0  0  0  0  0  0  0
  145.9848  132.9398  150.6276 C   0  0  0  0  0  0  0  0  0  0  0  0
  144.9386  132.2049  151.4768 C   0  0  0  0  0  0  0  0  0  0  0  0
  145.6007  131.1689  152.4039 C   0  0  1  0  0  0  0  0  0  0  0  0
  146.0827  129.9164  151.6509 C   0  0  0  0  0  0  0  0  0  0  0  0
  146.7279  131.8227  153.2305 C   0  0  0  0  0  0  0  0  0  0  0  0
  151.8860  138.4911  154.9771 N   0  0  0  0  0  0  0  0  0  0  0  0
  151.2721  139.6987  154.6234 O   0  0  0  0  0  0  0  0  0  0  0  0
  148.2258  140.7314  154.7656 H   0  0  0  0  0  0  0  0  0  0  0  0
  148.7458  140.5676  153.0870 H   0  0  0  0  0  0  0  0  0  0  0  0
  149.6606  141.5872  154.1997 H   0  0  0  0  0  0  0  0  0  0  0  0
  148.6694  137.6997  154.7163 H   0  0  0  0  0  0  0  0  0  0  0  0
  150.0022  135.4900  153.4500 H   0  0  0  0  0  0  0  0  0  0  0  0
  148.2143  133.7198  155.0617 H   0  0  0  0  0  0  0  0  0  0  0  0
  147.6256  134.7137  153.7376 H   0  0  0  0  0  0  0  0  0  0  0  0
  149.6514  133.3912  152.4213 H   0  0  0  0  0  0  0  0  0  0  0  0
  149.3404  132.2349  153.6940 H   0  0  0  0  0  0  0  0  0  0  0  0
  146.6709  134.3338  152.1445 H   0  0  0  0  0  0  0  0  0  0  0  0
  147.8351  134.0150  150.8737 H   0  0  0  0  0  0  0  0  0  0  0  0
  145.5020  133.7252  150.0452 H   0  0  0  0  0  0  0  0  0  0  0  0
  146.4284  132.2541  149.9051 H   0  0  0  0  0  0  0  0  0  0  0  0
  144.3967  132.9335  152.0814 H   0  0  0  0  0  0  0  0  0  0  0  0
  144.1959  131.7284  150.8360 H   0  0  0  0  0  0  0  0  0  0  0  0
  144.8377  130.8287  153.1051 H   0  0  0  0  0  0  0  0  0  0  0  0
  146.8746  130.1471  150.9381 H   0  0  0  0  0  0  0  0  0  0  0  0
  145.2645  129.4524  151.0992 H   0  0  0  0  0  0  0  0  0  0  0  0
  146.4730  129.1706  152.3440 H   0  0  0  0  0  0  0  0  0  0  0  0
  147.2102  131.0617  153.8431 H   0  0  0  0  0  0  0  0  0  0  0  0
  146.3007  132.5495  153.9233 H   0  0  0  0  0  0  0  0  0  0  0  0
  148.0926  131.8146  151.7302 H   0  0  0  0  0  0  0  0  0  0  0  0
  1  2  1  0  0  0  0
  1 20  1  0  0  0  0
  1 21  1  0  0  0  0
  1 22  1  0  0  0  0
  2 19  1  0  0  0  0
  2  3  2  0  0  0  0
  3  4  1  0  0  0  0
  3 23  1  0  0  0  0
  4  5  1  0  0  0  0
  4 18  2  0  0  0  0
  5  6  1  0  0  0  0
  6  7  2  0  0  0  0
  6  8  1  0  0  0  0
  8  9  1  0  0  0  0
  8 24  1  0  0  0  0
  9 10  1  0  0  0  0
  9 25  1  0  0  0  0
  9 26  1  0  0  0  0
 10 11  1  0  0  0  0
 10 27  1  0  0  0  0
 10 28  1  0  0  0  0
 11 17  1  0  0  0  0
 11 12  1  0  0  0  0
 11 41  1  0  0  0  0
 12 13  1  0  0  0  0
 12 29  1  0  0  0  0
 12 30  1  0  0  0  0
 13 14  1  0  0  0  0
 13 31  1  0  0  0  0
 13 32  1  0  0  0  0
 14 15  1  0  0  0  0
 14 33  1  0  0  0  0
 14 34  1  0  0  0  0
 15 16  1  0  0  0  0
 15 17  1  0  0  0  0
 15 35  1  0  0  0  0
 16 36  1  0  0  0  0
 16 37  1  0  0  0  0
 16 38  1  0  0  0  0
 17 39  1  0  0  0  0
 17 40  1  0  0  0  0
 18 19  1  0  0  0  0
M  CHG  1   5  -1
M  CHG  1  11   1
M  END
> <s_m_source_file>
AV-unprocessed.smi

> <i_m_source_file_index>
2078

> <i_lp_mmshare_version>
43012

> <i_f3d_flags>
0

> <s_epik_input>
W0NIM11jMVtjSF1jKG5vMSlbTkhdQyg9TylbTkhdW0NIMl1bQ0gyXU4yW0NIMl1bQ0gyXVtDSDJdW0NAQEhdKFtDSDNdKVtDSDJdMg==

> <s_epik_cmdline>
J2VwaWtfcHl0aG9uJywgJy1waCcsICc3LjAnLCAnLXRuJywgJzgnLCAnLW1hJywgJzIwMCcsICctbWV0YWxfYmluZGluZycsICctaW1hZScsICc8aW5maWxlLm1hZT4nLCAnLW9tYWUnLCAnPG91dGZpbGUubWFlPic=

> <r_epik_Ionization_Penalty>
6.22434

> <r_epik_Ionization_Penalty_Charging>
6.22425

> <r_epik_Ionization_Penalty_Neutral>
9.37855e-05

> <r_epik_State_Penalty>
6.22423

> <r_epik_Charging_Adjusted_Penalty>
12.4485

> <i_epik_Tot_Q>
0

> <i_epik_Tot_abs_Q>
2

> <r_epik_Metal_State_Penalty>
2.16764

> <b_epik_Metal_Only>
1

> <s_lp_Force_Field>
OPLS_2005

> <r_lp_Energy>
8.87897

> <b_lp_Chiralities_Consistent>
1

> <s_lp_Variant>
AV-unprocessed.smi:2078-6

> <Gold.Version>
5.8.1

> <Gold.Id.Protein>
6NUR|6NUR_protein|mol2

> <Gold.PLP.Fitness>
45.3293

> <Gold.PLP.PLP>
-34.8304

> <Gold.PLP.part.hbond>
-4.2164

> <Gold.PLP.part.metal>
0.0000

> <Gold.PLP.part.buried>
-5.4416

> <Gold.PLP.part.nonpolar>
-25.4064

> <Gold.PLP.part.repulsive>
0.2810

> <Gold.PLP.ligand.clash>
0.0000

> <Gold.PLP.ligand.torsion>
0.9025

> <Gold.PLP.Chemscore.Hbond>
4.0904

> <Gold.PLP.Chemscore.CHOScore>
0.0000

> <Gold.PLP.Chemscore.Metal>
0.0000

> <Gold.Chemscore.Hbonds>
donor molecule, donor type, donor heavy atom, donor atom, acceptor molecule, acceptor atom, score
      L1  H     8    24       P1  7948  0.13
      L1  H    11    41       P1 10747  1.00
      P1  H  7989  7998       L1    19  1.00
      P1  H 10752 10763       L1     5  1.69

> <Gold.PLP.Chemscore.Internal.Correction>
0.0327

> <Gold.Rescore>
     Score         DG    S(hbond)    S(metal)    S(lipo)     H(rot)  DE(clash)    DE(int)     intcor
     18.75     -19.95       2.90        0.00      74.57       1.54       0.13       1.07       ----

> <Gold.Chemscore.Fitness>
18.7536

> <Gold.Chemscore.DG>
-19.9546

> <Gold.Chemscore.ZeroCoef>
-5.4800

> <Gold.Chemscore.Hbond>
2.9025

> <Gold.Chemscore.Metal>
0.0000

> <Gold.Chemscore.Lipo>
74.5727

> <Gold.Chemscore.Internal_Hbond>
0.0000

> <Gold.Chemscore.DEClash>
0.1287

> <Gold.Chemscore.DEInternal>
1.0723

> <Gold.Chemscore.Rot>
1.5409

> <Gold.Chemscore.Internal.Correction>
   9.000000E+99

> <Gold.Chemscore.Hbonds>
donor molecule, donor type, donor heavy atom, donor atom, acceptor molecule, acceptor atom, score
      L1  H    11    41       P1 10747  0.99
      P1  H  7989  7998       L1    19  0.50
      P1  H 10752 10763       L1     5  0.73

> <Gold.Chemscore.Hbond.Weighted>
-9.6942

> <Gold.Chemscore.Metal.Weighted>
-0.0000

> <Gold.Chemscore.Lipo.Weighted>
-8.7250

> <Gold.Chemscore.Internal_Hbond.Weighted>
0.0000

> <Gold.Chemscore.DEClash.Weighted>
0.1287

> <Gold.Chemscore.DEInternal.Weighted>
1.0723

> <Gold.Chemscore.Rot.Weighted>
3.9446

> <Gold.Chemscore.Internal.Correction.Weighted>
   9.000000E+99

> <Gold.Protein.RotatedTorsions>
[ 6907 6896 6895 6894 ] final -115.92 input  -60.11 | X-H torsion
[ 7974 7965 7964 7962 ] final   30.28 input  175.53 | X-H torsion
[ 8008 7997 7996 7995 ] final  -97.13 input   59.86 | X-H torsion
[ 10167 10162 10161 10158 ] final -149.02 input  -65.29 | X-H torsion
[ 10718 10713 10712 10709 ] final -118.98 input   66.30 | X-H torsion
[ 10763 10752 10751 10750 ] final   74.91 input  -60.55 | X-H torsion
[ 11005 11000 10999 10996 ] final  167.96 input  -57.11 | X-H torsion

> <Gold.Protein.ActiveResidues>
 VAL166  LYS551  ARG553  GLY616  TRP617  ASP618  TYR619  PRO620  LYS621  CYS622 
 ASP623  PHE694  ASN695  SER759  ASP760  ASP761  ALA762  ILE779  LEU786  VAL792 
 PHE793  MET794  SER795  GLU796  ALA797  LYS798  CYS799  TRP800  GLU811  SER814 

> <Gold.Protein.RotatedAtoms>
  150.8015  133.8590  159.3226 H   0  0  0  0  0  0  0  0  0  0  0  0  # atno 6907 bound_to 6896
  151.6400  135.1012  160.0149 H   0  0  0  0  0  0  0  0  0  0  0  0  # atno 6908 bound_to 6896
  152.4103  133.6913  159.6427 H   0  0  0  0  0  0  0  0  0  0  0  0  # atno 6909 bound_to 6896
  146.1621  139.6809  142.9026 H   0  0  0  0  0  0  0  0  0  0  0  0  # atno 7974 bound_to 7965
  154.7836  140.0465  157.1146 H   0  0  0  0  0  0  0  0  0  0  0  0  # atno 8008 bound_to 7997
  154.9675  140.3085  155.4983 H   0  0  0  0  0  0  0  0  0  0  0  0  # atno 8009 bound_to 7997
  156.2940  140.2259  156.4765 H   0  0  0  0  0  0  0  0  0  0  0  0  # atno 8010 bound_to 7997
  139.7479  143.8562  152.2579 H   0  0  0  0  0  0  0  0  0  0  0  0  # atno 10167 bound_to 10162
  156.1147  130.6276  150.9360 H   0  0  0  0  0  0  0  0  0  0  0  0  # atno 10718 bound_to 10713
  153.0618  135.5008  154.8112 H   0  0  0  0  0  0  0  0  0  0  0  0  # atno 10763 bound_to 10752
  154.6895  135.2982  154.9502 H   0  0  0  0  0  0  0  0  0  0  0  0  # atno 10764 bound_to 10752
  154.0262  135.6735  153.4829 H   0  0  0  0  0  0  0  0  0  0  0  0  # atno 10765 bound_to 10752
  140.2822  134.7741  157.3768 H   0  0  0  0  0  0  0  0  0  0  0  0  # atno 11005 bound_to 11000
  145.4561  141.0431  143.2777 LP  0  0  0  0  0  0  0  0  0  0  0  0  # atno 17320 bound_to 7965
  144.8041  139.6084  143.7058 LP  0  0  0  0  0  0  0  0  0  0  0  0  # atno 17321 bound_to 7965
  139.8532  144.7154  150.9189 LP  0  0  0  0  0  0  0  0  0  0  0  0  # atno 17342 bound_to 10162
  140.7794  143.3881  151.1358 LP  0  0  0  0  0  0  0  0  0  0  0  0  # atno 17343 bound_to 10162
  157.6330  131.0919  150.8404 LP  0  0  0  0  0  0  0  0  0  0  0  0  # atno 17370 bound_to 10713
  156.8510  130.5080  149.5312 LP  0  0  0  0  0  0  0  0  0  0  0  0  # atno 17371 bound_to 10713
  140.1272  134.5142  155.8134 LP  0  0  0  0  0  0  0  0  0  0  0  0  # atno 17394 bound_to 11000
  141.2161  133.6777  156.6974 LP  0  0  0  0  0  0  0  0  0  0  0  0  # atno 17395 bound_to 11000

$$$$
