#       Name:                AV-unprocessed.smi:765
#       Creating user name   scv26
#       Creation time:       Fri Mar 27 01:05:18 2020


#       File generated by GOLD software.
#

@<TRIPOS>MOLECULE
AV-unprocessed.smi:765
    43    44     1
SMALL
NO_CHARGES


@<TRIPOS>ATOM
      1 ****        -3.5163  -0.7918   1.7632 C.3            1 S1                 0.0000
      2 ****        -3.0150  -0.3302   0.3875 C.3            1 S1                 0.0000
      3 ****        -3.3500  -1.3601  -0.7060 C.3            1 S1                 0.0000
      4 ****        -2.8343  -0.9112  -2.0802 C.3            1 S1                 0.0000
      5 ****        -1.3245  -0.6267  -2.0342 C.3            1 S1                 0.0000
      6 ****        -0.9576   0.4261  -0.9649 C.3            1 S1                 0.0000
      7 ****        -1.5442   1.7290  -1.3388 C.1            1 S1                 0.0000
      8 ****        -2.0043   2.7495  -1.6325 N.1            1 S1                 0.0000
      9 ****         0.5038   0.4999  -0.9172 N.am           1 S1                 0.0000
     10 ****         1.2482   1.3795  -0.2256 C.2            1 S1                 0.0000
     11 ****         0.7677   2.2902   0.4494 O.2            1 S1                 0.0000
     12 ****         2.7689   1.1757  -0.3005 C.3            1 S1                 0.0000
     13 ****         3.5638   2.4500   0.0389 C.3            1 S1                 0.0000
     14 ****         3.1682   0.0670   0.5567 N.pl3          1 S1                 0.0000
     15 ****         3.0263  -0.0664   1.9248 C.2            1 S1                 0.0000
     16 ****         3.5463  -1.2795   2.2736 C.2            1 S1                 0.0000
     17 ****         3.9925  -1.8234   1.0372 C.2            1 S1                 0.0000
     18 ****         3.7653  -1.0168   0.0133 N.2            1 S1                 0.0000
     19 ****        -1.4996  -0.0446   0.4088 C.3            1 S1                 0.0000
     20 ****        -3.0368  -1.7225   2.0684 H              1 S1                 0.0000
     21 ****        -4.5935  -0.9602   1.7521 H              1 S1                 0.0000
     22 ****        -3.3081  -0.0434   2.5285 H              1 S1                 0.0000
     23 ****        -3.5342   0.5983   0.1468 H              1 S1                 0.0000
     24 ****        -2.9087  -2.3248  -0.4512 H              1 S1                 0.0000
     25 ****        -4.4280  -1.5180  -0.7537 H              1 S1                 0.0000
     26 ****        -3.0432  -1.6816  -2.8228 H              1 S1                 0.0000
     27 ****        -3.3728  -0.0197  -2.4031 H              1 S1                 0.0000
     28 ****        -0.7967  -1.5601  -1.8313 H              1 S1                 0.0000
     29 ****        -0.9873  -0.2947  -3.0172 H              1 S1                 0.0000
     30 ****         0.9993  -0.2073  -1.4407 H              1 S1                 0.0000
     31 ****         3.0064   0.9100  -1.3327 H              1 S1                 0.0000
     32 ****         3.2791   3.2779  -0.6112 H              1 S1                 0.0000
     33 ****         4.6335   2.2850  -0.0925 H              1 S1                 0.0000
     34 ****         3.4043   2.7657   1.0709 H              1 S1                 0.0000
     35 ****         2.5693   0.7044   2.5282 H              1 S1                 0.0000
     36 ****         3.6003  -1.7120   3.2615 H              1 S1                 0.0000
     37 ****         4.4713  -2.7741   0.8541 H              1 S1                 0.0000
     38 ****        -1.2897   0.7066   1.1712 H              1 S1                 0.0000
     39 ****        -0.9698  -0.9466   0.7204 H              1 S1                 0.0000
     40 ****        -2.4019   3.6313  -1.8863 LP             1 S1                 0.0000
     41 ****        -0.2245   2.4033   0.5026 LP             1 S1                 0.0000
     42 ****         1.3696   2.9168   0.9445 LP             1 S1                 0.0000
     43 ****         3.9864  -1.1742  -0.9492 LP             1 S1                 0.0000
@<TRIPOS>BOND
    1    1    2 1     
    2    1   20 1     
    3    1   21 1     
    4    1   22 1     
    5    2   19 1     
    6    2    3 1     
    7    2   23 1     
    8    3    4 1     
    9    3   24 1     
   10    3   25 1     
   11    4    5 1     
   12    4   26 1     
   13    4   27 1     
   14    5    6 1     
   15    5   28 1     
   16    5   29 1     
   17    6    7 1     
   18    6    9 1     
   19    6   19 1     
   20    7    8 3     
   21    9   10 am    
   22    9   30 1     
   23   10   11 2     
   24   10   12 1     
   25   12   13 1     
   26   12   14 1     
   27   12   31 1     
   28   13   32 1     
   29   13   33 1     
   30   13   34 1     
   31   14   18 1     
   32   14   15 1     
   33   15   16 2     
   34   15   35 1     
   35   16   17 1     
   36   16   36 1     
   37   17   18 2     
   38   17   37 1     
   39   19   38 1     
   40   19   39 1     
   41    8   40 1     
   42   11   41 1     
   43   11   42 1     
   44   18   43 1     
@<TRIPOS>SUBSTRUCTURE
      1 S1             1
@<TRIPOS>SET
LONE_PAIRS      STATIC     ATOMS    <user>   **** ""
4 40 41 42 43
DONOR_HYDROGENS      STATIC     ATOMS    <user>   **** ""
1 30
ATOM$BLUE        STATIC     ATOMS    COLORGROUP SYSTEM
4 40 41 42 43
ATOM$RED        STATIC     ATOMS    COLORGROUP SYSTEM
1 30
