#       Name:                AV-unprocessed.smi:3237
#       Creating user name   scv26
#       Creation time:       Fri Mar 27 18:23:09 2020


#       File generated by GOLD software.
#

@<TRIPOS>MOLECULE
AV-unprocessed.smi:3237
    42    44     1
SMALL
NO_CHARGES


@<TRIPOS>ATOM
      1 ****        -7.0027  -2.1994   0.2187 C.3            1 S1                 0.0000
      2 ****        -5.6775  -1.8755  -0.3818 C.2            1 S1                 0.0000
      3 ****        -4.3955  -2.0141   0.0691 C.2            1 S1                 0.0000
      4 ****        -3.6167  -1.4987  -1.0028 C.2            1 S1                 0.0000
      5 ****        -2.2771  -1.4283  -1.0424 N.pl3          1 S1                -1.0000
      6 ****        -1.6356  -0.3656  -0.5061 C.2            1 S1                 0.0000
      7 ****        -2.1577   0.5984   0.0583 O.2            1 S1                 0.0000
      8 ****        -0.3026  -0.4234  -0.6305 N.am           1 S1                 0.0000
      9 ****         0.6361   0.5839  -0.1499 C.3            1 S1                 0.0000
     10 ****         0.8582   0.5716   1.3652 C.3            1 S1                 0.0000
     11 ****         2.3076   1.0528   1.5474 C.3            1 S1                 0.0000
     12 ****         2.9015   1.1447   0.1932 N.4            1 S1                 1.0000
     13 ****         4.3337   0.7855   0.1293 C.3            1 S1                 0.0000
     14 ****         5.2584   1.9325   0.4596 C.3            1 S1                 0.0000
     15 ****         5.0838   1.4884  -0.9768 C.3            1 S1                 0.0000
     16 ****         2.0393   0.3499  -0.6975 C.3            1 S1                 0.0000
     17 ****        -4.3597  -1.0981  -2.0209 N.2            1 S1                 0.0000
     18 ****        -5.6833  -1.3298  -1.6277 O.3            1 S1                 0.0000
     19 ****        -6.9693  -3.1602   0.7324 H              1 S1                 0.0000
     20 ****        -7.7781  -2.2529  -0.5459 H              1 S1                 0.0000
     21 ****        -7.2932  -1.4380   0.9427 H              1 S1                 0.0000
     22 ****        -4.0665  -2.4158   1.0157 H              1 S1                 0.0000
     23 ****         0.0837  -1.2291  -1.1006 H              1 S1                 0.0000
     24 ****         0.3024   1.5765  -0.4598 H              1 S1                 0.0000
     25 ****         0.1400   1.2020   1.8904 H              1 S1                 0.0000
     26 ****         0.7577  -0.4416   1.7576 H              1 S1                 0.0000
     27 ****         2.3508   2.0298   2.0296 H              1 S1                 0.0000
     28 ****         2.8585   0.3489   2.1733 H              1 S1                 0.0000
     29 ****         4.5929  -0.2332   0.4129 H              1 S1                 0.0000
     30 ****         4.8156   2.8840   0.7493 H              1 S1                 0.0000
     31 ****         6.2030   1.6929   0.9437 H              1 S1                 0.0000
     32 ****         5.9134   0.9563  -1.4380 H              1 S1                 0.0000
     33 ****         4.5255   2.1450  -1.6420 H              1 S1                 0.0000
     34 ****         2.3088  -0.7059  -0.6267 H              1 S1                 0.0000
     35 ****         2.1402   0.6600  -1.7381 H              1 S1                 0.0000
     36 ****         2.8060   2.1065  -0.1000 H              1 S1                 0.0000
     37 ****        -1.7517  -2.1640  -1.4699 LP             1 S1                 0.0000
     38 ****        -3.1522   0.6437   0.1533 LP             1 S1                 0.0000
     39 ****        -1.5867   1.3348   0.4210 LP             1 S1                 0.0000
     40 ****        -4.0434  -0.7118  -2.8874 LP             1 S1                 0.0000
     41 ****        -6.1869  -0.4659  -1.6146 LP             1 S1                 0.0000
     42 ****        -6.1198  -1.9603  -2.2695 LP             1 S1                 0.0000
@<TRIPOS>BOND
    1    1    2 1     
    2    1   19 1     
    3    1   20 1     
    4    1   21 1     
    5    2   18 1     
    6    2    3 2     
    7    3    4 1     
    8    3   22 1     
    9    4    5 1     
   10    4   17 2     
   11    5    6 1     
   12    6    7 2     
   13    6    8 am    
   14    8    9 1     
   15    8   23 1     
   16    9   16 1     
   17    9   10 1     
   18    9   24 1     
   19   10   11 1     
   20   10   25 1     
   21   10   26 1     
   22   11   12 1     
   23   11   27 1     
   24   11   28 1     
   25   12   13 1     
   26   12   16 1     
   27   12   36 1     
   28   13   15 1     
   29   13   14 1     
   30   13   29 1     
   31   14   15 1     
   32   14   30 1     
   33   14   31 1     
   34   15   32 1     
   35   15   33 1     
   36   16   34 1     
   37   16   35 1     
   38   17   18 1     
   39    5   37 1     
   40    7   38 1     
   41    7   39 1     
   42   17   40 1     
   43   18   41 1     
   44   18   42 1     
@<TRIPOS>SUBSTRUCTURE
      1 S1             1
@<TRIPOS>SET
LONE_PAIRS      STATIC     ATOMS    <user>   **** ""
6 37 38 39 40 41 42
DONOR_HYDROGENS      STATIC     ATOMS    <user>   **** ""
2 23 36
ATOM$BLUE        STATIC     ATOMS    COLORGROUP SYSTEM
6 37 38 39 40 41 42
ATOM$RED        STATIC     ATOMS    COLORGROUP SYSTEM
2 23 36
