AV-unprocessed.smi:1275|AV-procd|sdf|5343|dock3
  -GOLD-   22720 4473D 1   1.00000     0.00000
 Structure written by MMmdl.
 42 43  0  0  0  0  0  0  0  0  1 V2000
  145.1748  135.6268  150.7495 C   0  0  0  0  0  0  0  0  0  0  0  0
  145.9622  136.0688  151.8413 O   0  0  0  0  0  0  0  0  0  0  0  0
  145.3863  137.1766  152.5127 C   0  0  0  0  0  0  0  0  0  0  0  0
  146.4213  137.7754  153.4690 C   0  0  0  0  0  0  0  0  0  0  0  0
  146.4931  139.1801  153.2446 O   0  0  0  0  0  0  0  0  0  0  0  0
  147.3856  139.9221  153.9910 C   0  0  0  0  0  0  0  0  0  0  0  0
  148.1819  139.2580  154.9447 C   0  0  0  0  0  0  0  0  0  0  0  0
  149.0957  140.0099  155.7070 C   0  0  0  0  0  0  0  0  0  0  0  0
  149.1947  141.3988  155.4890 C   0  0  0  0  0  0  0  0  0  0  0  0
  150.1113  142.1353  156.2870 N   0  0  0  0  0  0  0  0  0  0  0  0
  151.0626  141.6740  157.1230 C   0  0  0  0  0  0  0  0  0  0  0  0
  151.2797  140.4760  157.3055 O   0  0  0  0  0  0  0  0  0  0  0  0
  151.7797  142.6475  157.7392 N   0  0  0  0  0  0  0  0  0  0  0  0
  151.5921  144.0999  157.6069 C   0  0  0  0  0  0  0  0  0  0  0  0
  151.0248  144.6335  158.9343 C   0  0  0  0  0  0  0  0  0  0  0  0
  151.9132  144.3087  160.0012 O   0  0  0  0  0  0  0  0  0  0  0  0
  152.1481  142.9079  160.1388 C   0  0  2  0  0  0  0  0  0  0  0  0
  153.0979  142.6945  161.3223 C   0  0  0  0  0  0  0  0  0  0  0  0
  152.7302  142.3633  158.8184 C   0  0  0  0  0  0  0  0  0  0  0  0
  148.3403  141.9757  154.5181 C   0  0  0  0  0  0  0  0  0  0  0  0
  147.4614  141.2600  153.7847 N   0  0  0  0  0  0  0  0  0  0  0  0
  145.6573  134.7745  150.2713 H   0  0  0  0  0  0  0  0  0  0  0  0
  145.0615  136.4122  150.0013 H   0  0  0  0  0  0  0  0  0  0  0  0
  144.1843  135.3113  151.0790 H   0  0  0  0  0  0  0  0  0  0  0  0
  145.0674  137.9293  151.7903 H   0  0  0  0  0  0  0  0  0  0  0  0
  144.5040  136.8584  153.0703 H   0  0  0  0  0  0  0  0  0  0  0  0
  146.1290  137.5712  154.5006 H   0  0  0  0  0  0  0  0  0  0  0  0
  147.3937  137.3122  153.2945 H   0  0  0  0  0  0  0  0  0  0  0  0
  148.0928  138.1914  155.0894 H   0  0  0  0  0  0  0  0  0  0  0  0
  149.7149  139.5221  156.4457 H   0  0  0  0  0  0  0  0  0  0  0  0
  149.9867  143.1370  156.2764 H   0  0  0  0  0  0  0  0  0  0  0  0
  152.5550  144.5683  157.3979 H   0  0  0  0  0  0  0  0  0  0  0  0
  150.9382  144.3944  156.7864 H   0  0  0  0  0  0  0  0  0  0  0  0
  150.9109  145.7167  158.8884 H   0  0  0  0  0  0  0  0  0  0  0  0
  150.0362  144.2155  159.1308 H   0  0  0  0  0  0  0  0  0  0  0  0
  151.2018  142.4093  160.3565 H   0  0  0  0  0  0  0  0  0  0  0  0
  153.3002  141.6344  161.4767 H   0  0  0  0  0  0  0  0  0  0  0  0
  152.6668  143.0875  162.2432 H   0  0  0  0  0  0  0  0  0  0  0  0
  154.0514  143.1976  161.1596 H   0  0  0  0  0  0  0  0  0  0  0  0
  152.9504  141.2994  158.9171 H   0  0  0  0  0  0  0  0  0  0  0  0
  153.6837  142.8452  158.5960 H   0  0  0  0  0  0  0  0  0  0  0  0
  148.3284  143.0367  154.3239 H   0  0  0  0  0  0  0  0  0  0  0  0
  1  2  1  0  0  0  0
  1 22  1  0  0  0  0
  1 23  1  0  0  0  0
  1 24  1  0  0  0  0
  2  3  1  0  0  0  0
  3  4  1  0  0  0  0
  3 25  1  0  0  0  0
  3 26  1  0  0  0  0
  4  5  1  0  0  0  0
  4 27  1  0  0  0  0
  4 28  1  0  0  0  0
  5  6  1  0  0  0  0
  6 21  1  0  0  0  0
  6  7  2  0  0  0  0
  7  8  1  0  0  0  0
  7 29  1  0  0  0  0
  8  9  2  0  0  0  0
  8 30  1  0  0  0  0
  9 10  1  0  0  0  0
  9 20  1  0  0  0  0
 10 11  1  0  0  0  0
 10 31  1  0  0  0  0
 11 12  2  0  0  0  0
 11 13  1  0  0  0  0
 13 19  1  0  0  0  0
 13 14  1  0  0  0  0
 14 15  1  0  0  0  0
 14 32  1  0  0  0  0
 14 33  1  0  0  0  0
 15 16  1  0  0  0  0
 15 34  1  0  0  0  0
 15 35  1  0  0  0  0
 16 17  1  0  0  0  0
 17 18  1  0  0  0  0
 17 19  1  0  0  0  0
 17 36  1  0  0  0  0
 18 37  1  0  0  0  0
 18 38  1  0  0  0  0
 18 39  1  0  0  0  0
 19 40  1  0  0  0  0
 19 41  1  0  0  0  0
 20 21  2  0  0  0  0
 20 42  1  0  0  0  0
M  END
> <s_m_source_file>
AV-unprocessed.smi

> <i_m_source_file_index>
1275

> <i_lp_mmshare_version>
43012

> <i_f3d_flags>
0

> <s_epik_input>
W0NIM11PW0NIMl1bQ0gyXU9jMVtjSF1bY0hdYyhbY0hdbjEpW05IXUMoPU8pTjJbQ0gyXVtDSDJdT1tDQEBIXShbQ0gzXSlbQ0gyXTI=

> <s_epik_cmdline>
J2VwaWtfcHl0aG9uJywgJy1waCcsICc3LjAnLCAnLXRuJywgJzgnLCAnLW1hJywgJzIwMCcsICctbWV0YWxfYmluZGluZycsICctaW1hZScsICc8aW5maWxlLm1hZT4nLCAnLW9tYWUnLCAnPG91dGZpbGUubWFlPic=

> <r_lp_tautomer_probability>
1

> <r_epik_Ionization_Penalty>
5.69099e-05

> <r_epik_Ionization_Penalty_Charging>
0

> <r_epik_Ionization_Penalty_Neutral>
5.69099e-05

> <r_epik_State_Penalty>
-0

> <r_epik_Charging_Adjusted_Penalty>
0

> <i_epik_Tot_Q>
0

> <i_epik_Tot_abs_Q>
0

> <r_epik_Metal_State_Penalty>
-0

> <b_epik_Metal_Only>
0

> <s_lp_Force_Field>
OPLS_2005

> <r_lp_Energy>
33.547

> <b_lp_Chiralities_Consistent>
1

> <s_lp_Variant>
AV-unprocessed.smi:1275-2

> <Gold.Version>
5.8.1

> <Gold.Id.Protein>
6NUR|6NUR_protein|mol2

> <Gold.PLP.Fitness>
40.0229

> <Gold.PLP.PLP>
-35.7018

> <Gold.PLP.part.hbond>
-1.0000

> <Gold.PLP.part.metal>
0.0000

> <Gold.PLP.part.buried>
-6.3441

> <Gold.PLP.part.nonpolar>
-30.3901

> <Gold.PLP.part.repulsive>
1.3358

> <Gold.PLP.ligand.clash>
0.7097

> <Gold.PLP.ligand.torsion>
0.4268

> <Gold.PLP.Chemscore.Hbond>
0.9600

> <Gold.PLP.Chemscore.CHOScore>
0.9839

> <Gold.PLP.Chemscore.Metal>
0.0000

> <Gold.Chemscore.Hbonds>
donor molecule, donor type, donor heavy atom, donor atom, acceptor molecule, acceptor atom, score
      L1  H    10    31       P1  8028  0.96
      L1  C    20    42       P1  8028  1.00

> <Gold.PLP.Chemscore.Internal.Correction>
0.0528

> <Gold.Rescore>
     Score         DG    S(hbond)    S(metal)    S(lipo)     H(rot)  DE(clash)    DE(int)     intcor
     13.21     -15.43       0.99        0.00      92.33       1.62       0.34       1.88       ----

> <Gold.Chemscore.Fitness>
13.2139

> <Gold.Chemscore.DG>
-15.4344

> <Gold.Chemscore.ZeroCoef>
-5.4800

> <Gold.Chemscore.Hbond>
0.9862

> <Gold.Chemscore.Metal>
0.0000

> <Gold.Chemscore.Lipo>
92.3269

> <Gold.Chemscore.Internal_Hbond>
0.0000

> <Gold.Chemscore.DEClash>
0.3419

> <Gold.Chemscore.DEInternal>
1.8786

> <Gold.Chemscore.Rot>
1.6178

> <Gold.Chemscore.Internal.Correction>
   9.000000E+99

> <Gold.Chemscore.Hbonds>
donor molecule, donor type, donor heavy atom, donor atom, acceptor molecule, acceptor atom, score
      L1  H    10    31       P1  8028  0.87

> <Gold.Chemscore.Hbond.Weighted>
-3.2938

> <Gold.Chemscore.Metal.Weighted>
-0.0000

> <Gold.Chemscore.Lipo.Weighted>
-10.8023

> <Gold.Chemscore.Internal_Hbond.Weighted>
0.0000

> <Gold.Chemscore.DEClash.Weighted>
0.3419

> <Gold.Chemscore.DEInternal.Weighted>
1.8786

> <Gold.Chemscore.Rot.Weighted>
4.1416

> <Gold.Chemscore.Internal.Correction.Weighted>
   9.000000E+99

> <Gold.Protein.RotatedTorsions>
[ 6907 6896 6895 6894 ] final  115.09 input  -60.11 | X-H torsion
[ 7974 7965 7964 7962 ] final  -30.88 input  175.53 | X-H torsion
[ 8008 7997 7996 7995 ] final  -12.54 input   59.86 | X-H torsion
[ 10167 10162 10161 10158 ] final   35.28 input  -65.29 | X-H torsion
[ 10718 10713 10712 10709 ] final   93.69 input   66.30 | X-H torsion
[ 10763 10752 10751 10750 ] final  -38.62 input  -60.55 | X-H torsion
[ 11005 11000 10999 10996 ] final  137.74 input  -57.11 | X-H torsion

> <Gold.Protein.ActiveResidues>
 VAL166  LYS551  ARG553  GLY616  TRP617  ASP618  TYR619  PRO620  LYS621  CYS622 
 ASP623  PHE694  ASN695  SER759  ASP760  ASP761  ALA762  ILE779  LEU786  VAL792 
 PHE793  MET794  SER795  GLU796  ALA797  LYS798  CYS799  TRP800  GLU811  SER814 

> <Gold.Protein.RotatedAtoms>
  152.4763  133.8146  159.7021 H   0  0  0  0  0  0  0  0  0  0  0  0  # atno 6907 bound_to 6896
  150.8782  133.7400  159.2946 H   0  0  0  0  0  0  0  0  0  0  0  0  # atno 6908 bound_to 6896
  151.4913  135.1061  159.9856 H   0  0  0  0  0  0  0  0  0  0  0  0  # atno 6909 bound_to 6896
  146.1110  140.5596  142.8778 H   0  0  0  0  0  0  0  0  0  0  0  0  # atno 7974 bound_to 7965
  154.5368  140.2273  155.8708 H   0  0  0  0  0  0  0  0  0  0  0  0  # atno 8008 bound_to 7997
  156.1820  140.3098  155.9128 H   0  0  0  0  0  0  0  0  0  0  0  0  # atno 8009 bound_to 7997
  155.3338  140.0447  157.3034 H   0  0  0  0  0  0  0  0  0  0  0  0  # atno 8010 bound_to 7997
  140.4236  144.1424  150.6151 H   0  0  0  0  0  0  0  0  0  0  0  0  # atno 10167 bound_to 10162
  157.6953  131.0487  150.4072 H   0  0  0  0  0  0  0  0  0  0  0  0  # atno 10718 bound_to 10713
  153.9159  135.6787  153.4749 H   0  0  0  0  0  0  0  0  0  0  0  0  # atno 10763 bound_to 10752
  153.1054  135.4808  154.8939 H   0  0  0  0  0  0  0  0  0  0  0  0  # atno 10764 bound_to 10752
  154.7503  135.3183  154.8525 H   0  0  0  0  0  0  0  0  0  0  0  0  # atno 10765 bound_to 10752
  140.0135  134.9429  157.0326 H   0  0  0  0  0  0  0  0  0  0  0  0  # atno 11005 bound_to 11000
  144.7511  140.5194  143.6801 LP  0  0  0  0  0  0  0  0  0  0  0  0  # atno 17320 bound_to 7965
  145.5664  139.1481  143.3313 LP  0  0  0  0  0  0  0  0  0  0  0  0  # atno 17321 bound_to 7965
  140.4506  143.2488  151.9353 LP  0  0  0  0  0  0  0  0  0  0  0  0  # atno 17342 bound_to 10162
  139.4783  144.5566  151.8304 LP  0  0  0  0  0  0  0  0  0  0  0  0  # atno 17343 bound_to 10162
  156.4460  130.4001  149.6666 LP  0  0  0  0  0  0  0  0  0  0  0  0  # atno 17370 bound_to 10713
  156.3833  130.7590  151.2585 LP  0  0  0  0  0  0  0  0  0  0  0  0  # atno 17371 bound_to 10713
  140.4513  134.1579  155.7182 LP  0  0  0  0  0  0  0  0  0  0  0  0  # atno 17394 bound_to 11000
  141.1727  133.8577  157.1521 LP  0  0  0  0  0  0  0  0  0  0  0  0  # atno 17395 bound_to 11000

$$$$
