AV-unprocessed.smi:2331|AV-procd|sdf|9314|dock3
  -GOLD-   2272012533D 1   1.00000     0.00000
 Structure written by MMmdl.
 49 50  0  0  0  0  0  0  0  0  1 V2000
  148.9467  141.3458  154.3922 C   0  0  0  0  0  0  0  0  0  0  0  0
  149.0572  139.8695  154.8453 C   0  0  0  0  0  0  0  0  0  0  0  0
  150.4555  139.3750  154.4183 C   0  0  0  0  0  0  0  0  0  0  0  0
  148.9569  139.8090  156.3945 C   0  0  0  0  0  0  0  0  0  0  0  0
  150.1025  140.4279  157.0577 N   0  0  0  0  0  0  0  0  0  0  0  0
  150.0516  141.3822  158.0016 C   0  0  0  0  0  0  0  0  0  0  0  0
  149.0038  141.9371  158.3315 O   0  0  0  0  0  0  0  0  0  0  0  0
  151.2688  141.7208  158.4865 N   0  0  0  0  0  0  0  0  0  0  0  0
  152.3772  140.7611  158.5674 C   0  0  0  0  0  0  0  0  0  0  0  0
  153.1223  141.1036  159.8497 C   0  0  0  0  0  0  0  0  0  0  0  0
  152.9121  142.5998  159.9805 C   0  0  0  0  0  0  0  0  0  0  0  0
  151.5123  142.8638  159.3911 C   0  0  1  0  0  0  0  0  0  0  0  0
  151.3918  144.2697  158.7120 C   0  0  0  0  0  0  0  0  0  0  0  0
  151.6786  145.4144  159.7059 C   0  0  0  0  0  0  0  0  0  0  0  0
  152.2527  144.4254  157.4420 C   0  0  0  0  0  0  0  0  0  0  0  0
  150.0427  144.4827  158.3469 O   0  0  0  0  0  0  0  0  0  0  0  0
  147.9763  138.9747  154.2066 C   0  0  0  0  0  0  0  0  0  0  0  0
  147.1286  139.4203  153.1622 C   0  0  0  0  0  0  0  0  0  0  0  0
  146.1473  138.5449  152.6565 C   0  0  0  0  0  0  0  0  0  0  0  0
  145.9642  137.2890  153.1126 N   0  0  0  0  0  0  0  0  0  0  0  0
  146.7698  136.8610  154.1057 C   0  0  0  0  0  0  0  0  0  0  0  0
  147.7792  137.6568  154.6816 C   0  0  0  0  0  0  0  0  0  0  0  0
  149.7174  141.9599  154.8594 H   0  0  0  0  0  0  0  0  0  0  0  0
  147.9869  141.7897  154.6567 H   0  0  0  0  0  0  0  0  0  0  0  0
  149.0700  141.4442  153.3131 H   0  0  0  0  0  0  0  0  0  0  0  0
  151.2425  140.0011  154.8401 H   0  0  0  0  0  0  0  0  0  0  0  0
  150.5673  139.3952  153.3337 H   0  0  0  0  0  0  0  0  0  0  0  0
  150.6498  138.3544  154.7479 H   0  0  0  0  0  0  0  0  0  0  0  0
  148.0753  140.3555  156.7307 H   0  0  0  0  0  0  0  0  0  0  0  0
  148.8093  138.7826  156.7353 H   0  0  0  0  0  0  0  0  0  0  0  0
  151.0118  140.0590  156.8195 H   0  0  0  0  0  0  0  0  0  0  0  0
  152.0513  139.7193  158.5864 H   0  0  0  0  0  0  0  0  0  0  0  0
  153.0220  140.8971  157.6982 H   0  0  0  0  0  0  0  0  0  0  0  0
  152.6601  140.5907  160.6941 H   0  0  0  0  0  0  0  0  0  0  0  0
  154.1750  140.8218  159.8181 H   0  0  0  0  0  0  0  0  0  0  0  0
  153.0068  142.9452  161.0102 H   0  0  0  0  0  0  0  0  0  0  0  0
  153.6805  143.1022  159.3925 H   0  0  0  0  0  0  0  0  0  0  0  0
  150.7996  142.7967  160.2159 H   0  0  0  0  0  0  0  0  0  0  0  0
  152.7234  145.4361  160.0149 H   0  0  0  0  0  0  0  0  0  0  0  0
  151.0703  145.3197  160.6063 H   0  0  0  0  0  0  0  0  0  0  0  0
  151.4617  146.3887  159.2653 H   0  0  0  0  0  0  0  0  0  0  0  0
  153.3089  144.2615  157.6549 H   0  0  0  0  0  0  0  0  0  0  0  0
  152.1572  145.4264  157.0202 H   0  0  0  0  0  0  0  0  0  0  0  0
  151.9607  143.7215  156.6626 H   0  0  0  0  0  0  0  0  0  0  0  0
  149.9882  144.5255  157.4046 H   0  0  0  0  0  0  0  0  0  0  0  0
  147.2009  140.4112  152.7421 H   0  0  0  0  0  0  0  0  0  0  0  0
  145.4882  138.8655  151.8634 H   0  0  0  0  0  0  0  0  0  0  0  0
  146.6031  135.8531  154.4562 H   0  0  0  0  0  0  0  0  0  0  0  0
  148.3833  137.2549  155.4813 H   0  0  0  0  0  0  0  0  0  0  0  0
  1  2  1  0  0  0  0
  1 23  1  0  0  0  0
  1 24  1  0  0  0  0
  1 25  1  0  0  0  0
  2  3  1  0  0  0  0
  2  4  1  0  0  0  0
  2 17  1  0  0  0  0
  3 26  1  0  0  0  0
  3 27  1  0  0  0  0
  3 28  1  0  0  0  0
  4  5  1  0  0  0  0
  4 29  1  0  0  0  0
  4 30  1  0  0  0  0
  5  6  1  0  0  0  0
  5 31  1  0  0  0  0
  6  7  2  0  0  0  0
  6  8  1  0  0  0  0
  8 12  1  0  0  0  0
  8  9  1  0  0  0  0
  9 10  1  0  0  0  0
  9 32  1  0  0  0  0
  9 33  1  0  0  0  0
 10 11  1  0  0  0  0
 10 34  1  0  0  0  0
 10 35  1  0  0  0  0
 11 12  1  0  0  0  0
 11 36  1  0  0  0  0
 11 37  1  0  0  0  0
 12 13  1  0  0  0  0
 12 38  1  0  0  0  0
 13 14  1  0  0  0  0
 13 15  1  0  0  0  0
 13 16  1  0  0  0  0
 14 39  1  0  0  0  0
 14 40  1  0  0  0  0
 14 41  1  0  0  0  0
 15 42  1  0  0  0  0
 15 43  1  0  0  0  0
 15 44  1  0  0  0  0
 16 45  1  0  0  0  0
 17 22  1  0  0  0  0
 17 18  2  0  0  0  0
 18 19  1  0  0  0  0
 18 46  1  0  0  0  0
 19 20  2  0  0  0  0
 19 47  1  0  0  0  0
 20 21  1  0  0  0  0
 21 22  2  0  0  0  0
 21 48  1  0  0  0  0
 22 49  1  0  0  0  0
M  END
> <s_m_source_file>
AV-unprocessed.smi

> <i_m_source_file_index>
2331

> <i_lp_mmshare_version>
43012

> <i_f3d_flags>
0

> <s_epik_input>
W2NIXTFbY0hdbltjSF1bY0hdYzFDKFtDSDNdKShbQ0gzXSlbQ0gyXVtOSF1DKD1PKU4yW0NIMl1bQ0gyXVtDSDJdW0NASF0yQyhbQ0gzXSkoW0NIM10pW09IXQ==

> <s_epik_cmdline>
J2VwaWtfcHl0aG9uJywgJy1waCcsICc3LjAnLCAnLXRuJywgJzgnLCAnLW1hJywgJzIwMCcsICctbWV0YWxfYmluZGluZycsICctaW1hZScsICc8aW5maWxlLm1hZT4nLCAnLW9tYWUnLCAnPG91dGZpbGUubWFlPic=

> <r_epik_Ionization_Penalty>
0.0581496

> <r_epik_Ionization_Penalty_Charging>
0

> <r_epik_Ionization_Penalty_Neutral>
0.0581496

> <r_epik_State_Penalty>
0.0501956

> <r_epik_Charging_Adjusted_Penalty>
0.0501956

> <i_epik_Tot_Q>
0

> <i_epik_Tot_abs_Q>
0

> <r_epik_Metal_State_Penalty>
0.0456895

> <b_epik_Metal_Only>
0

> <s_lp_Force_Field>
OPLS_2005

> <r_lp_Energy>
47.1334

> <b_lp_Chiralities_Consistent>
1

> <s_lp_Variant>
AV-unprocessed.smi:2331-1

> <Gold.Version>
5.8.1

> <Gold.Id.Protein>
6NUR|6NUR_protein|mol2

> <Gold.PLP.Fitness>
47.8176

> <Gold.PLP.PLP>
-41.2048

> <Gold.PLP.part.hbond>
-2.0000

> <Gold.PLP.part.metal>
0.0000

> <Gold.PLP.part.buried>
-2.2713

> <Gold.PLP.part.nonpolar>
-36.6875

> <Gold.PLP.part.repulsive>
0.2993

> <Gold.PLP.ligand.clash>
0.0000

> <Gold.PLP.ligand.torsion>
0.6860

> <Gold.PLP.Chemscore.Hbond>
0.9833

> <Gold.PLP.Chemscore.CHOScore>
1.5176

> <Gold.PLP.Chemscore.Metal>
0.0000

> <Gold.Chemscore.Hbonds>
donor molecule, donor type, donor heavy atom, donor atom, acceptor molecule, acceptor atom, score
      L1  H    16    45       P1  8028  0.99
      L1  C    19    47       P1 10171  0.79
      L1  C    19    47       P1 10175  0.76

> <Gold.PLP.Chemscore.Internal.Correction>
0.4822

> <Gold.Rescore>
     Score         DG    S(hbond)    S(metal)    S(lipo)     H(rot)  DE(clash)    DE(int)     intcor
     14.84     -16.51       0.44        0.00     124.08       1.94       0.93       0.74       ----

> <Gold.Chemscore.Fitness>
14.8360

> <Gold.Chemscore.DG>
-16.5064

> <Gold.Chemscore.ZeroCoef>
-5.4800

> <Gold.Chemscore.Hbond>
0.4378

> <Gold.Chemscore.Metal>
0.0000

> <Gold.Chemscore.Lipo>
124.0825

> <Gold.Chemscore.Internal_Hbond>
0.0000

> <Gold.Chemscore.DEClash>
0.9313

> <Gold.Chemscore.DEInternal>
0.7391

> <Gold.Chemscore.Rot>
1.9350

> <Gold.Chemscore.Internal.Correction>
   9.000000E+99

> <Gold.Chemscore.Hbonds>
donor molecule, donor type, donor heavy atom, donor atom, acceptor molecule, acceptor atom, score
      L1  H    16    45       P1  8028  0.23

> <Gold.Chemscore.Hbond.Weighted>
-1.4624

> <Gold.Chemscore.Metal.Weighted>
-0.0000

> <Gold.Chemscore.Lipo.Weighted>
-14.5177

> <Gold.Chemscore.Internal_Hbond.Weighted>
0.0000

> <Gold.Chemscore.DEClash.Weighted>
0.9313

> <Gold.Chemscore.DEInternal.Weighted>
0.7391

> <Gold.Chemscore.Rot.Weighted>
4.9536

> <Gold.Chemscore.Internal.Correction.Weighted>
   9.000000E+99

> <Gold.Protein.RotatedTorsions>
[ 6907 6896 6895 6894 ] final   75.97 input  -60.11 | X-H torsion
[ 7974 7965 7964 7962 ] final  -31.51 input  175.53 | X-H torsion
[ 8008 7997 7996 7995 ] final  -67.95 input   59.86 | X-H torsion
[ 10167 10162 10161 10158 ] final  148.01 input  -65.29 | X-H torsion
[ 10718 10713 10712 10709 ] final -167.21 input   66.30 | X-H torsion
[ 10763 10752 10751 10750 ] final   18.08 input  -60.55 | X-H torsion
[ 11005 11000 10999 10996 ] final   83.06 input  -57.11 | X-H torsion

> <Gold.Protein.ActiveResidues>
 VAL166  LYS551  ARG553  GLY616  TRP617  ASP618  TYR619  PRO620  LYS621  CYS622 
 ASP623  PHE694  ASN695  SER759  ASP760  ASP761  ALA762  ILE779  LEU786  VAL792 
 PHE793  MET794  SER795  GLU796  ALA797  LYS798  CYS799  TRP800  GLU811  SER814 

> <Gold.Protein.RotatedAtoms>
  152.5051  134.4039  159.9425 H   0  0  0  0  0  0  0  0  0  0  0  0  # atno 6907 bound_to 6896
  151.4004  133.3753  159.2739 H   0  0  0  0  0  0  0  0  0  0  0  0  # atno 6908 bound_to 6896
  150.9366  134.8799  159.7644 H   0  0  0  0  0  0  0  0  0  0  0  0  # atno 6909 bound_to 6896
  146.1062  140.5676  142.8798 H   0  0  0  0  0  0  0  0  0  0  0  0  # atno 7974 bound_to 7965
  154.4835  140.0882  156.7432 H   0  0  0  0  0  0  0  0  0  0  0  0  # atno 8008 bound_to 7997
  155.4410  140.3453  155.4272 H   0  0  0  0  0  0  0  0  0  0  0  0  # atno 8009 bound_to 7997
  156.1226  140.1478  156.9170 H   0  0  0  0  0  0  0  0  0  0  0  0  # atno 8010 bound_to 7997
  139.4881  144.5712  151.7051 H   0  0  0  0  0  0  0  0  0  0  0  0  # atno 10167 bound_to 10162
  156.6791  130.9114  151.3054 H   0  0  0  0  0  0  0  0  0  0  0  0  # atno 10718 bound_to 10713
  153.1281  135.6734  153.9223 H   0  0  0  0  0  0  0  0  0  0  0  0  # atno 10763 bound_to 10752
  153.8718  135.3069  155.3443 H   0  0  0  0  0  0  0  0  0  0  0  0  # atno 10764 bound_to 10752
  154.7683  135.4953  153.9678 H   0  0  0  0  0  0  0  0  0  0  0  0  # atno 10765 bound_to 10752
  139.9043  134.8117  156.2258 H   0  0  0  0  0  0  0  0  0  0  0  0  # atno 11005 bound_to 11000
  144.7473  140.5100  143.6827 LP  0  0  0  0  0  0  0  0  0  0  0  0  # atno 17320 bound_to 7965
  145.5756  139.1486  143.3264 LP  0  0  0  0  0  0  0  0  0  0  0  0  # atno 17321 bound_to 7965
  140.5300  144.0746  150.6050 LP  0  0  0  0  0  0  0  0  0  0  0  0  # atno 17342 bound_to 10162
  140.3732  143.2843  152.0254 LP  0  0  0  0  0  0  0  0  0  0  0  0  # atno 17343 bound_to 10162
  157.7050  130.9375  150.0902 LP  0  0  0  0  0  0  0  0  0  0  0  0  # atno 17370 bound_to 10713
  156.1881  130.3653  149.8946 LP  0  0  0  0  0  0  0  0  0  0  0  0  # atno 17371 bound_to 10713
  141.0377  133.6954  156.1542 LP  0  0  0  0  0  0  0  0  0  0  0  0  # atno 17394 bound_to 11000
  140.7002  134.4572  157.5586 LP  0  0  0  0  0  0  0  0  0  0  0  0  # atno 17395 bound_to 11000

$$$$
