AV-unprocessed.smi:3085|AV-procd|sdf|11755|dock3
  -GOLD-   2272017143D 1   1.00000     0.00000
 Structure written by MMmdl.
 27 28  0  0  0  0  0  0  0  0  1 V2000
  145.9784  143.2537  154.2788 C   0  0  0  0  0  0  0  0  0  0  0  0
  146.5642  142.0210  153.5821 C   0  0  0  0  0  0  0  0  0  0  0  0
  147.8204  141.5381  154.2294 C   0  0  0  0  0  0  0  0  0  0  0  0
  148.3893  140.3579  154.0102 N   0  0  0  0  0  0  0  0  0  0  0  0
  149.4894  140.4629  154.8188 C   0  0  0  0  0  0  0  0  0  0  0  0
  150.4862  139.3601  154.9969 C   0  0  1  0  0  0  0  0  0  0  0  0
  150.3943  138.3078  153.8746 C   0  0  0  0  0  0  0  0  0  0  0  0
  151.4483  137.3063  154.0315 N   0  0  0  0  0  0  0  0  0  0  0  0
  152.7680  137.9335  154.0940 C   0  0  0  0  0  0  0  0  0  0  0  0
  152.8035  138.9995  155.2042 C   0  0  0  0  0  0  0  0  0  0  0  0
  151.7792  139.9612  154.9770 O   0  0  0  0  0  0  0  0  0  0  0  0
  149.5967  141.5982  155.5087 N   0  0  0  0  0  0  0  0  0  0  0  0
  148.5096  142.2834  155.0957 N   0  0  0  0  0  0  0  0  0  0  0  0
  148.2852  143.2121  155.4228 H   0  0  0  0  0  0  0  0  0  0  0  0
  145.0643  143.5817  153.7835 H   0  0  0  0  0  0  0  0  0  0  0  0
  146.6829  144.0860  154.2641 H   0  0  0  0  0  0  0  0  0  0  0  0
  145.7356  143.0384  155.3196 H   0  0  0  0  0  0  0  0  0  0  0  0
  145.8318  141.2128  153.5785 H   0  0  0  0  0  0  0  0  0  0  0  0
  146.7768  142.2524  152.5377 H   0  0  0  0  0  0  0  0  0  0  0  0
  150.3206  138.8906  155.9688 H   0  0  0  0  0  0  0  0  0  0  0  0
  149.4158  137.8273  153.8882 H   0  0  0  0  0  0  0  0  0  0  0  0
  150.4911  138.7954  152.9036 H   0  0  0  0  0  0  0  0  0  0  0  0
  151.4175  136.6559  153.2530 H   0  0  0  0  0  0  0  0  0  0  0  0
  153.5333  137.1784  154.2747 H   0  0  0  0  0  0  0  0  0  0  0  0
  153.0044  138.3967  153.1354 H   0  0  0  0  0  0  0  0  0  0  0  0
  152.6824  138.5437  156.1883 H   0  0  0  0  0  0  0  0  0  0  0  0
  153.7681  139.5073  155.2060 H   0  0  0  0  0  0  0  0  0  0  0  0
  1  2  1  0  0  0  0
  1 15  1  0  0  0  0
  1 16  1  0  0  0  0
  1 17  1  0  0  0  0
  2  3  1  0  0  0  0
  2 18  1  0  0  0  0
  2 19  1  0  0  0  0
  3 13  1  0  0  0  0
  3  4  2  0  0  0  0
  4  5  1  0  0  0  0
  5  6  1  0  0  0  0
  5 12  2  0  0  0  0
  6 11  1  0  0  0  0
  6  7  1  0  0  0  0
  6 20  1  0  0  0  0
  7  8  1  0  0  0  0
  7 21  1  0  0  0  0
  7 22  1  0  0  0  0
  8  9  1  0  0  0  0
  8 23  1  0  0  0  0
  9 10  1  0  0  0  0
  9 24  1  0  0  0  0
  9 25  1  0  0  0  0
 10 11  1  0  0  0  0
 10 26  1  0  0  0  0
 10 27  1  0  0  0  0
 12 13  1  0  0  0  0
 13 14  1  0  0  0  0
M  END
> <s_m_source_file>
AV-unprocessed.smi

> <i_m_source_file_index>
3085

> <i_lp_mmshare_version>
43012

> <i_f3d_flags>
0

> <s_epik_input>
W0NIM11bQ0gyXWMxbmMobltuSF0xKVtDQEBIXTJbQ0gyXVtOSF1bQ0gyXVtDSDJdTzI=

> <s_epik_cmdline>
J2VwaWtfcHl0aG9uJywgJy1waCcsICc3LjAnLCAnLXRuJywgJzgnLCAnLW1hJywgJzIwMCcsICctbWV0YWxfYmluZGluZycsICctaW1hZScsICc8aW5maWxlLm1hZT4nLCAnLW9tYWUnLCAnPG91dGZpbGUubWFlPic=

> <r_lp_tautomer_probability>
0.948284

> <r_epik_Ionization_Penalty>
1.10101

> <r_epik_Ionization_Penalty_Charging>
0

> <r_epik_Ionization_Penalty_Neutral>
1.10101

> <r_epik_State_Penalty>
1.49451

> <r_epik_Charging_Adjusted_Penalty>
1.49451

> <i_epik_Tot_Q>
0

> <i_epik_Tot_abs_Q>
0

> <r_epik_Metal_State_Penalty>
1.71443

> <b_epik_Metal_Only>
0

> <s_lp_Force_Field>
OPLS_2005

> <r_lp_Energy>
11.0497

> <b_lp_Chiralities_Consistent>
1

> <s_lp_Variant>
AV-unprocessed.smi:3085-6

> <Gold.Version>
5.8.1

> <Gold.Id.Protein>
6NUR|6NUR_protein|mol2

> <Gold.PLP.Fitness>
32.6003

> <Gold.PLP.PLP>
-24.9274

> <Gold.PLP.part.hbond>
-3.3394

> <Gold.PLP.part.metal>
0.0000

> <Gold.PLP.part.buried>
-2.7637

> <Gold.PLP.part.nonpolar>
-19.7858

> <Gold.PLP.part.repulsive>
0.4630

> <Gold.PLP.ligand.clash>
0.0000

> <Gold.PLP.ligand.torsion>
0.5981

> <Gold.PLP.Chemscore.Hbond>
2.9520

> <Gold.PLP.Chemscore.CHOScore>
0.0000

> <Gold.PLP.Chemscore.Metal>
0.0000

> <Gold.Chemscore.Hbonds>
donor molecule, donor type, donor heavy atom, donor atom, acceptor molecule, acceptor atom, score
      L1  H     8    23       P1  7949  1.00
      L1  H    13    14       P1  8028  0.91
      P1  H  7989  7998       L1    11  0.98

> <Gold.PLP.Chemscore.Internal.Correction>
0.0132

> <Gold.Rescore>
     Score         DG    S(hbond)    S(metal)    S(lipo)     H(rot)  DE(clash)    DE(int)     intcor
     12.16     -14.03       1.91        0.00      46.65       1.28       1.32       0.54       ----

> <Gold.Chemscore.Fitness>
12.1640

> <Gold.Chemscore.DG>
-14.0287

> <Gold.Chemscore.ZeroCoef>
-5.4800

> <Gold.Chemscore.Hbond>
1.9075

> <Gold.Chemscore.Metal>
0.0000

> <Gold.Chemscore.Lipo>
46.6505

> <Gold.Chemscore.Internal_Hbond>
0.0000

> <Gold.Chemscore.DEClash>
1.3236

> <Gold.Chemscore.DEInternal>
0.5410

> <Gold.Chemscore.Rot>
1.2815

> <Gold.Chemscore.Internal.Correction>
   9.000000E+99

> <Gold.Chemscore.Hbonds>
donor molecule, donor type, donor heavy atom, donor atom, acceptor molecule, acceptor atom, score
      L1  H     8    23       P1  7949  0.82
      L1  H    13    14       P1  8028  0.84
      P1  H  7989  7998       L1    11  0.24

> <Gold.Chemscore.Hbond.Weighted>
-6.3711

> <Gold.Chemscore.Metal.Weighted>
-0.0000

> <Gold.Chemscore.Lipo.Weighted>
-5.4581

> <Gold.Chemscore.Internal_Hbond.Weighted>
0.0000

> <Gold.Chemscore.DEClash.Weighted>
1.3236

> <Gold.Chemscore.DEInternal.Weighted>
0.5410

> <Gold.Chemscore.Rot.Weighted>
3.2805

> <Gold.Chemscore.Internal.Correction.Weighted>
   9.000000E+99

> <Gold.Protein.RotatedTorsions>
[ 6907 6896 6895 6894 ] final  -18.02 input  -60.11 | X-H torsion
[ 7974 7965 7964 7962 ] final   17.71 input  175.53 | X-H torsion
[ 8008 7997 7996 7995 ] final  147.42 input   59.86 | X-H torsion
[ 10167 10162 10161 10158 ] final -101.92 input  -65.29 | X-H torsion
[ 10718 10713 10712 10709 ] final  -92.12 input   66.30 | X-H torsion
[ 10763 10752 10751 10750 ] final  152.94 input  -60.55 | X-H torsion
[ 11005 11000 10999 10996 ] final  -28.06 input  -57.11 | X-H torsion

> <Gold.Protein.ActiveResidues>
 VAL166  LYS551  ARG553  GLY616  TRP617  ASP618  TYR619  PRO620  LYS621  CYS622 
 ASP623  PHE694  ASN695  SER759  ASP760  ASP761  ALA762  ILE779  LEU786  VAL792 
 PHE793  MET794  SER795  GLU796  ALA797  LYS798  CYS799  TRP800  GLU811  SER814 

> <Gold.Protein.RotatedAtoms>
  151.2845  135.0724  159.9181 H   0  0  0  0  0  0  0  0  0  0  0  0  # atno 6907 bound_to 6896
  152.5328  133.9996  159.7899 H   0  0  0  0  0  0  0  0  0  0  0  0  # atno 6908 bound_to 6896
  151.0255  133.5786  159.2697 H   0  0  0  0  0  0  0  0  0  0  0  0  # atno 6909 bound_to 6896
  146.2209  139.8562  142.8613 H   0  0  0  0  0  0  0  0  0  0  0  0  # atno 7974 bound_to 7965
  156.2825  140.2156  156.5534 H   0  0  0  0  0  0  0  0  0  0  0  0  # atno 8008 bound_to 7997
  154.7272  140.0498  157.0716 H   0  0  0  0  0  0  0  0  0  0  0  0  # atno 8009 bound_to 7997
  155.0401  140.3144  155.4731 H   0  0  0  0  0  0  0  0  0  0  0  0  # atno 8010 bound_to 7997
  140.2362  143.3571  152.0843 H   0  0  0  0  0  0  0  0  0  0  0  0  # atno 10167 bound_to 10162
  155.9999  130.4974  150.5577 H   0  0  0  0  0  0  0  0  0  0  0  0  # atno 10718 bound_to 10713
  154.1281  135.2828  155.3192 H   0  0  0  0  0  0  0  0  0  0  0  0  # atno 10763 bound_to 10752
  154.6375  135.5414  153.7754 H   0  0  0  0  0  0  0  0  0  0  0  0  # atno 10764 bound_to 10752
  153.0290  135.6478  154.1433 H   0  0  0  0  0  0  0  0  0  0  0  0  # atno 10765 bound_to 10752
  140.9175  133.7421  156.0754 H   0  0  0  0  0  0  0  0  0  0  0  0  # atno 11005 bound_to 11000
  145.2751  141.0121  143.3749 LP  0  0  0  0  0  0  0  0  0  0  0  0  # atno 17320 bound_to 7965
  144.9193  139.4431  143.6549 LP  0  0  0  0  0  0  0  0  0  0  0  0  # atno 17321 bound_to 7965
  139.5093  144.6864  151.5875 LP  0  0  0  0  0  0  0  0  0  0  0  0  # atno 17342 bound_to 10162
  140.6148  143.9369  150.6480 LP  0  0  0  0  0  0  0  0  0  0  0  0  # atno 17343 bound_to 10162
  157.3491  131.0730  151.1727 LP  0  0  0  0  0  0  0  0  0  0  0  0  # atno 17370 bound_to 10713
  157.2550  130.6632  149.5948 LP  0  0  0  0  0  0  0  0  0  0  0  0  # atno 17371 bound_to 10713
  140.8031  134.3485  157.5433 LP  0  0  0  0  0  0  0  0  0  0  0  0  # atno 17394 bound_to 11000
  139.8769  134.9210  156.3264 LP  0  0  0  0  0  0  0  0  0  0  0  0  # atno 17395 bound_to 11000

$$$$
