#       Name:                AV-unprocessed.smi:3285
#       Creating user name   scv26
#       Creation time:       Fri Mar 27 18:50:51 2020


#       File generated by GOLD software.
#

@<TRIPOS>MOLECULE
AV-unprocessed.smi:3285
    48    49     1
SMALL
NO_CHARGES


@<TRIPOS>ATOM
      1 ****        -2.6994   2.0661  -2.3683 C.3            1 S1                 0.0000
      2 ****        -2.7937   2.9587  -1.1641 C.2            1 S1                 0.0000
      3 ****        -3.2342   4.1977  -1.3012 N.2            1 S1                 0.0000
      4 ****        -3.2007   4.7602  -0.0216 O.3            1 S1                 0.0000
      5 ****        -2.7326   3.8271   0.8460 C.2            1 S1                 0.0000
      6 ****        -2.6190   4.2377   2.2751 C.3            1 S1                 0.0000
      7 ****        -2.4541   2.6613   0.1871 C.2            1 S1                 0.0000
      8 ****        -1.9155   1.3707   0.7423 C.3            1 S1                 0.0000
      9 ****        -0.4094   1.2347   0.4850 C.3            1 S1                 0.0000
     10 ****         0.1042  -0.0440   1.0183 N.4            1 S1                 1.0000
     11 ****         1.5694  -0.2394   0.9104 C.3            1 S1                 0.0000
     12 ****         2.0254  -1.3919   1.8208 C.3            1 S1                 0.0000
     13 ****         1.5649  -2.7600   1.2929 C.3            1 S1                 0.0000
     14 ****         2.0300  -3.0141  -0.1553 C.3            1 S1                 0.0000
     15 ****         1.5488  -4.3994  -0.6222 C.3            1 S1                 0.0000
     16 ****         1.5665  -1.8649  -1.0893 C.3            1 S1                 0.0000
     17 ****         2.0566  -2.0360  -2.5383 C.3            1 S1                 0.0000
     18 ****         2.0291  -0.4975  -0.5401 C.3            1 S1                 0.0000
     19 ****        -1.6599   1.9107  -2.6573 H              1 S1                 0.0000
     20 ****        -3.2222   2.4889  -3.2271 H              1 S1                 0.0000
     21 ****        -3.1376   1.0890  -2.1655 H              1 S1                 0.0000
     22 ****        -1.6366   3.9837   2.6734 H              1 S1                 0.0000
     23 ****        -3.3714   3.7335   2.8817 H              1 S1                 0.0000
     24 ****        -2.7600   5.3131   2.3882 H              1 S1                 0.0000
     25 ****        -2.1048   1.3063   1.8144 H              1 S1                 0.0000
     26 ****        -2.4360   0.5206   0.2998 H              1 S1                 0.0000
     27 ****        -0.2165   1.2913  -0.5860 H              1 S1                 0.0000
     28 ****         0.1227   2.0632   0.9547 H              1 S1                 0.0000
     29 ****        -0.1348  -0.0772   1.9990 H              1 S1                 0.0000
     30 ****         2.0446   0.6740   1.2709 H              1 S1                 0.0000
     31 ****         3.1143  -1.3865   1.8877 H              1 S1                 0.0000
     32 ****         1.6600  -1.2399   2.8372 H              1 S1                 0.0000
     33 ****         1.9490  -3.5430   1.9478 H              1 S1                 0.0000
     34 ****         0.4775  -2.8268   1.3471 H              1 S1                 0.0000
     35 ****         3.1211  -3.0305  -0.1536 H              1 S1                 0.0000
     36 ****         0.4632  -4.4316  -0.7194 H              1 S1                 0.0000
     37 ****         1.8402  -5.1742   0.0878 H              1 S1                 0.0000
     38 ****         1.9809  -4.6759  -1.5835 H              1 S1                 0.0000
     39 ****         0.4759  -1.8650  -1.1150 H              1 S1                 0.0000
     40 ****         3.1432  -2.1163  -2.5834 H              1 S1                 0.0000
     41 ****         1.7624  -1.1855  -3.1536 H              1 S1                 0.0000
     42 ****         1.6348  -2.9243  -3.0076 H              1 S1                 0.0000
     43 ****         1.6977   0.3053  -1.1982 H              1 S1                 0.0000
     44 ****         3.1191  -0.4600  -0.5684 H              1 S1                 0.0000
     45 ****        -0.3609  -0.8093   0.5511 H              1 S1                 0.0000
     46 ****        -3.5307   4.6416  -2.1468 LP             1 S1                 0.0000
     47 ****        -4.1221   5.0399   0.2483 LP             1 S1                 0.0000
     48 ****        -2.5963   5.5569  -0.0189 LP             1 S1                 0.0000
@<TRIPOS>BOND
    1    1    2 1     
    2    1   19 1     
    3    1   20 1     
    4    1   21 1     
    5    2    7 1     
    6    2    3 2     
    7    3    4 1     
    8    4    5 1     
    9    5    6 1     
   10    5    7 2     
   11    6   22 1     
   12    6   23 1     
   13    6   24 1     
   14    7    8 1     
   15    8    9 1     
   16    8   25 1     
   17    8   26 1     
   18    9   10 1     
   19    9   27 1     
   20    9   28 1     
   21   10   11 1     
   22   10   29 1     
   23   10   45 1     
   24   11   18 1     
   25   11   12 1     
   26   11   30 1     
   27   12   13 1     
   28   12   31 1     
   29   12   32 1     
   30   13   14 1     
   31   13   33 1     
   32   13   34 1     
   33   14   15 1     
   34   14   16 1     
   35   14   35 1     
   36   15   36 1     
   37   15   37 1     
   38   15   38 1     
   39   16   17 1     
   40   16   18 1     
   41   16   39 1     
   42   17   40 1     
   43   17   41 1     
   44   17   42 1     
   45   18   43 1     
   46   18   44 1     
   47    3   46 1     
   48    4   47 1     
   49    4   48 1     
@<TRIPOS>SUBSTRUCTURE
      1 S1             1
@<TRIPOS>SET
LONE_PAIRS      STATIC     ATOMS    <user>   **** ""
3 46 47 48
DONOR_HYDROGENS      STATIC     ATOMS    <user>   **** ""
2 29 45
ATOM$BLUE        STATIC     ATOMS    COLORGROUP SYSTEM
3 46 47 48
ATOM$RED        STATIC     ATOMS    COLORGROUP SYSTEM
2 29 45
