#       Name:                AV-unprocessed.smi:1944
#       Creating user name   scv26
#       Creation time:       Fri Mar 27 10:00:26 2020


#       File generated by GOLD software.
#

@<TRIPOS>MOLECULE
AV-unprocessed.smi:1944
    51    52     1
SMALL
NO_CHARGES


@<TRIPOS>ATOM
      1 ****        -6.5253  -1.4034   2.0400 C.3            1 S1                 0.0000
      2 ****        -5.2560  -0.9098   1.6259 O.3            1 S1                 0.0000
      3 ****        -5.1508   0.4206   1.2666 C.ar           1 S1                 0.0000
      4 ****        -6.2632   1.1950   1.3270 N.ar           1 S1                 0.0000
      5 ****        -6.1639   2.4920   0.9709 C.ar           1 S1                 0.0000
      6 ****        -4.9636   3.0803   0.5326 C.ar           1 S1                 0.0000
      7 ****        -3.8081   2.2795   0.4700 C.ar           1 S1                 0.0000
      8 ****        -3.8926   0.9193   0.8553 C.ar           1 S1                 0.0000
      9 ****        -2.7946   0.0158   0.8146 N.am           1 S1                 0.0000
     10 ****        -1.4795   0.2902   0.8339 C.2            1 S1                 0.0000
     11 ****        -0.9847   1.4150   0.9025 O.2            1 S1                 0.0000
     12 ****        -0.7485  -0.8325   0.7840 N.am           1 S1                 0.0000
     13 ****         0.7089  -0.8796   0.8137 C.3            1 S1                 0.0000
     14 ****         1.3155  -0.5472  -0.5655 C.3            1 S1                 0.0000
     15 ****         2.8062  -0.5092  -0.5450 N.4            1 S1                 1.0000
     16 ****         3.3800  -1.8827  -0.4464 C.3            1 S1                 0.0000
     17 ****         4.9064  -1.8634  -0.2910 C.3            1 S1                 0.0000
     18 ****         5.5506  -1.1258  -1.4636 C.3            1 S1                 0.0000
     19 ****         4.9625   0.2839  -1.5543 C.3            1 S1                 0.0000
     20 ****         3.4210   0.2712  -1.6703 C.3            1 S1                 0.0000
     21 ****         2.9310   1.7340  -1.7368 C.3            1 S1                 0.0000
     22 ****        -6.4387  -2.4622   2.2830 H              1 S1                 0.0000
     23 ****        -7.2696  -1.3061   1.2482 H              1 S1                 0.0000
     24 ****        -6.8820  -0.8874   2.9325 H              1 S1                 0.0000
     25 ****        -7.0700   3.0766   1.0311 H              1 S1                 0.0000
     26 ****        -4.9308   4.1212   0.2463 H              1 S1                 0.0000
     27 ****        -2.8899   2.7205   0.1149 H              1 S1                 0.0000
     28 ****        -3.0450  -0.9622   0.8403 H              1 S1                 0.0000
     29 ****        -1.2351  -1.7161   0.7358 H              1 S1                 0.0000
     30 ****         1.0867  -0.1928   1.5732 H              1 S1                 0.0000
     31 ****         0.9843  -1.8821   1.1371 H              1 S1                 0.0000
     32 ****         0.9749  -1.2590  -1.3191 H              1 S1                 0.0000
     33 ****         0.9089   0.4158  -0.8603 H              1 S1                 0.0000
     34 ****         2.9632  -2.4144   0.4070 H              1 S1                 0.0000
     35 ****         3.1061  -2.4549  -1.3343 H              1 S1                 0.0000
     36 ****         5.1778  -1.3791   0.6480 H              1 S1                 0.0000
     37 ****         5.2890  -2.8831  -0.2370 H              1 S1                 0.0000
     38 ****         6.6320  -1.0769  -1.3323 H              1 S1                 0.0000
     39 ****         5.3697  -1.6676  -2.3929 H              1 S1                 0.0000
     40 ****         5.2603   0.8548  -0.6734 H              1 S1                 0.0000
     41 ****         5.3982   0.7975  -2.4124 H              1 S1                 0.0000
     42 ****         3.1533  -0.2213  -2.6066 H              1 S1                 0.0000
     43 ****         3.5356   2.3154  -2.4338 H              1 S1                 0.0000
     44 ****         2.9965   2.2215  -0.7635 H              1 S1                 0.0000
     45 ****         1.9059   1.8188  -2.0947 H              1 S1                 0.0000
     46 ****         3.0654  -0.0220   0.3010 H              1 S1                 0.0000
     47 ****        -4.9718  -1.4523   0.8354 LP             1 S1                 0.0000
     48 ****        -4.6190  -1.0627   2.3814 LP             1 S1                 0.0000
     49 ****        -7.1366   0.8129   1.6286 LP             1 S1                 0.0000
     50 ****        -1.5766   2.2197   0.9495 LP             1 S1                 0.0000
     51 ****         0.0093   1.5244   0.9112 LP             1 S1                 0.0000
@<TRIPOS>BOND
    1    1    2 1     
    2    1   22 1     
    3    1   23 1     
    4    1   24 1     
    5    2    3 1     
    6    3    8 ar    
    7    3    4 ar    
    8    4    5 ar    
    9    5    6 ar    
   10    5   25 1     
   11    6    7 ar    
   12    6   26 1     
   13    7    8 ar    
   14    7   27 1     
   15    8    9 1     
   16    9   10 am    
   17    9   28 1     
   18   10   11 2     
   19   10   12 am    
   20   12   13 1     
   21   12   29 1     
   22   13   14 1     
   23   13   30 1     
   24   13   31 1     
   25   14   15 1     
   26   14   32 1     
   27   14   33 1     
   28   15   20 1     
   29   15   16 1     
   30   15   46 1     
   31   16   17 1     
   32   16   34 1     
   33   16   35 1     
   34   17   18 1     
   35   17   36 1     
   36   17   37 1     
   37   18   19 1     
   38   18   38 1     
   39   18   39 1     
   40   19   20 1     
   41   19   40 1     
   42   19   41 1     
   43   20   21 1     
   44   20   42 1     
   45   21   43 1     
   46   21   44 1     
   47   21   45 1     
   48    2   47 1     
   49    2   48 1     
   50    4   49 1     
   51   11   50 1     
   52   11   51 1     
@<TRIPOS>SUBSTRUCTURE
      1 S1             1
@<TRIPOS>SET
LONE_PAIRS      STATIC     ATOMS    <user>   **** ""
5 47 48 49 50 51
DONOR_HYDROGENS      STATIC     ATOMS    <user>   **** ""
3 28 29 46
ATOM$BLUE        STATIC     ATOMS    COLORGROUP SYSTEM
5 47 48 49 50 51
ATOM$RED        STATIC     ATOMS    COLORGROUP SYSTEM
3 28 29 46
