AV-unprocessed.smi:2293|AV-procd|sdf|9215|dock2
  -GOLD-   2272012433D 1   1.00000     0.00000
 Structure written by MMmdl.
 34 35  0  0  0  0  0  0  0  0  1 V2000
  147.3901  139.1962  153.3186 C   0  0  0  0  0  0  0  0  0  0  0  0
  148.5173  139.7843  154.1488 C   0  0  0  0  0  0  0  0  0  0  0  0
  148.3079  141.0850  154.6153 N   0  0  0  0  0  0  0  0  0  0  0  0
  149.2136  141.6662  155.3317 C   0  0  0  0  0  0  0  0  0  0  0  0
  150.4204  141.0254  155.6597 N   0  0  0  0  0  0  0  0  0  0  0  0
  151.3651  141.7959  156.4872 C   0  0  0  0  0  0  0  0  0  0  0  0
  151.7672  141.0436  157.7762 C   0  0  1  0  0  0  0  0  0  0  0  0
  152.9172  140.2640  157.5150 O   0  0  0  0  0  0  0  0  0  0  0  0
  152.0146  142.0156  158.9198 C   0  0  0  0  0  0  0  0  0  0  0  0
  152.5414  141.5603  160.1490 C   0  0  0  0  0  0  0  0  0  0  0  0
  152.7730  142.4666  161.2020 C   0  0  0  0  0  0  0  0  0  0  0  0
  152.4818  143.8336  161.0318 C   0  0  0  0  0  0  0  0  0  0  0  0
  151.9612  144.2942  159.8073 C   0  0  0  0  0  0  0  0  0  0  0  0
  151.6840  145.6092  159.6417 F   0  0  0  0  0  0  0  0  0  0  0  0
  151.7291  143.3882  158.7540 C   0  0  0  0  0  0  0  0  0  0  0  0
  150.7046  139.7568  155.2457 C   0  0  0  0  0  0  0  0  0  0  0  0
  151.7650  139.2009  155.5380 O   0  0  0  0  0  0  0  0  0  0  0  0
  149.6632  139.1070  154.4332 C   0  0  0  0  0  0  0  0  0  0  0  0
  149.9451  137.6886  153.9533 C   0  0  0  0  0  0  0  0  0  0  0  0
  146.9940  138.2987  153.7938 H   0  0  0  0  0  0  0  0  0  0  0  0
  147.7457  138.9360  152.3214 H   0  0  0  0  0  0  0  0  0  0  0  0
  146.5685  139.9045  153.2056 H   0  0  0  0  0  0  0  0  0  0  0  0
  149.0975  142.6773  155.7257 H   0  0  0  0  0  0  0  0  0  0  0  0
  152.2508  142.0998  155.9258 H   0  0  0  0  0  0  0  0  0  0  0  0
  150.8885  142.7395  156.7614 H   0  0  0  0  0  0  0  0  0  0  0  0
  150.9695  140.3617  158.0739 H   0  0  0  0  0  0  0  0  0  0  0  0
  152.6404  139.4095  157.2211 H   0  0  0  0  0  0  0  0  0  0  0  0
  152.7711  140.5136  160.2869 H   0  0  0  0  0  0  0  0  0  0  0  0
  153.1751  142.1129  162.1400 H   0  0  0  0  0  0  0  0  0  0  0  0
  152.6590  144.5286  161.8394 H   0  0  0  0  0  0  0  0  0  0  0  0
  151.3311  143.7525  157.8183 H   0  0  0  0  0  0  0  0  0  0  0  0
  150.8369  137.6748  153.3258 H   0  0  0  0  0  0  0  0  0  0  0  0
  149.1295  137.2610  153.3730 H   0  0  0  0  0  0  0  0  0  0  0  0
  150.1199  137.0309  154.8052 H   0  0  0  0  0  0  0  0  0  0  0  0
  1  2  1  0  0  0  0
  1 20  1  0  0  0  0
  1 21  1  0  0  0  0
  1 22  1  0  0  0  0
  2 18  2  0  0  0  0
  2  3  1  0  0  0  0
  3  4  2  0  0  0  0
  4  5  1  0  0  0  0
  4 23  1  0  0  0  0
  5  6  1  0  0  0  0
  5 16  1  0  0  0  0
  6  7  1  0  0  0  0
  6 24  1  0  0  0  0
  6 25  1  0  0  0  0
  7  8  1  0  0  0  0
  7  9  1  0  0  0  0
  7 26  1  0  0  0  0
  8 27  1  0  0  0  0
  9 15  1  0  0  0  0
  9 10  2  0  0  0  0
 10 11  1  0  0  0  0
 10 28  1  0  0  0  0
 11 12  2  0  0  0  0
 11 29  1  0  0  0  0
 12 13  1  0  0  0  0
 12 30  1  0  0  0  0
 13 14  1  0  0  0  0
 13 15  2  0  0  0  0
 15 31  1  0  0  0  0
 16 17  2  0  0  0  0
 16 18  1  0  0  0  0
 18 19  1  0  0  0  0
 19 32  1  0  0  0  0
 19 33  1  0  0  0  0
 19 34  1  0  0  0  0
M  END
> <s_m_source_file>
AV-unprocessed.smi

> <i_m_source_file_index>
2293

> <i_lp_mmshare_version>
43012

> <i_f3d_flags>
0

> <s_epik_input>
W0NIM11jMW5bY0hdbihjKD1PKWMxW0NIM10pW0NIMl1bQ0BIXShbT0hdKWMyW2NIXVtjSF1bY0hdYyhGKVtjSF0y

> <s_epik_cmdline>
J2VwaWtfcHl0aG9uJywgJy1waCcsICc3LjAnLCAnLXRuJywgJzgnLCAnLW1hJywgJzIwMCcsICctbWV0YWxfYmluZGluZycsICctaW1hZScsICc8aW5maWxlLm1hZT4nLCAnLW9tYWUnLCAnPG91dGZpbGUubWFlPic=

> <r_lp_tautomer_probability>
1

> <r_epik_Ionization_Penalty>
5.08222e-05

> <r_epik_Ionization_Penalty_Charging>
7.56727e-08

> <r_epik_Ionization_Penalty_Neutral>
5.07465e-05

> <r_epik_State_Penalty>
-0

> <r_epik_Charging_Adjusted_Penalty>
7.56727e-08

> <i_epik_Tot_Q>
0

> <i_epik_Tot_abs_Q>
0

> <r_epik_Metal_State_Penalty>
-0

> <b_epik_Metal_Only>
0

> <s_lp_Force_Field>
OPLS_2005

> <r_lp_Energy>
19.6901

> <b_lp_Chiralities_Consistent>
1

> <s_lp_Variant>
AV-unprocessed.smi:2293-2

> <Gold.Version>
5.8.1

> <Gold.Id.Protein>
6NUR|6NUR_protein|mol2

> <Gold.PLP.Fitness>
44.4816

> <Gold.PLP.PLP>
-39.5582

> <Gold.PLP.part.hbond>
-1.0000

> <Gold.PLP.part.metal>
0.0000

> <Gold.PLP.part.buried>
1.4654

> <Gold.PLP.part.nonpolar>
-38.9707

> <Gold.PLP.part.repulsive>
0.1293

> <Gold.PLP.ligand.clash>
0.0000

> <Gold.PLP.ligand.torsion>
0.5464

> <Gold.PLP.Chemscore.Hbond>
1.0000

> <Gold.PLP.Chemscore.CHOScore>
1.0000

> <Gold.PLP.Chemscore.Metal>
0.0000

> <Gold.Chemscore.Hbonds>
donor molecule, donor type, donor heavy atom, donor atom, acceptor molecule, acceptor atom, score
      P1  H  7997  8008       L1     8  0.58
      L1  C     4    23       P1  8028  1.00

> <Gold.PLP.Chemscore.Internal.Correction>
0.0163

> <Gold.Rescore>
     Score         DG    S(hbond)    S(metal)    S(lipo)     H(rot)  DE(clash)    DE(int)     intcor
     10.67     -15.27       0.97        0.00     100.21       2.02       1.74       2.86       ----

> <Gold.Chemscore.Fitness>
10.6699

> <Gold.Chemscore.DG>
-15.2711

> <Gold.Chemscore.ZeroCoef>
-5.4800

> <Gold.Chemscore.Hbond>
0.9680

> <Gold.Chemscore.Metal>
0.0000

> <Gold.Chemscore.Lipo>
100.2086

> <Gold.Chemscore.Internal_Hbond>
0.0000

> <Gold.Chemscore.DEClash>
1.7445

> <Gold.Chemscore.DEInternal>
2.8566

> <Gold.Chemscore.Rot>
2.0181

> <Gold.Chemscore.Internal.Correction>
   9.000000E+99

> <Gold.Chemscore.Hbonds>
donor molecule, donor type, donor heavy atom, donor atom, acceptor molecule, acceptor atom, score
      P1  H  7997  8008       L1     8  0.04

> <Gold.Chemscore.Hbond.Weighted>
-3.2330

> <Gold.Chemscore.Metal.Weighted>
-0.0000

> <Gold.Chemscore.Lipo.Weighted>
-11.7244

> <Gold.Chemscore.Internal_Hbond.Weighted>
0.0000

> <Gold.Chemscore.DEClash.Weighted>
1.7445

> <Gold.Chemscore.DEInternal.Weighted>
2.8566

> <Gold.Chemscore.Rot.Weighted>
5.1663

> <Gold.Chemscore.Internal.Correction.Weighted>
   9.000000E+99

> <Gold.Protein.RotatedTorsions>
[ 6907 6896 6895 6894 ] final   96.92 input  -60.11 | X-H torsion
[ 7974 7965 7964 7962 ] final   74.96 input  175.53 | X-H torsion
[ 8008 7997 7996 7995 ] final  -68.01 input   59.86 | X-H torsion
[ 10167 10162 10161 10158 ] final  -73.24 input  -65.29 | X-H torsion
[ 10718 10713 10712 10709 ] final -153.02 input   66.30 | X-H torsion
[ 10763 10752 10751 10750 ] final   70.71 input  -60.55 | X-H torsion
[ 11005 11000 10999 10996 ] final  158.66 input  -57.11 | X-H torsion

> <Gold.Protein.ActiveResidues>
 VAL166  LYS551  ARG553  GLY616  TRP617  ASP618  TYR619  PRO620  LYS621  CYS622 
 ASP623  PHE694  ASN695  SER759  ASP760  ASP761  ALA762  ILE779  LEU786  VAL792 
 PHE793  MET794  SER795  GLU796  ALA797  LYS798  CYS799  TRP800  GLU811  SER814 

> <Gold.Protein.RotatedAtoms>
  152.5429  134.0812  159.8235 H   0  0  0  0  0  0  0  0  0  0  0  0  # atno 6907 bound_to 6896
  151.0913  133.5306  159.2622 H   0  0  0  0  0  0  0  0  0  0  0  0  # atno 6908 bound_to 6896
  151.2096  135.0484  159.8960 H   0  0  0  0  0  0  0  0  0  0  0  0  # atno 6909 bound_to 6896
  145.7217  139.2651  143.1592 H   0  0  0  0  0  0  0  0  0  0  0  0  # atno 7974 bound_to 7965
  154.4838  140.0881  156.7440 H   0  0  0  0  0  0  0  0  0  0  0  0  # atno 8008 bound_to 7997
  155.4401  140.3453  155.4271 H   0  0  0  0  0  0  0  0  0  0  0  0  # atno 8009 bound_to 7997
  156.1232  140.1480  156.9163 H   0  0  0  0  0  0  0  0  0  0  0  0  # atno 8010 bound_to 7997
  140.5126  143.2342  151.7567 H   0  0  0  0  0  0  0  0  0  0  0  0  # atno 10167 bound_to 10162
  156.4803  130.8300  151.2527 H   0  0  0  0  0  0  0  0  0  0  0  0  # atno 10718 bound_to 10713
  153.0357  135.5164  154.7483 H   0  0  0  0  0  0  0  0  0  0  0  0  # atno 10763 bound_to 10752
  154.6461  135.2919  155.0047 H   0  0  0  0  0  0  0  0  0  0  0  0  # atno 10764 bound_to 10752
  154.0947  135.6645  153.4911 H   0  0  0  0  0  0  0  0  0  0  0  0  # atno 10765 bound_to 10752
  140.1886  134.8424  157.2886 H   0  0  0  0  0  0  0  0  0  0  0  0  # atno 11005 bound_to 11000
  146.0619  140.7961  142.9730 LP  0  0  0  0  0  0  0  0  0  0  0  0  # atno 17320 bound_to 7965
  144.6915  140.3210  143.7232 LP  0  0  0  0  0  0  0  0  0  0  0  0  # atno 17321 bound_to 7965
  139.4900  144.4369  151.9809 LP  0  0  0  0  0  0  0  0  0  0  0  0  # atno 17342 bound_to 10162
  140.3462  144.3144  150.5958 LP  0  0  0  0  0  0  0  0  0  0  0  0  # atno 17343 bound_to 10162
  157.7484  131.0047  150.3086 LP  0  0  0  0  0  0  0  0  0  0  0  0  # atno 17370 bound_to 10713
  156.3528  130.3834  149.7315 LP  0  0  0  0  0  0  0  0  0  0  0  0  # atno 17371 bound_to 10713
  140.2185  134.4052  155.7577 LP  0  0  0  0  0  0  0  0  0  0  0  0  # atno 17394 bound_to 11000
  141.2225  133.7154  156.8453 LP  0  0  0  0  0  0  0  0  0  0  0  0  # atno 17395 bound_to 11000

$$$$
