AV-unprocessed.smi:394|AV-procd|sdf|2485|dock5
  -GOLD-   2262022423D 1   1.00000     0.00000
 Structure written by MMmdl.
 30 31  0  0  0  0  0  0  0  0  1 V2000
  153.2155  141.4981  160.3741 C   0  0  0  0  0  0  0  0  0  0  0  0
  152.6832  141.9857  159.1115 N   0  0  0  0  0  0  0  0  0  0  0  0
  151.5850  141.4978  158.5120 C   0  0  0  0  0  0  0  0  0  0  0  0
  150.9210  140.5797  158.9919 O   0  0  0  0  0  0  0  0  0  0  0  0
  151.1446  142.1145  157.1718 C   0  0  0  0  0  0  0  0  0  0  0  0
  150.7098  141.1407  156.1431 N   0  0  0  0  0  0  0  0  0  0  0  0
  151.5123  139.9948  155.9075 C   0  0  0  0  0  0  0  0  0  0  0  0
  152.5397  139.7949  156.5574 O   0  0  0  0  0  0  0  0  0  0  0  0
  151.0325  139.0945  154.8614 C   0  0  0  0  0  0  0  0  0  0  0  0
  151.8372  137.9568  154.5611 C   0  0  0  0  0  0  0  0  0  0  0  0
  152.4735  137.0183  154.3292 N   0  0  0  0  0  0  0  0  0  0  0  0
  149.8775  139.3402  154.2094 C   0  0  0  0  0  0  0  0  0  0  0  0
  149.0826  140.4288  154.4945 N   0  0  0  0  0  0  0  0  0  0  0  0
  147.9343  140.7475  153.6936 C   0  0  0  0  0  0  0  0  0  0  0  0
  146.5965  141.0304  154.3493 C   0  0  0  0  0  0  0  0  0  0  0  0
  146.8082  139.7418  153.5929 C   0  0  0  0  0  0  0  0  0  0  0  0
  149.5052  141.3882  155.4403 C   0  0  0  0  0  0  0  0  0  0  0  0
  148.8473  142.4101  155.6504 O   0  0  0  0  0  0  0  0  0  0  0  0
  154.1007  142.0710  160.6498 H   0  0  0  0  0  0  0  0  0  0  0  0
  153.4999  140.4480  160.2951 H   0  0  0  0  0  0  0  0  0  0  0  0
  152.4794  141.6017  161.1724 H   0  0  0  0  0  0  0  0  0  0  0  0
  153.1808  142.7398  158.6609 H   0  0  0  0  0  0  0  0  0  0  0  0
  150.3541  142.8378  157.3778 H   0  0  0  0  0  0  0  0  0  0  0  0
  151.9648  142.7315  156.8015 H   0  0  0  0  0  0  0  0  0  0  0  0
  149.5563  138.6546  153.4382 H   0  0  0  0  0  0  0  0  0  0  0  0
  148.1451  141.3133  152.7876 H   0  0  0  0  0  0  0  0  0  0  0  0
  146.5280  140.9636  155.4335 H   0  0  0  0  0  0  0  0  0  0  0  0
  145.9642  141.7867  153.8890 H   0  0  0  0  0  0  0  0  0  0  0  0
  146.3137  139.6381  152.6292 H   0  0  0  0  0  0  0  0  0  0  0  0
  146.8811  138.8279  154.1792 H   0  0  0  0  0  0  0  0  0  0  0  0
  1  2  1  0  0  0  0
  1 19  1  0  0  0  0
  1 20  1  0  0  0  0
  1 21  1  0  0  0  0
  2  3  1  0  0  0  0
  2 22  1  0  0  0  0
  3  4  2  0  0  0  0
  3  5  1  0  0  0  0
  5  6  1  0  0  0  0
  5 23  1  0  0  0  0
  5 24  1  0  0  0  0
  6 17  1  0  0  0  0
  6  7  1  0  0  0  0
  7  8  2  0  0  0  0
  7  9  1  0  0  0  0
  9 10  1  0  0  0  0
  9 12  2  0  0  0  0
 10 11  3  0  0  0  0
 12 13  1  0  0  0  0
 12 25  1  0  0  0  0
 13 14  1  0  0  0  0
 13 17  1  0  0  0  0
 14 16  1  0  0  0  0
 14 15  1  0  0  0  0
 14 26  1  0  0  0  0
 15 16  1  0  0  0  0
 15 27  1  0  0  0  0
 15 28  1  0  0  0  0
 16 29  1  0  0  0  0
 16 30  1  0  0  0  0
 17 18  2  0  0  0  0
M  END
> <s_m_source_file>
AV-unprocessed.smi

> <i_m_source_file_index>
394

> <i_lp_mmshare_version>
43012

> <i_f3d_flags>
0

> <s_epik_input>
W0NIM11bTkhdQyg9TylbQ0gyXW4xYyg9TyljKEMjTilbY0hdbihjMT1PKVtDSF0yW0NIMl1bQ0gyXTI=

> <s_epik_cmdline>
J2VwaWtfcHl0aG9uJywgJy1waCcsICc3LjAnLCAnLXRuJywgJzgnLCAnLW1hJywgJzIwMCcsICctbWV0YWxfYmluZGluZycsICctaW1hZScsICc8aW5maWxlLm1hZT4nLCAnLW9tYWUnLCAnPG91dGZpbGUubWFlPic=

> <r_lp_tautomer_probability>
1

> <r_epik_Ionization_Penalty>
1.93483e-08

> <r_epik_Ionization_Penalty_Charging>
8.13451e-11

> <r_epik_Ionization_Penalty_Neutral>
1.9267e-08

> <r_epik_State_Penalty>
-0

> <r_epik_Charging_Adjusted_Penalty>
8.13451e-11

> <i_epik_Tot_Q>
0

> <i_epik_Tot_abs_Q>
0

> <r_epik_Metal_State_Penalty>
-0

> <b_epik_Metal_Only>
0

> <s_lp_Force_Field>
OPLS_2005

> <r_lp_Energy>
29.0516

> <b_lp_Chiralities_Consistent>
1

> <s_lp_Variant>
AV-unprocessed.smi:394-1

> <Gold.Version>
5.8.1

> <Gold.Id.Protein>
6NUR|6NUR_protein|mol2

> <Gold.PLP.Fitness>
37.2030

> <Gold.PLP.PLP>
-31.1629

> <Gold.PLP.part.hbond>
-1.3795

> <Gold.PLP.part.metal>
0.0000

> <Gold.PLP.part.buried>
-2.1931

> <Gold.PLP.part.nonpolar>
-32.8537

> <Gold.PLP.part.repulsive>
5.3735

> <Gold.PLP.ligand.clash>
0.0000

> <Gold.PLP.ligand.torsion>
0.4883

> <Gold.PLP.Chemscore.Hbond>
1.6880

> <Gold.PLP.Chemscore.CHOScore>
0.5845

> <Gold.PLP.Chemscore.Metal>
0.0000

> <Gold.Chemscore.Hbonds>
donor molecule, donor type, donor heavy atom, donor atom, acceptor molecule, acceptor atom, score
      P1  H  7997  8008       L1     8  1.00
      P1  H 10752 10765       L1    11  0.55
      L1  C    12    25       P1  7948  0.04
      L1  C    12    25       P1  7957  0.36

> <Gold.PLP.Chemscore.Internal.Correction>
0.1991

> <Gold.Rescore>
     Score         DG    S(hbond)    S(metal)    S(lipo)     H(rot)  DE(clash)    DE(int)     intcor
      8.39     -12.90       1.75        0.00      51.23       1.73       2.06       2.46       ----

> <Gold.Chemscore.Fitness>
8.3866

> <Gold.Chemscore.DG>
-12.9012

> <Gold.Chemscore.ZeroCoef>
-5.4800

> <Gold.Chemscore.Hbond>
1.7542

> <Gold.Chemscore.Metal>
0.0000

> <Gold.Chemscore.Lipo>
51.2309

> <Gold.Chemscore.Internal_Hbond>
0.0000

> <Gold.Chemscore.DEClash>
2.0576

> <Gold.Chemscore.DEInternal>
2.4570

> <Gold.Chemscore.Rot>
1.7313

> <Gold.Chemscore.Internal.Correction>
   9.000000E+99

> <Gold.Chemscore.Hbonds>
donor molecule, donor type, donor heavy atom, donor atom, acceptor molecule, acceptor atom, score
      P1  H  7997  8008       L1     8  0.99
      P1  H 10752 10765       L1    11  0.53

> <Gold.Chemscore.Hbond.Weighted>
-5.8592

> <Gold.Chemscore.Metal.Weighted>
-0.0000

> <Gold.Chemscore.Lipo.Weighted>
-5.9940

> <Gold.Chemscore.Internal_Hbond.Weighted>
0.0000

> <Gold.Chemscore.DEClash.Weighted>
2.0576

> <Gold.Chemscore.DEInternal.Weighted>
2.4570

> <Gold.Chemscore.Rot.Weighted>
4.4320

> <Gold.Chemscore.Internal.Correction.Weighted>
   9.000000E+99

> <Gold.Protein.RotatedTorsions>
[ 6907 6896 6895 6894 ] final   57.64 input  -60.11 | X-H torsion
[ 7974 7965 7964 7962 ] final -142.00 input  175.53 | X-H torsion
[ 8008 7997 7996 7995 ] final  -62.24 input   59.86 | X-H torsion
[ 10167 10162 10161 10158 ] final   19.64 input  -65.29 | X-H torsion
[ 10718 10713 10712 10709 ] final  144.16 input   66.30 | X-H torsion
[ 10763 10752 10751 10750 ] final  143.68 input  -60.55 | X-H torsion
[ 11005 11000 10999 10996 ] final  138.76 input  -57.11 | X-H torsion

> <Gold.Protein.ActiveResidues>
 VAL166  LYS551  ARG553  GLY616  TRP617  ASP618  TYR619  PRO620  LYS621  CYS622 
 ASP623  PHE694  ASN695  SER759  ASP760  ASP761  ALA762  ILE779  LEU786  VAL792 
 PHE793  MET794  SER795  GLU796  ALA797  LYS798  CYS799  TRP800  GLU811  SER814 

> <Gold.Protein.RotatedAtoms>
  152.3750  134.6677  160.0162 H   0  0  0  0  0  0  0  0  0  0  0  0  # atno 6907 bound_to 6896
  151.6958  133.3305  159.3262 H   0  0  0  0  0  0  0  0  0  0  0  0  # atno 6908 bound_to 6896
  150.7702  134.6594  159.6376 H   0  0  0  0  0  0  0  0  0  0  0  0  # atno 6909 bound_to 6896
  144.8476  140.6011  143.5411 H   0  0  0  0  0  0  0  0  0  0  0  0  # atno 7974 bound_to 7965
  154.4489  140.1000  156.6556 H   0  0  0  0  0  0  0  0  0  0  0  0  # atno 8008 bound_to 7997
  155.5350  140.3482  155.4416 H   0  0  0  0  0  0  0  0  0  0  0  0  # atno 8009 bound_to 7997
  156.0637  140.1332  156.9900 H   0  0  0  0  0  0  0  0  0  0  0  0  # atno 8010 bound_to 7997
  140.5564  143.9417  150.6612 H   0  0  0  0  0  0  0  0  0  0  0  0  # atno 10167 bound_to 10162
  157.3605  131.0964  151.0920 H   0  0  0  0  0  0  0  0  0  0  0  0  # atno 10718 bound_to 10713
  153.9764  135.2945  155.3423 H   0  0  0  0  0  0  0  0  0  0  0  0  # atno 10763 bound_to 10752
  154.7294  135.5074  153.8942 H   0  0  0  0  0  0  0  0  0  0  0  0  # atno 10764 bound_to 10752
  153.0875  135.6698  154.0032 H   0  0  0  0  0  0  0  0  0  0  0  0  # atno 10765 bound_to 10752
  140.0206  134.9398  157.0466 H   0  0  0  0  0  0  0  0  0  0  0  0  # atno 11005 bound_to 11000
  145.4565  139.1517  143.3890 LP  0  0  0  0  0  0  0  0  0  0  0  0  # atno 17320 bound_to 7965
  146.2757  140.4693  142.8796 LP  0  0  0  0  0  0  0  0  0  0  0  0  # atno 17321 bound_to 7965
  140.2856  143.3359  152.1111 LP  0  0  0  0  0  0  0  0  0  0  0  0  # atno 17342 bound_to 10162
  139.5050  144.6786  151.6066 LP  0  0  0  0  0  0  0  0  0  0  0  0  # atno 17343 bound_to 10162
  157.2061  130.6417  149.5756 LP  0  0  0  0  0  0  0  0  0  0  0  0  # atno 17370 bound_to 10713
  155.9736  130.4675  150.6326 LP  0  0  0  0  0  0  0  0  0  0  0  0  # atno 17371 bound_to 10713
  140.4394  134.1697  155.7173 LP  0  0  0  0  0  0  0  0  0  0  0  0  # atno 17394 bound_to 11000
  141.1771  133.8491  157.1384 LP  0  0  0  0  0  0  0  0  0  0  0  0  # atno 17395 bound_to 11000

$$$$
