AV-unprocessed.smi:72|AV-procd|sdf|663|dock8
  -GOLD-   2262016563D 1   1.00000     0.00000
 Structure written by MMmdl.
 29 30  0  0  0  0  0  0  0  0  1 V2000
  151.8907  140.4790  159.2746 N   0  0  0  0  0  0  0  0  0  0  0  0
  151.2405  140.4926  158.1660 C   0  0  0  0  0  0  0  0  0  0  0  0
  149.9223  140.9459  158.0046 N   0  0  0  0  0  0  0  0  0  0  0  0
  149.3938  140.9142  156.8201 C   0  0  0  0  0  0  0  0  0  0  0  0
  150.1255  140.4343  155.6580 N   0  0  0  0  0  0  0  0  0  0  0  0
  149.4857  140.3963  154.2888 C   0  0  2  0  0  0  0  0  0  0  0  0
  148.8701  141.6270  154.0359 O   0  0  0  0  0  0  0  0  0  0  0  0
  147.5412  141.4053  153.5811 C   0  0  2  0  0  0  0  0  0  0  0  0
  146.6575  142.6400  153.8358 C   0  0  0  0  0  0  0  0  0  0  0  0
  146.6085  142.9890  155.2041 O   0  0  0  0  0  0  0  0  0  0  0  0
  147.1183  140.0939  154.2471 C   0  0  1  0  0  0  0  0  0  0  0  0
  146.0467  139.4538  153.5800 O   0  0  0  0  0  0  0  0  0  0  0  0
  148.4157  139.2899  154.2235 C   0  0  1  0  0  0  0  0  0  0  0  0
  148.5630  138.5185  153.0455 O   0  0  0  0  0  0  0  0  0  0  0  0
  151.4443  139.9415  155.8090 C   0  0  0  0  0  0  0  0  0  0  0  0
  152.0912  139.4799  154.8690 O   0  0  0  0  0  0  0  0  0  0  0  0
  151.9488  140.0020  157.0605 N   0  0  0  0  0  0  0  0  0  0  0  0
  150.2981  140.2651  153.5720 H   0  0  0  0  0  0  0  0  0  0  0  0
  147.6132  141.2481  152.5031 H   0  0  0  0  0  0  0  0  0  0  0  0
  146.8362  140.2647  155.2863 H   0  0  0  0  0  0  0  0  0  0  0  0
  148.4891  138.6195  155.0812 H   0  0  0  0  0  0  0  0  0  0  0  0
  152.8186  140.1058  159.1373 H   0  0  0  0  0  0  0  0  0  0  0  0
  148.3721  141.2398  156.6221 H   0  0  0  0  0  0  0  0  0  0  0  0
  147.0112  143.4914  153.2536 H   0  0  0  0  0  0  0  0  0  0  0  0
  145.6381  142.4325  153.5094 H   0  0  0  0  0  0  0  0  0  0  0  0
  147.4675  143.2790  155.4709 H   0  0  0  0  0  0  0  0  0  0  0  0
  145.3858  140.1006  153.3857 H   0  0  0  0  0  0  0  0  0  0  0  0
  148.8002  139.0961  152.3361 H   0  0  0  0  0  0  0  0  0  0  0  0
  152.8899  139.6643  157.1992 H   0  0  0  0  0  0  0  0  0  0  0  0
  1  2  2  0  0  0  0
  1 22  1  0  0  0  0
  2 17  1  0  0  0  0
  2  3  1  0  0  0  0
  3  4  2  0  0  0  0
  4  5  1  0  0  0  0
  4 23  1  0  0  0  0
  5  6  1  0  0  0  0
  5 15  1  0  0  0  0
  6 18  1  0  0  0  0
  6 13  1  0  0  0  0
  6  7  1  0  0  0  0
  7  8  1  0  0  0  0
  8 19  1  0  0  0  0
  8  9  1  0  0  0  0
  8 11  1  0  0  0  0
  9 10  1  0  0  0  0
  9 24  1  0  0  0  0
  9 25  1  0  0  0  0
 10 26  1  0  0  0  0
 11 20  1  0  0  0  0
 11 12  1  0  0  0  0
 11 13  1  0  0  0  0
 12 27  1  0  0  0  0
 13 21  1  0  0  0  0
 13 14  1  0  0  0  0
 14 28  1  0  0  0  0
 15 16  2  0  0  0  0
 15 17  1  0  0  0  0
 17 29  1  0  0  0  0
M  END
> <s_m_source_file>
AV-unprocessed.smi

> <i_m_source_file_index>
72

> <i_lp_mmshare_version>
43012

> <i_f3d_flags>
0

> <s_epik_input>
W05IMl1jMW5bY0hdbihjKD1PKW4xKVtDQEBIXTJPW0NASF0oW0NIMl1bT0hdKVtDQEBIXShbT0hdKVtDQEhdMltPSF0=

> <s_epik_cmdline>
J2VwaWtfcHl0aG9uJywgJy1waCcsICc3LjAnLCAnLXRuJywgJzgnLCAnLW1hJywgJzIwMCcsICctbWV0YWxfYmluZGluZycsICctaW1hZScsICc8aW5maWxlLm1hZT4nLCAnLW9tYWUnLCAnPG91dGZpbGUubWFlPic=

> <r_lp_tautomer_probability>
7.17554e-07

> <r_epik_Ionization_Penalty>
0.0066451

> <r_epik_Ionization_Penalty_Charging>
0.00663793

> <r_epik_Ionization_Penalty_Neutral>
7.17052e-06

> <r_epik_State_Penalty>
0.419231

> <r_epik_Charging_Adjusted_Penalty>
0.425868

> <i_epik_Tot_Q>
0

> <i_epik_Tot_abs_Q>
0

> <r_epik_Metal_State_Penalty>
1.44144

> <b_epik_Metal_Only>
0

> <s_epik_Chemistry_Notes>
This compound contains an acetal/aminal-like group ( X-CH(R)-Y where X, Y are N, S, or O) that may be acid/base labile, releasing an aldehyde.

> <s_lp_Force_Field>
OPLS_2005

> <r_lp_Energy>
44.3383

> <b_lp_Chiralities_Consistent>
1

> <s_lp_Variant>
AV-unprocessed.smi:72-1

> <Gold.Version>
5.8.1

> <Gold.Id.Protein>
6NUR|6NUR_protein|mol2

> <Gold.PLP.Fitness>
39.5200

> <Gold.PLP.PLP>
-27.6566

> <Gold.PLP.part.hbond>
-6.0000

> <Gold.PLP.part.metal>
0.0000

> <Gold.PLP.part.buried>
-3.9937

> <Gold.PLP.part.nonpolar>
-17.1556

> <Gold.PLP.part.repulsive>
0.3758

> <Gold.PLP.ligand.clash>
0.0000

> <Gold.PLP.ligand.torsion>
0.2817

> <Gold.PLP.Chemscore.Hbond>
4.1400

> <Gold.PLP.Chemscore.CHOScore>
0.0000

> <Gold.PLP.Chemscore.Metal>
0.0000

> <Gold.Chemscore.Hbonds>
donor molecule, donor type, donor heavy atom, donor atom, acceptor molecule, acceptor atom, score
      L1  H    10    26       P1  8028  0.79
      L1  H    12    27       P1 10175  0.93
      L1  H    14    28       P1  7957  1.00
      P1  H  7989  7998       L1    16  0.84
      P1  H  8011  8017       L1     7  0.52

> <Gold.PLP.Chemscore.Internal.Correction>
0.0070

> <Gold.Rescore>
     Score         DG    S(hbond)    S(metal)    S(lipo)     H(rot)  DE(clash)    DE(int)     intcor
      7.27      -7.30       2.83        0.00      23.56       4.06       0.00       0.03       ----

> <Gold.Chemscore.Fitness>
7.2720

> <Gold.Chemscore.DG>
-7.3018

> <Gold.Chemscore.ZeroCoef>
-5.4800

> <Gold.Chemscore.Hbond>
2.8319

> <Gold.Chemscore.Metal>
0.0000

> <Gold.Chemscore.Lipo>
23.5630

> <Gold.Chemscore.Internal_Hbond>
0.0000

> <Gold.Chemscore.DEClash>
0.0021

> <Gold.Chemscore.DEInternal>
0.0276

> <Gold.Chemscore.Rot>
4.0600

> <Gold.Chemscore.Internal.Correction>
   9.000000E+99

> <Gold.Chemscore.Hbonds>
donor molecule, donor type, donor heavy atom, donor atom, acceptor molecule, acceptor atom, score
      L1  H    10    26       P1  8028  0.11
      L1  H    12    27       P1 10175  0.89
      L1  H    14    28       P1  7957  1.00
      P1  H  7989  7998       L1    16  0.18
      P1  H  8011  8017       L1     7  0.11

> <Gold.Chemscore.Hbond.Weighted>
-9.4585

> <Gold.Chemscore.Metal.Weighted>
-0.0000

> <Gold.Chemscore.Lipo.Weighted>
-2.7569

> <Gold.Chemscore.Internal_Hbond.Weighted>
0.0000

> <Gold.Chemscore.DEClash.Weighted>
0.0021

> <Gold.Chemscore.DEInternal.Weighted>
0.0276

> <Gold.Chemscore.Rot.Weighted>
10.3936

> <Gold.Chemscore.Internal.Correction.Weighted>
   9.000000E+99

> <Gold.Protein.RotatedTorsions>
[ 6907 6896 6895 6894 ] final   45.07 input  -60.11 | X-H torsion
[ 7974 7965 7964 7962 ] final  -72.95 input  175.53 | X-H torsion
[ 8008 7997 7996 7995 ] final  -63.47 input   59.86 | X-H torsion
[ 10167 10162 10161 10158 ] final   77.30 input  -65.29 | X-H torsion
[ 10718 10713 10712 10709 ] final -122.83 input   66.30 | X-H torsion
[ 10763 10752 10751 10750 ] final -145.71 input  -60.55 | X-H torsion
[ 11005 11000 10999 10996 ] final  -76.23 input  -57.11 | X-H torsion

> <Gold.Protein.ActiveResidues>
 VAL166  LYS551  ARG553  GLY616  TRP617  ASP618  TYR619  PRO620  LYS621  CYS622 
 ASP623  PHE694  ASN695  SER759  ASP760  ASP761  ALA762  ILE779  LEU786  VAL792 
 PHE793  MET794  SER795  GLU796  ALA797  LYS798  CYS799  TRP800  GLU811  SER814 

> <Gold.Protein.RotatedAtoms>
  152.2401  134.8237  160.0461 H   0  0  0  0  0  0  0  0  0  0  0  0  # atno 6907 bound_to 6896
  151.8955  133.3520  159.3821 H   0  0  0  0  0  0  0  0  0  0  0  0  # atno 6908 bound_to 6896
  150.7051  134.4807  159.5513 H   0  0  0  0  0  0  0  0  0  0  0  0  # atno 6909 bound_to 6896
  145.6585  140.9260  143.0946 H   0  0  0  0  0  0  0  0  0  0  0  0  # atno 7974 bound_to 7965
  154.4556  140.0974  156.6747 H   0  0  0  0  0  0  0  0  0  0  0  0  # atno 8008 bound_to 7997
  155.5149  140.3477  155.4377 H   0  0  0  0  0  0  0  0  0  0  0  0  # atno 8009 bound_to 7997
  156.0770  140.1363  156.9748 H   0  0  0  0  0  0  0  0  0  0  0  0  # atno 8010 bound_to 7997
  139.9831  144.5812  150.7883 H   0  0  0  0  0  0  0  0  0  0  0  0  # atno 10167 bound_to 10162
  156.1451  130.6494  150.9830 H   0  0  0  0  0  0  0  0  0  0  0  0  # atno 10718 bound_to 10713
  154.8371  135.3406  154.6547 H   0  0  0  0  0  0  0  0  0  0  0  0  # atno 10763 bound_to 10752
  153.7161  135.6961  153.5029 H   0  0  0  0  0  0  0  0  0  0  0  0  # atno 10764 bound_to 10752
  153.2416  135.4383  155.0657 H   0  0  0  0  0  0  0  0  0  0  0  0  # atno 10765 bound_to 10752
  141.1652  133.6976  156.7637 H   0  0  0  0  0  0  0  0  0  0  0  0  # atno 11005 bound_to 11000
  144.7097  139.8419  143.7418 LP  0  0  0  0  0  0  0  0  0  0  0  0  # atno 17320 bound_to 7965
  146.1144  139.4153  143.0267 LP  0  0  0  0  0  0  0  0  0  0  0  0  # atno 17321 bound_to 7965
  140.7482  143.2918  151.3309 LP  0  0  0  0  0  0  0  0  0  0  0  0  # atno 17342 bound_to 10162
  139.6395  144.0566  152.2543 LP  0  0  0  0  0  0  0  0  0  0  0  0  # atno 17343 bound_to 10162
  157.6609  131.0881  150.7839 LP  0  0  0  0  0  0  0  0  0  0  0  0  # atno 17370 bound_to 10713
  156.7912  130.4890  149.5384 LP  0  0  0  0  0  0  0  0  0  0  0  0  # atno 17371 bound_to 10713
  140.2515  134.8537  157.3671 LP  0  0  0  0  0  0  0  0  0  0  0  0  # atno 17394 bound_to 11000
  140.1698  134.4623  155.7839 LP  0  0  0  0  0  0  0  0  0  0  0  0  # atno 17395 bound_to 11000

$$$$
