AV-unprocessed.smi:657|AV-procd|sdf|3220|dock6
  -GOLD-   22720 0153D 1   1.00000     0.00000
 Structure written by MMmdl.
 47 48  0  0  0  0  0  0  0  0  2 V2000
  144.3248  137.1409  152.9084 C   0  0  0  0  0  0  0  0  0  0  0  0
  145.8485  137.0720  152.6820 C   0  0  0  0  0  0  0  0  0  0  0  0
  146.3134  138.1074  151.6431 C   0  0  0  0  0  0  0  0  0  0  0  0
  146.3484  135.6946  152.3492 N   0  3  2  0  0  0  0  0  0  0  0  0
  145.6710  135.1001  151.1580 C   0  0  0  0  0  0  0  0  0  0  0  0
  146.3250  133.7849  150.7171 C   0  0  0  0  0  0  0  0  0  0  0  0
  146.2952  132.7733  151.8621 C   0  0  0  0  0  0  0  0  0  0  0  0
  147.0035  133.3724  153.0779 C   0  0  0  0  0  0  0  0  0  0  0  0
  146.4015  134.7349  153.5048 C   0  0  1  0  0  0  0  0  0  0  0  0
  147.2453  135.2416  154.6867 C   0  0  0  0  0  0  0  0  0  0  0  0
  146.7814  135.2420  155.8275 O   0  0  0  0  0  0  0  0  0  0  0  0
  148.4671  135.7066  154.3874 N   0  0  0  0  0  0  0  0  0  0  0  0
  149.3864  136.3300  155.3347 C   0  0  0  0  0  0  0  0  0  0  0  0
  150.7531  136.6637  154.7018 C   0  0  0  0  0  0  0  0  0  0  0  0
  151.2260  138.0556  155.0344 C   0  0  0  0  0  0  0  0  0  0  0  0
  152.4670  138.6666  154.6952 C   0  0  0  0  0  0  0  0  0  0  0  0
  152.5526  139.9203  155.1086 N   0  0  0  0  0  0  0  0  0  0  0  0
  151.3782  140.1502  155.7310 N   0  0  0  0  0  0  0  0  0  0  0  0
  151.1213  141.4501  156.3130 C   0  0  0  0  0  0  0  0  0  0  0  0
  150.5613  139.0409  155.7085 C   0  0  0  0  0  0  0  0  0  0  0  0
  144.0341  138.1351  153.2493 H   0  0  0  0  0  0  0  0  0  0  0  0
  143.9952  136.4333  153.6688 H   0  0  0  0  0  0  0  0  0  0  0  0
  143.7637  136.9430  151.9950 H   0  0  0  0  0  0  0  0  0  0  0  0
  146.3098  137.4026  153.6105 H   0  0  0  0  0  0  0  0  0  0  0  0
  146.0909  139.1193  151.9831 H   0  0  0  0  0  0  0  0  0  0  0  0
  145.8211  137.9806  150.6794 H   0  0  0  0  0  0  0  0  0  0  0  0
  147.3904  138.0481  151.4828 H   0  0  0  0  0  0  0  0  0  0  0  0
  144.6207  134.9111  151.3825 H   0  0  0  0  0  0  0  0  0  0  0  0
  145.6945  135.7920  150.3176 H   0  0  0  0  0  0  0  0  0  0  0  0
  145.8005  133.3797  149.8512 H   0  0  0  0  0  0  0  0  0  0  0  0
  147.3535  133.9663  150.4025 H   0  0  0  0  0  0  0  0  0  0  0  0
  145.2648  132.5201  152.1152 H   0  0  0  0  0  0  0  0  0  0  0  0
  146.7831  131.8460  151.5606 H   0  0  0  0  0  0  0  0  0  0  0  0
  146.9530  132.6624  153.9050 H   0  0  0  0  0  0  0  0  0  0  0  0
  148.0632  133.4888  152.8421 H   0  0  0  0  0  0  0  0  0  0  0  0
  145.3801  134.5667  153.8497 H   0  0  0  0  0  0  0  0  0  0  0  0
  148.7645  135.6759  153.4227 H   0  0  0  0  0  0  0  0  0  0  0  0
  148.9387  137.2206  155.7784 H   0  0  0  0  0  0  0  0  0  0  0  0
  149.5322  135.6205  156.1495 H   0  0  0  0  0  0  0  0  0  0  0  0
  151.4845  135.9292  155.0408 H   0  0  0  0  0  0  0  0  0  0  0  0
  150.6875  136.5268  153.6223 H   0  0  0  0  0  0  0  0  0  0  0  0
  153.2975  138.2419  154.1508 H   0  0  0  0  0  0  0  0  0  0  0  0
  150.0921  141.5032  156.6688 H   0  0  0  0  0  0  0  0  0  0  0  0
  151.2777  142.2286  155.5658 H   0  0  0  0  0  0  0  0  0  0  0  0
  151.7966  141.6171  157.1524 H   0  0  0  0  0  0  0  0  0  0  0  0
  149.5787  139.0472  156.1569 H   0  0  0  0  0  0  0  0  0  0  0  0
  147.3139  135.8242  152.0818 H   0  0  0  0  0  0  0  0  0  0  0  0
  1  2  1  0  0  0  0
  1 21  1  0  0  0  0
  1 22  1  0  0  0  0
  1 23  1  0  0  0  0
  2  3  1  0  0  0  0
  2  4  1  0  0  0  0
  2 24  1  0  0  0  0
  3 25  1  0  0  0  0
  3 26  1  0  0  0  0
  3 27  1  0  0  0  0
  4  9  1  0  0  0  0
  4  5  1  0  0  0  0
  4 47  1  0  0  0  0
  5  6  1  0  0  0  0
  5 28  1  0  0  0  0
  5 29  1  0  0  0  0
  6  7  1  0  0  0  0
  6 30  1  0  0  0  0
  6 31  1  0  0  0  0
  7  8  1  0  0  0  0
  7 32  1  0  0  0  0
  7 33  1  0  0  0  0
  8  9  1  0  0  0  0
  8 34  1  0  0  0  0
  8 35  1  0  0  0  0
  9 10  1  0  0  0  0
  9 36  1  0  0  0  0
 10 11  2  0  0  0  0
 10 12  1  0  0  0  0
 12 13  1  0  0  0  0
 12 37  1  0  0  0  0
 13 14  1  0  0  0  0
 13 38  1  0  0  0  0
 13 39  1  0  0  0  0
 14 15  1  0  0  0  0
 14 40  1  0  0  0  0
 14 41  1  0  0  0  0
 15 20  2  0  0  0  0
 15 16  1  0  0  0  0
 16 17  2  0  0  0  0
 16 42  1  0  0  0  0
 17 18  1  0  0  0  0
 18 19  1  0  0  0  0
 18 20  1  0  0  0  0
 19 43  1  0  0  0  0
 19 44  1  0  0  0  0
 19 45  1  0  0  0  0
 20 46  1  0  0  0  0
M  CHG  1   4   1
M  END
> <s_m_source_file>
AV-unprocessed.smi

> <i_m_source_file_index>
657

> <i_lp_mmshare_version>
43012

> <i_f3d_flags>
0

> <s_epik_input>
W0NIM11bQ0hdKFtDSDNdKU4xW0NIMl1bQ0gyXVtDSDJdW0NIMl1bQ0BIXTFDKD1PKVtOSF1bQ0gyXVtDSDJdYzJbY0hdbm4oW0NIM10pW2NIXTI=

> <s_epik_cmdline>
J2VwaWtfcHl0aG9uJywgJy1waCcsICc3LjAnLCAnLXRuJywgJzgnLCAnLW1hJywgJzIwMCcsICctbWV0YWxfYmluZGluZycsICctaW1hZScsICc8aW5maWxlLm1hZT4nLCAnLW9tYWUnLCAnPG91dGZpbGUubWFlPic=

> <r_lp_tautomer_probability>
1

> <r_epik_Ionization_Penalty>
0.0244317

> <r_epik_Ionization_Penalty_Charging>
0.0240236

> <r_epik_Ionization_Penalty_Neutral>
0.00040815

> <r_epik_State_Penalty>
0.0194773

> <r_epik_Charging_Adjusted_Penalty>
0.0435009

> <i_epik_Tot_Q>
1

> <i_epik_Tot_abs_Q>
1

> <r_epik_Metal_State_Penalty>
0.0361957

> <b_epik_Metal_Only>
0

> <s_lp_Force_Field>
OPLS_2005

> <r_lp_Energy>
17.8505

> <b_lp_Chiralities_Consistent>
1

> <s_lp_Variant>
AV-unprocessed.smi:657-1

> <Gold.Version>
5.8.1

> <Gold.Id.Protein>
6NUR|6NUR_protein|mol2

> <Gold.PLP.Fitness>
45.4554

> <Gold.PLP.PLP>
-34.5706

> <Gold.PLP.part.hbond>
-3.9876

> <Gold.PLP.part.metal>
0.0000

> <Gold.PLP.part.buried>
-1.9791

> <Gold.PLP.part.nonpolar>
-29.1543

> <Gold.PLP.part.repulsive>
0.0457

> <Gold.PLP.ligand.clash>
0.0000

> <Gold.PLP.ligand.torsion>
0.7989

> <Gold.PLP.Chemscore.Hbond>
4.1129

> <Gold.PLP.Chemscore.CHOScore>
0.0000

> <Gold.PLP.Chemscore.Metal>
0.0000

> <Gold.Chemscore.Hbonds>
donor molecule, donor type, donor heavy atom, donor atom, acceptor molecule, acceptor atom, score
      L1  H     4    47       P1  7948  2.00
      L1  H    12    37       P1  7948  1.00
      P1  H  7989  7998       L1    17  0.14
      P1  H  7997  8009       L1    17  0.91

> <Gold.PLP.Chemscore.Internal.Correction>
0.1439

> <Gold.Rescore>
     Score         DG    S(hbond)    S(metal)    S(lipo)     H(rot)  DE(clash)    DE(int)     intcor
     19.38     -20.27       2.93        0.00      78.47       1.63       0.26       0.63       ----

> <Gold.Chemscore.Fitness>
19.3766

> <Gold.Chemscore.DG>
-20.2728

> <Gold.Chemscore.ZeroCoef>
-5.4800

> <Gold.Chemscore.Hbond>
2.9279

> <Gold.Chemscore.Metal>
0.0000

> <Gold.Chemscore.Lipo>
78.4708

> <Gold.Chemscore.Internal_Hbond>
0.0000

> <Gold.Chemscore.DEClash>
0.2620

> <Gold.Chemscore.DEInternal>
0.6342

> <Gold.Chemscore.Rot>
1.6279

> <Gold.Chemscore.Internal.Correction>
   9.000000E+99

> <Gold.Chemscore.Hbonds>
donor molecule, donor type, donor heavy atom, donor atom, acceptor molecule, acceptor atom, score
      L1  H     4    47       P1  7948  1.00
      L1  H    12    37       P1  7948  0.95
      P1  H  7997  8009       L1    17  0.57

> <Gold.Chemscore.Hbond.Weighted>
-9.7790

> <Gold.Chemscore.Metal.Weighted>
-0.0000

> <Gold.Chemscore.Lipo.Weighted>
-9.1811

> <Gold.Chemscore.Internal_Hbond.Weighted>
0.0000

> <Gold.Chemscore.DEClash.Weighted>
0.2620

> <Gold.Chemscore.DEInternal.Weighted>
0.6342

> <Gold.Chemscore.Rot.Weighted>
4.1673

> <Gold.Chemscore.Internal.Correction.Weighted>
   9.000000E+99

> <Gold.Protein.RotatedTorsions>
[ 6907 6896 6895 6894 ] final  144.49 input  -60.11 | X-H torsion
[ 7974 7965 7964 7962 ] final  -70.61 input  175.53 | X-H torsion
[ 8008 7997 7996 7995 ] final -136.21 input   59.86 | X-H torsion
[ 10167 10162 10161 10158 ] final  168.79 input  -65.29 | X-H torsion
[ 10718 10713 10712 10709 ] final  -85.28 input   66.30 | X-H torsion
[ 10763 10752 10751 10750 ] final  -45.33 input  -60.55 | X-H torsion
[ 11005 11000 10999 10996 ] final  -21.93 input  -57.11 | X-H torsion

> <Gold.Protein.ActiveResidues>
 VAL166  LYS551  ARG553  GLY616  TRP617  ASP618  TYR619  PRO620  LYS621  CYS622 
 ASP623  PHE694  ASN695  SER759  ASP760  ASP761  ALA762  ILE779  LEU786  VAL792 
 PHE793  MET794  SER795  GLU796  ALA797  LYS798  CYS799  TRP800  GLU811  SER814 

> <Gold.Protein.RotatedAtoms>
  152.1930  133.4786  159.5017 H   0  0  0  0  0  0  0  0  0  0  0  0  # atno 6907 bound_to 6896
  150.6954  134.1689  159.4213 H   0  0  0  0  0  0  0  0  0  0  0  0  # atno 6908 bound_to 6896
  151.9604  135.0126  160.0598 H   0  0  0  0  0  0  0  0  0  0  0  0  # atno 6909 bound_to 6896
  145.6887  140.9161  143.0793 H   0  0  0  0  0  0  0  0  0  0  0  0  # atno 7974 bound_to 7965
  155.3914  140.0500  157.3040 H   0  0  0  0  0  0  0  0  0  0  0  0  # atno 8008 bound_to 7997
  154.5034  140.2165  155.9261 H   0  0  0  0  0  0  0  0  0  0  0  0  # atno 8009 bound_to 7997
  156.1496  140.3138  155.8631 H   0  0  0  0  0  0  0  0  0  0  0  0  # atno 8010 bound_to 7997
  139.4976  144.3777  151.9656 H   0  0  0  0  0  0  0  0  0  0  0  0  # atno 10167 bound_to 10162
  155.9998  130.4726  150.4538 H   0  0  0  0  0  0  0  0  0  0  0  0  # atno 10718 bound_to 10713
  154.0267  135.6662  153.4777 H   0  0  0  0  0  0  0  0  0  0  0  0  # atno 10763 bound_to 10752
  153.0557  135.5057  154.7971 H   0  0  0  0  0  0  0  0  0  0  0  0  # atno 10764 bound_to 10752
  154.6904  135.3060  154.9453 H   0  0  0  0  0  0  0  0  0  0  0  0  # atno 10765 bound_to 10752
  140.8609  133.7789  156.0073 H   0  0  0  0  0  0  0  0  0  0  0  0  # atno 11005 bound_to 11000
  144.7003  139.8793  143.7446 LP  0  0  0  0  0  0  0  0  0  0  0  0  # atno 17320 bound_to 7965
  146.0901  139.3890  143.0411 LP  0  0  0  0  0  0  0  0  0  0  0  0  # atno 17321 bound_to 7965
  140.3213  144.3424  150.6009 LP  0  0  0  0  0  0  0  0  0  0  0  0  # atno 17342 bound_to 10162
  140.5720  143.2180  151.7582 LP  0  0  0  0  0  0  0  0  0  0  0  0  # atno 17343 bound_to 10162
  157.2568  131.0558  151.2345 LP  0  0  0  0  0  0  0  0  0  0  0  0  # atno 17370 bound_to 10713
  157.3474  130.7064  149.6419 LP  0  0  0  0  0  0  0  0  0  0  0  0  # atno 17371 bound_to 10713
  140.8684  134.2756  157.5202 LP  0  0  0  0  0  0  0  0  0  0  0  0  # atno 17394 bound_to 11000
  139.8707  134.9554  156.4207 LP  0  0  0  0  0  0  0  0  0  0  0  0  # atno 17395 bound_to 11000

$$$$
