AV-unprocessed.smi:1209|AV-procd|sdf|5069|dock6
  -GOLD-   22720 4113D 1   1.00000     0.00000
 Structure written by MMmdl.
 48 50  0  0  0  0  0  0  0  0  1 V2000
  147.0844  136.0239  162.4013 C   0  0  0  0  0  0  0  0  0  0  0  0
  147.4867  136.2625  160.9865 C   0  0  0  0  0  0  0  0  0  0  0  0
  148.2635  135.5615  160.1089 C   0  0  0  0  0  0  0  0  0  0  0  0
  148.2332  136.3525  158.9268 C   0  0  0  0  0  0  0  0  0  0  0  0
  148.9095  136.0904  157.6066 C   0  0  0  0  0  0  0  0  0  0  0  0
  149.8223  137.1589  157.1951 N   0  0  0  0  0  0  0  0  0  0  0  0
  150.5676  137.6811  158.3410 C   0  0  0  0  0  0  0  0  0  0  0  0
  150.7181  136.6844  156.1360 C   0  0  0  0  0  0  0  0  0  0  0  0
  151.0983  137.7236  155.0609 C   0  0  2  0  0  0  0  0  0  0  0  0
  151.8136  137.0647  154.0334 O   0  0  0  0  0  0  0  0  0  0  0  0
  151.9758  138.8452  155.6490 C   0  0  0  0  0  0  0  0  0  0  0  0
  151.2025  140.0090  156.0462 N   0  0  0  0  0  0  0  0  0  0  0  0
  150.1348  140.5280  155.4101 C   0  0  0  0  0  0  0  0  0  0  0  0
  149.5698  141.6052  155.9477 N   0  0  0  0  0  0  0  0  0  0  0  0
  150.3634  141.8092  157.0636 C   0  0  0  0  0  0  0  0  0  0  0  0
  150.2975  142.8003  158.0674 C   0  0  0  0  0  0  0  0  0  0  0  0
  151.2294  142.8189  159.1299 C   0  0  0  0  0  0  0  0  0  0  0  0
  151.1229  143.9036  160.1872 C   0  0  0  0  0  0  0  0  0  0  0  0
  152.2475  141.8343  159.1993 C   0  0  0  0  0  0  0  0  0  0  0  0
  153.2609  141.8351  160.3298 C   0  0  0  0  0  0  0  0  0  0  0  0
  152.3262  140.8358  158.2060 C   0  0  0  0  0  0  0  0  0  0  0  0
  151.3936  140.8280  157.1540 C   0  0  0  0  0  0  0  0  0  0  0  0
  147.4991  137.4418  159.0849 N   0  0  0  0  0  0  0  0  0  0  0  0
  147.0177  137.3928  160.3979 O   0  0  0  0  0  0  0  0  0  0  0  0
  147.1762  134.9687  162.6586 H   0  0  0  0  0  0  0  0  0  0  0  0
  146.0492  136.3226  162.5675 H   0  0  0  0  0  0  0  0  0  0  0  0
  147.7158  136.5946  163.0825 H   0  0  0  0  0  0  0  0  0  0  0  0
  148.7742  134.6259  160.2819 H   0  0  0  0  0  0  0  0  0  0  0  0
  149.4450  135.1399  157.6347 H   0  0  0  0  0  0  0  0  0  0  0  0
  148.1325  135.9699  156.8507 H   0  0  0  0  0  0  0  0  0  0  0  0
  151.1874  138.5316  158.0626 H   0  0  0  0  0  0  0  0  0  0  0  0
  151.2132  136.9155  158.7730 H   0  0  0  0  0  0  0  0  0  0  0  0
  149.8944  138.0331  159.1229 H   0  0  0  0  0  0  0  0  0  0  0  0
  151.6280  136.2929  156.5938 H   0  0  0  0  0  0  0  0  0  0  0  0
  150.2600  135.8353  155.6261 H   0  0  0  0  0  0  0  0  0  0  0  0
  150.2107  138.1797  154.6251 H   0  0  0  0  0  0  0  0  0  0  0  0
  151.2533  136.9946  153.2756 H   0  0  0  0  0  0  0  0  0  0  0  0
  152.5138  138.4801  156.5249 H   0  0  0  0  0  0  0  0  0  0  0  0
  152.7334  139.1581  154.9290 H   0  0  0  0  0  0  0  0  0  0  0  0
  149.7513  140.0902  154.4999 H   0  0  0  0  0  0  0  0  0  0  0  0
  149.5224  143.5507  158.0136 H   0  0  0  0  0  0  0  0  0  0  0  0
  150.9748  143.4626  161.1732 H   0  0  0  0  0  0  0  0  0  0  0  0
  150.2837  144.5709  159.9900 H   0  0  0  0  0  0  0  0  0  0  0  0
  152.0312  144.5061  160.2091 H   0  0  0  0  0  0  0  0  0  0  0  0
  153.9830  141.0259  160.2168 H   0  0  0  0  0  0  0  0  0  0  0  0
  152.7619  141.7068  161.2905 H   0  0  0  0  0  0  0  0  0  0  0  0
  153.8133  142.7747  160.3482 H   0  0  0  0  0  0  0  0  0  0  0  0
  153.0980  140.0811  158.2457 H   0  0  0  0  0  0  0  0  0  0  0  0
  1  2  1  0  0  0  0
  1 25  1  0  0  0  0
  1 26  1  0  0  0  0
  1 27  1  0  0  0  0
  2 24  1  0  0  0  0
  2  3  2  0  0  0  0
  3  4  1  0  0  0  0
  3 28  1  0  0  0  0
  4  5  1  0  0  0  0
  4 23  2  0  0  0  0
  5  6  1  0  0  0  0
  5 29  1  0  0  0  0
  5 30  1  0  0  0  0
  6  7  1  0  0  0  0
  6  8  1  0  0  0  0
  7 31  1  0  0  0  0
  7 32  1  0  0  0  0
  7 33  1  0  0  0  0
  8  9  1  0  0  0  0
  8 34  1  0  0  0  0
  8 35  1  0  0  0  0
  9 10  1  0  0  0  0
  9 11  1  0  0  0  0
  9 36  1  0  0  0  0
 10 37  1  0  0  0  0
 11 12  1  0  0  0  0
 11 38  1  0  0  0  0
 11 39  1  0  0  0  0
 12 22  1  0  0  0  0
 12 13  1  0  0  0  0
 13 14  2  0  0  0  0
 13 40  1  0  0  0  0
 14 15  1  0  0  0  0
 15 22  2  0  0  0  0
 15 16  1  0  0  0  0
 16 17  2  0  0  0  0
 16 41  1  0  0  0  0
 17 18  1  0  0  0  0
 17 19  1  0  0  0  0
 18 42  1  0  0  0  0
 18 43  1  0  0  0  0
 18 44  1  0  0  0  0
 19 20  1  0  0  0  0
 19 21  2  0  0  0  0
 20 45  1  0  0  0  0
 20 46  1  0  0  0  0
 20 47  1  0  0  0  0
 21 22  1  0  0  0  0
 21 48  1  0  0  0  0
 23 24  1  0  0  0  0
M  END
> <s_m_source_file>
AV-unprocessed.smi

> <i_m_source_file_index>
1209

> <i_lp_mmshare_version>
43012

> <i_f3d_flags>
0

> <s_epik_input>
W0NIM11jMVtjSF1jKG5vMSlbQ0gyXU4oW0NIM10pW0NIMl1bQ0BIXShbT0hdKVtDSDJdbihbY0hdbjIpYyhjMjMpW2NIXWMoW0NIM10pYyhbY0hdMylbQ0gzXQ==

> <s_epik_cmdline>
J2VwaWtfcHl0aG9uJywgJy1waCcsICc3LjAnLCAnLXRuJywgJzgnLCAnLW1hJywgJzIwMCcsICctbWV0YWxfYmluZGluZycsICctaW1hZScsICc8aW5maWxlLm1hZT4nLCAnLW9tYWUnLCAnPG91dGZpbGUubWFlPic=

> <r_epik_Ionization_Penalty>
0.103258

> <r_epik_Ionization_Penalty_Charging>
0

> <r_epik_Ionization_Penalty_Neutral>
0.103258

> <r_epik_State_Penalty>
0.0919675

> <r_epik_Charging_Adjusted_Penalty>
0.0919675

> <i_epik_Tot_Q>
0

> <i_epik_Tot_abs_Q>
0

> <r_epik_Metal_State_Penalty>
0.0812522

> <b_epik_Metal_Only>
0

> <s_lp_Force_Field>
OPLS_2005

> <r_lp_Energy>
18.8485

> <b_lp_Chiralities_Consistent>
1

> <s_lp_Variant>
AV-unprocessed.smi:1209-1

> <Gold.Version>
5.8.1

> <Gold.Id.Protein>
6NUR|6NUR_protein|mol2

> <Gold.PLP.Fitness>
52.1016

> <Gold.PLP.PLP>
-46.5729

> <Gold.PLP.part.hbond>
-4.6254

> <Gold.PLP.part.metal>
0.0000

> <Gold.PLP.part.buried>
-5.8049

> <Gold.PLP.part.nonpolar>
-36.4085

> <Gold.PLP.part.repulsive>
0.1075

> <Gold.PLP.ligand.clash>
0.0328

> <Gold.PLP.ligand.torsion>
1.4199

> <Gold.PLP.Chemscore.Hbond>
2.7332

> <Gold.PLP.Chemscore.CHOScore>
0.0000

> <Gold.PLP.Chemscore.Metal>
0.0000

> <Gold.Chemscore.Hbonds>
donor molecule, donor type, donor heavy atom, donor atom, acceptor molecule, acceptor atom, score
      L1  H    10    37       P1  7949  0.74
      P1  H  6934  6947       L1    24  1.00
      P1  H 10752 10763       L1    10  0.99

> <Gold.PLP.Chemscore.Internal.Correction>
0.2017

> <Gold.Rescore>
     Score         DG    S(hbond)    S(metal)    S(lipo)     H(rot)  DE(clash)    DE(int)     intcor
     18.67     -20.63       2.27        0.00     118.09       2.45       0.49       1.47       ----

> <Gold.Chemscore.Fitness>
18.6718

> <Gold.Chemscore.DG>
-20.6310

> <Gold.Chemscore.ZeroCoef>
-5.4800

> <Gold.Chemscore.Hbond>
2.2744

> <Gold.Chemscore.Metal>
0.0000

> <Gold.Chemscore.Lipo>
118.0920

> <Gold.Chemscore.Internal_Hbond>
0.0000

> <Gold.Chemscore.DEClash>
0.4872

> <Gold.Chemscore.DEInternal>
1.4719

> <Gold.Chemscore.Rot>
2.4462

> <Gold.Chemscore.Internal.Correction>
   9.000000E+99

> <Gold.Chemscore.Hbonds>
donor molecule, donor type, donor heavy atom, donor atom, acceptor molecule, acceptor atom, score
      L1  H    10    37       P1  7949  0.46
      P1  H  6934  6947       L1    24  0.35
      P1  H 10752 10763       L1    10  0.61

> <Gold.Chemscore.Hbond.Weighted>
-7.5965

> <Gold.Chemscore.Metal.Weighted>
-0.0000

> <Gold.Chemscore.Lipo.Weighted>
-13.8168

> <Gold.Chemscore.Internal_Hbond.Weighted>
0.0000

> <Gold.Chemscore.DEClash.Weighted>
0.4872

> <Gold.Chemscore.DEInternal.Weighted>
1.4719

> <Gold.Chemscore.Rot.Weighted>
6.2623

> <Gold.Chemscore.Internal.Correction.Weighted>
   9.000000E+99

> <Gold.Protein.RotatedTorsions>
[ 6907 6896 6895 6894 ] final  111.29 input  -60.11 | X-H torsion
[ 7974 7965 7964 7962 ] final   40.13 input  175.53 | X-H torsion
[ 8008 7997 7996 7995 ] final -152.64 input   59.86 | X-H torsion
[ 10167 10162 10161 10158 ] final -177.18 input  -65.29 | X-H torsion
[ 10718 10713 10712 10709 ] final  110.01 input   66.30 | X-H torsion
[ 10763 10752 10751 10750 ] final   17.97 input  -60.55 | X-H torsion
[ 11005 11000 10999 10996 ] final  120.93 input  -57.11 | X-H torsion

> <Gold.Protein.ActiveResidues>
 VAL166  LYS551  ARG553  GLY616  TRP617  ASP618  TYR619  PRO620  LYS621  CYS622 
 ASP623  PHE694  ASN695  SER759  ASP760  ASP761  ALA762  ILE779  LEU786  VAL792 
 PHE793  MET794  SER795  GLU796  ALA797  LYS798  CYS799  TRP800  GLU811  SER814 

> <Gold.Protein.RotatedAtoms>
  152.4977  133.8678  159.7282 H   0  0  0  0  0  0  0  0  0  0  0  0  # atno 6907 bound_to 6896
  150.9173  133.6915  159.2847 H   0  0  0  0  0  0  0  0  0  0  0  0  # atno 6908 bound_to 6896
  151.4304  135.1013  159.9693 H   0  0  0  0  0  0  0  0  0  0  0  0  # atno 6909 bound_to 6896
  146.0929  139.5569  142.9464 H   0  0  0  0  0  0  0  0  0  0  0  0  # atno 7974 bound_to 7965
  155.6583  140.0719  157.2563 H   0  0  0  0  0  0  0  0  0  0  0  0  # atno 8008 bound_to 7997
  154.4148  140.1721  156.1799 H   0  0  0  0  0  0  0  0  0  0  0  0  # atno 8009 bound_to 7997
  155.9719  140.3361  155.6586 H   0  0  0  0  0  0  0  0  0  0  0  0  # atno 8010 bound_to 7997
  139.5493  144.2152  152.1047 H   0  0  0  0  0  0  0  0  0  0  0  0  # atno 10167 bound_to 10162
  157.6515  131.0924  150.6538 H   0  0  0  0  0  0  0  0  0  0  0  0  # atno 10718 bound_to 10713
  153.1291  135.6736  153.9208 H   0  0  0  0  0  0  0  0  0  0  0  0  # atno 10763 bound_to 10752
  153.8700  135.3071  155.3443 H   0  0  0  0  0  0  0  0  0  0  0  0  # atno 10764 bound_to 10752
  154.7691  135.4949  153.9694 H   0  0  0  0  0  0  0  0  0  0  0  0  # atno 10765 bound_to 10752
  139.9205  134.9637  156.7881 H   0  0  0  0  0  0  0  0  0  0  0  0  # atno 11005 bound_to 11000
  145.6004  141.0356  143.2021 LP  0  0  0  0  0  0  0  0  0  0  0  0  # atno 17320 bound_to 7965
  144.7374  139.7547  143.7324 LP  0  0  0  0  0  0  0  0  0  0  0  0  # atno 17321 bound_to 7965
  140.1644  144.4995  150.6614 LP  0  0  0  0  0  0  0  0  0  0  0  0  # atno 17342 bound_to 10162
  140.6751  143.2301  151.5528 LP  0  0  0  0  0  0  0  0  0  0  0  0  # atno 17343 bound_to 10162
  156.6849  130.4578  149.5617 LP  0  0  0  0  0  0  0  0  0  0  0  0  # atno 17370 bound_to 10713
  156.1903  130.6555  151.1053 LP  0  0  0  0  0  0  0  0  0  0  0  0  # atno 17371 bound_to 10713
  140.6489  133.9749  155.7745 LP  0  0  0  0  0  0  0  0  0  0  0  0  # atno 17394 bound_to 11000
  141.0721  134.0190  157.3511 LP  0  0  0  0  0  0  0  0  0  0  0  0  # atno 17395 bound_to 11000

$$$$
