AV-unprocessed.smi:1682|AV-procd|sdf|6745|dock6
  -GOLD-   22720 7503D 1   1.00000     0.00000
 Structure written by MMmdl.
 39 40  0  0  0  0  0  0  0  0  2 V2000
  150.5796  139.2016  154.0444 O   0  0  0  0  0  0  0  0  0  0  0  0
  149.9638  139.2199  155.1096 C   0  0  0  0  0  0  0  0  0  0  0  0
  148.6633  138.9011  155.2065 N   0  0  0  0  0  0  0  0  0  0  0  0
  147.8400  138.4716  154.0852 C   0  0  0  0  0  0  0  0  0  0  0  0
  146.3698  138.3406  154.5062 C   0  0  0  0  0  0  0  0  0  0  0  0
  145.5827  137.4523  153.5618 C   0  0  0  0  0  0  0  0  0  0  0  0
  144.1854  137.2847  153.6774 C   0  0  0  0  0  0  0  0  0  0  0  0
  143.5163  136.4335  152.7731 C   0  0  0  0  0  0  0  0  0  0  0  0
  144.2568  135.7690  151.7737 C   0  0  0  0  0  0  0  0  0  0  0  0
  145.6500  135.9731  151.7034 C   0  0  0  0  0  0  0  0  0  0  0  0
  146.2548  136.7963  152.5880 N   0  3  0  0  0  0  0  0  0  0  0  0
  150.6913  139.6135  156.4058 C   0  0  2  0  0  0  0  0  0  0  0  0
  149.7169  139.8298  157.5796 C   0  0  0  0  0  0  0  0  0  0  0  0
  149.8404  141.3147  157.8800 C   0  0  0  0  0  0  0  0  0  0  0  0
  149.1080  141.8934  158.6805 O   0  0  0  0  0  0  0  0  0  0  0  0
  150.8152  141.8751  157.1546 N   0  0  0  0  0  0  0  0  0  0  0  0
  151.2015  143.2853  157.1647 C   0  0  0  0  0  0  0  0  0  0  0  0
  151.8544  143.7089  158.4931 C   0  0  0  0  0  0  0  0  0  0  0  0
  152.6589  142.7326  158.9106 F   0  0  0  0  0  0  0  0  0  0  0  0
  152.5789  144.8177  158.3456 F   0  0  0  0  0  0  0  0  0  0  0  0
  150.9208  143.9157  159.4220 F   0  0  0  0  0  0  0  0  0  0  0  0
  151.4936  140.9264  156.2851 C   0  0  0  0  0  0  0  0  0  0  0  0
  148.2265  138.9403  156.1163 H   0  0  0  0  0  0  0  0  0  0  0  0
  147.9375  139.1902  153.2697 H   0  0  0  0  0  0  0  0  0  0  0  0
  148.2082  137.5126  153.7168 H   0  0  0  0  0  0  0  0  0  0  0  0
  146.3062  137.9316  155.5158 H   0  0  0  0  0  0  0  0  0  0  0  0
  145.8997  139.3243  154.5422 H   0  0  0  0  0  0  0  0  0  0  0  0
  143.6311  137.7978  154.4501 H   0  0  0  0  0  0  0  0  0  0  0  0
  142.4480  136.2907  152.8464 H   0  0  0  0  0  0  0  0  0  0  0  0
  143.7637  135.1119  151.0723 H   0  0  0  0  0  0  0  0  0  0  0  0
  146.2942  135.5053  150.9733 H   0  0  0  0  0  0  0  0  0  0  0  0
  151.3774  138.8028  156.6574 H   0  0  0  0  0  0  0  0  0  0  0  0
  148.6829  139.5683  157.3487 H   0  0  0  0  0  0  0  0  0  0  0  0
  150.0216  139.2563  158.4554 H   0  0  0  0  0  0  0  0  0  0  0  0
  151.8945  143.4706  156.3430 H   0  0  0  0  0  0  0  0  0  0  0  0
  150.3251  143.9044  156.9655 H   0  0  0  0  0  0  0  0  0  0  0  0
  152.5179  140.7860  156.6331 H   0  0  0  0  0  0  0  0  0  0  0  0
  151.5434  141.3044  155.2624 H   0  0  0  0  0  0  0  0  0  0  0  0
  147.2645  136.9264  152.5197 H   0  0  0  0  0  0  0  0  0  0  0  0
  1  2  2  0  0  0  0
  2  3  1  0  0  0  0
  2 12  1  0  0  0  0
  3  4  1  0  0  0  0
  3 23  1  0  0  0  0
  4  5  1  0  0  0  0
  4 24  1  0  0  0  0
  4 25  1  0  0  0  0
  5  6  1  0  0  0  0
  5 26  1  0  0  0  0
  5 27  1  0  0  0  0
  6 11  1  0  0  0  0
  6  7  2  0  0  0  0
  7  8  1  0  0  0  0
  7 28  1  0  0  0  0
  8  9  2  0  0  0  0
  8 29  1  0  0  0  0
  9 10  1  0  0  0  0
  9 30  1  0  0  0  0
 10 11  2  0  0  0  0
 10 31  1  0  0  0  0
 11 39  1  0  0  0  0
 12 22  1  0  0  0  0
 12 13  1  0  0  0  0
 12 32  1  0  0  0  0
 13 14  1  0  0  0  0
 13 33  1  0  0  0  0
 13 34  1  0  0  0  0
 14 15  2  0  0  0  0
 14 16  1  0  0  0  0
 16 17  1  0  0  0  0
 16 22  1  0  0  0  0
 17 18  1  0  0  0  0
 17 35  1  0  0  0  0
 17 36  1  0  0  0  0
 18 19  1  0  0  0  0
 18 20  1  0  0  0  0
 18 21  1  0  0  0  0
 22 37  1  0  0  0  0
 22 38  1  0  0  0  0
M  CHG  1  11   1
M  END
> <s_m_source_file>
AV-unprocessed.smi

> <i_m_source_file_index>
1682

> <i_lp_mmshare_version>
43012

> <i_f3d_flags>
0

> <s_epik_input>
RkMoRikoRilbQ0gyXU4oW0NIMl0xKUMoPU8pW0NIMl1bQ0BIXTFDKD1PKVtOSF1bQ0gyXVtDSDJdYzJbY0hdW2NIXVtjSF1bY0hdbjI=

> <s_epik_cmdline>
J2VwaWtfcHl0aG9uJywgJy1waCcsICc3LjAnLCAnLXRuJywgJzgnLCAnLW1hJywgJzIwMCcsICctbWV0YWxfYmluZGluZycsICctaW1hZScsICc8aW5maWxlLm1hZT4nLCAnLW9tYWUnLCAnPG91dGZpbGUubWFlPic=

> <r_epik_Ionization_Penalty>
1.88249

> <r_epik_Ionization_Penalty_Charging>
1.88249

> <r_epik_Ionization_Penalty_Neutral>
2.8664e-08

> <r_epik_State_Penalty>
2.00238

> <r_epik_Charging_Adjusted_Penalty>
3.88487

> <i_epik_Tot_Q>
1

> <i_epik_Tot_abs_Q>
1

> <r_epik_Metal_State_Penalty>
2.02677

> <b_epik_Metal_Only>
0

> <s_lp_Force_Field>
OPLS_2005

> <r_lp_Energy>
22.1056

> <b_lp_Chiralities_Consistent>
1

> <s_lp_Variant>
AV-unprocessed.smi:1682-3

> <Gold.Version>
5.8.1

> <Gold.Id.Protein>
6NUR|6NUR_protein|mol2

> <Gold.PLP.Fitness>
45.0416

> <Gold.PLP.PLP>
-37.7353

> <Gold.PLP.part.hbond>
-2.5928

> <Gold.PLP.part.metal>
0.0000

> <Gold.PLP.part.buried>
-3.4847

> <Gold.PLP.part.nonpolar>
-31.5928

> <Gold.PLP.part.repulsive>
0.3263

> <Gold.PLP.ligand.clash>
0.0082

> <Gold.PLP.ligand.torsion>
0.7010

> <Gold.PLP.Chemscore.Hbond>
2.8793

> <Gold.PLP.Chemscore.CHOScore>
0.0000

> <Gold.PLP.Chemscore.Metal>
0.0000

> <Gold.Chemscore.Hbonds>
donor molecule, donor type, donor heavy atom, donor atom, acceptor molecule, acceptor atom, score
      L1  H    11    39       P1  7948  1.86
      P1  H  7989  7998       L1     1  0.99

> <Gold.PLP.Chemscore.Internal.Correction>
0.0787

> <Gold.Rescore>
     Score         DG    S(hbond)    S(metal)    S(lipo)     H(rot)  DE(clash)    DE(int)     intcor
     11.37     -13.05       1.68        0.00      64.72       2.19       0.08       1.60       ----

> <Gold.Chemscore.Fitness>
11.3653

> <Gold.Chemscore.DG>
-13.0474

> <Gold.Chemscore.ZeroCoef>
-5.4800

> <Gold.Chemscore.Hbond>
1.6793

> <Gold.Chemscore.Metal>
0.0000

> <Gold.Chemscore.Lipo>
64.7249

> <Gold.Chemscore.Internal_Hbond>
0.0000

> <Gold.Chemscore.DEClash>
0.0837

> <Gold.Chemscore.DEInternal>
1.5983

> <Gold.Chemscore.Rot>
2.1932

> <Gold.Chemscore.Internal.Correction>
   9.000000E+99

> <Gold.Chemscore.Hbonds>
donor molecule, donor type, donor heavy atom, donor atom, acceptor molecule, acceptor atom, score
      L1  H    11    39       P1  7948  0.90
      P1  H  7989  7998       L1     1  0.88

> <Gold.Chemscore.Hbond.Weighted>
-5.6090

> <Gold.Chemscore.Metal.Weighted>
-0.0000

> <Gold.Chemscore.Lipo.Weighted>
-7.5728

> <Gold.Chemscore.Internal_Hbond.Weighted>
0.0000

> <Gold.Chemscore.DEClash.Weighted>
0.0837

> <Gold.Chemscore.DEInternal.Weighted>
1.5983

> <Gold.Chemscore.Rot.Weighted>
5.6145

> <Gold.Chemscore.Internal.Correction.Weighted>
   9.000000E+99

> <Gold.Protein.RotatedTorsions>
[ 6907 6896 6895 6894 ] final -157.41 input  -60.11 | X-H torsion
[ 7974 7965 7964 7962 ] final  119.43 input  175.53 | X-H torsion
[ 8008 7997 7996 7995 ] final -115.34 input   59.86 | X-H torsion
[ 10167 10162 10161 10158 ] final    2.15 input  -65.29 | X-H torsion
[ 10718 10713 10712 10709 ] final  -34.98 input   66.30 | X-H torsion
[ 10763 10752 10751 10750 ] final  -43.90 input  -60.55 | X-H torsion
[ 11005 11000 10999 10996 ] final   97.08 input  -57.11 | X-H torsion

> <Gold.Protein.ActiveResidues>
 VAL166  LYS551  ARG553  GLY616  TRP617  ASP618  TYR619  PRO620  LYS621  CYS622 
 ASP623  PHE694  ASN695  SER759  ASP760  ASP761  ALA762  ILE779  LEU786  VAL792 
 PHE793  MET794  SER795  GLU796  ALA797  LYS798  CYS799  TRP800  GLU811  SER814 

> <Gold.Protein.RotatedAtoms>
  151.3024  133.4116  159.2640 H   0  0  0  0  0  0  0  0  0  0  0  0  # atno 6907 bound_to 6896
  151.0184  134.9451  159.8056 H   0  0  0  0  0  0  0  0  0  0  0  0  # atno 6908 bound_to 6896
  152.5318  134.2987  159.9123 H   0  0  0  0  0  0  0  0  0  0  0  0  # atno 6909 bound_to 6896
  145.1433  139.3255  143.4605 H   0  0  0  0  0  0  0  0  0  0  0  0  # atno 7974 bound_to 7965
  155.0505  140.0393  157.2542 H   0  0  0  0  0  0  0  0  0  0  0  0  # atno 8008 bound_to 7997
  154.7142  140.2699  155.6577 H   0  0  0  0  0  0  0  0  0  0  0  0  # atno 8009 bound_to 7997
  156.2798  140.2716  156.1793 H   0  0  0  0  0  0  0  0  0  0  0  0  # atno 8010 bound_to 7997
  140.6649  143.7206  150.7808 H   0  0  0  0  0  0  0  0  0  0  0  0  # atno 10167 bound_to 10162
  156.3441  130.4298  149.7762 H   0  0  0  0  0  0  0  0  0  0  0  0  # atno 10718 bound_to 10713
  154.0032  135.6691  153.4760 H   0  0  0  0  0  0  0  0  0  0  0  0  # atno 10763 bound_to 10752
  153.0653  135.5004  154.8182 H   0  0  0  0  0  0  0  0  0  0  0  0  # atno 10764 bound_to 10752
  154.7040  135.3084  154.9261 H   0  0  0  0  0  0  0  0  0  0  0  0  # atno 10765 bound_to 10752
  139.8778  134.8983  156.4254 H   0  0  0  0  0  0  0  0  0  0  0  0  # atno 11005 bound_to 11000
  146.3503  140.1478  142.8593 LP  0  0  0  0  0  0  0  0  0  0  0  0  # atno 17320 bound_to 7965
  145.0509  140.9017  143.4996 LP  0  0  0  0  0  0  0  0  0  0  0  0  # atno 17321 bound_to 7965
  140.0882  143.4903  152.2493 LP  0  0  0  0  0  0  0  0  0  0  0  0  # atno 17342 bound_to 10162
  139.5894  144.7544  151.3438 LP  0  0  0  0  0  0  0  0  0  0  0  0  # atno 17343 bound_to 10162
  156.4987  130.8119  151.3124 LP  0  0  0  0  0  0  0  0  0  0  0  0  # atno 17370 bound_to 10713
  157.7451  130.9952  150.2734 LP  0  0  0  0  0  0  0  0  0  0  0  0  # atno 17371 bound_to 10713
  140.9104  133.7716  155.9785 LP  0  0  0  0  0  0  0  0  0  0  0  0  # atno 17394 bound_to 11000
  140.8552  134.2906  157.5258 LP  0  0  0  0  0  0  0  0  0  0  0  0  # atno 17395 bound_to 11000

$$$$
