AV-unprocessed.smi:196|AV-procd|sdf|1535|dock8
  -GOLD-   2262019393D 1   1.00000     0.00000
 Structure written by MMmdl.
 47 50  0  0  0  0  0  0  0  0  1 V2000
  151.2045  141.0322  156.6342 C   0  0  0  0  0  0  0  0  0  0  0  0
  151.5912  140.2165  155.3917 C   0  0  1  0  0  0  0  0  0  0  0  0
  152.7917  139.4832  155.6217 O   0  0  0  0  0  0  0  0  0  0  0  0
  152.7542  138.2441  154.9189 C   0  0  0  0  0  0  0  0  0  0  0  0
  151.4864  138.2884  154.0706 C   0  0  0  0  0  0  0  0  0  0  0  0
  150.5656  139.1793  154.8956 C   0  0  2  0  0  0  0  0  0  0  0  0
  149.6229  139.7890  154.0332 O   0  0  0  0  0  0  0  0  0  0  0  0
  149.8191  138.4334  156.0349 C   0  0  0  0  0  0  0  0  0  0  0  0
  148.8364  137.4697  155.5647 N   0  0  0  0  0  0  0  0  0  0  0  0
  148.9216  136.0977  155.6415 C   0  0  0  0  0  0  0  0  0  0  0  0
  147.9044  135.4480  155.1447 N   0  0  0  0  0  0  0  0  0  0  0  0
  147.0571  136.4476  154.6838 C   0  0  0  0  0  0  0  0  0  0  0  0
  145.7900  136.4527  154.0418 C   0  0  0  0  0  0  0  0  0  0  0  0
  145.1107  135.3110  153.7730 N   0  0  0  0  0  0  0  0  0  0  0  0
  145.8779  134.2338  153.1506 C   0  0  0  0  0  0  0  0  0  0  0  0
  145.3634  134.1425  151.7199 C   0  0  1  0  0  0  0  0  0  0  0  0
  145.5692  132.9445  151.1737 F   0  0  0  0  0  0  0  0  0  0  0  0
  143.8860  134.4613  151.8955 C   0  0  0  0  0  0  0  0  0  0  0  0
  143.8708  135.5281  153.0081 C   0  0  1  0  0  0  0  0  0  0  0  0
  142.5871  135.4401  153.8529 C   0  0  0  0  0  0  0  0  0  0  0  0
  142.2735  134.2762  154.4307 N   0  0  0  0  0  0  0  0  0  0  0  0
  141.8783  136.4350  153.9855 O   0  0  0  0  0  0  0  0  0  0  0  0
  145.2437  137.6583  153.7289 N   0  0  0  0  0  0  0  0  0  0  0  0
  145.8999  138.7862  154.0169 C   0  0  0  0  0  0  0  0  0  0  0  0
  147.0864  138.9329  154.6100 N   0  0  0  0  0  0  0  0  0  0  0  0
  147.6327  137.7250  154.9314 C   0  0  0  0  0  0  0  0  0  0  0  0
  145.8454  134.8889  151.0872 H   0  0  0  0  0  0  0  0  0  0  0  0
  143.8895  136.5140  152.5376 H   0  0  0  0  0  0  0  0  0  0  0  0
  150.2706  141.5709  156.4731 H   0  0  0  0  0  0  0  0  0  0  0  0
  151.9752  141.7675  156.8660 H   0  0  0  0  0  0  0  0  0  0  0  0
  151.0840  140.3994  157.5134 H   0  0  0  0  0  0  0  0  0  0  0  0
  151.8116  140.9106  154.5781 H   0  0  0  0  0  0  0  0  0  0  0  0
  153.6505  138.1024  154.3148 H   0  0  0  0  0  0  0  0  0  0  0  0
  152.7043  137.4316  155.6448 H   0  0  0  0  0  0  0  0  0  0  0  0
  151.7195  138.7680  153.1180 H   0  0  0  0  0  0  0  0  0  0  0  0
  151.0870  137.3010  153.8424 H   0  0  0  0  0  0  0  0  0  0  0  0
  149.9387  139.7158  153.1457 H   0  0  0  0  0  0  0  0  0  0  0  0
  150.5303  137.9073  156.6726 H   0  0  0  0  0  0  0  0  0  0  0  0
  149.3037  139.1454  156.6810 H   0  0  0  0  0  0  0  0  0  0  0  0
  149.7674  135.5908  156.0836 H   0  0  0  0  0  0  0  0  0  0  0  0
  146.9595  134.3740  153.1889 H   0  0  0  0  0  0  0  0  0  0  0  0
  145.6568  133.3133  153.6923 H   0  0  0  0  0  0  0  0  0  0  0  0
  143.4238  134.8117  150.9720 H   0  0  0  0  0  0  0  0  0  0  0  0
  143.3554  133.5604  152.2107 H   0  0  0  0  0  0  0  0  0  0  0  0
  141.4313  134.2000  154.9829 H   0  0  0  0  0  0  0  0  0  0  0  0
  142.8766  133.4759  154.3076 H   0  0  0  0  0  0  0  0  0  0  0  0
  145.4014  139.7020  153.7350 H   0  0  0  0  0  0  0  0  0  0  0  0
  1  2  1  0  0  0  0
  1 29  1  0  0  0  0
  1 30  1  0  0  0  0
  1 31  1  0  0  0  0
  2  6  1  0  0  0  0
  2  3  1  0  0  0  0
  2 32  1  0  0  0  0
  3  4  1  0  0  0  0
  4  5  1  0  0  0  0
  4 33  1  0  0  0  0
  4 34  1  0  0  0  0
  5  6  1  0  0  0  0
  5 35  1  0  0  0  0
  5 36  1  0  0  0  0
  6  7  1  0  0  0  0
  6  8  1  0  0  0  0
  7 37  1  0  0  0  0
  8  9  1  0  0  0  0
  8 38  1  0  0  0  0
  8 39  1  0  0  0  0
  9 26  1  0  0  0  0
  9 10  1  0  0  0  0
 10 11  2  0  0  0  0
 10 40  1  0  0  0  0
 11 12  1  0  0  0  0
 12 26  2  0  0  0  0
 12 13  1  0  0  0  0
 13 14  1  0  0  0  0
 13 23  2  0  0  0  0
 14 19  1  0  0  0  0
 14 15  1  0  0  0  0
 15 16  1  0  0  0  0
 15 41  1  0  0  0  0
 15 42  1  0  0  0  0
 16 27  1  0  0  0  0
 16 17  1  0  0  0  0
 16 18  1  0  0  0  0
 18 19  1  0  0  0  0
 18 43  1  0  0  0  0
 18 44  1  0  0  0  0
 19 28  1  0  0  0  0
 19 20  1  0  0  0  0
 20 21  1  0  0  0  0
 20 22  2  0  0  0  0
 21 45  1  0  0  0  0
 21 46  1  0  0  0  0
 23 24  1  0  0  0  0
 24 25  2  0  0  0  0
 24 47  1  0  0  0  0
 25 26  1  0  0  0  0
M  END
> <s_m_source_file>
AV-unprocessed.smi

> <i_m_source_file_index>
196

> <i_lp_mmshare_version>
43012

> <i_f3d_flags>
0

> <s_epik_input>
W0NIMl0xW0NIMl1PW0NAQEhdKFtDSDNdKVtDQEBdMShbT0hdKVtDSDJdbihbY0hdbjIpYyhjMjMpbltjSF1uYzNONFtDSDJdW0NASF0oRilbQ0gyXVtDQEhdNEMoPU8pW05IMl0=

> <s_epik_cmdline>
J2VwaWtfcHl0aG9uJywgJy1waCcsICc3LjAnLCAnLXRuJywgJzgnLCAnLW1hJywgJzIwMCcsICctbWV0YWxfYmluZGluZycsICctaW1hZScsICc8aW5maWxlLm1hZT4nLCAnLW9tYWUnLCAnPG91dGZpbGUubWFlPic=

> <r_lp_tautomer_probability>
1

> <r_epik_Ionization_Penalty>
0.000857933

> <r_epik_Ionization_Penalty_Charging>
0

> <r_epik_Ionization_Penalty_Neutral>
0.000857933

> <r_epik_State_Penalty>
0.000462053

> <r_epik_Charging_Adjusted_Penalty>
0.000462053

> <i_epik_Tot_Q>
0

> <i_epik_Tot_abs_Q>
0

> <r_epik_Metal_State_Penalty>
-0

> <b_epik_Metal_Only>
0

> <s_lp_Force_Field>
OPLS_2005

> <r_lp_Energy>
46.5275

> <b_lp_Chiralities_Consistent>
1

> <s_lp_Variant>
AV-unprocessed.smi:196-8

> <Gold.Version>
5.8.1

> <Gold.Id.Protein>
6NUR|6NUR_protein|mol2

> <Gold.PLP.Fitness>
43.0448

> <Gold.PLP.PLP>
-29.8389

> <Gold.PLP.part.hbond>
-4.4297

> <Gold.PLP.part.metal>
0.0000

> <Gold.PLP.part.buried>
-4.2839

> <Gold.PLP.part.nonpolar>
-22.0346

> <Gold.PLP.part.repulsive>
0.5014

> <Gold.PLP.ligand.clash>
0.0000

> <Gold.PLP.ligand.torsion>
0.3417

> <Gold.PLP.Chemscore.Hbond>
3.6000

> <Gold.PLP.Chemscore.CHOScore>
1.0000

> <Gold.PLP.Chemscore.Metal>
0.0000

> <Gold.Chemscore.Hbonds>
donor molecule, donor type, donor heavy atom, donor atom, acceptor molecule, acceptor atom, score
      L1  H     7    37       P1  7957  0.97
      L1  H    21    45       P1 11000  1.00
      L1  H    21    46       P1 10957  0.61
      P1  H  7997  8009       L1     3  1.00
      L1  C    24    47       P1 10175  1.00

> <Gold.PLP.Chemscore.Internal.Correction>
0.0893

> <Gold.Rescore>
     Score         DG    S(hbond)    S(metal)    S(lipo)     H(rot)  DE(clash)    DE(int)     intcor
     13.09     -15.49       3.36        0.00      56.37       3.04       0.82       1.58       ----

> <Gold.Chemscore.Fitness>
13.0891

> <Gold.Chemscore.DG>
-15.4949

> <Gold.Chemscore.ZeroCoef>
-5.4800

> <Gold.Chemscore.Hbond>
3.3550

> <Gold.Chemscore.Metal>
0.0000

> <Gold.Chemscore.Lipo>
56.3653

> <Gold.Chemscore.Internal_Hbond>
0.0000

> <Gold.Chemscore.DEClash>
0.8226

> <Gold.Chemscore.DEInternal>
1.5831

> <Gold.Chemscore.Rot>
3.0413

> <Gold.Chemscore.Internal.Correction>
   9.000000E+99

> <Gold.Chemscore.Hbonds>
donor molecule, donor type, donor heavy atom, donor atom, acceptor molecule, acceptor atom, score
      L1  H     7    37       P1  7957  0.86
      L1  H    21    45       P1 11000  0.93
      L1  H    21    46       P1 10957  0.60
      P1  H  7997  8009       L1     3  0.97

> <Gold.Chemscore.Hbond.Weighted>
-11.2058

> <Gold.Chemscore.Metal.Weighted>
-0.0000

> <Gold.Chemscore.Lipo.Weighted>
-6.5947

> <Gold.Chemscore.Internal_Hbond.Weighted>
0.0000

> <Gold.Chemscore.DEClash.Weighted>
0.8226

> <Gold.Chemscore.DEInternal.Weighted>
1.5831

> <Gold.Chemscore.Rot.Weighted>
7.7856

> <Gold.Chemscore.Internal.Correction.Weighted>
   9.000000E+99

> <Gold.Protein.RotatedTorsions>
[ 6907 6896 6895 6894 ] final  155.27 input  -60.11 | X-H torsion
[ 7974 7965 7964 7962 ] final  -72.26 input  175.53 | X-H torsion
[ 8008 7997 7996 7995 ] final -165.46 input   59.86 | X-H torsion
[ 10167 10162 10161 10158 ] final -111.64 input  -65.29 | X-H torsion
[ 10718 10713 10712 10709 ] final   87.21 input   66.30 | X-H torsion
[ 10763 10752 10751 10750 ] final   59.76 input  -60.55 | X-H torsion
[ 11005 11000 10999 10996 ] final  146.58 input  -57.11 | X-H torsion

> <Gold.Protein.ActiveResidues>
 VAL166  LYS551  ARG553  GLY616  TRP617  ASP618  TYR619  PRO620  LYS621  CYS622 
 ASP623  PHE694  ASN695  SER759  ASP760  ASP761  ALA762  ILE779  LEU786  VAL792 
 PHE793  MET794  SER795  GLU796  ALA797  LYS798  CYS799  TRP800  GLU811  SER814 

> <Gold.Protein.RotatedAtoms>
  152.0465  133.4000  159.4358 H   0  0  0  0  0  0  0  0  0  0  0  0  # atno 6907 bound_to 6896
  150.6872  134.3356  159.4855 H   0  0  0  0  0  0  0  0  0  0  0  0  # atno 6908 bound_to 6896
  152.1160  134.9239  160.0615 H   0  0  0  0  0  0  0  0  0  0  0  0  # atno 6909 bound_to 6896
  145.6675  140.9232  143.0901 H   0  0  0  0  0  0  0  0  0  0  0  0  # atno 7974 bound_to 7965
  155.8501  140.0962  157.1680 H   0  0  0  0  0  0  0  0  0  0  0  0  # atno 8008 bound_to 7997
  154.3985  140.1384  156.3896 H   0  0  0  0  0  0  0  0  0  0  0  0  # atno 8009 bound_to 7997
  155.7970  140.3454  155.5384 H   0  0  0  0  0  0  0  0  0  0  0  0  # atno 8010 bound_to 7997
  140.1314  143.4357  152.1625 H   0  0  0  0  0  0  0  0  0  0  0  0  # atno 10167 bound_to 10162
  157.6938  131.0246  150.3089 H   0  0  0  0  0  0  0  0  0  0  0  0  # atno 10718 bound_to 10713
  152.9903  135.5560  154.5764 H   0  0  0  0  0  0  0  0  0  0  0  0  # atno 10763 bound_to 10752
  154.5154  135.2804  155.1309 H   0  0  0  0  0  0  0  0  0  0  0  0  # atno 10764 bound_to 10752
  154.2684  135.6368  153.5354 H   0  0  0  0  0  0  0  0  0  0  0  0  # atno 10765 bound_to 10752
  140.0805  134.9100  157.1492 H   0  0  0  0  0  0  0  0  0  0  0  0  # atno 11005 bound_to 11000
  144.7068  139.8528  143.7427 LP  0  0  0  0  0  0  0  0  0  0  0  0  # atno 17320 bound_to 7965
  146.1074  139.4075  143.0309 LP  0  0  0  0  0  0  0  0  0  0  0  0  # atno 17321 bound_to 7965
  139.5518  144.7343  151.4414 LP  0  0  0  0  0  0  0  0  0  0  0  0  # atno 17342 bound_to 10162
  140.6814  143.8072  150.7127 LP  0  0  0  0  0  0  0  0  0  0  0  0  # atno 17343 bound_to 10162
  156.3594  130.3844  149.7264 LP  0  0  0  0  0  0  0  0  0  0  0  0  # atno 17370 bound_to 10713
  156.4715  130.7999  151.3016 LP  0  0  0  0  0  0  0  0  0  0  0  0  # atno 17371 bound_to 10713
  140.3495  134.2614  155.7200 LP  0  0  0  0  0  0  0  0  0  0  0  0  # atno 17394 bound_to 11000
  141.2045  133.7885  157.0285 LP  0  0  0  0  0  0  0  0  0  0  0  0  # atno 17395 bound_to 11000

$$$$
