AV-unprocessed.smi:21|AV-procd|sdf|150|dock3
  -GOLD-   2262015373D 1   1.00000     0.00000
 Structure written by MMmdl.
 62 65  0  0  0  0  0  0  0  0  2 V2000
  147.2315  131.0497  153.7197 C   0  0  0  0  0  0  0  0  0  0  0  0
  146.8217  132.3883  153.4888 O   0  0  0  0  0  0  0  0  0  0  0  0
  146.3348  132.6209  152.1734 C   0  0  2  0  0  0  0  0  0  0  0  0
  146.0197  134.1030  152.0227 C   0  0  0  0  0  0  0  0  0  0  0  0
  144.6414  134.2527  152.6772 C   0  0  1  0  0  0  0  0  0  0  0  0
  143.8614  135.5164  152.2377 C   0  0  0  0  0  0  0  0  0  0  0  0
  143.3314  136.2724  153.3749 N   0  0  0  0  0  0  0  0  0  0  0  0
  142.0701  135.8400  153.9634 C   0  0  0  0  0  0  0  0  0  0  0  0
  144.1544  137.1021  154.0753 C   0  0  0  0  0  0  0  0  0  0  0  0
  143.8913  137.2974  155.3947 N   0  0  0  0  0  0  0  0  0  0  0  0
  144.6603  138.0998  156.1346 C   0  0  0  0  0  0  0  0  0  0  0  0
  145.7286  138.8039  155.7618 N   0  0  0  0  0  0  0  0  0  0  0  0
  146.0019  138.6231  154.4390 C   0  0  0  0  0  0  0  0  0  0  0  0
  145.2767  137.7985  153.5296 C   0  0  0  0  0  0  0  0  0  0  0  0
  145.8528  137.8895  152.2660 N   0  0  0  0  0  0  0  0  0  0  0  0
  146.8576  138.7063  152.4214 C   0  0  0  0  0  0  0  0  0  0  0  0
  147.0246  139.1887  153.6977 N   0  0  0  0  0  0  0  0  0  0  0  0
  148.0549  140.1102  154.1453 C   0  0  0  0  0  0  0  0  0  0  0  0
  149.0838  139.4609  155.1033 C   0  0  1  0  0  0  0  0  0  0  0  0
  149.5416  138.0898  154.5530 C   0  0  0  0  0  0  0  0  0  0  0  0
  150.4087  138.2603  153.4510 O   0  0  0  0  0  0  0  0  0  0  0  0
  150.2622  140.4144  155.4487 C   0  0  1  0  0  0  0  0  0  0  0  0
  149.8836  141.6845  156.2123 C   0  0  0  0  0  0  0  0  0  0  0  0
  150.9212  141.7735  157.3328 C   0  0  0  0  0  0  0  0  0  0  0  0
  151.9863  140.9445  156.8957 O   0  0  0  0  0  0  0  0  0  0  0  0
  151.3936  139.8096  156.2881 C   0  0  0  0  0  0  0  0  0  0  0  0
  143.9514  132.9489  152.4539 N   0  3  1  0  0  0  0  0  0  0  0  0
  142.7189  132.9589  151.6303 C   0  0  0  0  0  0  0  0  0  0  0  0
  144.9597  131.9732  151.9725 C   0  0  0  0  0  0  0  0  0  0  0  0
  147.0638  132.2992  151.4276 H   0  0  0  0  0  0  0  0  0  0  0  0
  144.7944  134.3071  153.7561 H   0  0  0  0  0  0  0  0  0  0  0  0
  147.5830  130.9501  154.7467 H   0  0  0  0  0  0  0  0  0  0  0  0
  148.0524  130.7712  153.0579 H   0  0  0  0  0  0  0  0  0  0  0  0
  146.4136  130.3433  153.5771 H   0  0  0  0  0  0  0  0  0  0  0  0
  146.7783  134.7446  152.4730 H   0  0  0  0  0  0  0  0  0  0  0  0
  145.9581  134.3546  150.9628 H   0  0  0  0  0  0  0  0  0  0  0  0
  144.4771  136.1441  151.5942 H   0  0  0  0  0  0  0  0  0  0  0  0
  143.0072  135.2217  151.6277 H   0  0  0  0  0  0  0  0  0  0  0  0
  141.5436  136.6793  154.4194 H   0  0  0  0  0  0  0  0  0  0  0  0
  142.2397  135.0756  154.7221 H   0  0  0  0  0  0  0  0  0  0  0  0
  141.4152  135.4172  153.2013 H   0  0  0  0  0  0  0  0  0  0  0  0
  144.3800  138.1902  157.1738 H   0  0  0  0  0  0  0  0  0  0  0  0
  147.5111  138.9797  151.6054 H   0  0  0  0  0  0  0  0  0  0  0  0
  148.5537  140.5002  153.2575 H   0  0  0  0  0  0  0  0  0  0  0  0
  147.5786  140.9641  154.6280 H   0  0  0  0  0  0  0  0  0  0  0  0
  148.5685  139.2705  156.0464 H   0  0  0  0  0  0  0  0  0  0  0  0
  150.0600  137.5117  155.3181 H   0  0  0  0  0  0  0  0  0  0  0  0
  148.6985  137.4877  154.2176 H   0  0  0  0  0  0  0  0  0  0  0  0
  149.9164  138.6339  152.7358 H   0  0  0  0  0  0  0  0  0  0  0  0
  150.7139  140.7637  154.5198 H   0  0  0  0  0  0  0  0  0  0  0  0
  149.9587  142.5496  155.5523 H   0  0  0  0  0  0  0  0  0  0  0  0
  148.8701  141.6757  156.6124 H   0  0  0  0  0  0  0  0  0  0  0  0
  151.2567  142.7945  157.5161 H   0  0  0  0  0  0  0  0  0  0  0  0
  150.5157  141.3748  158.2641 H   0  0  0  0  0  0  0  0  0  0  0  0
  151.0235  139.1464  157.0699 H   0  0  0  0  0  0  0  0  0  0  0  0
  152.1154  139.2572  155.6869 H   0  0  0  0  0  0  0  0  0  0  0  0
  142.9156  133.3313  150.6241 H   0  0  0  0  0  0  0  0  0  0  0  0
  141.9413  133.5709  152.0869 H   0  0  0  0  0  0  0  0  0  0  0  0
  142.3209  131.9475  151.5417 H   0  0  0  0  0  0  0  0  0  0  0  0
  144.8146  131.7947  150.9056 H   0  0  0  0  0  0  0  0  0  0  0  0
  144.8519  131.0133  152.4769 H   0  0  0  0  0  0  0  0  0  0  0  0
  143.6691  132.6360  153.3720 H   0  0  0  0  0  0  0  0  0  0  0  0
  1  2  1  0  0  0  0
  1 32  1  0  0  0  0
  1 33  1  0  0  0  0
  1 34  1  0  0  0  0
  2  3  1  0  0  0  0
  3 30  1  0  0  0  0
  3 29  1  0  0  0  0
  3  4  1  0  0  0  0
  4  5  1  0  0  0  0
  4 35  1  0  0  0  0
  4 36  1  0  0  0  0
  5 31  1  0  0  0  0
  5  6  1  0  0  0  0
  5 27  1  0  0  0  0
  6  7  1  0  0  0  0
  6 37  1  0  0  0  0
  6 38  1  0  0  0  0
  7  8  1  0  0  0  0
  7  9  1  0  0  0  0
  8 39  1  0  0  0  0
  8 40  1  0  0  0  0
  8 41  1  0  0  0  0
  9 14  1  0  0  0  0
  9 10  2  0  0  0  0
 10 11  1  0  0  0  0
 11 12  2  0  0  0  0
 11 42  1  0  0  0  0
 12 13  1  0  0  0  0
 13 17  1  0  0  0  0
 13 14  2  0  0  0  0
 14 15  1  0  0  0  0
 15 16  2  0  0  0  0
 16 17  1  0  0  0  0
 16 43  1  0  0  0  0
 17 18  1  0  0  0  0
 18 19  1  0  0  0  0
 18 44  1  0  0  0  0
 18 45  1  0  0  0  0
 19 20  1  0  0  0  0
 19 22  1  0  0  0  0
 19 46  1  0  0  0  0
 20 21  1  0  0  0  0
 20 47  1  0  0  0  0
 20 48  1  0  0  0  0
 21 49  1  0  0  0  0
 22 26  1  0  0  0  0
 22 23  1  0  0  0  0
 22 50  1  0  0  0  0
 23 24  1  0  0  0  0
 23 51  1  0  0  0  0
 23 52  1  0  0  0  0
 24 25  1  0  0  0  0
 24 53  1  0  0  0  0
 24 54  1  0  0  0  0
 25 26  1  0  0  0  0
 26 55  1  0  0  0  0
 26 56  1  0  0  0  0
 27 28  1  0  0  0  0
 27 29  1  0  0  0  0
 27 62  1  0  0  0  0
 28 57  1  0  0  0  0
 28 58  1  0  0  0  0
 28 59  1  0  0  0  0
 29 60  1  0  0  0  0
 29 61  1  0  0  0  0
M  CHG  1  27   1
M  END
> <s_m_source_file>
AV-unprocessed.smi

> <i_m_source_file_index>
21

> <i_lp_mmshare_version>
43012

> <i_f3d_flags>
0

> <s_epik_input>
W0NIM11PW0NASF0xW0NIMl1bQ0BIXShOKFtDSDNdKVtDSDJdMSlbQ0gyXU4oW0NIM10pYyhuW2NIXW4yKWMoYzIzKW5bY0hdbjNbQ0gyXVtDQEhdKFtDSDJdW09IXSlbQ0BASF00W0NIMl1bQ0gyXU9bQ0gyXTQ=

> <s_epik_cmdline>
J2VwaWtfcHl0aG9uJywgJy1waCcsICc3LjAnLCAnLXRuJywgJzgnLCAnLW1hJywgJzIwMCcsICctbWV0YWxfYmluZGluZycsICctaW1hZScsICc8aW5maWxlLm1hZT4nLCAnLW9tYWUnLCAnPG91dGZpbGUubWFlPic=

> <r_lp_tautomer_probability>
1

> <r_epik_Ionization_Penalty>
0.0157465

> <r_epik_Ionization_Penalty_Charging>
0.015354

> <r_epik_Ionization_Penalty_Neutral>
0.000392529

> <r_epik_State_Penalty>
0.0120612

> <r_epik_Charging_Adjusted_Penalty>
0.0274152

> <i_epik_Tot_Q>
1

> <i_epik_Tot_abs_Q>
1

> <r_epik_Metal_State_Penalty>
0.0121253

> <b_epik_Metal_Only>
0

> <s_lp_Force_Field>
OPLS_2005

> <r_lp_Energy>
62.4591

> <b_lp_Chiralities_Consistent>
1

> <s_lp_Variant>
AV-unprocessed.smi:21-30

> <Gold.Version>
5.8.1

> <Gold.Id.Protein>
6NUR|6NUR_protein|mol2

> <Gold.PLP.Fitness>
44.0461

> <Gold.PLP.PLP>
-34.5455

> <Gold.PLP.part.hbond>
-3.7016

> <Gold.PLP.part.metal>
0.0000

> <Gold.PLP.part.buried>
-1.3437

> <Gold.PLP.part.nonpolar>
-32.5378

> <Gold.PLP.part.repulsive>
0.6382

> <Gold.PLP.ligand.clash>
0.0000

> <Gold.PLP.ligand.torsion>
1.4967

> <Gold.PLP.Chemscore.Hbond>
2.9175

> <Gold.PLP.Chemscore.CHOScore>
1.0000

> <Gold.PLP.Chemscore.Metal>
0.0000

> <Gold.Chemscore.Hbonds>
donor molecule, donor type, donor heavy atom, donor atom, acceptor molecule, acceptor atom, score
      L1  H    21    49       P1  7957  0.80
      L1  H    27    62       P1 10957  2.00
      L1  C    16    43       P1  7957  1.00

> <Gold.PLP.Chemscore.Internal.Correction>
0.7414

> <Gold.Rescore>
     Score         DG    S(hbond)    S(metal)    S(lipo)     H(rot)  DE(clash)    DE(int)     intcor
     10.09     -11.80       1.50        0.00      78.57       3.08       0.23       1.47       ----

> <Gold.Chemscore.Fitness>
10.0910

> <Gold.Chemscore.DG>
-11.7956

> <Gold.Chemscore.ZeroCoef>
-5.4800

> <Gold.Chemscore.Hbond>
1.4962

> <Gold.Chemscore.Metal>
0.0000

> <Gold.Chemscore.Lipo>
78.5686

> <Gold.Chemscore.Internal_Hbond>
0.0000

> <Gold.Chemscore.DEClash>
0.2335

> <Gold.Chemscore.DEInternal>
1.4712

> <Gold.Chemscore.Rot>
3.0758

> <Gold.Chemscore.Internal.Correction>
   9.000000E+99

> <Gold.Chemscore.Hbonds>
donor molecule, donor type, donor heavy atom, donor atom, acceptor molecule, acceptor atom, score
      L1  H    21    49       P1  7957  0.38
      L1  H    27    62       P1 10957  0.39

> <Gold.Chemscore.Hbond.Weighted>
-4.9973

> <Gold.Chemscore.Metal.Weighted>
-0.0000

> <Gold.Chemscore.Lipo.Weighted>
-9.1925

> <Gold.Chemscore.Internal_Hbond.Weighted>
0.0000

> <Gold.Chemscore.DEClash.Weighted>
0.2335

> <Gold.Chemscore.DEInternal.Weighted>
1.4712

> <Gold.Chemscore.Rot.Weighted>
7.8741

> <Gold.Chemscore.Internal.Correction.Weighted>
   9.000000E+99

> <Gold.Protein.RotatedTorsions>
[ 6907 6896 6895 6894 ] final   11.91 input  -60.11 | X-H torsion
[ 7974 7965 7964 7962 ] final  -51.70 input  175.53 | X-H torsion
[ 8008 7997 7996 7995 ] final   12.37 input   59.86 | X-H torsion
[ 10167 10162 10161 10158 ] final  130.10 input  -65.29 | X-H torsion
[ 10718 10713 10712 10709 ] final -163.36 input   66.30 | X-H torsion
[ 10763 10752 10751 10750 ] final  -93.09 input  -60.55 | X-H torsion
[ 11005 11000 10999 10996 ] final  -17.35 input  -57.11 | X-H torsion

> <Gold.Protein.ActiveResidues>
 VAL166  LYS551  ARG553  GLY616  TRP617  ASP618  TYR619  PRO620  LYS621  CYS622 
 ASP623  PHE694  ASN695  SER759  ASP760  ASP761  ALA762  ILE779  LEU786  VAL792 
 PHE793  MET794  SER795  GLU796  ALA797  LYS798  CYS799  TRP800  GLU811  SER814 

> <Gold.Protein.RotatedAtoms>
  151.7619  135.0808  160.0346 H   0  0  0  0  0  0  0  0  0  0  0  0  # atno 6907 bound_to 6896
  152.3347  133.5994  159.5842 H   0  0  0  0  0  0  0  0  0  0  0  0  # atno 6908 bound_to 6896
  150.7443  133.9730  159.3593 H   0  0  0  0  0  0  0  0  0  0  0  0  # atno 6909 bound_to 6896
  145.9161  140.7874  142.9671 H   0  0  0  0  0  0  0  0  0  0  0  0  # atno 7974 bound_to 7965
  154.8196  140.2882  155.5796 H   0  0  0  0  0  0  0  0  0  0  0  0  # atno 8008 bound_to 7997
  156.2996  140.2552  156.3031 H   0  0  0  0  0  0  0  0  0  0  0  0  # atno 8009 bound_to 7997
  154.9353  140.0382  157.2058 H   0  0  0  0  0  0  0  0  0  0  0  0  # atno 8010 bound_to 7997
  139.5446  144.6762  151.4514 H   0  0  0  0  0  0  0  0  0  0  0  0  # atno 10167 bound_to 10162
  156.6235  130.8900  151.2963 H   0  0  0  0  0  0  0  0  0  0  0  0  # atno 10718 bound_to 10713
  154.6925  135.5207  153.8413 H   0  0  0  0  0  0  0  0  0  0  0  0  # atno 10763 bound_to 10752
  153.0643  135.6579  154.0400 H   0  0  0  0  0  0  0  0  0  0  0  0  # atno 10764 bound_to 10752
  154.0272  135.2988  155.3353 H   0  0  0  0  0  0  0  0  0  0  0  0  # atno 10765 bound_to 10752
  140.8159  133.8105  155.9610 H   0  0  0  0  0  0  0  0  0  0  0  0  # atno 11005 bound_to 11000
  144.6748  140.1901  143.7397 LP  0  0  0  0  0  0  0  0  0  0  0  0  # atno 17320 bound_to 7965
  145.8610  139.2223  143.1716 LP  0  0  0  0  0  0  0  0  0  0  0  0  # atno 17321 bound_to 7965
  140.6689  143.8337  150.6975 LP  0  0  0  0  0  0  0  0  0  0  0  0  # atno 17342 bound_to 10162
  140.1755  143.4159  152.1971 LP  0  0  0  0  0  0  0  0  0  0  0  0  # atno 17343 bound_to 10162
  157.7221  130.9572  150.1480 LP  0  0  0  0  0  0  0  0  0  0  0  0  # atno 17370 bound_to 10713
  156.2292  130.3680  149.8465 LP  0  0  0  0  0  0  0  0  0  0  0  0  # atno 17371 bound_to 10713
  140.9149  134.2214  157.4963 LP  0  0  0  0  0  0  0  0  0  0  0  0  # atno 17394 bound_to 11000
  139.8711  134.9767  156.4929 LP  0  0  0  0  0  0  0  0  0  0  0  0  # atno 17395 bound_to 11000

$$$$
