#       Name:                AV-unprocessed.smi:1796
#       Creating user name   scv26
#       Creation time:       Fri Mar 27 08:50:25 2020


#       File generated by GOLD software.
#

@<TRIPOS>MOLECULE
AV-unprocessed.smi:1796
    47    48     1
SMALL
NO_CHARGES


@<TRIPOS>ATOM
      1 ****        -2.6469  -1.1361   2.1082 C.3            1 S1                 0.0000
      2 ****        -3.4925  -0.3914   1.0719 C.2            1 S1                 0.0000
      3 ****        -4.6890  -0.6704   0.9937 O.2            1 S1                 0.0000
      4 ****        -2.9041   0.5372   0.2804 N.am           1 S1                 0.0000
      5 ****        -3.6213   1.2433  -0.7892 C.3            1 S1                 0.0000
      6 ****        -3.0859   0.7646  -2.1517 C.3            1 S1                 0.0000
      7 ****        -1.5590   0.9499  -2.2450 C.3            1 S1                 0.0000
      8 ****        -0.8397   0.3342  -1.0238 C.3            1 S1                 0.0000
      9 ****         0.6655   0.6215  -1.0501 C.2            1 S1                 0.0000
     10 ****         1.0773   1.7763  -0.9378 O.2            1 S1                 0.0000
     11 ****         1.4717  -0.4469  -1.1558 N.am           1 S1                 0.0000
     12 ****         2.9271  -0.4343  -1.0145 C.3            1 S1                 0.0000
     13 ****         3.5595  -1.1585  -2.2104 C.3            1 S1                 0.0000
     14 ****         3.3341  -1.0847   0.3246 C.3            1 S1                 0.0000
     15 ****         2.7723  -0.3952   1.4738 N.pl3          1 S1                 0.0000
     16 ****         1.6957  -0.7672   2.2520 C.2            1 S1                 0.0000
     17 ****         1.5203   0.2049   3.1944 C.2            1 S1                 0.0000
     18 ****         2.5562   1.1388   2.9120 C.2            1 S1                 0.0000
     19 ****         3.3054   0.7758   1.8831 N.2            1 S1                 0.0000
     20 ****        -1.4731   0.8658   0.2816 C.3            1 S1                 0.0000
     21 ****        -1.8216  -1.6637   1.6293 H              1 S1                 0.0000
     22 ****        -3.2507  -1.8741   2.6376 H              1 S1                 0.0000
     23 ****        -2.2439  -0.4438   2.8480 H              1 S1                 0.0000
     24 ****        -4.7011   1.0958  -0.7434 H              1 S1                 0.0000
     25 ****        -3.4637   2.3173  -0.6806 H              1 S1                 0.0000
     26 ****        -3.3340  -0.2887  -2.2887 H              1 S1                 0.0000
     27 ****        -3.5779   1.3059  -2.9603 H              1 S1                 0.0000
     28 ****        -1.1886   0.5036  -3.1688 H              1 S1                 0.0000
     29 ****        -1.3373   2.0165  -2.3079 H              1 S1                 0.0000
     30 ****        -0.9830  -0.7479  -1.0531 H              1 S1                 0.0000
     31 ****         1.0371  -1.3524  -1.2589 H              1 S1                 0.0000
     32 ****         3.2992   0.5917  -1.0240 H              1 S1                 0.0000
     33 ****         4.6478  -1.1486  -2.1425 H              1 S1                 0.0000
     34 ****         3.2849  -0.6788  -3.1505 H              1 S1                 0.0000
     35 ****         3.2389  -2.1997  -2.2606 H              1 S1                 0.0000
     36 ****         3.0121  -2.1266   0.3557 H              1 S1                 0.0000
     37 ****         4.4204  -1.0915   0.4264 H              1 S1                 0.0000
     38 ****         1.1436  -1.6765   2.0652 H              1 S1                 0.0000
     39 ****         0.7658   0.2440   3.9659 H              1 S1                 0.0000
     40 ****         2.7840   2.0639   3.4207 H              1 S1                 0.0000
     41 ****        -1.3643   1.9500   0.3445 H              1 S1                 0.0000
     42 ****        -0.9398   0.4761   1.1480 H              1 S1                 0.0000
     43 ****        -5.0808  -1.3652   1.5968 LP             1 S1                 0.0000
     44 ****        -5.2692  -0.2022   0.3272 LP             1 S1                 0.0000
     45 ****         0.4290   2.5299  -0.8291 LP             1 S1                 0.0000
     46 ****         2.0600   1.9606  -0.9554 LP             1 S1                 0.0000
     47 ****         4.0900   1.2600   1.4959 LP             1 S1                 0.0000
@<TRIPOS>BOND
    1    1    2 1     
    2    1   21 1     
    3    1   22 1     
    4    1   23 1     
    5    2    3 2     
    6    2    4 am    
    7    4   20 1     
    8    4    5 1     
    9    5    6 1     
   10    5   24 1     
   11    5   25 1     
   12    6    7 1     
   13    6   26 1     
   14    6   27 1     
   15    7    8 1     
   16    7   28 1     
   17    7   29 1     
   18    8    9 1     
   19    8   20 1     
   20    8   30 1     
   21    9   10 2     
   22    9   11 am    
   23   11   12 1     
   24   11   31 1     
   25   12   13 1     
   26   12   14 1     
   27   12   32 1     
   28   13   33 1     
   29   13   34 1     
   30   13   35 1     
   31   14   15 1     
   32   14   36 1     
   33   14   37 1     
   34   15   19 1     
   35   15   16 1     
   36   16   17 2     
   37   16   38 1     
   38   17   18 1     
   39   17   39 1     
   40   18   19 2     
   41   18   40 1     
   42   20   41 1     
   43   20   42 1     
   44    3   43 1     
   45    3   44 1     
   46   10   45 1     
   47   10   46 1     
   48   19   47 1     
@<TRIPOS>SUBSTRUCTURE
      1 S1             1
@<TRIPOS>SET
LONE_PAIRS      STATIC     ATOMS    <user>   **** ""
5 43 44 45 46 47
DONOR_HYDROGENS      STATIC     ATOMS    <user>   **** ""
1 31
ATOM$BLUE        STATIC     ATOMS    COLORGROUP SYSTEM
5 43 44 45 46 47
ATOM$RED        STATIC     ATOMS    COLORGROUP SYSTEM
1 31
