AV-unprocessed.smi:243|AV-procd|sdf|1859|dock8
  -GOLD-   2262020493D 1   1.00000     0.00000
 Structure written by MMmdl.
 58 61  0  0  0  0  0  0  0  0  2 V2000
  146.2744  128.8950  151.9392 C   0  0  0  0  0  0  0  0  0  0  0  0
  145.9036  130.3791  152.0728 C   0  0  0  0  0  0  0  0  0  0  0  0
  147.0124  131.1930  152.6313 N   0  3  1  0  0  0  0  0  0  0  0  0
  146.7166  132.6478  152.5880 C   0  0  0  0  0  0  0  0  0  0  0  0
  147.9341  133.4750  153.0279 C   0  0  0  0  0  0  0  0  0  0  0  0
  148.4086  133.0470  154.4301 C   0  0  2  0  0  0  0  0  0  0  0  0
  149.4937  133.8863  154.9643 N   0  0  0  0  0  0  0  0  0  0  0  0
  150.6151  133.2960  155.6994 C   0  0  0  0  0  0  0  0  0  0  0  0
  149.1606  135.1656  155.2879 C   0  0  0  0  0  0  0  0  0  0  0  0
  148.0466  135.3910  156.0358 N   0  0  0  0  0  0  0  0  0  0  0  0
  147.6818  136.6362  156.3534 C   0  0  0  0  0  0  0  0  0  0  0  0
  148.2768  137.7857  156.0334 N   0  0  0  0  0  0  0  0  0  0  0  0
  149.3994  137.5711  155.2901 C   0  0  0  0  0  0  0  0  0  0  0  0
  149.9076  136.3071  154.8734 C   0  0  0  0  0  0  0  0  0  0  0  0
  151.0723  136.4923  154.1364 N   0  0  0  0  0  0  0  0  0  0  0  0
  151.2351  137.7863  154.1091 C   0  0  0  0  0  0  0  0  0  0  0  0
  150.2816  138.5109  154.7863 N   0  0  0  0  0  0  0  0  0  0  0  0
  150.2236  139.9575  154.9305 C   0  0  0  0  0  0  0  0  0  0  0  0
  150.8072  140.4639  156.2705 C   0  0  1  0  0  0  0  0  0  0  0  0
  152.1859  140.1406  156.3256 O   0  0  0  0  0  0  0  0  0  0  0  0
  150.6531  141.9667  156.4909 C   0  0  0  0  0  0  0  0  0  0  0  0
  150.4976  142.0752  158.0013 C   0  0  0  0  0  0  0  0  0  0  0  0
  149.6841  140.9556  158.3057 O   0  0  0  0  0  0  0  0  0  0  0  0
  150.1130  139.8575  157.5065 C   0  0  0  0  0  0  0  0  0  0  0  0
  148.6801  131.5192  154.4808 C   0  0  2  0  0  0  0  0  0  0  0  0
  149.9420  131.0474  153.7335 C   0  0  0  0  0  0  0  0  0  0  0  0
  147.4279  130.7601  153.9931 C   0  0  0  0  0  0  0  0  0  0  0  0
  145.4748  128.3447  151.4426 H   0  0  0  0  0  0  0  0  0  0  0  0
  146.4374  128.4221  152.9071 H   0  0  0  0  0  0  0  0  0  0  0  0
  147.1799  128.7677  151.3449 H   0  0  0  0  0  0  0  0  0  0  0  0
  145.6540  130.7464  151.0766 H   0  0  0  0  0  0  0  0  0  0  0  0
  145.0051  130.5007  152.6796 H   0  0  0  0  0  0  0  0  0  0  0  0
  146.4376  132.9395  151.5747 H   0  0  0  0  0  0  0  0  0  0  0  0
  145.8600  132.8663  153.2278 H   0  0  0  0  0  0  0  0  0  0  0  0
  148.7310  133.3521  152.2942 H   0  0  0  0  0  0  0  0  0  0  0  0
  147.6724  134.5338  153.0293 H   0  0  0  0  0  0  0  0  0  0  0  0
  147.5438  133.2195  155.0671 H   0  0  0  0  0  0  0  0  0  0  0  0
  151.4007  134.0343  155.8660 H   0  0  0  0  0  0  0  0  0  0  0  0
  151.0707  132.4840  155.1342 H   0  0  0  0  0  0  0  0  0  0  0  0
  150.3093  132.9064  156.6687 H   0  0  0  0  0  0  0  0  0  0  0  0
  146.7845  136.7237  156.9484 H   0  0  0  0  0  0  0  0  0  0  0  0
  152.0657  138.2498  153.5972 H   0  0  0  0  0  0  0  0  0  0  0  0
  150.7615  140.4031  154.0929 H   0  0  0  0  0  0  0  0  0  0  0  0
  149.1846  140.2740  154.8284 H   0  0  0  0  0  0  0  0  0  0  0  0
  152.2966  139.3928  156.8928 H   0  0  0  0  0  0  0  0  0  0  0  0
  151.4812  142.5589  156.0986 H   0  0  0  0  0  0  0  0  0  0  0  0
  149.7364  142.3254  156.0214 H   0  0  0  0  0  0  0  0  0  0  0  0
  151.4610  141.9818  158.5051 H   0  0  0  0  0  0  0  0  0  0  0  0
  150.0308  143.0098  158.3132 H   0  0  0  0  0  0  0  0  0  0  0  0
  149.2474  139.2493  157.2414 H   0  0  0  0  0  0  0  0  0  0  0  0
  150.7877  139.2267  158.0879 H   0  0  0  0  0  0  0  0  0  0  0  0
  148.8216  131.2399  155.5259 H   0  0  0  0  0  0  0  0  0  0  0  0
  149.9507  131.3719  152.6934 H   0  0  0  0  0  0  0  0  0  0  0  0
  150.0124  129.9594  153.7377 H   0  0  0  0  0  0  0  0  0  0  0  0
  150.8469  131.4161  154.2143 H   0  0  0  0  0  0  0  0  0  0  0  0
  146.6025  130.9290  154.6869 H   0  0  0  0  0  0  0  0  0  0  0  0
  147.6267  129.6891  154.0112 H   0  0  0  0  0  0  0  0  0  0  0  0
  147.8053  131.0499  152.0222 H   0  0  0  0  0  0  0  0  0  0  0  0
  1  2  1  0  0  0  0
  1 28  1  0  0  0  0
  1 29  1  0  0  0  0
  1 30  1  0  0  0  0
  2  3  1  0  0  0  0
  2 31  1  0  0  0  0
  2 32  1  0  0  0  0
  3 27  1  0  0  0  0
  3  4  1  0  0  0  0
  3 58  1  0  0  0  0
  4  5  1  0  0  0  0
  4 33  1  0  0  0  0
  4 34  1  0  0  0  0
  5  6  1  0  0  0  0
  5 35  1  0  0  0  0
  5 36  1  0  0  0  0
  6  7  1  0  0  0  0
  6 25  1  0  0  0  0
  6 37  1  0  0  0  0
  7  8  1  0  0  0  0
  7  9  1  0  0  0  0
  8 38  1  0  0  0  0
  8 39  1  0  0  0  0
  8 40  1  0  0  0  0
  9 14  1  0  0  0  0
  9 10  2  0  0  0  0
 10 11  1  0  0  0  0
 11 12  2  0  0  0  0
 11 41  1  0  0  0  0
 12 13  1  0  0  0  0
 13 17  1  0  0  0  0
 13 14  2  0  0  0  0
 14 15  1  0  0  0  0
 15 16  2  0  0  0  0
 16 17  1  0  0  0  0
 16 42  1  0  0  0  0
 17 18  1  0  0  0  0
 18 19  1  0  0  0  0
 18 43  1  0  0  0  0
 18 44  1  0  0  0  0
 19 24  1  0  0  0  0
 19 20  1  0  0  0  0
 19 21  1  0  0  0  0
 20 45  1  0  0  0  0
 21 22  1  0  0  0  0
 21 46  1  0  0  0  0
 21 47  1  0  0  0  0
 22 23  1  0  0  0  0
 22 48  1  0  0  0  0
 22 49  1  0  0  0  0
 23 24  1  0  0  0  0
 24 50  1  0  0  0  0
 24 51  1  0  0  0  0
 25 26  1  0  0  0  0
 25 27  1  0  0  0  0
 25 52  1  0  0  0  0
 26 53  1  0  0  0  0
 26 54  1  0  0  0  0
 26 55  1  0  0  0  0
 27 56  1  0  0  0  0
 27 57  1  0  0  0  0
M  CHG  1   3   1
M  END
> <s_m_source_file>
AV-unprocessed.smi

> <i_m_source_file_index>
243

> <i_lp_mmshare_version>
43012

> <i_f3d_flags>
0

> <s_epik_input>
W0NIM11bQ0gyXU4xW0NIMl1bQ0gyXVtDQEhdKFtDQEBIXShbQ0gzXSlbQ0gyXTEpTihbQ0gzXSljKG5bY0hdbjIpYyhjMjMpbltjSF1uM1tDSDJdW0NAQF00KFtPSF0pW0NIMl1bQ0gyXU9bQ0gyXTQ=

> <s_epik_cmdline>
J2VwaWtfcHl0aG9uJywgJy1waCcsICc3LjAnLCAnLXRuJywgJzgnLCAnLW1hJywgJzIwMCcsICctbWV0YWxfYmluZGluZycsICctaW1hZScsICc8aW5maWxlLm1hZT4nLCAnLW9tYWUnLCAnPG91dGZpbGUubWFlPic=

> <r_lp_tautomer_probability>
1

> <r_epik_Ionization_Penalty>
0.00253099

> <r_epik_Ionization_Penalty_Charging>
0.00137877

> <r_epik_Ionization_Penalty_Neutral>
0.00115221

> <r_epik_State_Penalty>
-0

> <r_epik_Charging_Adjusted_Penalty>
0.00137877

> <i_epik_Tot_Q>
1

> <i_epik_Tot_abs_Q>
1

> <r_epik_Metal_State_Penalty>
-0

> <b_epik_Metal_Only>
0

> <s_lp_Force_Field>
OPLS_2005

> <r_lp_Energy>
49.5807

> <b_lp_Chiralities_Consistent>
1

> <s_lp_Variant>
AV-unprocessed.smi:243-12

> <Gold.Version>
5.8.1

> <Gold.Id.Protein>
6NUR|6NUR_protein|mol2

> <Gold.PLP.Fitness>
47.1273

> <Gold.PLP.PLP>
-41.0391

> <Gold.PLP.part.hbond>
-3.0000

> <Gold.PLP.part.metal>
0.0000

> <Gold.PLP.part.buried>
-2.5704

> <Gold.PLP.part.nonpolar>
-36.5039

> <Gold.PLP.part.repulsive>
1.2313

> <Gold.PLP.ligand.clash>
0.0000

> <Gold.PLP.ligand.torsion>
1.8131

> <Gold.PLP.Chemscore.Hbond>
2.9280

> <Gold.PLP.Chemscore.CHOScore>
0.0000

> <Gold.PLP.Chemscore.Metal>
0.0000

> <Gold.Chemscore.Hbonds>
donor molecule, donor type, donor heavy atom, donor atom, acceptor molecule, acceptor atom, score
      L1  H     3    58       P1 10747  0.81
      P1  H 10752 10763       L1    15  0.96

> <Gold.PLP.Chemscore.Internal.Correction>
0.9304

> <Gold.Rescore>
     Score         DG    S(hbond)    S(metal)    S(lipo)     H(rot)  DE(clash)    DE(int)     intcor
     13.37     -17.25       2.04        0.00      91.23       2.24       1.30       2.59       ----

> <Gold.Chemscore.Fitness>
13.3676

> <Gold.Chemscore.DG>
-17.2528

> <Gold.Chemscore.ZeroCoef>
-5.4800

> <Gold.Chemscore.Hbond>
2.0443

> <Gold.Chemscore.Metal>
0.0000

> <Gold.Chemscore.Lipo>
91.2320

> <Gold.Chemscore.Internal_Hbond>
0.0000

> <Gold.Chemscore.DEClash>
1.2959

> <Gold.Chemscore.DEInternal>
2.5894

> <Gold.Chemscore.Rot>
2.2379

> <Gold.Chemscore.Internal.Correction>
   9.000000E+99

> <Gold.Chemscore.Hbonds>
donor molecule, donor type, donor heavy atom, donor atom, acceptor molecule, acceptor atom, score
      L1  H     3    58       P1 10747  0.80
      P1  H 10752 10763       L1    15  0.60

> <Gold.Chemscore.Hbond.Weighted>
-6.8278

> <Gold.Chemscore.Metal.Weighted>
-0.0000

> <Gold.Chemscore.Lipo.Weighted>
-10.6741

> <Gold.Chemscore.Internal_Hbond.Weighted>
0.0000

> <Gold.Chemscore.DEClash.Weighted>
1.2959

> <Gold.Chemscore.DEInternal.Weighted>
2.5894

> <Gold.Chemscore.Rot.Weighted>
5.7291

> <Gold.Chemscore.Internal.Correction.Weighted>
   9.000000E+99

> <Gold.Protein.RotatedTorsions>
[ 6907 6896 6895 6894 ] final  171.63 input  -60.11 | X-H torsion
[ 7974 7965 7964 7962 ] final    1.72 input  175.53 | X-H torsion
[ 8008 7997 7996 7995 ] final   67.82 input   59.86 | X-H torsion
[ 10167 10162 10161 10158 ] final -125.75 input  -65.29 | X-H torsion
[ 10718 10713 10712 10709 ] final  -62.39 input   66.30 | X-H torsion
[ 10763 10752 10751 10750 ] final   44.19 input  -60.55 | X-H torsion
[ 11005 11000 10999 10996 ] final  106.96 input  -57.11 | X-H torsion

> <Gold.Protein.ActiveResidues>
 VAL166  LYS551  ARG553  GLY616  TRP617  ASP618  TYR619  PRO620  LYS621  CYS622 
 ASP623  PHE694  ASN695  SER759  ASP760  ASP761  ALA762  ILE779  LEU786  VAL792 
 PHE793  MET794  SER795  GLU796  ALA797  LYS798  CYS799  TRP800  GLU811  SER814 

> <Gold.Protein.RotatedAtoms>
  151.7972  133.3366  159.3516 H   0  0  0  0  0  0  0  0  0  0  0  0  # atno 6907 bound_to 6896
  150.7371  134.5787  159.5937 H   0  0  0  0  0  0  0  0  0  0  0  0  # atno 6908 bound_to 6896
  152.3168  134.7431  160.0374 H   0  0  0  0  0  0  0  0  0  0  0  0  # atno 6909 bound_to 6896
  146.2441  140.0944  142.8350 H   0  0  0  0  0  0  0  0  0  0  0  0  # atno 7974 bound_to 7965
  155.6988  140.3495  155.4924 H   0  0  0  0  0  0  0  0  0  0  0  0  # atno 8008 bound_to 7997
  155.9459  140.1110  157.1040 H   0  0  0  0  0  0  0  0  0  0  0  0  # atno 8009 bound_to 7997
  154.4112  140.1204  156.4974 H   0  0  0  0  0  0  0  0  0  0  0  0  # atno 8010 bound_to 7997
  139.9788  143.5765  152.2386 H   0  0  0  0  0  0  0  0  0  0  0  0  # atno 10167 bound_to 10162
  156.0859  130.4208  150.1128 H   0  0  0  0  0  0  0  0  0  0  0  0  # atno 10718 bound_to 10713
  152.9846  135.6078  154.3233 H   0  0  0  0  0  0  0  0  0  0  0  0  # atno 10763 bound_to 10752
  154.2941  135.2774  155.2643 H   0  0  0  0  0  0  0  0  0  0  0  0  # atno 10764 bound_to 10752
  154.4925  135.5888  153.6526 H   0  0  0  0  0  0  0  0  0  0  0  0  # atno 10765 bound_to 10752
  139.8821  134.9386  156.5747 H   0  0  0  0  0  0  0  0  0  0  0  0  # atno 11005 bound_to 11000
  145.0622  140.9096  143.4932 LP  0  0  0  0  0  0  0  0  0  0  0  0  # atno 17320 bound_to 7965
  145.1062  139.2788  143.5661 LP  0  0  0  0  0  0  0  0  0  0  0  0  # atno 17321 bound_to 7965
  139.6425  144.7656  151.2309 LP  0  0  0  0  0  0  0  0  0  0  0  0  # atno 17342 bound_to 10162
  140.7496  143.6293  150.8439 LP  0  0  0  0  0  0  0  0  0  0  0  0  # atno 17343 bound_to 10162
  156.9149  130.9664  151.3557 LP  0  0  0  0  0  0  0  0  0  0  0  0  # atno 17370 bound_to 10713
  157.5992  130.8500  149.8776 LP  0  0  0  0  0  0  0  0  0  0  0  0  # atno 17371 bound_to 10713
  140.8072  133.8458  155.8778 LP  0  0  0  0  0  0  0  0  0  0  0  0  # atno 17394 bound_to 11000
  140.9539  134.1743  157.4706 LP  0  0  0  0  0  0  0  0  0  0  0  0  # atno 17395 bound_to 11000

$$$$
