AV-unprocessed.smi:2106|AV-procd|sdf|8595|dock2
  -GOLD-   2272011333D 1   1.00000     0.00000
 Structure written by MMmdl.
 47 48  0  0  0  0  0  0  0  0  1 V2000
  151.4689  144.5363  157.4583 C   0  0  0  0  0  0  0  0  0  0  0  0
  151.9316  143.8303  158.6985 C   0  0  0  0  0  0  0  0  0  0  0  0
  152.0741  144.3583  160.0120 C   0  0  0  0  0  0  0  0  0  0  0  0
  152.5280  143.3035  160.7528 C   0  0  0  0  0  0  0  0  0  0  0  0
  152.8720  143.2254  162.2040 C   0  0  0  0  0  0  0  0  0  0  0  0
  152.6351  142.2251  159.8917 N   0  0  0  0  0  0  0  0  0  0  0  0
  153.0805  140.8685  160.1677 C   0  0  0  0  0  0  0  0  0  0  0  0
  153.1274  140.0338  158.8877 C   0  0  0  0  0  0  0  0  0  0  0  0
  154.1718  139.4716  158.5594 O   0  0  0  0  0  0  0  0  0  0  0  0
  151.9902  139.9637  158.1784 N   0  0  0  0  0  0  0  0  0  0  0  0
  151.8061  139.2065  156.9448 C   0  0  0  0  0  0  0  0  0  0  0  0
  151.0897  140.0428  155.8660 C   0  0  0  0  0  0  0  0  0  0  0  0
  149.6716  139.7409  155.6702 N   0  0  0  0  0  0  0  0  0  0  0  0
  148.9303  140.9250  155.2577 C   0  0  0  0  0  0  0  0  0  0  0  0
  147.4259  140.6349  155.1076 C   0  0  1  0  0  0  0  0  0  0  0  0
  146.6525  141.8523  154.5905 C   0  0  0  0  0  0  0  0  0  0  0  0
  147.2382  139.5655  154.1824 O   0  0  0  0  0  0  0  0  0  0  0  0
  147.9570  138.3675  154.4811 C   0  0  2  0  0  0  0  0  0  0  0  0
  147.3269  137.6004  155.6562 C   0  0  0  0  0  0  0  0  0  0  0  0
  149.4520  138.6800  154.6898 C   0  0  0  0  0  0  0  0  0  0  0  0
  152.2673  142.5524  158.6332 N   0  0  0  0  0  0  0  0  0  0  0  0
  151.2006  145.5713  157.6714 H   0  0  0  0  0  0  0  0  0  0  0  0
  150.5926  144.0480  157.0316 H   0  0  0  0  0  0  0  0  0  0  0  0
  152.2504  144.5461  156.6982 H   0  0  0  0  0  0  0  0  0  0  0  0
  151.8753  145.3618  160.3581 H   0  0  0  0  0  0  0  0  0  0  0  0
  152.6729  144.1741  162.7027 H   0  0  0  0  0  0  0  0  0  0  0  0
  153.9272  142.9903  162.3415 H   0  0  0  0  0  0  0  0  0  0  0  0
  152.2833  142.4562  162.7042 H   0  0  0  0  0  0  0  0  0  0  0  0
  154.0698  140.8988  160.6252 H   0  0  0  0  0  0  0  0  0  0  0  0
  152.4112  140.4096  160.8975 H   0  0  0  0  0  0  0  0  0  0  0  0
  151.1874  140.4675  158.5263 H   0  0  0  0  0  0  0  0  0  0  0  0
  152.7988  138.9416  156.5809 H   0  0  0  0  0  0  0  0  0  0  0  0
  151.3001  138.2585  157.1300 H   0  0  0  0  0  0  0  0  0  0  0  0
  151.1964  141.0939  156.1379 H   0  0  0  0  0  0  0  0  0  0  0  0
  151.6172  139.9293  154.9178 H   0  0  0  0  0  0  0  0  0  0  0  0
  149.0691  141.7204  155.9910 H   0  0  0  0  0  0  0  0  0  0  0  0
  149.3283  141.2994  154.3131 H   0  0  0  0  0  0  0  0  0  0  0  0
  147.0117  140.3522  156.0759 H   0  0  0  0  0  0  0  0  0  0  0  0
  146.7534  142.6995  155.2694 H   0  0  0  0  0  0  0  0  0  0  0  0
  145.5900  141.6265  154.4965 H   0  0  0  0  0  0  0  0  0  0  0  0
  147.0150  142.1631  153.6103 H   0  0  0  0  0  0  0  0  0  0  0  0
  147.8684  137.7299  153.6011 H   0  0  0  0  0  0  0  0  0  0  0  0
  147.8188  136.6378  155.7972 H   0  0  0  0  0  0  0  0  0  0  0  0
  146.2700  137.4071  155.4735 H   0  0  0  0  0  0  0  0  0  0  0  0
  147.4103  138.1473  156.5951 H   0  0  0  0  0  0  0  0  0  0  0  0
  149.8867  138.9761  153.7337 H   0  0  0  0  0  0  0  0  0  0  0  0
  149.9644  137.7667  154.9885 H   0  0  0  0  0  0  0  0  0  0  0  0
  1  2  1  0  0  0  0
  1 22  1  0  0  0  0
  1 23  1  0  0  0  0
  1 24  1  0  0  0  0
  2 21  2  0  0  0  0
  2  3  1  0  0  0  0
  3  4  2  0  0  0  0
  3 25  1  0  0  0  0
  4  5  1  0  0  0  0
  4  6  1  0  0  0  0
  5 26  1  0  0  0  0
  5 27  1  0  0  0  0
  5 28  1  0  0  0  0
  6  7  1  0  0  0  0
  6 21  1  0  0  0  0
  7  8  1  0  0  0  0
  7 29  1  0  0  0  0
  7 30  1  0  0  0  0
  8  9  2  0  0  0  0
  8 10  1  0  0  0  0
 10 11  1  0  0  0  0
 10 31  1  0  0  0  0
 11 12  1  0  0  0  0
 11 32  1  0  0  0  0
 11 33  1  0  0  0  0
 12 13  1  0  0  0  0
 12 34  1  0  0  0  0
 12 35  1  0  0  0  0
 13 20  1  0  0  0  0
 13 14  1  0  0  0  0
 14 15  1  0  0  0  0
 14 36  1  0  0  0  0
 14 37  1  0  0  0  0
 15 16  1  0  0  0  0
 15 17  1  0  0  0  0
 15 38  1  0  0  0  0
 16 39  1  0  0  0  0
 16 40  1  0  0  0  0
 16 41  1  0  0  0  0
 17 18  1  0  0  0  0
 18 19  1  0  0  0  0
 18 20  1  0  0  0  0
 18 42  1  0  0  0  0
 19 43  1  0  0  0  0
 19 44  1  0  0  0  0
 19 45  1  0  0  0  0
 20 46  1  0  0  0  0
 20 47  1  0  0  0  0
M  END
> <s_m_source_file>
AV-unprocessed.smi

> <i_m_source_file_index>
2106

> <i_lp_mmshare_version>
43012

> <i_f3d_flags>
0

> <s_epik_input>
W0NIM11jMVtjSF1jKFtDSDNdKW4objEpW0NIMl1DKD1PKVtOSF1bQ0gyXVtDSDJdTjJbQ0gyXVtDQEBIXShbQ0gzXSlPW0NAQEhdKFtDSDNdKVtDSDJdMg==

> <s_epik_cmdline>
J2VwaWtfcHl0aG9uJywgJy1waCcsICc3LjAnLCAnLXRuJywgJzgnLCAnLW1hJywgJzIwMCcsICctbWV0YWxfYmluZGluZycsICctaW1hZScsICc8aW5maWxlLm1hZT4nLCAnLW9tYWUnLCAnPG91dGZpbGUubWFlPic=

> <r_lp_tautomer_probability>
1

> <r_epik_Ionization_Penalty>
0.197284

> <r_epik_Ionization_Penalty_Charging>
0

> <r_epik_Ionization_Penalty_Neutral>
0.197284

> <r_epik_State_Penalty>
0.186684

> <r_epik_Charging_Adjusted_Penalty>
0.186684

> <i_epik_Tot_Q>
0

> <i_epik_Tot_abs_Q>
0

> <r_epik_Metal_State_Penalty>
0.186634

> <b_epik_Metal_Only>
0

> <s_lp_Force_Field>
OPLS_2005

> <r_lp_Energy>
25.1516

> <b_lp_Chiralities_Consistent>
1

> <s_lp_Variant>
AV-unprocessed.smi:2106-3

> <Gold.Version>
5.8.1

> <Gold.Id.Protein>
6NUR|6NUR_protein|mol2

> <Gold.PLP.Fitness>
48.6193

> <Gold.PLP.PLP>
-47.1792

> <Gold.PLP.part.hbond>
-1.0000

> <Gold.PLP.part.metal>
0.0000

> <Gold.PLP.part.buried>
-5.6111

> <Gold.PLP.part.nonpolar>
-40.9170

> <Gold.PLP.part.repulsive>
0.2998

> <Gold.PLP.ligand.clash>
0.0000

> <Gold.PLP.ligand.torsion>
0.7884

> <Gold.PLP.Chemscore.Hbond>
1.0000

> <Gold.PLP.Chemscore.CHOScore>
0.0000

> <Gold.PLP.Chemscore.Metal>
0.0000

> <Gold.Chemscore.Hbonds>
donor molecule, donor type, donor heavy atom, donor atom, acceptor molecule, acceptor atom, score
      P1  H  7997  8010       L1     9  1.00

> <Gold.PLP.Chemscore.Internal.Correction>
0.0169

> <Gold.Rescore>
     Score         DG    S(hbond)    S(metal)    S(lipo)     H(rot)  DE(clash)    DE(int)     intcor
     15.68     -18.07       0.94        0.00     117.31       1.67       0.08       2.31       ----

> <Gold.Chemscore.Fitness>
15.6789

> <Gold.Chemscore.DG>
-18.0658

> <Gold.Chemscore.ZeroCoef>
-5.4800

> <Gold.Chemscore.Hbond>
0.9355

> <Gold.Chemscore.Metal>
0.0000

> <Gold.Chemscore.Lipo>
117.3109

> <Gold.Chemscore.Internal_Hbond>
0.0000

> <Gold.Chemscore.DEClash>
0.0762

> <Gold.Chemscore.DEInternal>
2.3107

> <Gold.Chemscore.Rot>
1.6657

> <Gold.Chemscore.Internal.Correction>
   9.000000E+99

> <Gold.Chemscore.Hbonds>
donor molecule, donor type, donor heavy atom, donor atom, acceptor molecule, acceptor atom, score
      P1  H  7997  8010       L1     9  0.87

> <Gold.Chemscore.Hbond.Weighted>
-3.1245

> <Gold.Chemscore.Metal.Weighted>
-0.0000

> <Gold.Chemscore.Lipo.Weighted>
-13.7254

> <Gold.Chemscore.Internal_Hbond.Weighted>
0.0000

> <Gold.Chemscore.DEClash.Weighted>
0.0762

> <Gold.Chemscore.DEInternal.Weighted>
2.3107

> <Gold.Chemscore.Rot.Weighted>
4.2641

> <Gold.Chemscore.Internal.Correction.Weighted>
   9.000000E+99

> <Gold.Protein.RotatedTorsions>
[ 6907 6896 6895 6894 ] final -130.18 input  -60.11 | X-H torsion
[ 7974 7965 7964 7962 ] final -172.60 input  175.53 | X-H torsion
[ 8008 7997 7996 7995 ] final   19.24 input   59.86 | X-H torsion
[ 10167 10162 10161 10158 ] final  -98.72 input  -65.29 | X-H torsion
[ 10718 10713 10712 10709 ] final   65.92 input   66.30 | X-H torsion
[ 10763 10752 10751 10750 ] final  -55.62 input  -60.55 | X-H torsion
[ 11005 11000 10999 10996 ] final -112.56 input  -57.11 | X-H torsion

> <Gold.Protein.ActiveResidues>
 VAL166  LYS551  ARG553  GLY616  TRP617  ASP618  TYR619  PRO620  LYS621  CYS622 
 ASP623  PHE694  ASN695  SER759  ASP760  ASP761  ALA762  ILE779  LEU786  VAL792 
 PHE793  MET794  SER795  GLU796  ALA797  LYS798  CYS799  TRP800  GLU811  SER814 

> <Gold.Protein.RotatedAtoms>
  150.9369  133.6701  159.2798 H   0  0  0  0  0  0  0  0  0  0  0  0  # atno 6907 bound_to 6896
  151.4104  135.0983  159.9593 H   0  0  0  0  0  0  0  0  0  0  0  0  # atno 6908 bound_to 6896
  152.5052  133.8843  159.7417 H   0  0  0  0  0  0  0  0  0  0  0  0  # atno 6909 bound_to 6896
  144.7145  140.1747  143.6364 H   0  0  0  0  0  0  0  0  0  0  0  0  # atno 7974 bound_to 7965
  154.9178  140.3023  155.5232 H   0  0  0  0  0  0  0  0  0  0  0  0  # atno 8008 bound_to 7997
  156.3011  140.2377  156.4160 H   0  0  0  0  0  0  0  0  0  0  0  0  # atno 8009 bound_to 7997
  154.8361  140.0416  157.1498 H   0  0  0  0  0  0  0  0  0  0  0  0  # atno 8010 bound_to 7997
  140.2700  143.3350  152.0544 H   0  0  0  0  0  0  0  0  0  0  0  0  # atno 10167 bound_to 10162
  157.6136  130.9240  150.0040 H   0  0  0  0  0  0  0  0  0  0  0  0  # atno 10718 bound_to 10713
  154.1936  135.6423  153.5067 H   0  0  0  0  0  0  0  0  0  0  0  0  # atno 10763 bound_to 10752
  153.0029  135.5434  154.6389 H   0  0  0  0  0  0  0  0  0  0  0  0  # atno 10764 bound_to 10752
  154.5784  135.2923  155.0730 H   0  0  0  0  0  0  0  0  0  0  0  0  # atno 10765 bound_to 10752
  141.0668  133.9446  157.2563 H   0  0  0  0  0  0  0  0  0  0  0  0  # atno 11005 bound_to 11000
  145.8911  139.2376  143.1549 LP  0  0  0  0  0  0  0  0  0  0  0  0  # atno 17320 bound_to 7965
  145.9902  140.8609  143.0070 LP  0  0  0  0  0  0  0  0  0  0  0  0  # atno 17321 bound_to 7965
  139.4991  144.6663  151.6349 LP  0  0  0  0  0  0  0  0  0  0  0  0  # atno 17342 bound_to 10162
  140.5897  143.9801  150.6317 LP  0  0  0  0  0  0  0  0  0  0  0  0  # atno 17343 bound_to 10162
  156.1249  130.3645  149.9827 LP  0  0  0  0  0  0  0  0  0  0  0  0  # atno 17370 bound_to 10713
  156.7899  130.9252  151.3646 LP  0  0  0  0  0  0  0  0  0  0  0  0  # atno 17371 bound_to 10713
  139.9484  135.0180  156.8921 LP  0  0  0  0  0  0  0  0  0  0  0  0  # atno 17394 bound_to 11000
  140.5757  134.0401  155.7446 LP  0  0  0  0  0  0  0  0  0  0  0  0  # atno 17395 bound_to 11000

$$$$
