#       Name:                AV-unprocessed.smi:2815
#       Creating user name   scv26
#       Creation time:       Fri Mar 27 15:28:22 2020


#       File generated by GOLD software.
#

@<TRIPOS>MOLECULE
AV-unprocessed.smi:2815
    52    53     1
SMALL
NO_CHARGES


@<TRIPOS>ATOM
      1 ****        -6.7716   1.6524  -1.7822 C.3            1 S1                 0.0000
      2 ****        -6.2894   0.3272  -1.6443 O.3            1 S1                 0.0000
      3 ****        -4.8733   0.2627  -1.6508 C.3            1 S1                 0.0000
      4 ****        -4.4400  -1.1999  -1.4928 C.3            1 S1                 0.0000
      5 ****        -2.9923  -1.3328  -1.4958 N.pl3          1 S1                 0.0000
      6 ****        -2.3830  -1.7457  -2.6338 N.2            1 S1                 0.0000
      7 ****        -1.0916  -1.7753  -2.3506 C.2            1 S1                 0.0000
      8 ****        -0.1083  -2.2102  -3.3990 C.3            1 S1                 0.0000
      9 ****        -0.8571  -1.3385  -1.0199 C.2            1 S1                 0.0000
     10 ****         0.4229  -1.2660  -0.4151 N.am           1 S1                 0.0000
     11 ****         0.8691  -0.3008   0.4036 C.2            1 S1                 0.0000
     12 ****         0.2060   0.6661   0.7790 O.2            1 S1                 0.0000
     13 ****         2.1474  -0.5069   0.7515 N.am           1 S1                 0.0000
     14 ****         2.9342   0.3619   1.6220 C.3            1 S1                 0.0000
     15 ****         3.4892   1.5669   0.8339 C.3            1 S1                 0.0000
     16 ****         4.3856   2.4514   1.7157 C.3            1 S1                 0.0000
     17 ****         5.5227   1.6373   2.3519 C.3            1 S1                 0.0000
     18 ****         4.9717   0.4406   3.1425 C.3            1 S1                 0.0000
     19 ****         4.0796  -0.4471   2.2598 C.3            1 S1                 0.0000
     20 ****        -2.0885  -1.0948  -0.4700 C.2            1 S1                 0.0000
     21 ****        -2.5162  -0.6779   0.9038 C.3            1 S1                 0.0000
     22 ****        -7.8615   1.6485  -1.7729 H              1 S1                 0.0000
     23 ****        -6.4446   2.0957  -2.7236 H              1 S1                 0.0000
     24 ****        -6.4305   2.2835  -0.9606 H              1 S1                 0.0000
     25 ****        -4.4852   0.6694  -2.5861 H              1 S1                 0.0000
     26 ****        -4.4701   0.8662  -0.8362 H              1 S1                 0.0000
     27 ****        -4.8343  -1.6208  -0.5680 H              1 S1                 0.0000
     28 ****        -4.8555  -1.8001  -2.3040 H              1 S1                 0.0000
     29 ****         0.8510  -2.4795  -2.9570 H              1 S1                 0.0000
     30 ****         0.0707  -1.4125  -4.1198 H              1 S1                 0.0000
     31 ****        -0.4728  -3.0794  -3.9470 H              1 S1                 0.0000
     32 ****         1.1041  -1.9373  -0.7380 H              1 S1                 0.0000
     33 ****         2.6123  -1.3263   0.3892 H              1 S1                 0.0000
     34 ****         2.2934   0.7307   2.4253 H              1 S1                 0.0000
     35 ****         4.0625   1.2141  -0.0246 H              1 S1                 0.0000
     36 ****         2.6708   2.1656   0.4329 H              1 S1                 0.0000
     37 ****         4.7996   3.2676   1.1234 H              1 S1                 0.0000
     38 ****         3.7841   2.9126   2.4997 H              1 S1                 0.0000
     39 ****         6.1979   1.2815   1.5727 H              1 S1                 0.0000
     40 ****         6.1153   2.2759   3.0074 H              1 S1                 0.0000
     41 ****         5.7952  -0.1471   3.5489 H              1 S1                 0.0000
     42 ****         4.3973   0.8003   3.9972 H              1 S1                 0.0000
     43 ****         3.6733  -1.2650   2.8559 H              1 S1                 0.0000
     44 ****         4.6881  -0.9061   1.4792 H              1 S1                 0.0000
     45 ****        -1.7808  -0.9770   1.6500 H              1 S1                 0.0000
     46 ****        -3.4618  -1.1372   1.1882 H              1 S1                 0.0000
     47 ****        -2.6352   0.4041   0.9597 H              1 S1                 0.0000
     48 ****        -6.6392  -0.2221  -2.4032 LP             1 S1                 0.0000
     49 ****        -6.6238  -0.0476  -0.7796 LP             1 S1                 0.0000
     50 ****        -2.8179  -1.9786  -3.5036 LP             1 S1                 0.0000
     51 ****        -0.7395   0.7737   0.4715 LP             1 S1                 0.0000
     52 ****         0.6128   1.3440   1.3914 LP             1 S1                 0.0000
@<TRIPOS>BOND
    1    1    2 1     
    2    1   22 1     
    3    1   23 1     
    4    1   24 1     
    5    2    3 1     
    6    3    4 1     
    7    3   25 1     
    8    3   26 1     
    9    4    5 1     
   10    4   27 1     
   11    4   28 1     
   12    5   20 1     
   13    5    6 1     
   14    6    7 2     
   15    7    8 1     
   16    7    9 1     
   17    8   29 1     
   18    8   30 1     
   19    8   31 1     
   20    9   10 1     
   21    9   20 2     
   22   10   11 am    
   23   10   32 1     
   24   11   12 2     
   25   11   13 am    
   26   13   14 1     
   27   13   33 1     
   28   14   19 1     
   29   14   15 1     
   30   14   34 1     
   31   15   16 1     
   32   15   35 1     
   33   15   36 1     
   34   16   17 1     
   35   16   37 1     
   36   16   38 1     
   37   17   18 1     
   38   17   39 1     
   39   17   40 1     
   40   18   19 1     
   41   18   41 1     
   42   18   42 1     
   43   19   43 1     
   44   19   44 1     
   45   20   21 1     
   46   21   45 1     
   47   21   46 1     
   48   21   47 1     
   49    2   48 1     
   50    2   49 1     
   51    6   50 1     
   52   12   51 1     
   53   12   52 1     
@<TRIPOS>SUBSTRUCTURE
      1 S1             1
@<TRIPOS>SET
LONE_PAIRS      STATIC     ATOMS    <user>   **** ""
5 48 49 50 51 52
DONOR_HYDROGENS      STATIC     ATOMS    <user>   **** ""
2 32 33
ATOM$BLUE        STATIC     ATOMS    COLORGROUP SYSTEM
5 48 49 50 51 52
ATOM$RED        STATIC     ATOMS    COLORGROUP SYSTEM
2 32 33
