AV-unprocessed.smi:199|AV-procd|sdf|1567|dock4
  -GOLD-   2262019443D 1   1.00000     0.00000
 Structure written by MMmdl.
 51 55  0  0  0  0  0  0  0  0  1 V2000
  147.8926  141.9940  154.7822 C   0  0  0  0  0  0  0  0  0  0  0  0
  148.5689  140.6445  155.0693 C   0  0  1  0  0  0  0  0  0  0  0  0
  148.4481  140.3951  156.4678 O   0  0  0  0  0  0  0  0  0  0  0  0
  148.3508  138.9981  156.6818 C   0  0  0  0  0  0  0  0  0  0  0  0
  147.4651  138.5512  155.5292 C   0  0  0  0  0  0  0  0  0  0  0  0
  147.9681  139.3961  154.3623 C   0  0  2  0  0  0  0  0  0  0  0  0
  149.0388  138.6965  153.7491 O   0  0  0  0  0  0  0  0  0  0  0  0
  146.8911  139.6656  153.2780 C   0  0  0  0  0  0  0  0  0  0  0  0
  146.5393  138.4829  152.5059 N   0  0  0  0  0  0  0  0  0  0  0  0
  147.2414  137.9523  151.4489 C   0  0  0  0  0  0  0  0  0  0  0  0
  146.7202  136.8806  150.9194 N   0  0  0  0  0  0  0  0  0  0  0  0
  145.5686  136.6481  151.6633 C   0  0  0  0  0  0  0  0  0  0  0  0
  144.5394  135.6591  151.6392 C   0  0  0  0  0  0  0  0  0  0  0  0
  144.4804  134.6111  150.7703 N   0  0  0  0  0  0  0  0  0  0  0  0
  145.5553  134.3331  149.8287 C   0  0  2  0  0  0  0  0  0  0  0  0
  144.9554  133.2089  148.9670 C   0  0  0  0  0  0  0  0  0  0  0  0
  144.1164  132.4489  150.0039 C   0  0  0  0  0  0  0  0  0  0  0  0
  144.4222  133.2483  151.2841 C   0  0  1  0  0  0  0  0  0  0  0  0
  145.8700  132.9980  151.7815 C   0  0  1  0  0  0  0  0  0  0  0  0
  146.2712  131.5287  152.0078 C   0  0  0  0  0  0  0  0  0  0  0  0
  147.6091  131.4579  152.4526 O   0  0  0  0  0  0  0  0  0  0  0  0
  146.6805  133.7423  150.7027 C   0  0  0  0  0  0  0  0  0  0  0  0
  143.5325  135.7919  152.5429 N   0  0  0  0  0  0  0  0  0  0  0  0
  143.5327  136.7973  153.4213 C   0  0  0  0  0  0  0  0  0  0  0  0
  144.4268  137.7750  153.5673 N   0  0  0  0  0  0  0  0  0  0  0  0
  145.4368  137.6601  152.6589 C   0  0  0  0  0  0  0  0  0  0  0  0
  147.9552  142.2558  153.7260 H   0  0  0  0  0  0  0  0  0  0  0  0
  148.3778  142.7925  155.3441 H   0  0  0  0  0  0  0  0  0  0  0  0
  146.8415  141.9843  155.0716 H   0  0  0  0  0  0  0  0  0  0  0  0
  149.6322  140.7376  154.8402 H   0  0  0  0  0  0  0  0  0  0  0  0
  149.3407  138.5435  156.6200 H   0  0  0  0  0  0  0  0  0  0  0  0
  147.9224  138.7689  157.6576 H   0  0  0  0  0  0  0  0  0  0  0  0
  147.5027  137.4763  155.3466 H   0  0  0  0  0  0  0  0  0  0  0  0
  146.4329  138.8129  155.7642 H   0  0  0  0  0  0  0  0  0  0  0  0
  149.1950  139.0752  152.8976 H   0  0  0  0  0  0  0  0  0  0  0  0
  145.9770  140.0480  153.7327 H   0  0  0  0  0  0  0  0  0  0  0  0
  147.2338  140.4334  152.5828 H   0  0  0  0  0  0  0  0  0  0  0  0
  148.1614  138.3849  151.0836 H   0  0  0  0  0  0  0  0  0  0  0  0
  145.8766  135.1715  149.2140 H   0  0  0  0  0  0  0  0  0  0  0  0
  144.3167  133.6164  148.1824 H   0  0  0  0  0  0  0  0  0  0  0  0
  145.7170  132.5862  148.4961 H   0  0  0  0  0  0  0  0  0  0  0  0
  143.0569  132.5228  149.7555 H   0  0  0  0  0  0  0  0  0  0  0  0
  144.3625  131.3902  150.0698 H   0  0  0  0  0  0  0  0  0  0  0  0
  143.6705  133.0842  152.0572 H   0  0  0  0  0  0  0  0  0  0  0  0
  145.9891  133.5245  152.7305 H   0  0  0  0  0  0  0  0  0  0  0  0
  145.6297  131.0723  152.7623 H   0  0  0  0  0  0  0  0  0  0  0  0
  146.1785  130.9391  151.0963 H   0  0  0  0  0  0  0  0  0  0  0  0
  148.1127  130.9783  151.8126 H   0  0  0  0  0  0  0  0  0  0  0  0
  147.3478  133.0931  150.1346 H   0  0  0  0  0  0  0  0  0  0  0  0
  147.2849  134.5301  151.1538 H   0  0  0  0  0  0  0  0  0  0  0  0
  142.6965  136.8214  154.1043 H   0  0  0  0  0  0  0  0  0  0  0  0
  1  2  1  0  0  0  0
  1 27  1  0  0  0  0
  1 28  1  0  0  0  0
  1 29  1  0  0  0  0
  2  6  1  0  0  0  0
  2  3  1  0  0  0  0
  2 30  1  0  0  0  0
  3  4  1  0  0  0  0
  4  5  1  0  0  0  0
  4 31  1  0  0  0  0
  4 32  1  0  0  0  0
  5  6  1  0  0  0  0
  5 33  1  0  0  0  0
  5 34  1  0  0  0  0
  6  7  1  0  0  0  0
  6  8  1  0  0  0  0
  7 35  1  0  0  0  0
  8  9  1  0  0  0  0
  8 36  1  0  0  0  0
  8 37  1  0  0  0  0
  9 26  1  0  0  0  0
  9 10  1  0  0  0  0
 10 11  2  0  0  0  0
 10 38  1  0  0  0  0
 11 12  1  0  0  0  0
 12 26  2  0  0  0  0
 12 13  1  0  0  0  0
 13 14  1  0  0  0  0
 13 23  2  0  0  0  0
 14 18  1  0  0  0  0
 14 15  1  0  0  0  0
 15 22  1  0  0  0  0
 15 16  1  0  0  0  0
 15 39  1  0  0  0  0
 16 17  1  0  0  0  0
 16 40  1  0  0  0  0
 16 41  1  0  0  0  0
 17 18  1  0  0  0  0
 17 42  1  0  0  0  0
 17 43  1  0  0  0  0
 18 19  1  0  0  0  0
 18 44  1  0  0  0  0
 19 20  1  0  0  0  0
 19 22  1  0  0  0  0
 19 45  1  0  0  0  0
 20 21  1  0  0  0  0
 20 46  1  0  0  0  0
 20 47  1  0  0  0  0
 21 48  1  0  0  0  0
 22 49  1  0  0  0  0
 22 50  1  0  0  0  0
 23 24  1  0  0  0  0
 24 25  2  0  0  0  0
 24 51  1  0  0  0  0
 25 26  1  0  0  0  0
M  END
> <s_m_source_file>
AV-unprocessed.smi

> <i_m_source_file_index>
199

> <i_lp_mmshare_version>
43012

> <i_f3d_flags>
0

> <s_epik_input>
W0NIMl0xW0NIMl1PW0NAQEhdKFtDSDNdKVtDQEBdMShbT0hdKVtDSDJdbihbY0hdbjIpYyhjMjMpbltjSF1uYzNOKFtDQEBIXTQ1KVtDQEhdKFtDSDJdW0NIMl00KVtDQEhdKFtDSDJdNSlbQ0gyXVtPSF0=

> <s_epik_cmdline>
J2VwaWtfcHl0aG9uJywgJy1waCcsICc3LjAnLCAnLXRuJywgJzgnLCAnLW1hJywgJzIwMCcsICctbWV0YWxfYmluZGluZycsICctaW1hZScsICc8aW5maWxlLm1hZT4nLCAnLW9tYWUnLCAnPG91dGZpbGUubWFlPic=

> <r_lp_tautomer_probability>
1

> <r_epik_Ionization_Penalty>
0.00583903

> <r_epik_Ionization_Penalty_Charging>
0

> <r_epik_Ionization_Penalty_Neutral>
0.00583903

> <r_epik_State_Penalty>
-0

> <r_epik_Charging_Adjusted_Penalty>
0

> <i_epik_Tot_Q>
0

> <i_epik_Tot_abs_Q>
0

> <r_epik_Metal_State_Penalty>
-0

> <b_epik_Metal_Only>
0

> <s_lp_Force_Field>
OPLS_2005

> <r_lp_Energy>
84.1045

> <b_lp_Chiralities_Consistent>
1

> <s_lp_Variant>
AV-unprocessed.smi:199-8

> <Gold.Version>
5.8.1

> <Gold.Id.Protein>
6NUR|6NUR_protein|mol2

> <Gold.PLP.Fitness>
42.6121

> <Gold.PLP.PLP>
-35.4065

> <Gold.PLP.part.hbond>
-2.8093

> <Gold.PLP.part.metal>
0.0000

> <Gold.PLP.part.buried>
0.7278

> <Gold.PLP.part.nonpolar>
-35.6458

> <Gold.PLP.part.repulsive>
2.0623

> <Gold.PLP.ligand.clash>
0.0000

> <Gold.PLP.ligand.torsion>
0.3907

> <Gold.PLP.Chemscore.Hbond>
2.0000

> <Gold.PLP.Chemscore.CHOScore>
0.6464

> <Gold.PLP.Chemscore.Metal>
0.0000

> <Gold.Chemscore.Hbonds>
donor molecule, donor type, donor heavy atom, donor atom, acceptor molecule, acceptor atom, score
      L1  H     7    35       P1  7957  1.00
      L1  H    21    48       P1 10747  1.00
      L1  C    10    38       P1  7948  0.01
      L1  C    10    38       P1  7957  0.59

> <Gold.PLP.Chemscore.Internal.Correction>
0.0477

> <Gold.Rescore>
     Score         DG    S(hbond)    S(metal)    S(lipo)     H(rot)  DE(clash)    DE(int)     intcor
      9.87     -13.29       1.95        0.00      78.37       3.07       1.87       1.55       ----

> <Gold.Chemscore.Fitness>
9.8714

> <Gold.Chemscore.DG>
-13.2882

> <Gold.Chemscore.ZeroCoef>
-5.4800

> <Gold.Chemscore.Hbond>
1.9478

> <Gold.Chemscore.Metal>
0.0000

> <Gold.Chemscore.Lipo>
78.3698

> <Gold.Chemscore.Internal_Hbond>
0.0000

> <Gold.Chemscore.DEClash>
1.8664

> <Gold.Chemscore.DEInternal>
1.5503

> <Gold.Chemscore.Rot>
3.0729

> <Gold.Chemscore.Internal.Correction>
   9.000000E+99

> <Gold.Chemscore.Hbonds>
donor molecule, donor type, donor heavy atom, donor atom, acceptor molecule, acceptor atom, score
      L1  H     7    35       P1  7957  0.94
      L1  H    21    48       P1 10747  0.97

> <Gold.Chemscore.Hbond.Weighted>
-6.5056

> <Gold.Chemscore.Metal.Weighted>
-0.0000

> <Gold.Chemscore.Lipo.Weighted>
-9.1693

> <Gold.Chemscore.Internal_Hbond.Weighted>
0.0000

> <Gold.Chemscore.DEClash.Weighted>
1.8664

> <Gold.Chemscore.DEInternal.Weighted>
1.5503

> <Gold.Chemscore.Rot.Weighted>
7.8667

> <Gold.Chemscore.Internal.Correction.Weighted>
   9.000000E+99

> <Gold.Protein.RotatedTorsions>
[ 6907 6896 6895 6894 ] final  169.55 input  -60.11 | X-H torsion
[ 7974 7965 7964 7962 ] final  -98.12 input  175.53 | X-H torsion
[ 8008 7997 7996 7995 ] final  173.20 input   59.86 | X-H torsion
[ 10167 10162 10161 10158 ] final  157.46 input  -65.29 | X-H torsion
[ 10718 10713 10712 10709 ] final -157.29 input   66.30 | X-H torsion
[ 10763 10752 10751 10750 ] final  101.26 input  -60.55 | X-H torsion
[ 11005 11000 10999 10996 ] final   20.05 input  -57.11 | X-H torsion

> <Gold.Protein.ActiveResidues>
 VAL166  LYS551  ARG553  GLY616  TRP617  ASP618  TYR619  PRO620  LYS621  CYS622 
 ASP623  PHE694  ASN695  SER759  ASP760  ASP761  ALA762  ILE779  LEU786  VAL792 
 PHE793  MET794  SER795  GLU796  ALA797  LYS798  CYS799  TRP800  GLU811  SER814 

> <Gold.Protein.RotatedAtoms>
  151.8300  133.3407  159.3610 H   0  0  0  0  0  0  0  0  0  0  0  0  # atno 6907 bound_to 6896
  150.7267  134.5491  159.5795 H   0  0  0  0  0  0  0  0  0  0  0  0  # atno 6908 bound_to 6896
  152.2942  134.7687  160.0422 H   0  0  0  0  0  0  0  0  0  0  0  0  # atno 6909 bound_to 6896
  145.3248  140.9429  143.2695 H   0  0  0  0  0  0  0  0  0  0  0  0  # atno 7974 bound_to 7965
  156.1099  140.1466  156.9352 H   0  0  0  0  0  0  0  0  0  0  0  0  # atno 8008 bound_to 7997
  154.4760  140.0894  156.7306 H   0  0  0  0  0  0  0  0  0  0  0  0  # atno 8009 bound_to 7997
  155.4614  140.3438  155.4315 H   0  0  0  0  0  0  0  0  0  0  0  0  # atno 8010 bound_to 7997
  139.4823  144.4915  151.8301 H   0  0  0  0  0  0  0  0  0  0  0  0  # atno 10167 bound_to 10162
  156.5382  130.8551  151.2740 H   0  0  0  0  0  0  0  0  0  0  0  0  # atno 10718 bound_to 10713
  153.3244  135.4050  155.1444 H   0  0  0  0  0  0  0  0  0  0  0  0  # atno 10763 bound_to 10752
  154.8608  135.3595  154.5553 H   0  0  0  0  0  0  0  0  0  0  0  0  # atno 10764 bound_to 10752
  153.5988  135.7071  153.5452 H   0  0  0  0  0  0  0  0  0  0  0  0  # atno 10765 bound_to 10752
  140.4069  134.1659  155.7665 H   0  0  0  0  0  0  0  0  0  0  0  0  # atno 11005 bound_to 11000
  144.8911  139.4773  143.6677 LP  0  0  0  0  0  0  0  0  0  0  0  0  # atno 17320 bound_to 7965
  146.3068  139.7609  142.9050 LP  0  0  0  0  0  0  0  0  0  0  0  0  # atno 17321 bound_to 7965
  140.4400  144.2000  150.5891 LP  0  0  0  0  0  0  0  0  0  0  0  0  # atno 17342 bound_to 10162
  140.4693  143.2419  151.9111 LP  0  0  0  0  0  0  0  0  0  0  0  0  # atno 17343 bound_to 10162
  157.7410  130.9861  150.2414 LP  0  0  0  0  0  0  0  0  0  0  0  0  # atno 17370 bound_to 10713
  156.2996  130.3756  149.7763 LP  0  0  0  0  0  0  0  0  0  0  0  0  # atno 17371 bound_to 10713
  141.1836  133.8362  157.1170 LP  0  0  0  0  0  0  0  0  0  0  0  0  # atno 17394 bound_to 11000
  140.0295  134.9908  157.0753 LP  0  0  0  0  0  0  0  0  0  0  0  0  # atno 17395 bound_to 11000

$$$$
