AV-unprocessed.smi:193|AV-procd|sdf|1505|dock5
  -GOLD-   2262019333D 1   1.00000     0.00000
 Structure written by MMmdl.
 62 66  0  0  0  0  0  0  0  0  2 V2000
  149.3272  129.2758  155.2959 C   0  0  0  0  0  0  0  0  0  0  0  0
  149.0368  130.7387  154.9257 C   0  0  1  0  0  0  0  0  0  0  0  0
  150.2667  131.6038  155.2851 C   0  0  0  0  0  0  0  0  0  0  0  0
  150.0183  133.0437  155.2254 N   0  0  0  0  0  0  0  0  0  0  0  0
  149.6437  133.6874  156.3639 C   0  0  0  0  0  0  0  0  0  0  0  0
  149.6886  135.0458  156.4105 N   0  0  0  0  0  0  0  0  0  0  0  0
  149.3504  135.6978  157.5263 C   0  0  0  0  0  0  0  0  0  0  0  0
  148.9459  135.1964  158.6938 N   0  0  0  0  0  0  0  0  0  0  0  0
  148.8898  133.8348  158.6546 C   0  0  0  0  0  0  0  0  0  0  0  0
  149.2127  133.0089  157.5403 C   0  0  0  0  0  0  0  0  0  0  0  0
  149.0113  131.6738  157.8716 N   0  0  0  0  0  0  0  0  0  0  0  0
  148.6063  131.7078  159.1114 C   0  0  0  0  0  0  0  0  0  0  0  0
  148.5185  132.9648  159.6648 N   0  0  0  0  0  0  0  0  0  0  0  0
  148.1057  133.2927  161.0208 C   0  0  0  0  0  0  0  0  0  0  0  0
  146.6921  133.9199  161.1151 C   0  0  0  0  0  0  0  0  0  0  0  0
  146.6769  135.0817  160.3036 O   0  0  0  0  0  0  0  0  0  0  0  0
  145.6335  132.9357  160.5775 C   0  0  0  0  0  0  0  0  0  0  0  0
  144.1987  133.4421  160.8080 C   0  0  0  0  0  0  0  0  0  0  0  0
  143.9958  133.7147  162.1892 O   0  0  0  0  0  0  0  0  0  0  0  0
  144.8415  134.7502  162.6747 C   0  0  0  0  0  0  0  0  0  0  0  0
  146.3173  134.3296  162.5563 C   0  0  0  0  0  0  0  0  0  0  0  0
  149.5220  133.6003  153.9685 C   0  0  0  0  0  0  0  0  0  0  0  0
  148.0338  133.2703  153.7507 C   0  0  0  0  0  0  0  0  0  0  0  0
  147.7848  131.9778  153.0586 N   0  3  2  0  0  0  0  0  0  0  0  0
  146.3530  131.5965  153.1275 C   0  0  2  0  0  0  0  0  0  0  0  0
  145.8625  130.8243  151.9226 C   0  0  0  0  0  0  0  0  0  0  0  0
  145.4452  132.2658  152.1091 C   0  0  2  0  0  0  0  0  0  0  0  0
  145.9092  133.3210  151.1216 C   0  0  0  0  0  0  0  0  0  0  0  0
  148.6883  130.8488  153.4217 C   0  0  0  0  0  0  0  0  0  0  0  0
  150.1737  128.8833  154.7311 H   0  0  0  0  0  0  0  0  0  0  0  0
  148.4663  128.6379  155.0937 H   0  0  0  0  0  0  0  0  0  0  0  0
  149.5608  129.1776  156.3565 H   0  0  0  0  0  0  0  0  0  0  0  0
  148.1777  131.0440  155.5243 H   0  0  0  0  0  0  0  0  0  0  0  0
  150.6311  131.3420  156.2797 H   0  0  0  0  0  0  0  0  0  0  0  0
  151.0919  131.3722  154.6107 H   0  0  0  0  0  0  0  0  0  0  0  0
  149.4155  136.7748  157.4778 H   0  0  0  0  0  0  0  0  0  0  0  0
  148.3665  130.8103  159.6630 H   0  0  0  0  0  0  0  0  0  0  0  0
  148.1594  132.3857  161.6244 H   0  0  0  0  0  0  0  0  0  0  0  0
  148.8453  133.9773  161.4381 H   0  0  0  0  0  0  0  0  0  0  0  0
  145.8639  135.1024  159.8227 H   0  0  0  0  0  0  0  0  0  0  0  0
  145.7959  132.7396  159.5169 H   0  0  0  0  0  0  0  0  0  0  0  0
  145.7436  131.9761  161.0844 H   0  0  0  0  0  0  0  0  0  0  0  0
  143.9950  134.3349  160.2148 H   0  0  0  0  0  0  0  0  0  0  0  0
  143.4820  132.6840  160.4917 H   0  0  0  0  0  0  0  0  0  0  0  0
  144.6514  135.6760  162.1297 H   0  0  0  0  0  0  0  0  0  0  0  0
  144.5934  134.9437  163.7182 H   0  0  0  0  0  0  0  0  0  0  0  0
  146.4922  133.4865  163.2258 H   0  0  0  0  0  0  0  0  0  0  0  0
  146.9555  135.1403  162.9098 H   0  0  0  0  0  0  0  0  0  0  0  0
  149.6437  134.6817  153.9681 H   0  0  0  0  0  0  0  0  0  0  0  0
  150.1285  133.2446  153.1352 H   0  0  0  0  0  0  0  0  0  0  0  0
  147.4904  133.3055  154.6963 H   0  0  0  0  0  0  0  0  0  0  0  0
  147.5962  134.0549  153.1346 H   0  0  0  0  0  0  0  0  0  0  0  0
  145.9796  131.3412  154.1178 H   0  0  0  0  0  0  0  0  0  0  0  0
  146.5722  130.6034  151.1274 H   0  0  0  0  0  0  0  0  0  0  0  0
  145.1027  130.0632  152.0882 H   0  0  0  0  0  0  0  0  0  0  0  0
  144.4195  132.4192  152.4393 H   0  0  0  0  0  0  0  0  0  0  0  0
  146.9179  133.1163  150.7626 H   0  0  0  0  0  0  0  0  0  0  0  0
  145.8945  134.3054  151.5890 H   0  0  0  0  0  0  0  0  0  0  0  0
  145.2401  133.3412  150.2611 H   0  0  0  0  0  0  0  0  0  0  0  0
  149.6051  130.9392  152.8383 H   0  0  0  0  0  0  0  0  0  0  0  0
  148.2346  129.9194  153.0754 H   0  0  0  0  0  0  0  0  0  0  0  0
  147.9685  132.1501  152.0806 H   0  0  0  0  0  0  0  0  0  0  0  0
  1  2  1  0  0  0  0
  1 30  1  0  0  0  0
  1 31  1  0  0  0  0
  1 32  1  0  0  0  0
  2 29  1  0  0  0  0
  2  3  1  0  0  0  0
  2 33  1  0  0  0  0
  3  4  1  0  0  0  0
  3 34  1  0  0  0  0
  3 35  1  0  0  0  0
  4  5  1  0  0  0  0
  4 22  1  0  0  0  0
  5 10  1  0  0  0  0
  5  6  2  0  0  0  0
  6  7  1  0  0  0  0
  7  8  2  0  0  0  0
  7 36  1  0  0  0  0
  8  9  1  0  0  0  0
  9 13  1  0  0  0  0
  9 10  2  0  0  0  0
 10 11  1  0  0  0  0
 11 12  2  0  0  0  0
 12 13  1  0  0  0  0
 12 37  1  0  0  0  0
 13 14  1  0  0  0  0
 14 15  1  0  0  0  0
 14 38  1  0  0  0  0
 14 39  1  0  0  0  0
 15 21  1  0  0  0  0
 15 16  1  0  0  0  0
 15 17  1  0  0  0  0
 16 40  1  0  0  0  0
 17 18  1  0  0  0  0
 17 41  1  0  0  0  0
 17 42  1  0  0  0  0
 18 19  1  0  0  0  0
 18 43  1  0  0  0  0
 18 44  1  0  0  0  0
 19 20  1  0  0  0  0
 20 21  1  0  0  0  0
 20 45  1  0  0  0  0
 20 46  1  0  0  0  0
 21 47  1  0  0  0  0
 21 48  1  0  0  0  0
 22 23  1  0  0  0  0
 22 49  1  0  0  0  0
 22 50  1  0  0  0  0
 23 24  1  0  0  0  0
 23 51  1  0  0  0  0
 23 52  1  0  0  0  0
 24 25  1  0  0  0  0
 24 29  1  0  0  0  0
 24 62  1  0  0  0  0
 25 27  1  0  0  0  0
 25 26  1  0  0  0  0
 25 53  1  0  0  0  0
 26 27  1  0  0  0  0
 26 54  1  0  0  0  0
 26 55  1  0  0  0  0
 27 28  1  0  0  0  0
 27 56  1  0  0  0  0
 28 57  1  0  0  0  0
 28 58  1  0  0  0  0
 28 59  1  0  0  0  0
 29 60  1  0  0  0  0
 29 61  1  0  0  0  0
M  CHG  1  24   1
M  END
> <s_m_source_file>
AV-unprocessed.smi

> <i_m_source_file_index>
193

> <i_lp_mmshare_version>
43012

> <i_f3d_flags>
0

> <s_epik_input>
W0NIM11bQ0BASF0xW0NIMl1bQ0BIXTFOKFtDSDJdMilbQ0gyXVtDSDJdTihbQ0gyXVtDQEhdMltDSDNdKWMobltjSF1uMyljKGMzNCluW2NIXW40W0NIMl1DNShbT0hdKVtDSDJdW0NIMl1PW0NIMl1bQ0gyXTU=

> <s_epik_cmdline>
J2VwaWtfcHl0aG9uJywgJy1waCcsICc3LjAnLCAnLXRuJywgJzgnLCAnLW1hJywgJzIwMCcsICctbWV0YWxfYmluZGluZycsICctaW1hZScsICc8aW5maWxlLm1hZT4nLCAnLW9tYWUnLCAnPG91dGZpbGUubWFlPic=

> <r_lp_tautomer_probability>
1

> <r_epik_Ionization_Penalty>
0.0540825

> <r_epik_Ionization_Penalty_Charging>
0.0538476

> <r_epik_Ionization_Penalty_Neutral>
0.000234891

> <r_epik_State_Penalty>
0.0200719

> <r_epik_Charging_Adjusted_Penalty>
0.0739194

> <i_epik_Tot_Q>
1

> <i_epik_Tot_abs_Q>
1

> <r_epik_Metal_State_Penalty>
0.0199414

> <b_epik_Metal_Only>
0

> <s_lp_Force_Field>
OPLS_2005

> <r_lp_Energy>
56.796

> <b_lp_Chiralities_Consistent>
1

> <s_lp_Variant>
AV-unprocessed.smi:193-10

> <Gold.Version>
5.8.1

> <Gold.Id.Protein>
6NUR|6NUR_protein|mol2

> <Gold.PLP.Fitness>
42.3169

> <Gold.PLP.PLP>
-37.1884

> <Gold.PLP.part.hbond>
-2.0000

> <Gold.PLP.part.metal>
0.0000

> <Gold.PLP.part.buried>
-4.0906

> <Gold.PLP.part.nonpolar>
-30.4457

> <Gold.PLP.part.repulsive>
0.0919

> <Gold.PLP.ligand.clash>
0.0000

> <Gold.PLP.ligand.torsion>
1.1792

> <Gold.PLP.Chemscore.Hbond>
2.0000

> <Gold.PLP.Chemscore.CHOScore>
0.0000

> <Gold.PLP.Chemscore.Metal>
0.0000

> <Gold.PLP.Chemscore.Internal.Correction>
1.4869

> <Gold.Rescore>
     Score         DG    S(hbond)    S(metal)    S(lipo)     H(rot)  DE(clash)    DE(int)     intcor
     12.51     -16.06       1.67        0.00      84.80       1.93       0.22       3.32       ----

> <Gold.Chemscore.Fitness>
12.5124

> <Gold.Chemscore.DG>
-16.0554

> <Gold.Chemscore.ZeroCoef>
-5.4800

> <Gold.Chemscore.Hbond>
1.6744

> <Gold.Chemscore.Metal>
0.0000

> <Gold.Chemscore.Lipo>
84.7974

> <Gold.Chemscore.Internal_Hbond>
0.0000

> <Gold.Chemscore.DEClash>
0.2228

> <Gold.Chemscore.DEInternal>
3.3202

> <Gold.Chemscore.Rot>
1.9290

> <Gold.Chemscore.Internal.Correction>
   9.000000E+99

> <Gold.Chemscore.Hbonds>
donor molecule, donor type, donor heavy atom, donor atom, acceptor molecule, acceptor atom, score
      L1  H    24    62       P1 10747  0.04

> <Gold.Chemscore.Hbond.Weighted>
-5.5924

> <Gold.Chemscore.Metal.Weighted>
-0.0000

> <Gold.Chemscore.Lipo.Weighted>
-9.9213

> <Gold.Chemscore.Internal_Hbond.Weighted>
0.0000

> <Gold.Chemscore.DEClash.Weighted>
0.2228

> <Gold.Chemscore.DEInternal.Weighted>
3.3202

> <Gold.Chemscore.Rot.Weighted>
4.9383

> <Gold.Chemscore.Internal.Correction.Weighted>
   9.000000E+99

> <Gold.Protein.RotatedTorsions>
[ 6907 6896 6895 6894 ] final  167.27 input  -60.11 | X-H torsion
[ 7974 7965 7964 7962 ] final  -78.75 input  175.53 | X-H torsion
[ 8008 7997 7996 7995 ] final  139.76 input   59.86 | X-H torsion
[ 10167 10162 10161 10158 ] final -147.31 input  -65.29 | X-H torsion
[ 10718 10713 10712 10709 ] final   45.39 input   66.30 | X-H torsion
[ 10763 10752 10751 10750 ] final  -53.02 input  -60.55 | X-H torsion
[ 11005 11000 10999 10996 ] final   31.79 input  -57.11 | X-H torsion

> <Gold.Protein.ActiveResidues>
 VAL166  LYS551  ARG553  GLY616  TRP617  ASP618  TYR619  PRO620  LYS621  CYS622 
 ASP623  PHE694  ASN695  SER759  ASP760  ASP761  ALA762  ILE779  LEU786  VAL792 
 PHE793  MET794  SER795  GLU796  ALA797  LYS798  CYS799  TRP800  GLU811  SER814 

> <Gold.Protein.RotatedAtoms>
  151.8659  133.3466  159.3718 H   0  0  0  0  0  0  0  0  0  0  0  0  # atno 6907 bound_to 6896
  150.7166  134.5160  159.5640 H   0  0  0  0  0  0  0  0  0  0  0  0  # atno 6908 bound_to 6896
  152.2683  134.7961  160.0469 H   0  0  0  0  0  0  0  0  0  0  0  0  # atno 6909 bound_to 6896
  145.5823  140.9446  143.1337 H   0  0  0  0  0  0  0  0  0  0  0  0  # atno 7974 bound_to 7965
  156.2986  140.2359  156.4290 H   0  0  0  0  0  0  0  0  0  0  0  0  # atno 8008 bound_to 7997
  154.8287  140.0434  157.1482 H   0  0  0  0  0  0  0  0  0  0  0  0  # atno 8009 bound_to 7997
  154.9232  140.3006  155.5209 H   0  0  0  0  0  0  0  0  0  0  0  0  # atno 8010 bound_to 7997
  139.7634  143.8344  152.2611 H   0  0  0  0  0  0  0  0  0  0  0  0  # atno 10167 bound_to 10162
  157.4371  130.8059  149.7658 H   0  0  0  0  0  0  0  0  0  0  0  0  # atno 10718 bound_to 10713
  154.1521  135.6488  153.4966 H   0  0  0  0  0  0  0  0  0  0  0  0  # atno 10763 bound_to 10752
  153.0135  135.5340  154.6797 H   0  0  0  0  0  0  0  0  0  0  0  0  # atno 10764 bound_to 10752
  154.6088  135.2951  155.0427 H   0  0  0  0  0  0  0  0  0  0  0  0  # atno 10765 bound_to 10752
  140.2802  134.2982  155.7803 H   0  0  0  0  0  0  0  0  0  0  0  0  # atno 11005 bound_to 11000
  144.7388  139.7507  143.7319 LP  0  0  0  0  0  0  0  0  0  0  0  0  # atno 17320 bound_to 7965
  146.1707  139.4857  142.9929 LP  0  0  0  0  0  0  0  0  0  0  0  0  # atno 17321 bound_to 7965
  139.8357  144.7233  150.9394 LP  0  0  0  0  0  0  0  0  0  0  0  0  # atno 17342 bound_to 10162
  140.7809  143.4029  151.1119 LP  0  0  0  0  0  0  0  0  0  0  0  0  # atno 17343 bound_to 10162
  155.9934  130.3924  150.2900 LP  0  0  0  0  0  0  0  0  0  0  0  0  # atno 17370 bound_to 10713
  157.1062  131.0209  151.3066 LP  0  0  0  0  0  0  0  0  0  0  0  0  # atno 17371 bound_to 10713
  141.2164  133.7520  156.9468 LP  0  0  0  0  0  0  0  0  0  0  0  0  # atno 17394 bound_to 11000
  140.1291  134.9368  157.2311 LP  0  0  0  0  0  0  0  0  0  0  0  0  # atno 17395 bound_to 11000

$$$$
