AV-unprocessed.smi:1212|AV-procd|sdf|5083|dock7
  -GOLD-   22720 4133D 1   1.00000     0.00000
 Structure written by MMmdl.
 38 39  0  0  0  0  0  0  0  0  2 V2000
  151.0812  130.4378  157.4875 C   0  0  0  0  0  0  0  0  0  0  0  0
  150.8607  131.8153  156.9639 C   0  0  0  0  0  0  0  0  0  0  0  0
  150.8747  132.8953  157.7490 N   0  0  0  0  0  0  0  0  0  0  0  0
  150.6467  134.0631  157.0355 N   0  0  0  0  0  0  0  0  0  0  0  0
  150.4723  133.8520  155.7231 C   0  0  0  0  0  0  0  0  0  0  0  0
  150.2363  134.8520  154.8577 N   0  5  0  0  0  0  0  0  0  0  0  0
  150.0803  136.1163  155.3126 C   0  0  0  0  0  0  0  0  0  0  0  0
  150.3252  136.5175  156.4530 O   0  0  0  0  0  0  0  0  0  0  0  0
  149.6155  136.9704  154.3891 N   0  0  0  0  0  0  0  0  0  0  0  0
  149.3528  138.3900  154.5967 C   0  0  0  0  0  0  0  0  0  0  0  0
  150.6388  139.2271  154.4700 C   0  0  0  0  0  0  0  0  0  0  0  0
  150.5681  140.4426  155.2887 N   0  0  0  0  0  0  0  0  0  0  0  0
  149.4995  141.3914  154.9385 C   0  0  0  0  0  0  0  0  0  0  0  0
  148.3620  141.4585  155.9830 C   0  0  0  0  0  0  0  0  0  0  0  0
  148.7669  141.1950  157.4471 C   0  0  0  0  0  0  0  0  0  0  0  0
  149.9583  142.0329  157.9574 C   0  0  0  0  0  0  0  0  0  0  0  0
  151.2638  141.9594  157.1286 C   0  0  0  0  0  0  0  0  0  0  0  0
  151.4301  140.6681  156.3101 C   0  0  0  0  0  0  0  0  0  0  0  0
  152.3358  139.8894  156.6095 O   0  0  0  0  0  0  0  0  0  0  0  0
  150.5594  132.1506  155.2671 S   0  0  0  0  0  0  0  0  0  0  0  0
  152.0595  130.3711  157.9640 H   0  0  0  0  0  0  0  0  0  0  0  0
  151.0381  129.7112  156.6759 H   0  0  0  0  0  0  0  0  0  0  0  0
  150.3141  130.1887  158.2210 H   0  0  0  0  0  0  0  0  0  0  0  0
  149.4282  136.6012  153.4682 H   0  0  0  0  0  0  0  0  0  0  0  0
  148.6202  138.7097  153.8554 H   0  0  0  0  0  0  0  0  0  0  0  0
  148.8903  138.5425  155.5736 H   0  0  0  0  0  0  0  0  0  0  0  0
  151.5060  138.6340  154.7637 H   0  0  0  0  0  0  0  0  0  0  0  0
  150.8140  139.4855  153.4243 H   0  0  0  0  0  0  0  0  0  0  0  0
  149.9324  142.3824  154.8007 H   0  0  0  0  0  0  0  0  0  0  0  0
  149.0748  141.1553  153.9617 H   0  0  0  0  0  0  0  0  0  0  0  0
  147.8721  142.4297  155.9072 H   0  0  0  0  0  0  0  0  0  0  0  0
  147.6014  140.7250  155.7128 H   0  0  0  0  0  0  0  0  0  0  0  0
  147.9048  141.3812  158.0882 H   0  0  0  0  0  0  0  0  0  0  0  0
  148.9886  140.1345  157.5754 H   0  0  0  0  0  0  0  0  0  0  0  0
  149.6513  143.0768  158.0281 H   0  0  0  0  0  0  0  0  0  0  0  0
  150.1767  141.7241  158.9802 H   0  0  0  0  0  0  0  0  0  0  0  0
  151.3280  142.8136  156.4546 H   0  0  0  0  0  0  0  0  0  0  0  0
  152.1180  142.0692  157.7981 H   0  0  0  0  0  0  0  0  0  0  0  0
  1  2  1  0  0  0  0
  1 21  1  0  0  0  0
  1 22  1  0  0  0  0
  1 23  1  0  0  0  0
  2 20  1  0  0  0  0
  2  3  2  0  0  0  0
  3  4  1  0  0  0  0
  4  5  2  0  0  0  0
  5  6  1  0  0  0  0
  5 20  1  0  0  0  0
  6  7  1  0  0  0  0
  7  8  2  0  0  0  0
  7  9  1  0  0  0  0
  9 10  1  0  0  0  0
  9 24  1  0  0  0  0
 10 11  1  0  0  0  0
 10 25  1  0  0  0  0
 10 26  1  0  0  0  0
 11 12  1  0  0  0  0
 11 27  1  0  0  0  0
 11 28  1  0  0  0  0
 12 18  1  0  0  0  0
 12 13  1  0  0  0  0
 13 14  1  0  0  0  0
 13 29  1  0  0  0  0
 13 30  1  0  0  0  0
 14 15  1  0  0  0  0
 14 31  1  0  0  0  0
 14 32  1  0  0  0  0
 15 16  1  0  0  0  0
 15 33  1  0  0  0  0
 15 34  1  0  0  0  0
 16 17  1  0  0  0  0
 16 35  1  0  0  0  0
 16 36  1  0  0  0  0
 17 18  1  0  0  0  0
 17 37  1  0  0  0  0
 17 38  1  0  0  0  0
 18 19  2  0  0  0  0
M  CHG  1   6  -1
M  END
> <s_m_source_file>
AV-unprocessed.smi

> <i_m_source_file_index>
1212

> <i_lp_mmshare_version>
43012

> <i_f3d_flags>
0

> <s_epik_input>
W0NIM11jMW5uYyhzMSlbTkhdQyg9TylbTkhdW0NIMl1bQ0gyXU4yW0NIMl1bQ0gyXVtDSDJdW0NIMl1bQ0gyXUMyPU8=

> <s_epik_cmdline>
J2VwaWtfcHl0aG9uJywgJy1waCcsICc3LjAnLCAnLXRuJywgJzgnLCAnLW1hJywgJzIwMCcsICctbWV0YWxfYmluZGluZycsICctaW1hZScsICc8aW5maWxlLm1hZT4nLCAnLW9tYWUnLCAnPG91dGZpbGUubWFlPic=

> <r_lp_tautomer_probability>
1

> <r_epik_Ionization_Penalty>
3.37178

> <r_epik_Ionization_Penalty_Charging>
3.23409

> <r_epik_Ionization_Penalty_Neutral>
0.137695

> <r_epik_State_Penalty>
3.23156

> <r_epik_Charging_Adjusted_Penalty>
6.46564

> <i_epik_Tot_Q>
-1

> <i_epik_Tot_abs_Q>
1

> <r_epik_Metal_State_Penalty>
0.474775

> <b_epik_Metal_Only>
1

> <s_lp_Force_Field>
OPLS_2005

> <r_lp_Energy>
19.6793

> <b_lp_Chiralities_Consistent>
1

> <s_lp_Variant>
AV-unprocessed.smi:1212-2

> <Gold.Version>
5.8.1

> <Gold.Id.Protein>
6NUR|6NUR_protein|mol2

> <Gold.PLP.Fitness>
38.0389

> <Gold.PLP.PLP>
-29.7370

> <Gold.PLP.part.hbond>
-3.9591

> <Gold.PLP.part.metal>
0.0000

> <Gold.PLP.part.buried>
-3.1963

> <Gold.PLP.part.nonpolar>
-22.4644

> <Gold.PLP.part.repulsive>
0.1796

> <Gold.PLP.ligand.clash>
0.0000

> <Gold.PLP.ligand.torsion>
0.3731

> <Gold.PLP.Chemscore.Hbond>
3.0000

> <Gold.PLP.Chemscore.CHOScore>
0.0000

> <Gold.PLP.Chemscore.Metal>
0.0000

> <Gold.Chemscore.Hbonds>
donor molecule, donor type, donor heavy atom, donor atom, acceptor molecule, acceptor atom, score
      L1  H     9    24       P1  7948  1.00
      P1  H  6896  6909       L1     3  1.00
      P1  H  7997  8009       L1    19  1.00

> <Gold.PLP.Chemscore.Internal.Correction>
0.0481

> <Gold.Rescore>
     Score         DG    S(hbond)    S(metal)    S(lipo)     H(rot)  DE(clash)    DE(int)     intcor
     13.99     -16.32       2.65        0.00      52.74       1.63       0.22       2.12       ----

> <Gold.Chemscore.Fitness>
13.9867

> <Gold.Chemscore.DG>
-16.3241

> <Gold.Chemscore.ZeroCoef>
-5.4800

> <Gold.Chemscore.Hbond>
2.6451

> <Gold.Chemscore.Metal>
0.0000

> <Gold.Chemscore.Lipo>
52.7409

> <Gold.Chemscore.Internal_Hbond>
0.0000

> <Gold.Chemscore.DEClash>
0.2154

> <Gold.Chemscore.DEInternal>
2.1221

> <Gold.Chemscore.Rot>
1.6255

> <Gold.Chemscore.Internal.Correction>
   9.000000E+99

> <Gold.Chemscore.Hbonds>
donor molecule, donor type, donor heavy atom, donor atom, acceptor molecule, acceptor atom, score
      L1  H     9    24       P1  7948  0.82
      P1  H  6896  6909       L1     3  0.48
      P1  H  7997  8009       L1    19  0.94

> <Gold.Chemscore.Hbond.Weighted>
-8.8347

> <Gold.Chemscore.Metal.Weighted>
-0.0000

> <Gold.Chemscore.Lipo.Weighted>
-6.1707

> <Gold.Chemscore.Internal_Hbond.Weighted>
0.0000

> <Gold.Chemscore.DEClash.Weighted>
0.2154

> <Gold.Chemscore.DEInternal.Weighted>
2.1221

> <Gold.Chemscore.Rot.Weighted>
4.1613

> <Gold.Chemscore.Internal.Correction.Weighted>
   9.000000E+99

> <Gold.Protein.RotatedTorsions>
[ 6907 6896 6895 6894 ] final  -39.86 input  -60.11 | X-H torsion
[ 7974 7965 7964 7962 ] final -105.22 input  175.53 | X-H torsion
[ 8008 7997 7996 7995 ] final -164.01 input   59.86 | X-H torsion
[ 10167 10162 10161 10158 ] final  154.50 input  -65.29 | X-H torsion
[ 10718 10713 10712 10709 ] final   29.18 input   66.30 | X-H torsion
[ 10763 10752 10751 10750 ] final -124.06 input  -60.55 | X-H torsion
[ 11005 11000 10999 10996 ] final -168.80 input  -57.11 | X-H torsion

> <Gold.Protein.ActiveResidues>
 VAL166  LYS551  ARG553  GLY616  TRP617  ASP618  TYR619  PRO620  LYS621  CYS622 
 ASP623  PHE694  ASN695  SER759  ASP760  ASP761  ALA762  ILE779  LEU786  VAL792 
 PHE793  MET794  SER795  GLU796  ALA797  LYS798  CYS799  TRP800  GLU811  SER814 

> <Gold.Protein.RotatedAtoms>
  150.9853  134.9200  159.7868 H   0  0  0  0  0  0  0  0  0  0  0  0  # atno 6907 bound_to 6896
  152.5234  134.3354  159.9208 H   0  0  0  0  0  0  0  0  0  0  0  0  # atno 6908 bound_to 6896
  151.3361  133.3940  159.2701 H   0  0  0  0  0  0  0  0  0  0  0  0  # atno 6909 bound_to 6896
  145.2332  140.9178  143.3192 H   0  0  0  0  0  0  0  0  0  0  0  0  # atno 7974 bound_to 7965
  155.8295  140.0931  157.1801 H   0  0  0  0  0  0  0  0  0  0  0  0  # atno 8008 bound_to 7997
  154.3979  140.1421  156.3657 H   0  0  0  0  0  0  0  0  0  0  0  0  # atno 8009 bound_to 7997
  155.8181  140.3447  155.5500 H   0  0  0  0  0  0  0  0  0  0  0  0  # atno 8010 bound_to 7997
  139.4823  144.5181  151.7919 H   0  0  0  0  0  0  0  0  0  0  0  0  # atno 10167 bound_to 10162
  157.2432  130.7079  149.6368 H   0  0  0  0  0  0  0  0  0  0  0  0  # atno 10718 bound_to 10713
  154.8717  135.4077  154.3044 H   0  0  0  0  0  0  0  0  0  0  0  0  # atno 10763 bound_to 10752
  153.3898  135.7014  153.6509 H   0  0  0  0  0  0  0  0  0  0  0  0  # atno 10764 bound_to 10752
  153.5296  135.3670  155.2641 H   0  0  0  0  0  0  0  0  0  0  0  0  # atno 10765 bound_to 10752
  140.5379  134.5552  157.5092 H   0  0  0  0  0  0  0  0  0  0  0  0  # atno 11005 bound_to 11000
  144.9657  139.3933  143.6334 LP  0  0  0  0  0  0  0  0  0  0  0  0  # atno 17320 bound_to 7965
  146.3347  139.8731  142.8836 LP  0  0  0  0  0  0  0  0  0  0  0  0  # atno 17321 bound_to 7965
  140.4692  144.1611  150.5916 LP  0  0  0  0  0  0  0  0  0  0  0  0  # atno 17342 bound_to 10162
  140.4400  143.2530  151.9485 LP  0  0  0  0  0  0  0  0  0  0  0  0  # atno 17343 bound_to 10162
  155.9669  130.4451  150.5489 LP  0  0  0  0  0  0  0  0  0  0  0  0  # atno 17370 bound_to 10713
  157.3357  131.0707  151.1827 LP  0  0  0  0  0  0  0  0  0  0  0  0  # atno 17371 bound_to 10713
  139.9519  134.7601  156.0428 LP  0  0  0  0  0  0  0  0  0  0  0  0  # atno 17394 bound_to 11000
  141.1244  133.6603  156.3298 LP  0  0  0  0  0  0  0  0  0  0  0  0  # atno 17395 bound_to 11000

$$$$
