AV-unprocessed.smi:1053|AV-procd|sdf|4620|dock3
  -GOLD-   22720 3123D 1   1.00000     0.00000
 Structure written by MMmdl.
 38 39  0  0  0  0  0  0  0  0  2 V2000
  146.5085  138.5232  151.9426 C   0  0  0  0  0  0  0  0  0  0  0  0
  147.5182  139.4521  152.6317 C   0  0  0  0  0  0  0  0  0  0  0  0
  148.4483  138.7183  153.5256 N   0  3  2  0  0  0  0  0  0  0  0  0
  147.7524  138.1056  154.6819 C   0  0  0  0  0  0  0  0  0  0  0  0
  148.7463  137.3219  155.5538 C   0  0  0  0  0  0  0  0  0  0  0  0
  149.7912  138.1888  155.9748 O   0  0  0  0  0  0  0  0  0  0  0  0
  150.5391  138.7072  154.8790 C   0  0  2  0  0  0  0  0  0  0  0  0
  151.6812  139.5630  155.4427 C   0  0  0  0  0  0  0  0  0  0  0  0
  151.1804  140.7202  156.1688 N   0  0  0  0  0  0  0  0  0  0  0  0
  151.6543  141.1219  157.4030 C   0  0  0  0  0  0  0  0  0  0  0  0
  152.1979  140.1981  158.2036 N   0  0  0  0  0  0  0  0  0  0  0  0
  152.6611  140.6197  159.4000 C   0  0  0  0  0  0  0  0  0  0  0  0
  152.5784  141.9699  159.7937 C   0  0  0  0  0  0  0  0  0  0  0  0
  151.9820  142.8567  158.8694 C   0  0  0  0  0  0  0  0  0  0  0  0
  151.8226  144.3415  159.1601 C   0  0  0  0  0  0  0  0  0  0  0  0
  150.5366  144.6809  159.0700 F   0  0  0  0  0  0  0  0  0  0  0  0
  152.2570  144.6509  160.3824 F   0  0  0  0  0  0  0  0  0  0  0  0
  152.5187  145.0513  158.2719 F   0  0  0  0  0  0  0  0  0  0  0  0
  151.5213  142.4217  157.6730 N   0  0  0  0  0  0  0  0  0  0  0  0
  149.5946  139.5391  153.9890 C   0  0  0  0  0  0  0  0  0  0  0  0
  145.7908  139.1029  151.3615 H   0  0  0  0  0  0  0  0  0  0  0  0
  145.9465  137.9402  152.6728 H   0  0  0  0  0  0  0  0  0  0  0  0
  146.9922  137.8288  151.2562 H   0  0  0  0  0  0  0  0  0  0  0  0
  148.0809  140.0251  151.8930 H   0  0  0  0  0  0  0  0  0  0  0  0
  146.9551  140.1770  153.2212 H   0  0  0  0  0  0  0  0  0  0  0  0
  147.2703  138.8852  155.2742 H   0  0  0  0  0  0  0  0  0  0  0  0
  146.9659  137.4361  154.3315 H   0  0  0  0  0  0  0  0  0  0  0  0
  148.2409  136.9238  156.4339 H   0  0  0  0  0  0  0  0  0  0  0  0
  149.1580  136.4701  155.0100 H   0  0  0  0  0  0  0  0  0  0  0  0
  150.9585  137.8853  154.2950 H   0  0  0  0  0  0  0  0  0  0  0  0
  152.2846  138.9672  156.1288 H   0  0  0  0  0  0  0  0  0  0  0  0
  152.3399  139.8902  154.6370 H   0  0  0  0  0  0  0  0  0  0  0  0
  150.4943  141.3111  155.7223 H   0  0  0  0  0  0  0  0  0  0  0  0
  153.1011  139.8751  160.0465 H   0  0  0  0  0  0  0  0  0  0  0  0
  152.9526  142.2984  160.7519 H   0  0  0  0  0  0  0  0  0  0  0  0
  150.1522  139.9217  153.1344 H   0  0  0  0  0  0  0  0  0  0  0  0
  149.2229  140.4039  154.5414 H   0  0  0  0  0  0  0  0  0  0  0  0
  148.8277  137.9539  152.9852 H   0  0  0  0  0  0  0  0  0  0  0  0
  1  2  1  0  0  0  0
  1 21  1  0  0  0  0
  1 22  1  0  0  0  0
  1 23  1  0  0  0  0
  2  3  1  0  0  0  0
  2 24  1  0  0  0  0
  2 25  1  0  0  0  0
  3 20  1  0  0  0  0
  3  4  1  0  0  0  0
  3 38  1  0  0  0  0
  4  5  1  0  0  0  0
  4 26  1  0  0  0  0
  4 27  1  0  0  0  0
  5  6  1  0  0  0  0
  5 28  1  0  0  0  0
  5 29  1  0  0  0  0
  6  7  1  0  0  0  0
  7  8  1  0  0  0  0
  7 20  1  0  0  0  0
  7 30  1  0  0  0  0
  8  9  1  0  0  0  0
  8 31  1  0  0  0  0
  8 32  1  0  0  0  0
  9 10  1  0  0  0  0
  9 33  1  0  0  0  0
 10 19  1  0  0  0  0
 10 11  2  0  0  0  0
 11 12  1  0  0  0  0
 12 13  2  0  0  0  0
 12 34  1  0  0  0  0
 13 14  1  0  0  0  0
 13 35  1  0  0  0  0
 14 15  1  0  0  0  0
 14 19  2  0  0  0  0
 15 16  1  0  0  0  0
 15 17  1  0  0  0  0
 15 18  1  0  0  0  0
 20 36  1  0  0  0  0
 20 37  1  0  0  0  0
M  CHG  1   3   1
M  END
> <s_m_source_file>
AV-unprocessed.smi

> <i_m_source_file_index>
1053

> <i_lp_mmshare_version>
43012

> <i_f3d_flags>
0

> <s_epik_input>
W0NIM11bQ0gyXU4xW0NIMl1bQ0gyXU9bQ0BIXShbQ0gyXTEpW0NIMl1bTkhdYzJuW2NIXVtjSF1jKG4yKUMoRikoRilG

> <s_epik_cmdline>
J2VwaWtfcHl0aG9uJywgJy1waCcsICc3LjAnLCAnLXRuJywgJzgnLCAnLW1hJywgJzIwMCcsICctbWV0YWxfYmluZGluZycsICctaW1hZScsICc8aW5maWxlLm1hZT4nLCAnLW9tYWUnLCAnPG91dGZpbGUubWFlPic=

> <r_lp_tautomer_probability>
1

> <r_epik_Ionization_Penalty>
0.178506

> <r_epik_Ionization_Penalty_Charging>
0.178504

> <r_epik_Ionization_Penalty_Neutral>
2.47619e-06

> <r_epik_State_Penalty>
0.167974

> <r_epik_Charging_Adjusted_Penalty>
0.346478

> <i_epik_Tot_Q>
1

> <i_epik_Tot_abs_Q>
1

> <r_epik_Metal_State_Penalty>
0.167974

> <b_epik_Metal_Only>
0

> <s_lp_Force_Field>
OPLS_2005

> <r_lp_Energy>
10.8481

> <b_lp_Chiralities_Consistent>
1

> <s_lp_Variant>
AV-unprocessed.smi:1053-4

> <Gold.Version>
5.8.1

> <Gold.Id.Protein>
6NUR|6NUR_protein|mol2

> <Gold.PLP.Fitness>
45.3544

> <Gold.PLP.PLP>
-39.9164

> <Gold.PLP.part.hbond>
-2.0000

> <Gold.PLP.part.metal>
0.0000

> <Gold.PLP.part.buried>
-0.6404

> <Gold.PLP.part.nonpolar>
-37.7422

> <Gold.PLP.part.repulsive>
0.2280

> <Gold.PLP.ligand.clash>
0.0000

> <Gold.PLP.ligand.torsion>
0.3061

> <Gold.PLP.Chemscore.Hbond>
2.0000

> <Gold.PLP.Chemscore.CHOScore>
0.0000

> <Gold.PLP.Chemscore.Metal>
0.0000

> <Gold.Chemscore.Hbonds>
donor molecule, donor type, donor heavy atom, donor atom, acceptor molecule, acceptor atom, score
      L1  H     3    38       P1  7948  1.98

> <Gold.PLP.Chemscore.Internal.Correction>
0.0503

> <Gold.Rescore>
     Score         DG    S(hbond)    S(metal)    S(lipo)     H(rot)  DE(clash)    DE(int)     intcor
     13.38     -13.67       0.96        0.00      76.61       1.55       0.06       0.23       ----

> <Gold.Chemscore.Fitness>
13.3803

> <Gold.Chemscore.DG>
-13.6689

> <Gold.Chemscore.ZeroCoef>
-5.4800

> <Gold.Chemscore.Hbond>
0.9599

> <Gold.Chemscore.Metal>
0.0000

> <Gold.Chemscore.Lipo>
76.6110

> <Gold.Chemscore.Internal_Hbond>
0.0000

> <Gold.Chemscore.DEClash>
0.0562

> <Gold.Chemscore.DEInternal>
0.2324

> <Gold.Chemscore.Rot>
1.5549

> <Gold.Chemscore.Internal.Correction>
   9.000000E+99

> <Gold.Chemscore.Hbonds>
donor molecule, donor type, donor heavy atom, donor atom, acceptor molecule, acceptor atom, score
      L1  H     3    38       P1  7948  0.92

> <Gold.Chemscore.Hbond.Weighted>
-3.2059

> <Gold.Chemscore.Metal.Weighted>
-0.0000

> <Gold.Chemscore.Lipo.Weighted>
-8.9635

> <Gold.Chemscore.Internal_Hbond.Weighted>
0.0000

> <Gold.Chemscore.DEClash.Weighted>
0.0562

> <Gold.Chemscore.DEInternal.Weighted>
0.2324

> <Gold.Chemscore.Rot.Weighted>
3.9806

> <Gold.Chemscore.Internal.Correction.Weighted>
   9.000000E+99

> <Gold.Protein.RotatedTorsions>
[ 6907 6896 6895 6894 ] final  106.20 input  -60.11 | X-H torsion
[ 7974 7965 7964 7962 ] final  142.77 input  175.53 | X-H torsion
[ 8008 7997 7996 7995 ] final  135.78 input   59.86 | X-H torsion
[ 10167 10162 10161 10158 ] final -171.99 input  -65.29 | X-H torsion
[ 10718 10713 10712 10709 ] final  158.42 input   66.30 | X-H torsion
[ 10763 10752 10751 10750 ] final  -67.71 input  -60.55 | X-H torsion
[ 11005 11000 10999 10996 ] final  164.86 input  -57.11 | X-H torsion

> <Gold.Protein.ActiveResidues>
 VAL166  LYS551  ARG553  GLY616  TRP617  ASP618  TYR619  PRO620  LYS621  CYS622 
 ASP623  PHE694  ASN695  SER759  ASP760  ASP761  ALA762  ILE779  LEU786  VAL792 
 PHE793  MET794  SER795  GLU796  ALA797  LYS798  CYS799  TRP800  GLU811  SER814 

> <Gold.Protein.RotatedAtoms>
  152.5202  133.9416  159.7628 H   0  0  0  0  0  0  0  0  0  0  0  0  # atno 6907 bound_to 6896
  150.9744  133.6301  159.2739 H   0  0  0  0  0  0  0  0  0  0  0  0  # atno 6908 bound_to 6896
  151.3501  135.0888  159.9453 H   0  0  0  0  0  0  0  0  0  0  0  0  # atno 6909 bound_to 6896
  144.8978  139.5465  143.5768 H   0  0  0  0  0  0  0  0  0  0  0  0  # atno 7974 bound_to 7965
  156.3003  140.2462  156.3637 H   0  0  0  0  0  0  0  0  0  0  0  0  # atno 8008 bound_to 7997
  154.8853  140.0411  157.1826 H   0  0  0  0  0  0  0  0  0  0  0  0  # atno 8009 bound_to 7997
  154.8653  140.2927  155.5518 H   0  0  0  0  0  0  0  0  0  0  0  0  # atno 8010 bound_to 7997
  139.5770  144.1509  152.1464 H   0  0  0  0  0  0  0  0  0  0  0  0  # atno 10167 bound_to 10162
  157.1781  131.0626  151.2146 H   0  0  0  0  0  0  0  0  0  0  0  0  # atno 10718 bound_to 10713
  154.3784  135.6079  153.5778 H   0  0  0  0  0  0  0  0  0  0  0  0  # atno 10763 bound_to 10752
  152.9788  135.5855  154.4439 H   0  0  0  0  0  0  0  0  0  0  0  0  # atno 10764 bound_to 10752
  154.4204  135.2846  155.1957 H   0  0  0  0  0  0  0  0  0  0  0  0  # atno 10765 bound_to 10752
  140.2502  134.7983  157.3494 H   0  0  0  0  0  0  0  0  0  0  0  0  # atno 11005 bound_to 11000
  146.3091  139.7684  142.9033 LP  0  0  0  0  0  0  0  0  0  0  0  0  # atno 17320 bound_to 7965
  145.3669  141.0336  143.3253 LP  0  0  0  0  0  0  0  0  0  0  0  0  # atno 17321 bound_to 7965
  140.1054  144.5503  150.6960 LP  0  0  0  0  0  0  0  0  0  0  0  0  # atno 17342 bound_to 10162
  140.7052  143.2463  151.4747 LP  0  0  0  0  0  0  0  0  0  0  0  0  # atno 17343 bound_to 10162
  157.3979  130.7317  149.6745 LP  0  0  0  0  0  0  0  0  0  0  0  0  # atno 17370 bound_to 10713
  155.9728  130.4129  150.4054 LP  0  0  0  0  0  0  0  0  0  0  0  0  # atno 17371 bound_to 10713
  140.1566  134.4782  155.7924 LP  0  0  0  0  0  0  0  0  0  0  0  0  # atno 17394 bound_to 11000
  141.2202  133.6884  156.7471 LP  0  0  0  0  0  0  0  0  0  0  0  0  # atno 17395 bound_to 11000

$$$$
