#       Name:                AV-unprocessed.smi:1757
#       Creating user name   scv26
#       Creation time:       Fri Mar 27 08:29:49 2020


#       File generated by GOLD software.
#

@<TRIPOS>MOLECULE
AV-unprocessed.smi:1757
    44    45     1
SMALL
NO_CHARGES


@<TRIPOS>ATOM
      1 ****        -5.2488  -2.6631  -0.1161 C.3            1 S1                 0.0000
      2 ****        -3.8031  -2.3535  -0.1063 N.4            1 S1                 1.0000
      3 ****        -3.3813  -1.6650   1.1391 C.3            1 S1                 0.0000
      4 ****        -1.8559  -1.4724   1.1749 C.3            1 S1                 0.0000
      5 ****        -1.3623  -0.7114  -0.0669 C.3            1 S1                 0.0000
      6 ****         0.0967  -0.6420  -0.0622 N.am           1 S1                 0.0000
      7 ****         0.8312   0.4799  -0.0799 C.2            1 S1                 0.0000
      8 ****         0.3422   1.6092  -0.1024 O.2            1 S1                 0.0000
      9 ****         2.1444   0.1882  -0.0890 N.am           1 S1                 0.0000
     10 ****         3.2492   1.0564  -0.0761 C.2            1 S1                 0.0000
     11 ****         3.2041   2.3637   0.3028 C.2            1 S1                 0.0000
     12 ****         4.3890   3.2128   0.3106 C.2            1 S1                 0.0000
     13 ****         4.3890   4.6787   0.7035 C.3            1 S1                 0.0000
     14 ****         5.1868   4.8736   1.7529 F              1 S1                 0.0000
     15 ****         4.8419   5.4257  -0.3028 F              1 S1                 0.0000
     16 ****         3.1646   5.0989   1.0220 F              1 S1                 0.0000
     17 ****         5.5237   2.5361  -0.0902 C.2            1 S1                 0.0000
     18 ****         5.6564   1.2453  -0.4667 N.pl3          1 S1                -1.0000
     19 ****         4.5415   0.4611  -0.4759 C.2            1 S1                 0.0000
     20 ****         4.5897  -0.7240  -0.8080 O.2            1 S1                 0.0000
     21 ****        -1.8497  -1.4214  -1.3412 C.3            1 S1                 0.0000
     22 ****        -3.3751  -1.6165  -1.3213 C.3            1 S1                 0.0000
     23 ****        -5.8448  -1.7495  -0.1000 H              1 S1                 0.0000
     24 ****        -5.5198  -3.2644   0.7523 H              1 S1                 0.0000
     25 ****        -5.5153  -3.2301  -1.0088 H              1 S1                 0.0000
     26 ****        -3.8839  -0.6990   1.2109 H              1 S1                 0.0000
     27 ****        -3.6938  -2.2506   2.0045 H              1 S1                 0.0000
     28 ****        -1.5733  -0.9333   2.0802 H              1 S1                 0.0000
     29 ****        -1.3701  -2.4476   1.2313 H              1 S1                 0.0000
     30 ****        -1.7945   0.2907  -0.0463 H              1 S1                 0.0000
     31 ****         0.5917  -1.5219  -0.0486 H              1 S1                 0.0000
     32 ****         2.3889  -0.7894  -0.1497 H              1 S1                 0.0000
     33 ****         2.2802   2.8092   0.6325 H              1 S1                 0.0000
     34 ****         6.4668   3.1233  -0.1111 H              1 S1                 0.0000
     35 ****        -1.5628  -0.8464  -2.2226 H              1 S1                 0.0000
     36 ****        -1.3628  -2.3934  -1.4346 H              1 S1                 0.0000
     37 ****        -3.6821  -2.1685  -2.2106 H              1 S1                 0.0000
     38 ****        -3.8785  -0.6490  -1.3589 H              1 S1                 0.0000
     39 ****        -3.3207  -3.2407  -0.1224 H              1 S1                 0.0000
     40 ****        -0.6512   1.7239  -0.1083 LP             1 S1                 0.0000
     41 ****         0.9383   2.4120  -0.1148 LP             1 S1                 0.0000
     42 ****         6.5472   0.8758  -0.7311 LP             1 S1                 0.0000
     43 ****         3.7572  -1.2780  -0.8061 LP             1 S1                 0.0000
     44 ****         5.4613  -1.1321  -1.0794 LP             1 S1                 0.0000
@<TRIPOS>BOND
    1    1    2 1     
    2    1   23 1     
    3    1   24 1     
    4    1   25 1     
    5    2   22 1     
    6    2    3 1     
    7    2   39 1     
    8    3    4 1     
    9    3   26 1     
   10    3   27 1     
   11    4    5 1     
   12    4   28 1     
   13    4   29 1     
   14    5    6 1     
   15    5   21 1     
   16    5   30 1     
   17    6    7 am    
   18    6   31 1     
   19    7    8 2     
   20    7    9 am    
   21    9   10 1     
   22    9   32 1     
   23   10   19 1     
   24   10   11 2     
   25   11   12 1     
   26   11   33 1     
   27   12   13 1     
   28   12   17 2     
   29   13   14 1     
   30   13   15 1     
   31   13   16 1     
   32   17   18 1     
   33   17   34 1     
   34   18   19 1     
   35   19   20 2     
   36   21   22 1     
   37   21   35 1     
   38   21   36 1     
   39   22   37 1     
   40   22   38 1     
   41    8   40 1     
   42    8   41 1     
   43   18   42 1     
   44   20   43 1     
   45   20   44 1     
@<TRIPOS>SUBSTRUCTURE
      1 S1             1
@<TRIPOS>SET
LONE_PAIRS      STATIC     ATOMS    <user>   **** ""
5 40 41 42 43 44
DONOR_HYDROGENS      STATIC     ATOMS    <user>   **** ""
3 39 31 32
ATOM$BLUE        STATIC     ATOMS    COLORGROUP SYSTEM
5 40 41 42 43 44
ATOM$RED        STATIC     ATOMS    COLORGROUP SYSTEM
3 39 31 32
