AV-unprocessed.smi:2003|AV-procd|sdf|8118|dock3
  -GOLD-   2272010353D 1   1.00000     0.00000
 Structure written by MMmdl.
 43 44  0  0  0  0  0  0  0  0  1 V2000
  146.0573  130.1300  151.8314 C   0  0  0  0  0  0  0  0  0  0  0  0
  145.9296  131.6252  151.8310 C   0  0  0  0  0  0  0  0  0  0  0  0
  146.8627  132.5852  152.3195 C   0  0  0  0  0  0  0  0  0  0  0  0
  146.2365  133.7741  152.0611 C   0  0  0  0  0  0  0  0  0  0  0  0
  146.6695  135.0379  152.3148 N   0  0  0  0  0  0  0  0  0  0  0  0
  145.9817  136.0785  152.8160 C   0  0  0  0  0  0  0  0  0  0  0  0
  144.7918  136.0636  153.1321 O   0  0  0  0  0  0  0  0  0  0  0  0
  146.7638  137.1605  152.9401 N   0  0  0  0  0  0  0  0  0  0  0  0
  146.3319  138.4471  153.4800 C   0  0  0  0  0  0  0  0  0  0  0  0
  147.3523  139.5955  153.2277 C   0  0  1  0  0  0  0  0  0  0  0  0
  146.5714  140.9190  153.0240 C   0  0  0  0  0  0  0  0  0  0  0  0
  148.3923  139.6997  154.2777 N   0  0  0  0  0  0  0  0  0  0  0  0
  148.9705  141.0463  154.3618 C   0  0  0  0  0  0  0  0  0  0  0  0
  150.0755  141.1596  155.4262 C   0  0  0  0  0  0  0  0  0  0  0  0
  151.0960  140.2081  155.1594 O   0  0  0  0  0  0  0  0  0  0  0  0
  150.5938  138.8793  155.1489 C   0  0  0  0  0  0  0  0  0  0  0  0
  149.4930  138.7485  154.0821 C   0  0  0  0  0  0  0  0  0  0  0  0
  145.0204  133.5154  151.4655 N   0  0  0  0  0  0  0  0  0  0  0  0
  143.9933  134.4275  150.9996 C   0  0  0  0  0  0  0  0  0  0  0  0
  144.8370  132.1851  151.3244 N   0  0  0  0  0  0  0  0  0  0  0  0
  146.8925  129.8072  152.4533 H   0  0  0  0  0  0  0  0  0  0  0  0
  146.2286  129.7518  150.8234 H   0  0  0  0  0  0  0  0  0  0  0  0
  145.1550  129.6556  152.2179 H   0  0  0  0  0  0  0  0  0  0  0  0
  147.8243  132.4080  152.7772 H   0  0  0  0  0  0  0  0  0  0  0  0
  147.6427  135.2074  152.1075 H   0  0  0  0  0  0  0  0  0  0  0  0
  147.7294  137.0885  152.6546 H   0  0  0  0  0  0  0  0  0  0  0  0
  145.3710  138.6989  153.0302 H   0  0  0  0  0  0  0  0  0  0  0  0
  146.1421  138.2904  154.5409 H   0  0  0  0  0  0  0  0  0  0  0  0
  147.8556  139.3771  152.2848 H   0  0  0  0  0  0  0  0  0  0  0  0
  145.7719  140.8229  152.2902 H   0  0  0  0  0  0  0  0  0  0  0  0
  147.2063  141.7188  152.6457 H   0  0  0  0  0  0  0  0  0  0  0  0
  146.1203  141.2579  153.9570 H   0  0  0  0  0  0  0  0  0  0  0  0
  149.3737  141.3371  153.3906 H   0  0  0  0  0  0  0  0  0  0  0  0
  148.2060  141.7772  154.6190 H   0  0  0  0  0  0  0  0  0  0  0  0
  150.5101  142.1592  155.4147 H   0  0  0  0  0  0  0  0  0  0  0  0
  149.6682  140.9987  156.4256 H   0  0  0  0  0  0  0  0  0  0  0  0
  151.4121  138.1918  154.9348 H   0  0  0  0  0  0  0  0  0  0  0  0
  150.2081  138.6199  156.1361 H   0  0  0  0  0  0  0  0  0  0  0  0
  149.1315  137.7236  154.1299 H   0  0  0  0  0  0  0  0  0  0  0  0
  149.9299  138.8861  153.0917 H   0  0  0  0  0  0  0  0  0  0  0  0
  144.2249  135.4514  151.2922 H   0  0  0  0  0  0  0  0  0  0  0  0
  143.0306  134.1506  151.4303 H   0  0  0  0  0  0  0  0  0  0  0  0
  143.9257  134.3776  149.9124 H   0  0  0  0  0  0  0  0  0  0  0  0
  1  2  1  0  0  0  0
  1 21  1  0  0  0  0
  1 22  1  0  0  0  0
  1 23  1  0  0  0  0
  2 20  2  0  0  0  0
  2  3  1  0  0  0  0
  3  4  2  0  0  0  0
  3 24  1  0  0  0  0
  4  5  1  0  0  0  0
  4 18  1  0  0  0  0
  5  6  1  0  0  0  0
  5 25  1  0  0  0  0
  6  7  2  0  0  0  0
  6  8  1  0  0  0  0
  8  9  1  0  0  0  0
  8 26  1  0  0  0  0
  9 10  1  0  0  0  0
  9 27  1  0  0  0  0
  9 28  1  0  0  0  0
 10 11  1  0  0  0  0
 10 12  1  0  0  0  0
 10 29  1  0  0  0  0
 11 30  1  0  0  0  0
 11 31  1  0  0  0  0
 11 32  1  0  0  0  0
 12 17  1  0  0  0  0
 12 13  1  0  0  0  0
 13 14  1  0  0  0  0
 13 33  1  0  0  0  0
 13 34  1  0  0  0  0
 14 15  1  0  0  0  0
 14 35  1  0  0  0  0
 14 36  1  0  0  0  0
 15 16  1  0  0  0  0
 16 17  1  0  0  0  0
 16 37  1  0  0  0  0
 16 38  1  0  0  0  0
 17 39  1  0  0  0  0
 17 40  1  0  0  0  0
 18 19  1  0  0  0  0
 18 20  1  0  0  0  0
 19 41  1  0  0  0  0
 19 42  1  0  0  0  0
 19 43  1  0  0  0  0
M  END
> <s_m_source_file>
AV-unprocessed.smi

> <i_m_source_file_index>
2003

> <i_lp_mmshare_version>
43012

> <i_f3d_flags>
0

> <s_epik_input>
W0NIM11jMVtjSF1jKG4objEpW0NIM10pW05IXUMoPU8pW05IXVtDSDJdW0NASF0oW0NIM10pTjJbQ0gyXVtDSDJdT1tDSDJdW0NIMl0y

> <s_epik_cmdline>
J2VwaWtfcHl0aG9uJywgJy1waCcsICc3LjAnLCAnLXRuJywgJzgnLCAnLW1hJywgJzIwMCcsICctbWV0YWxfYmluZGluZycsICctaW1hZScsICc8aW5maWxlLm1hZT4nLCAnLW9tYWUnLCAnPG91dGZpbGUubWFlPic=

> <r_lp_tautomer_probability>
1

> <r_epik_Ionization_Penalty>
0.233974

> <r_epik_Ionization_Penalty_Charging>
0

> <r_epik_Ionization_Penalty_Neutral>
0.233974

> <r_epik_State_Penalty>
0.224627

> <r_epik_Charging_Adjusted_Penalty>
0.224627

> <i_epik_Tot_Q>
0

> <i_epik_Tot_abs_Q>
0

> <r_epik_Metal_State_Penalty>
0.224624

> <b_epik_Metal_Only>
0

> <s_lp_Force_Field>
OPLS_2005

> <r_lp_Energy>
29.1269

> <b_lp_Chiralities_Consistent>
1

> <s_lp_Variant>
AV-unprocessed.smi:2003-2

> <Gold.Version>
5.8.1

> <Gold.Id.Protein>
6NUR|6NUR_protein|mol2

> <Gold.PLP.Fitness>
36.2996

> <Gold.PLP.PLP>
-30.3095

> <Gold.PLP.part.hbond>
-3.0000

> <Gold.PLP.part.metal>
0.0000

> <Gold.PLP.part.buried>
-1.5760

> <Gold.PLP.part.nonpolar>
-27.0594

> <Gold.PLP.part.repulsive>
0.4297

> <Gold.PLP.ligand.clash>
0.0049

> <Gold.PLP.ligand.torsion>
1.3579

> <Gold.PLP.Chemscore.Hbond>
2.8920

> <Gold.PLP.Chemscore.CHOScore>
0.0000

> <Gold.PLP.Chemscore.Metal>
0.0000

> <Gold.Chemscore.Hbonds>
donor molecule, donor type, donor heavy atom, donor atom, acceptor molecule, acceptor atom, score
      L1  H     5    25       P1  7948  1.00
      L1  H     8    26       P1  7948  0.99
      P1  H  7989  7998       L1    15  0.90

> <Gold.PLP.Chemscore.Internal.Correction>
0.0349

> <Gold.Rescore>
     Score         DG    S(hbond)    S(metal)    S(lipo)     H(rot)  DE(clash)    DE(int)     intcor
     15.07     -17.80       2.17        0.00      76.12       1.49       0.24       2.49       ----

> <Gold.Chemscore.Fitness>
15.0681

> <Gold.Chemscore.DG>
-17.7970

> <Gold.Chemscore.ZeroCoef>
-5.4800

> <Gold.Chemscore.Hbond>
2.1660

> <Gold.Chemscore.Metal>
0.0000

> <Gold.Chemscore.Lipo>
76.1245

> <Gold.Chemscore.Internal_Hbond>
0.0000

> <Gold.Chemscore.DEClash>
0.2395

> <Gold.Chemscore.DEInternal>
2.4893

> <Gold.Chemscore.Rot>
1.4938

> <Gold.Chemscore.Internal.Correction>
   9.000000E+99

> <Gold.Chemscore.Hbonds>
donor molecule, donor type, donor heavy atom, donor atom, acceptor molecule, acceptor atom, score
      L1  H     5    25       P1  7948  0.94
      L1  H     8    26       P1  7948  0.94
      P1  H  7989  7998       L1    15  0.16

> <Gold.Chemscore.Hbond.Weighted>
-7.2346

> <Gold.Chemscore.Metal.Weighted>
-0.0000

> <Gold.Chemscore.Lipo.Weighted>
-8.9066

> <Gold.Chemscore.Internal_Hbond.Weighted>
0.0000

> <Gold.Chemscore.DEClash.Weighted>
0.2395

> <Gold.Chemscore.DEInternal.Weighted>
2.4893

> <Gold.Chemscore.Rot.Weighted>
3.8242

> <Gold.Chemscore.Internal.Correction.Weighted>
   9.000000E+99

> <Gold.Protein.RotatedTorsions>
[ 6907 6896 6895 6894 ] final  -74.41 input  -60.11 | X-H torsion
[ 7974 7965 7964 7962 ] final  -27.17 input  175.53 | X-H torsion
[ 8008 7997 7996 7995 ] final  -73.70 input   59.86 | X-H torsion
[ 10167 10162 10161 10158 ] final -116.56 input  -65.29 | X-H torsion
[ 10718 10713 10712 10709 ] final -100.52 input   66.30 | X-H torsion
[ 10763 10752 10751 10750 ] final  -48.99 input  -60.55 | X-H torsion
[ 11005 11000 10999 10996 ] final  -48.41 input  -57.11 | X-H torsion

> <Gold.Protein.ActiveResidues>
 VAL166  LYS551  ARG553  GLY616  TRP617  ASP618  TYR619  PRO620  LYS621  CYS622 
 ASP623  PHE694  ASN695  SER759  ASP760  ASP761  ALA762  ILE779  LEU786  VAL792 
 PHE793  MET794  SER795  GLU796  ALA797  LYS798  CYS799  TRP800  GLU811  SER814 

> <Gold.Protein.RotatedAtoms>
  150.7094  134.4873  159.5498 H   0  0  0  0  0  0  0  0  0  0  0  0  # atno 6907 bound_to 6896
  152.2498  134.8141  160.0457 H   0  0  0  0  0  0  0  0  0  0  0  0  # atno 6908 bound_to 6896
  151.8893  133.3477  159.3829 H   0  0  0  0  0  0  0  0  0  0  0  0  # atno 6909 bound_to 6896
  146.1376  140.5116  142.8666 H   0  0  0  0  0  0  0  0  0  0  0  0  # atno 7974 bound_to 7965
  154.5269  140.0774  156.8275 H   0  0  0  0  0  0  0  0  0  0  0  0  # atno 8008 bound_to 7997
  155.3456  140.3410  155.4221 H   0  0  0  0  0  0  0  0  0  0  0  0  # atno 8009 bound_to 7997
  156.1741  140.1629  156.8381 H   0  0  0  0  0  0  0  0  0  0  0  0  # atno 8010 bound_to 7997
  140.0779  143.4816  152.1943 H   0  0  0  0  0  0  0  0  0  0  0  0  # atno 10167 bound_to 10162
  156.0166  130.5331  150.6829 H   0  0  0  0  0  0  0  0  0  0  0  0  # atno 10718 bound_to 10713
  154.0869  135.6583  153.4846 H   0  0  0  0  0  0  0  0  0  0  0  0  # atno 10763 bound_to 10752
  153.0336  135.5193  154.7419 H   0  0  0  0  0  0  0  0  0  0  0  0  # atno 10764 bound_to 10752
  154.6531  135.3004  154.9930 H   0  0  0  0  0  0  0  0  0  0  0  0  # atno 10765 bound_to 10752
  141.0699  133.6682  156.3437 H   0  0  0  0  0  0  0  0  0  0  0  0  # atno 11005 bound_to 11000
  144.7757  140.5733  143.6640 LP  0  0  0  0  0  0  0  0  0  0  0  0  # atno 17320 bound_to 7965
  145.5121  139.1479  143.3599 LP  0  0  0  0  0  0  0  0  0  0  0  0  # atno 17321 bound_to 7965
  139.5797  144.7504  151.3672 LP  0  0  0  0  0  0  0  0  0  0  0  0  # atno 17342 bound_to 10162
  140.7093  143.7433  150.7537 LP  0  0  0  0  0  0  0  0  0  0  0  0  # atno 17343 bound_to 10162
  157.4527  131.0874  151.0829 LP  0  0  0  0  0  0  0  0  0  0  0  0  # atno 17370 bound_to 10713
  157.1339  130.6114  149.5537 LP  0  0  0  0  0  0  0  0  0  0  0  0  # atno 17371 bound_to 10713
  140.5695  134.5854  157.5454 LP  0  0  0  0  0  0  0  0  0  0  0  0  # atno 17394 bound_to 11000
  139.9513  134.7612  156.0442 LP  0  0  0  0  0  0  0  0  0  0  0  0  # atno 17395 bound_to 11000

$$$$
