#       Name:                AV-unprocessed.smi:3210
#       Creating user name   scv26
#       Creation time:       Fri Mar 27 18:10:57 2020


#       File generated by GOLD software.
#

@<TRIPOS>MOLECULE
AV-unprocessed.smi:3210
    38    39     1
SMALL
NO_CHARGES


@<TRIPOS>ATOM
      1 ****        -0.5532   0.8799   1.1427 O.2            1 S1                 0.0000
      2 ****        -0.8883   0.6524  -0.0202 C.2            1 S1                 0.0000
      3 ****        -0.4021  -0.6156  -0.7207 C.3            1 S1                 0.0000
      4 ****         1.0611  -0.6688  -0.7753 N.3            1 S1                 0.0000
      5 ****         1.5081  -1.8819  -1.4447 C.3            1 S1                 0.0000
      6 ****         3.0429  -1.9755  -1.4180 C.3            1 S1                 0.0000
      7 ****         3.5574  -2.2031  -0.0789 N.pl3          1 S1                 0.0000
      8 ****         3.6560  -3.3948   0.6081 C.2            1 S1                 0.0000
      9 ****         4.1896  -3.1148   1.8334 C.2            1 S1                 0.0000
     10 ****         4.3876  -1.7059   1.8015 C.2            1 S1                 0.0000
     11 ****         4.0086  -1.1634   0.6558 N.2            1 S1                 0.0000
     12 ****        -1.6766   1.4693  -0.7351 N.am           1 S1                 0.0000
     13 ****        -2.2452   2.7199  -0.2492 C.3            1 S1                 0.0000
     14 ****        -3.4120   2.5656   0.7083 C.3            1 S1                 0.0000
     15 ****        -4.8340   2.5056   0.2020 C.3            1 S1                 0.0000
     16 ****        -4.3528   3.7204   0.9589 C.3            1 S1                 0.0000
     17 ****        -0.7831  -1.4786  -0.1728 H              1 S1                 0.0000
     18 ****        -0.8111  -0.6665  -1.7315 H              1 S1                 0.0000
     19 ****         1.4629  -0.6359   0.1516 H              1 S1                 0.0000
     20 ****         1.0739  -2.7614  -0.9664 H              1 S1                 0.0000
     21 ****         1.1590  -1.8705  -2.4781 H              1 S1                 0.0000
     22 ****         3.3704  -2.8041  -2.0470 H              1 S1                 0.0000
     23 ****         3.4955  -1.0733  -1.8334 H              1 S1                 0.0000
     24 ****         3.3388  -4.3315   0.1736 H              1 S1                 0.0000
     25 ****         4.4049  -3.8099   2.6312 H              1 S1                 0.0000
     26 ****         4.7920  -1.0659   2.5718 H              1 S1                 0.0000
     27 ****        -1.8970   1.2050  -1.6844 H              1 S1                 0.0000
     28 ****        -1.4669   3.3064   0.2412 H              1 S1                 0.0000
     29 ****        -2.5661   3.3027  -1.1131 H              1 S1                 0.0000
     30 ****        -3.1873   1.9538   1.5801 H              1 S1                 0.0000
     31 ****        -4.9964   2.6124  -0.8687 H              1 S1                 0.0000
     32 ****        -5.5199   1.8329   0.7130 H              1 S1                 0.0000
     33 ****        -4.7191   3.8582   1.9742 H              1 S1                 0.0000
     34 ****        -4.1966   4.6355   0.3910 H              1 S1                 0.0000
     35 ****         0.0369   0.2350   1.6283 LP             1 S1                 0.0000
     36 ****        -0.8712   1.7097   1.6014 LP             1 S1                 0.0000
     37 ****         1.3685   0.1302  -1.2922 LP             1 S1                 0.0000
     38 ****         4.0475  -0.1994   0.3927 LP             1 S1                 0.0000
@<TRIPOS>BOND
    1    1    2 2     
    2    2    3 1     
    3    2   12 am    
    4    3    4 1     
    5    3   17 1     
    6    3   18 1     
    7    4    5 1     
    8    4   19 1     
    9    5    6 1     
   10    5   20 1     
   11    5   21 1     
   12    6    7 1     
   13    6   22 1     
   14    6   23 1     
   15    7   11 1     
   16    7    8 1     
   17    8    9 2     
   18    8   24 1     
   19    9   10 1     
   20    9   25 1     
   21   10   11 2     
   22   10   26 1     
   23   12   13 1     
   24   12   27 1     
   25   13   14 1     
   26   13   28 1     
   27   13   29 1     
   28   14   16 1     
   29   14   15 1     
   30   14   30 1     
   31   15   16 1     
   32   15   31 1     
   33   15   32 1     
   34   16   33 1     
   35   16   34 1     
   36    1   35 1     
   37    1   36 1     
   38    4   37 1     
   39   11   38 1     
@<TRIPOS>SUBSTRUCTURE
      1 S1             1
@<TRIPOS>SET
LONE_PAIRS      STATIC     ATOMS    <user>   **** ""
4 35 36 37 38
DONOR_HYDROGENS      STATIC     ATOMS    <user>   **** ""
2 19 27
ATOM$BLUE        STATIC     ATOMS    COLORGROUP SYSTEM
4 35 36 37 38
ATOM$RED        STATIC     ATOMS    COLORGROUP SYSTEM
2 19 27
