#       Name:                AV-unprocessed.smi:2438
#       Creating user name   scv26
#       Creation time:       Fri Mar 27 13:23:18 2020


#       File generated by GOLD software.
#

@<TRIPOS>MOLECULE
AV-unprocessed.smi:2438
    48    49     1
SMALL
NO_CHARGES


@<TRIPOS>ATOM
      1 ****        -1.1259  -1.8044  -4.3366 C.3            1 S1                 0.0000
      2 ****        -0.6159  -0.9534  -3.2685 N.3            1 S1                 0.0000
      3 ****        -1.5485   0.0266  -2.7277 C.3            1 S1                 0.0000
      4 ****         0.6996  -0.4696  -3.4174 C.ar           1 S1                 0.0000
      5 ****         1.1386  -0.1921  -4.6667 N.ar           1 S1                 0.0000
      6 ****         2.3739   0.2869  -4.8465 C.ar           1 S1                 0.0000
      7 ****         3.2239   0.5061  -3.8348 N.pl3          1 S1                 1.0000
      8 ****         2.8356   0.2410  -2.5651 C.ar           1 S1                 0.0000
      9 ****         1.5383  -0.2558  -2.2970 C.ar           1 S1                 0.0000
     10 ****         1.0859  -0.5909  -0.9897 N.am           1 S1                 0.0000
     11 ****         1.4954  -0.0806   0.1828 C.2            1 S1                 0.0000
     12 ****         2.4014   0.7410   0.3203 O.2            1 S1                 0.0000
     13 ****         0.7695  -0.5639   1.2003 N.am           1 S1                 0.0000
     14 ****         0.9087  -0.1734   2.6026 C.3            1 S1                 0.0000
     15 ****         0.2973  -1.2507   3.5187 C.3            1 S1                 0.0000
     16 ****        -1.2379  -1.2876   3.4259 C.3            1 S1                 0.0000
     17 ****        -1.8511   0.0946   3.7019 C.3            1 S1                 0.0000
     18 ****        -1.2760   1.1724   2.7589 C.3            1 S1                 0.0000
     19 ****        -1.9018   2.5592   3.0102 C.3            1 S1                 0.0000
     20 ****        -1.6362   2.9837   4.2459 F              1 S1                 0.0000
     21 ****        -1.4179   3.4423   2.1367 F              1 S1                 0.0000
     22 ****        -3.2237   2.4983   2.8494 F              1 S1                 0.0000
     23 ****         0.2648   1.2047   2.8726 C.3            1 S1                 0.0000
     24 ****        -0.3907  -2.5590  -4.6184 H              1 S1                 0.0000
     25 ****        -1.3766  -1.2152  -5.2195 H              1 S1                 0.0000
     26 ****        -2.0271  -2.3223  -4.0075 H              1 S1                 0.0000
     27 ****        -1.1001   0.6345  -1.9417 H              1 S1                 0.0000
     28 ****        -2.4187  -0.4766  -2.3051 H              1 S1                 0.0000
     29 ****        -1.8931   0.6965  -3.5163 H              1 S1                 0.0000
     30 ****         2.7322   0.5107  -5.8405 H              1 S1                 0.0000
     31 ****         3.5929   0.4235  -1.8179 H              1 S1                 0.0000
     32 ****         0.2845  -1.2046  -0.9531 H              1 S1                 0.0000
     33 ****         0.0476  -1.2377   0.9903 H              1 S1                 0.0000
     34 ****         1.9749  -0.1099   2.8279 H              1 S1                 0.0000
     35 ****         0.7110  -2.2311   3.2795 H              1 S1                 0.0000
     36 ****         0.5846  -1.0455   4.5508 H              1 S1                 0.0000
     37 ****        -1.5407  -1.6307   2.4360 H              1 S1                 0.0000
     38 ****        -1.6329  -2.0153   4.1354 H              1 S1                 0.0000
     39 ****        -2.9341   0.0369   3.5902 H              1 S1                 0.0000
     40 ****        -1.6636   0.3736   4.7395 H              1 S1                 0.0000
     41 ****        -1.5317   0.8884   1.7369 H              1 S1                 0.0000
     42 ****         0.5436   1.5326   3.8748 H              1 S1                 0.0000
     43 ****         0.6772   1.9504   2.1923 H              1 S1                 0.0000
     44 ****         4.1630   0.8643  -4.0103 H              1 S1                 0.0000
     45 ****        -0.5272  -1.6297  -2.5373 LP             1 S1                 0.0000
     46 ****         0.5407  -0.3448  -5.4536 LP             1 S1                 0.0000
     47 ****         2.8954   1.0794  -0.4806 LP             1 S1                 0.0000
     48 ****         2.6436   1.0703   1.2330 LP             1 S1                 0.0000
@<TRIPOS>BOND
    1    1    2 1     
    2    1   24 1     
    3    1   25 1     
    4    1   26 1     
    5    2    3 1     
    6    2    4 1     
    7    3   27 1     
    8    3   28 1     
    9    3   29 1     
   10    4    9 ar    
   11    4    5 ar    
   12    5    6 ar    
   13    6    7 ar    
   14    6   30 1     
   15    7    8 ar    
   16    7   44 1     
   17    8    9 ar    
   18    8   31 1     
   19    9   10 1     
   20   10   11 am    
   21   10   32 1     
   22   11   12 2     
   23   11   13 am    
   24   13   14 1     
   25   13   33 1     
   26   14   23 1     
   27   14   15 1     
   28   14   34 1     
   29   15   16 1     
   30   15   35 1     
   31   15   36 1     
   32   16   17 1     
   33   16   37 1     
   34   16   38 1     
   35   17   18 1     
   36   17   39 1     
   37   17   40 1     
   38   18   19 1     
   39   18   23 1     
   40   18   41 1     
   41   19   20 1     
   42   19   21 1     
   43   19   22 1     
   44   23   42 1     
   45   23   43 1     
   46    2   45 1     
   47    5   46 1     
   48   12   47 1     
   49   12   48 1     
@<TRIPOS>SUBSTRUCTURE
      1 S1             1
@<TRIPOS>SET
LONE_PAIRS      STATIC     ATOMS    <user>   **** ""
4 45 46 47 48
DONOR_HYDROGENS      STATIC     ATOMS    <user>   **** ""
3 44 32 33
ATOM$BLUE        STATIC     ATOMS    COLORGROUP SYSTEM
4 45 46 47 48
ATOM$RED        STATIC     ATOMS    COLORGROUP SYSTEM
3 44 32 33
