AV-unprocessed.smi:2012|AV-procd|sdf|8156|dock9
  -GOLD-   2272010403D 1   1.00000     0.00000
 Structure written by MMmdl.
 50 51  0  0  0  0  0  0  0  0  1 V2000
  149.7554  133.9165  154.5736 C   0  0  0  0  0  0  0  0  0  0  0  0
  148.4430  134.6180  154.9068 C   0  0  0  0  0  0  0  0  0  0  0  0
  147.8659  134.3582  155.9611 O   0  0  0  0  0  0  0  0  0  0  0  0
  147.9874  135.4889  153.9882 N   0  0  0  0  0  0  0  0  0  0  0  0
  146.7840  136.3318  154.0327 C   0  0  1  0  0  0  0  0  0  0  0  0
  147.1322  137.7762  154.4345 C   0  0  0  0  0  0  0  0  0  0  0  0
  146.4756  138.3584  155.2982 O   0  0  0  0  0  0  0  0  0  0  0  0
  148.1889  138.3327  153.8211 N   0  0  0  0  0  0  0  0  0  0  0  0
  148.7102  139.6650  154.1054 C   0  0  0  0  0  0  0  0  0  0  0  0
  150.0533  139.6439  154.8177 C   0  0  0  0  0  0  0  0  0  0  0  0
  151.0588  138.7451  154.4147 C   0  0  0  0  0  0  0  0  0  0  0  0
  152.2865  138.7687  155.0995 C   0  0  0  0  0  0  0  0  0  0  0  0
  152.5457  139.6072  156.1242 N   0  0  0  0  0  0  0  0  0  0  0  0
  151.5866  140.4744  156.5316 C   0  0  0  0  0  0  0  0  0  0  0  0
  151.9204  141.3368  157.6030 N   0  0  0  0  0  0  0  0  0  0  0  0
  151.1720  142.5817  157.7643 C   0  0  0  0  0  0  0  0  0  0  0  0
  151.8847  143.5248  158.7478 C   0  0  0  0  0  0  0  0  0  0  0  0
  152.1203  142.8513  159.9782 O   0  0  0  0  0  0  0  0  0  0  0  0
  152.9752  141.7281  159.8025 C   0  0  0  0  0  0  0  0  0  0  0  0
  152.3087  140.7067  158.8655 C   0  0  0  0  0  0  0  0  0  0  0  0
  150.3183  140.5146  155.8970 C   0  0  0  0  0  0  0  0  0  0  0  0
  145.8486  136.1861  152.7910 C   0  0  0  0  0  0  0  0  0  0  0  0
  144.5577  137.0194  152.9114 C   0  0  0  0  0  0  0  0  0  0  0  0
  145.4812  134.7156  152.5138 C   0  0  0  0  0  0  0  0  0  0  0  0
  150.3608  134.5123  153.8896 H   0  0  0  0  0  0  0  0  0  0  0  0
  149.5563  132.9515  154.1072 H   0  0  0  0  0  0  0  0  0  0  0  0
  150.3371  133.7465  155.4801 H   0  0  0  0  0  0  0  0  0  0  0  0
  148.5517  135.5938  153.1580 H   0  0  0  0  0  0  0  0  0  0  0  0
  146.2220  135.9201  154.8727 H   0  0  0  0  0  0  0  0  0  0  0  0
  148.6807  137.7867  153.1289 H   0  0  0  0  0  0  0  0  0  0  0  0
  148.8330  140.1930  153.1596 H   0  0  0  0  0  0  0  0  0  0  0  0
  147.9822  140.2348  154.6853 H   0  0  0  0  0  0  0  0  0  0  0  0
  150.8998  138.0573  153.5972 H   0  0  0  0  0  0  0  0  0  0  0  0
  153.0836  138.0973  154.8166 H   0  0  0  0  0  0  0  0  0  0  0  0
  151.0767  143.0963  156.8087 H   0  0  0  0  0  0  0  0  0  0  0  0
  150.1668  142.3540  158.1212 H   0  0  0  0  0  0  0  0  0  0  0  0
  152.8272  143.8820  158.3294 H   0  0  0  0  0  0  0  0  0  0  0  0
  151.2683  144.4039  158.9363 H   0  0  0  0  0  0  0  0  0  0  0  0
  153.9396  142.0486  159.4049 H   0  0  0  0  0  0  0  0  0  0  0  0
  153.1682  141.2739  160.7745 H   0  0  0  0  0  0  0  0  0  0  0  0
  151.4184  140.2905  159.3378 H   0  0  0  0  0  0  0  0  0  0  0  0
  153.0026  139.8812  158.7092 H   0  0  0  0  0  0  0  0  0  0  0  0
  149.5418  141.1921  156.2170 H   0  0  0  0  0  0  0  0  0  0  0  0
  146.3658  136.5653  151.9103 H   0  0  0  0  0  0  0  0  0  0  0  0
  144.0012  136.7630  153.8135 H   0  0  0  0  0  0  0  0  0  0  0  0
  143.9000  136.8522  152.0580 H   0  0  0  0  0  0  0  0  0  0  0  0
  144.7690  138.0884  152.9379 H   0  0  0  0  0  0  0  0  0  0  0  0
  144.9588  134.2724  153.3619 H   0  0  0  0  0  0  0  0  0  0  0  0
  146.3618  134.1067  152.3107 H   0  0  0  0  0  0  0  0  0  0  0  0
  144.8300  134.6314  151.6434 H   0  0  0  0  0  0  0  0  0  0  0  0
  1  2  1  0  0  0  0
  1 25  1  0  0  0  0
  1 26  1  0  0  0  0
  1 27  1  0  0  0  0
  2  3  2  0  0  0  0
  2  4  1  0  0  0  0
  4  5  1  0  0  0  0
  4 28  1  0  0  0  0
  5  6  1  0  0  0  0
  5 22  1  0  0  0  0
  5 29  1  0  0  0  0
  6  7  2  0  0  0  0
  6  8  1  0  0  0  0
  8  9  1  0  0  0  0
  8 30  1  0  0  0  0
  9 10  1  0  0  0  0
  9 31  1  0  0  0  0
  9 32  1  0  0  0  0
 10 21  1  0  0  0  0
 10 11  2  0  0  0  0
 11 12  1  0  0  0  0
 11 33  1  0  0  0  0
 12 13  2  0  0  0  0
 12 34  1  0  0  0  0
 13 14  1  0  0  0  0
 14 15  1  0  0  0  0
 14 21  2  0  0  0  0
 15 20  1  0  0  0  0
 15 16  1  0  0  0  0
 16 17  1  0  0  0  0
 16 35  1  0  0  0  0
 16 36  1  0  0  0  0
 17 18  1  0  0  0  0
 17 37  1  0  0  0  0
 17 38  1  0  0  0  0
 18 19  1  0  0  0  0
 19 20  1  0  0  0  0
 19 39  1  0  0  0  0
 19 40  1  0  0  0  0
 20 41  1  0  0  0  0
 20 42  1  0  0  0  0
 21 43  1  0  0  0  0
 22 23  1  0  0  0  0
 22 24  1  0  0  0  0
 22 44  1  0  0  0  0
 23 45  1  0  0  0  0
 23 46  1  0  0  0  0
 23 47  1  0  0  0  0
 24 48  1  0  0  0  0
 24 49  1  0  0  0  0
 24 50  1  0  0  0  0
M  END
> <s_m_source_file>
AV-unprocessed.smi

> <i_m_source_file_index>
2012

> <i_lp_mmshare_version>
43012

> <i_f3d_flags>
0

> <s_epik_input>
W0NIM11DKD1PKVtOSF1bQ0BASF0oW0NIXShbQ0gzXSlbQ0gzXSlDKD1PKVtOSF1bQ0gyXWMxW2NIXVtjSF1uYyhbY0hdMSlOMltDSDJdW0NIMl1PW0NIMl1bQ0gyXTI=

> <s_epik_cmdline>
J2VwaWtfcHl0aG9uJywgJy1waCcsICc3LjAnLCAnLXRuJywgJzgnLCAnLW1hJywgJzIwMCcsICctbWV0YWxfYmluZGluZycsICctaW1hZScsICc8aW5maWxlLm1hZT4nLCAnLW9tYWUnLCAnPG91dGZpbGUubWFlPic=

> <r_lp_tautomer_probability>
1

> <r_epik_Ionization_Penalty>
0.00518786

> <r_epik_Ionization_Penalty_Charging>
0

> <r_epik_Ionization_Penalty_Neutral>
0.00518786

> <r_epik_State_Penalty>
0.00378052

> <r_epik_Charging_Adjusted_Penalty>
0.00378052

> <i_epik_Tot_Q>
0

> <i_epik_Tot_abs_Q>
0

> <r_epik_Metal_State_Penalty>
-0

> <b_epik_Metal_Only>
0

> <s_lp_Force_Field>
OPLS_2005

> <r_lp_Energy>
18.0004

> <b_lp_Chiralities_Consistent>
1

> <s_lp_Variant>
AV-unprocessed.smi:2012-2

> <Gold.Version>
5.8.1

> <Gold.Id.Protein>
6NUR|6NUR_protein|mol2

> <Gold.PLP.Fitness>
45.0753

> <Gold.PLP.PLP>
-37.8545

> <Gold.PLP.part.hbond>
-2.9765

> <Gold.PLP.part.metal>
0.0000

> <Gold.PLP.part.buried>
-2.9015

> <Gold.PLP.part.nonpolar>
-32.2926

> <Gold.PLP.part.repulsive>
0.0648

> <Gold.PLP.ligand.clash>
0.0000

> <Gold.PLP.ligand.torsion>
1.3139

> <Gold.PLP.Chemscore.Hbond>
3.0000

> <Gold.PLP.Chemscore.CHOScore>
0.0000

> <Gold.PLP.Chemscore.Metal>
0.0000

> <Gold.Chemscore.Hbonds>
donor molecule, donor type, donor heavy atom, donor atom, acceptor molecule, acceptor atom, score
      L1  H     4    28       P1  7948  0.88
      L1  H     8    30       P1  7948  1.00
      P1  H  7997  8008       L1    13  1.00

> <Gold.PLP.Chemscore.Internal.Correction>
0.8485

> <Gold.Rescore>
     Score         DG    S(hbond)    S(metal)    S(lipo)     H(rot)  DE(clash)    DE(int)     intcor
     18.48     -19.84       2.81        0.00      90.27       2.18       0.02       1.34       ----

> <Gold.Chemscore.Fitness>
18.4805

> <Gold.Chemscore.DG>
-19.8419

> <Gold.Chemscore.ZeroCoef>
-5.4800

> <Gold.Chemscore.Hbond>
2.8097

> <Gold.Chemscore.Metal>
0.0000

> <Gold.Chemscore.Lipo>
90.2701

> <Gold.Chemscore.Internal_Hbond>
0.0000

> <Gold.Chemscore.DEClash>
0.0197

> <Gold.Chemscore.DEInternal>
1.3417

> <Gold.Chemscore.Rot>
2.1813

> <Gold.Chemscore.Internal.Correction>
   9.000000E+99

> <Gold.Chemscore.Hbonds>
donor molecule, donor type, donor heavy atom, donor atom, acceptor molecule, acceptor atom, score
      L1  H     4    28       P1  7948  0.84
      L1  H     8    30       P1  7948  0.94
      P1  H  7997  8008       L1    13  0.91

> <Gold.Chemscore.Hbond.Weighted>
-9.3845

> <Gold.Chemscore.Metal.Weighted>
-0.0000

> <Gold.Chemscore.Lipo.Weighted>
-10.5616

> <Gold.Chemscore.Internal_Hbond.Weighted>
0.0000

> <Gold.Chemscore.DEClash.Weighted>
0.0197

> <Gold.Chemscore.DEInternal.Weighted>
1.3417

> <Gold.Chemscore.Rot.Weighted>
5.5842

> <Gold.Chemscore.Internal.Correction.Weighted>
   9.000000E+99

> <Gold.Protein.RotatedTorsions>
[ 6907 6896 6895 6894 ] final   11.80 input  -60.11 | X-H torsion
[ 7974 7965 7964 7962 ] final -149.45 input  175.53 | X-H torsion
[ 8008 7997 7996 7995 ] final  -51.57 input   59.86 | X-H torsion
[ 10167 10162 10161 10158 ] final -170.24 input  -65.29 | X-H torsion
[ 10718 10713 10712 10709 ] final   91.96 input   66.30 | X-H torsion
[ 10763 10752 10751 10750 ] final -144.38 input  -60.55 | X-H torsion
[ 11005 11000 10999 10996 ] final  141.34 input  -57.11 | X-H torsion

> <Gold.Protein.ActiveResidues>
 VAL166  LYS551  ARG553  GLY616  TRP617  ASP618  TYR619  PRO620  LYS621  CYS622 
 ASP623  PHE694  ASN695  SER759  ASP760  ASP761  ALA762  ILE779  LEU786  VAL792 
 PHE793  MET794  SER795  GLU796  ALA797  LYS798  CYS799  TRP800  GLU811  SER814 

> <Gold.Protein.RotatedAtoms>
  151.7601  135.0812  160.0344 H   0  0  0  0  0  0  0  0  0  0  0  0  # atno 6907 bound_to 6896
  152.3359  133.6006  159.5850 H   0  0  0  0  0  0  0  0  0  0  0  0  # atno 6908 bound_to 6896
  150.7450  133.9713  159.3588 H   0  0  0  0  0  0  0  0  0  0  0  0  # atno 6909 bound_to 6896
  144.7966  140.5062  143.5735 H   0  0  0  0  0  0  0  0  0  0  0  0  # atno 7974 bound_to 7965
  154.4086  140.1244  156.4851 H   0  0  0  0  0  0  0  0  0  0  0  0  # atno 8008 bound_to 7997
  155.7046  140.3494  155.4928 H   0  0  0  0  0  0  0  0  0  0  0  0  # atno 8009 bound_to 7997
  155.9355  140.1077  157.1088 H   0  0  0  0  0  0  0  0  0  0  0  0  # atno 8010 bound_to 7997
  139.5873  144.1290  152.1591 H   0  0  0  0  0  0  0  0  0  0  0  0  # atno 10167 bound_to 10162
  157.6959  131.0426  150.3809 H   0  0  0  0  0  0  0  0  0  0  0  0  # atno 10718 bound_to 10713
  154.8430  135.3442  154.6337 H   0  0  0  0  0  0  0  0  0  0  0  0  # atno 10763 bound_to 10752
  153.6947  135.6973  153.5084 H   0  0  0  0  0  0  0  0  0  0  0  0  # atno 10764 bound_to 10752
  153.2568  135.4335  155.0809 H   0  0  0  0  0  0  0  0  0  0  0  0  # atno 10765 bound_to 10752
  140.0394  134.9312  157.0814 H   0  0  0  0  0  0  0  0  0  0  0  0  # atno 11005 bound_to 11000
  145.5657  139.1481  143.3316 LP  0  0  0  0  0  0  0  0  0  0  0  0  # atno 17320 bound_to 7965
  146.2236  140.5792  142.9006 LP  0  0  0  0  0  0  0  0  0  0  0  0  # atno 17321 bound_to 7965
  140.0856  144.5664  150.7091 LP  0  0  0  0  0  0  0  0  0  0  0  0  # atno 17342 bound_to 10162
  140.7143  143.2531  151.4484 LP  0  0  0  0  0  0  0  0  0  0  0  0  # atno 17343 bound_to 10162
  156.4223  130.3955  149.6817 LP  0  0  0  0  0  0  0  0  0  0  0  0  # atno 17370 bound_to 10713
  156.4063  130.7700  151.2711 LP  0  0  0  0  0  0  0  0  0  0  0  0  # atno 17371 bound_to 10713
  140.4094  134.1997  155.7163 LP  0  0  0  0  0  0  0  0  0  0  0  0  # atno 17394 bound_to 11000
  141.1875  133.8280  157.1030 LP  0  0  0  0  0  0  0  0  0  0  0  0  # atno 17395 bound_to 11000

$$$$
