AV-unprocessed.smi:54|AV-procd|sdf|544|dock6
  -GOLD-   2262016433D 1   1.00000     0.00000
 Structure written by MMmdl.
 44 46  0  0  0  0  0  0  0  0  1 V2000
  148.7485  140.5653  154.4404 C   0  0  0  0  0  0  0  0  0  0  0  0
  147.4788  140.8171  153.6120 C   0  0  0  0  0  0  0  0  0  0  0  0
  146.8329  142.1643  153.9755 C   0  0  0  0  0  0  0  0  0  0  0  0
  146.4804  139.6683  153.7950 C   0  0  0  0  0  0  0  0  0  0  0  0
  145.9781  139.4059  154.8888 O   0  0  0  0  0  0  0  0  0  0  0  0
  146.1792  138.9088  152.5950 N   0  0  0  0  0  0  0  0  0  0  0  0
  145.3366  137.8559  152.4857 C   0  0  0  0  0  0  0  0  0  0  0  0
  145.7087  136.6812  151.9968 N   0  0  0  0  0  0  0  0  0  0  0  0
  144.7202  135.7367  151.9767 C   0  0  0  0  0  0  0  0  0  0  0  0
  143.4209  135.8951  152.4105 C   0  0  0  0  0  0  0  0  0  0  0  0
  142.7083  134.7151  152.2274 N   0  0  0  0  0  0  0  0  0  0  0  0
  143.5773  133.8982  151.6997 C   0  0  0  0  0  0  0  0  0  0  0  0
  144.8264  134.4435  151.5131 N   0  0  0  0  0  0  0  0  0  0  0  0
  146.0614  133.8232  150.9438 C   0  0  1  0  0  0  0  0  0  0  0  0
  147.1102  134.0428  151.8442 O   0  0  0  0  0  0  0  0  0  0  0  0
  147.6074  132.8008  152.3337 C   0  0  1  0  0  0  0  0  0  0  0  0
  148.1577  132.9409  153.7650 C   0  0  0  0  0  0  0  0  0  0  0  0
  148.6188  134.2475  154.0397 O   0  0  0  0  0  0  0  0  0  0  0  0
  146.4756  131.7951  152.1130 C   0  0  2  0  0  0  0  0  0  0  0  0
  146.9247  130.4568  152.0186 O   0  0  0  0  0  0  0  0  0  0  0  0
  145.8582  132.3043  150.8173 C   0  0  2  0  0  0  0  0  0  0  0  0
  146.4984  131.8059  149.6563 O   0  0  0  0  0  0  0  0  0  0  0  0
  143.0062  137.1573  152.9518 C   0  0  0  0  0  0  0  0  0  0  0  0
  141.9008  137.4753  153.3852 O   0  0  0  0  0  0  0  0  0  0  0  0
  144.0453  138.0973  152.9546 N   0  0  0  0  0  0  0  0  0  0  0  0
  146.2169  134.3435  149.9976 H   0  0  0  0  0  0  0  0  0  0  0  0
  148.4377  132.5413  151.6744 H   0  0  0  0  0  0  0  0  0  0  0  0
  145.7337  131.8684  152.9088 H   0  0  0  0  0  0  0  0  0  0  0  0
  144.7989  132.0522  150.7475 H   0  0  0  0  0  0  0  0  0  0  0  0
  149.2108  139.6129  154.1774 H   0  0  0  0  0  0  0  0  0  0  0  0
  148.5331  140.5475  155.5097 H   0  0  0  0  0  0  0  0  0  0  0  0
  149.4890  141.3460  154.2653 H   0  0  0  0  0  0  0  0  0  0  0  0
  147.7632  140.8556  152.5595 H   0  0  0  0  0  0  0  0  0  0  0  0
  145.9205  142.3351  153.4027 H   0  0  0  0  0  0  0  0  0  0  0  0
  147.5113  142.9908  153.7623 H   0  0  0  0  0  0  0  0  0  0  0  0
  146.5760  142.2139  155.0345 H   0  0  0  0  0  0  0  0  0  0  0  0
  146.6854  139.1750  151.7633 H   0  0  0  0  0  0  0  0  0  0  0  0
  143.3269  132.8812  151.4373 H   0  0  0  0  0  0  0  0  0  0  0  0
  147.3689  132.7130  154.4821 H   0  0  0  0  0  0  0  0  0  0  0  0
  148.9616  132.2254  153.9386 H   0  0  0  0  0  0  0  0  0  0  0  0
  148.6133  134.7436  153.2352 H   0  0  0  0  0  0  0  0  0  0  0  0
  147.5787  130.4115  151.3375 H   0  0  0  0  0  0  0  0  0  0  0  0
  147.3024  131.3829  149.9180 H   0  0  0  0  0  0  0  0  0  0  0  0
  143.8244  139.0115  153.3206 H   0  0  0  0  0  0  0  0  0  0  0  0
  1  2  1  0  0  0  0
  1 30  1  0  0  0  0
  1 31  1  0  0  0  0
  1 32  1  0  0  0  0
  2  3  1  0  0  0  0
  2  4  1  0  0  0  0
  2 33  1  0  0  0  0
  3 34  1  0  0  0  0
  3 35  1  0  0  0  0
  3 36  1  0  0  0  0
  4  5  2  0  0  0  0
  4  6  1  0  0  0  0
  6 37  1  0  0  0  0
  6  7  1  0  0  0  0
  7 25  1  0  0  0  0
  7  8  2  0  0  0  0
  8  9  1  0  0  0  0
  9 13  1  0  0  0  0
  9 10  2  0  0  0  0
 10 11  1  0  0  0  0
 10 23  1  0  0  0  0
 11 12  2  0  0  0  0
 12 13  1  0  0  0  0
 12 38  1  0  0  0  0
 13 14  1  0  0  0  0
 14 26  1  0  0  0  0
 14 21  1  0  0  0  0
 14 15  1  0  0  0  0
 15 16  1  0  0  0  0
 16 27  1  0  0  0  0
 16 17  1  0  0  0  0
 16 19  1  0  0  0  0
 17 18  1  0  0  0  0
 17 39  1  0  0  0  0
 17 40  1  0  0  0  0
 18 41  1  0  0  0  0
 19 28  1  0  0  0  0
 19 20  1  0  0  0  0
 19 21  1  0  0  0  0
 20 42  1  0  0  0  0
 21 29  1  0  0  0  0
 21 22  1  0  0  0  0
 22 43  1  0  0  0  0
 23 24  2  0  0  0  0
 23 25  1  0  0  0  0
 25 44  1  0  0  0  0
M  END
> <s_m_source_file>
AV-unprocessed.smi

> <i_m_source_file_index>
54

> <i_lp_mmshare_version>
43012

> <i_f3d_flags>
0

> <s_epik_input>
W0NIM11bQ0hdKFtDSDNdKUMoPU8pW05IXWMobjEpW25IXWMoPU8pYyhjMTIpbltjSF1uMltDQEBIXTNPW0NASF0oW0NIMl1bT0hdKVtDQEBIXShbT0hdKVtDQEhdM1tPSF0=

> <s_epik_cmdline>
J2VwaWtfcHl0aG9uJywgJy1waCcsICc3LjAnLCAnLXRuJywgJzgnLCAnLW1hJywgJzIwMCcsICctbWV0YWxfYmluZGluZycsICctaW1hZScsICc8aW5maWxlLm1hZT4nLCAnLW9tYWUnLCAnPG91dGZpbGUubWFlPic=

> <r_lp_tautomer_probability>
0.85571

> <r_epik_Ionization_Penalty>
0.0316551

> <r_epik_Ionization_Penalty_Charging>
0.0316043

> <r_epik_Ionization_Penalty_Neutral>
5.07097e-05

> <r_epik_State_Penalty>
3.15494e-07

> <r_epik_Charging_Adjusted_Penalty>
0.0316047

> <i_epik_Tot_Q>
0

> <i_epik_Tot_abs_Q>
0

> <r_epik_Metal_State_Penalty>
0.421206

> <b_epik_Metal_Only>
0

> <s_epik_Chemistry_Notes>
This compound contains an acetal/aminal-like group ( X-CH(R)-Y where X, Y are N, S, or O) that may be acid/base labile, releasing an aldehyde.

> <s_lp_Force_Field>
OPLS_2005

> <r_lp_Energy>
44.5551

> <b_lp_Chiralities_Consistent>
1

> <s_lp_Variant>
AV-unprocessed.smi:54-16

> <Gold.Version>
5.8.1

> <Gold.Id.Protein>
6NUR|6NUR_protein|mol2

> <Gold.PLP.Fitness>
46.7086

> <Gold.PLP.PLP>
-38.4232

> <Gold.PLP.part.hbond>
-4.7897

> <Gold.PLP.part.metal>
0.0000

> <Gold.PLP.part.buried>
-5.3235

> <Gold.PLP.part.nonpolar>
-31.0932

> <Gold.PLP.part.repulsive>
2.5509

> <Gold.PLP.ligand.clash>
0.0000

> <Gold.PLP.ligand.torsion>
1.1198

> <Gold.PLP.Chemscore.Hbond>
3.4960

> <Gold.PLP.Chemscore.CHOScore>
0.0000

> <Gold.PLP.Chemscore.Metal>
0.0000

> <Gold.Chemscore.Hbonds>
donor molecule, donor type, donor heavy atom, donor atom, acceptor molecule, acceptor atom, score
      L1  H    18    41       P1  7948  1.00
      L1  H    20    42       P1 10747  1.00
      L1  H    22    43       P1 10747  1.00
      L1  H    25    44       P1 10175  0.56

> <Gold.PLP.Chemscore.Internal.Correction>
0.0369

> <Gold.Rescore>
     Score         DG    S(hbond)    S(metal)    S(lipo)     H(rot)  DE(clash)    DE(int)     intcor
      8.28     -12.20       3.31        0.00      51.46       4.05       1.33       2.59       ----

> <Gold.Chemscore.Fitness>
8.2764

> <Gold.Chemscore.DG>
-12.1988

> <Gold.Chemscore.ZeroCoef>
-5.4800

> <Gold.Chemscore.Hbond>
3.3127

> <Gold.Chemscore.Metal>
0.0000

> <Gold.Chemscore.Lipo>
51.4570

> <Gold.Chemscore.Internal_Hbond>
0.0000

> <Gold.Chemscore.DEClash>
1.3293

> <Gold.Chemscore.DEInternal>
2.5931

> <Gold.Chemscore.Rot>
4.0493

> <Gold.Chemscore.Internal.Correction>
   9.000000E+99

> <Gold.Chemscore.Hbonds>
donor molecule, donor type, donor heavy atom, donor atom, acceptor molecule, acceptor atom, score
      L1  H    18    41       P1  7948  0.42
      L1  H    20    42       P1 10747  1.00
      L1  H    22    43       P1 10747  1.00
      L1  H    25    44       P1 10175  0.56

> <Gold.Chemscore.Hbond.Weighted>
-11.0645

> <Gold.Chemscore.Metal.Weighted>
-0.0000

> <Gold.Chemscore.Lipo.Weighted>
-6.0205

> <Gold.Chemscore.Internal_Hbond.Weighted>
0.0000

> <Gold.Chemscore.DEClash.Weighted>
1.3293

> <Gold.Chemscore.DEInternal.Weighted>
2.5931

> <Gold.Chemscore.Rot.Weighted>
10.3662

> <Gold.Chemscore.Internal.Correction.Weighted>
   9.000000E+99

> <Gold.Protein.RotatedTorsions>
[ 6907 6896 6895 6894 ] final  -19.37 input  -60.11 | X-H torsion
[ 7974 7965 7964 7962 ] final   20.21 input  175.53 | X-H torsion
[ 8008 7997 7996 7995 ] final  165.11 input   59.86 | X-H torsion
[ 10167 10162 10161 10158 ] final -144.28 input  -65.29 | X-H torsion
[ 10718 10713 10712 10709 ] final  -40.50 input   66.30 | X-H torsion
[ 10763 10752 10751 10750 ] final  -12.05 input  -60.55 | X-H torsion
[ 11005 11000 10999 10996 ] final    6.14 input  -57.11 | X-H torsion

> <Gold.Protein.ActiveResidues>
 VAL166  LYS551  ARG553  GLY616  TRP617  ASP618  TYR619  PRO620  LYS621  CYS622 
 ASP623  PHE694  ASN695  SER759  ASP760  ASP761  ALA762  ILE779  LEU786  VAL792 
 PHE793  MET794  SER795  GLU796  ALA797  LYS798  CYS799  TRP800  GLU811  SER814 

> <Gold.Protein.RotatedAtoms>
  151.2642  135.0664  159.9109 H   0  0  0  0  0  0  0  0  0  0  0  0  # atno 6907 bound_to 6896
  152.5361  134.0199  159.7987 H   0  0  0  0  0  0  0  0  0  0  0  0  # atno 6908 bound_to 6896
  151.0426  133.5643  159.2680 H   0  0  0  0  0  0  0  0  0  0  0  0  # atno 6909 bound_to 6896
  146.2120  139.8202  142.8681 H   0  0  0  0  0  0  0  0  0  0  0  0  # atno 7974 bound_to 7965
  156.1827  140.1679  156.8244 H   0  0  0  0  0  0  0  0  0  0  0  0  # atno 8008 bound_to 7997
  154.5378  140.0743  156.8491 H   0  0  0  0  0  0  0  0  0  0  0  0  # atno 8009 bound_to 7997
  155.3275  140.3377  155.4242 H   0  0  0  0  0  0  0  0  0  0  0  0  # atno 8010 bound_to 7997
  139.7914  143.7961  152.2650 H   0  0  0  0  0  0  0  0  0  0  0  0  # atno 10167 bound_to 10162
  156.2806  130.4217  149.8341 H   0  0  0  0  0  0  0  0  0  0  0  0  # atno 10718 bound_to 10713
  153.4927  135.7017  153.5875 H   0  0  0  0  0  0  0  0  0  0  0  0  # atno 10763 bound_to 10752
  153.4040  135.3865  155.2007 H   0  0  0  0  0  0  0  0  0  0  0  0  # atno 10764 bound_to 10752
  154.8716  135.3888  154.4389 H   0  0  0  0  0  0  0  0  0  0  0  0  # atno 10765 bound_to 10752
  140.5628  134.0176  155.7978 H   0  0  0  0  0  0  0  0  0  0  0  0  # atno 11005 bound_to 11000
  145.3104  141.0218  143.3557 LP  0  0  0  0  0  0  0  0  0  0  0  0  # atno 17320 bound_to 7965
  144.8940  139.4737  143.6664 LP  0  0  0  0  0  0  0  0  0  0  0  0  # atno 17321 bound_to 7965
  139.8054  144.7357  150.9769 LP  0  0  0  0  0  0  0  0  0  0  0  0  # atno 17342 bound_to 10162
  140.7820  143.4304  151.0704 LP  0  0  0  0  0  0  0  0  0  0  0  0  # atno 17343 bound_to 10162
  156.5789  130.8457  151.3377 LP  0  0  0  0  0  0  0  0  0  0  0  0  # atno 17370 bound_to 10713
  157.7313  130.9698  150.1874 LP  0  0  0  0  0  0  0  0  0  0  0  0  # atno 17371 bound_to 10713
  141.1104  133.9626  157.2921 LP  0  0  0  0  0  0  0  0  0  0  0  0  # atno 17394 bound_to 11000
  139.9399  135.0192  156.8676 LP  0  0  0  0  0  0  0  0  0  0  0  0  # atno 17395 bound_to 11000

$$$$
