AV-unprocessed.smi:1830|AV-procd|sdf|7438|dock2
  -GOLD-   22720 9123D 1   1.00000     0.00000
 Structure written by MMmdl.
 53 56  0  0  0  0  0  0  0  0  2 V2000
  150.1745  133.9626  155.5386 O   0  0  0  0  0  0  0  0  0  0  0  0
  149.8012  134.6197  154.5680 C   0  0  0  0  0  0  0  0  0  0  0  0
  150.0435  135.9304  154.4250 N   0  0  0  0  0  0  0  0  0  0  0  0
  150.7929  136.7649  155.3594 C   0  0  0  0  0  0  0  0  0  0  0  0
  151.2650  138.0635  154.6743 C   0  0  2  0  0  0  0  0  0  0  0  0
  152.0979  138.9751  155.6093 C   0  0  0  0  0  0  0  0  0  0  0  0
  151.1940  139.6475  156.5615 N   0  3  1  0  0  0  0  0  0  0  0  0
  151.7839  140.5665  157.5509 C   0  0  0  0  0  0  0  0  0  0  0  0
  150.6383  141.5241  157.9354 C   0  0  0  0  0  0  0  0  0  0  0  0
  149.4734  141.1824  156.9890 C   0  0  0  0  0  0  0  0  0  0  0  0
  150.1563  140.4101  155.8646 C   0  0  2  0  0  0  0  0  0  0  0  0
  149.3020  139.4484  155.0312 C   0  0  0  0  0  0  0  0  0  0  0  0
  150.1645  138.7876  154.1003 O   0  0  0  0  0  0  0  0  0  0  0  0
  149.0979  134.1446  153.5257 N   0  0  0  0  0  0  0  0  0  0  0  0
  148.5843  132.8325  153.3041 C   0  0  0  0  0  0  0  0  0  0  0  0
  149.1829  131.6597  153.8283 C   0  0  0  0  0  0  0  0  0  0  0  0
  148.6051  130.4083  153.5465 C   0  0  0  0  0  0  0  0  0  0  0  0
  147.4517  130.3691  152.7438 C   0  0  0  0  0  0  0  0  0  0  0  0
  146.8780  131.4726  152.2237 N   0  0  0  0  0  0  0  0  0  0  0  0
  147.4312  132.6811  152.4902 C   0  0  0  0  0  0  0  0  0  0  0  0
  146.8198  133.8146  151.9243 N   0  0  0  0  0  0  0  0  0  0  0  0
  146.2324  134.7489  152.8695 C   0  0  0  0  0  0  0  0  0  0  0  0
  145.3511  135.6707  152.0250 C   0  0  0  0  0  0  0  0  0  0  0  0
  145.0027  134.8449  150.7806 C   0  0  0  0  0  0  0  0  0  0  0  0
  145.7879  133.5385  150.9376 C   0  0  0  0  0  0  0  0  0  0  0  0
  149.6932  136.3852  153.5942 H   0  0  0  0  0  0  0  0  0  0  0  0
  150.1576  136.9775  156.2186 H   0  0  0  0  0  0  0  0  0  0  0  0
  151.6593  136.2328  155.7553 H   0  0  0  0  0  0  0  0  0  0  0  0
  151.9095  137.7722  153.8437 H   0  0  0  0  0  0  0  0  0  0  0  0
  152.8516  138.3998  156.1481 H   0  0  0  0  0  0  0  0  0  0  0  0
  152.6285  139.7264  155.0223 H   0  0  0  0  0  0  0  0  0  0  0  0
  152.1775  140.0191  158.4080 H   0  0  0  0  0  0  0  0  0  0  0  0
  152.6042  141.1266  157.0992 H   0  0  0  0  0  0  0  0  0  0  0  0
  150.3422  141.4024  158.9778 H   0  0  0  0  0  0  0  0  0  0  0  0
  150.9546  142.5596  157.8032 H   0  0  0  0  0  0  0  0  0  0  0  0
  148.7542  140.5430  157.5031 H   0  0  0  0  0  0  0  0  0  0  0  0
  148.9435  142.0662  156.6321 H   0  0  0  0  0  0  0  0  0  0  0  0
  150.6389  141.1283  155.1976 H   0  0  0  0  0  0  0  0  0  0  0  0
  148.7805  138.7270  155.6607 H   0  0  0  0  0  0  0  0  0  0  0  0
  148.5393  139.9979  154.4795 H   0  0  0  0  0  0  0  0  0  0  0  0
  148.8244  134.8267  152.8334 H   0  0  0  0  0  0  0  0  0  0  0  0
  150.0778  131.6866  154.4291 H   0  0  0  0  0  0  0  0  0  0  0  0
  149.0393  129.4991  153.9349 H   0  0  0  0  0  0  0  0  0  0  0  0
  146.9808  129.4264  152.5072 H   0  0  0  0  0  0  0  0  0  0  0  0
  145.6248  134.2202  153.6054 H   0  0  0  0  0  0  0  0  0  0  0  0
  147.0020  135.3064  153.4042 H   0  0  0  0  0  0  0  0  0  0  0  0
  144.4665  136.0005  152.5706 H   0  0  0  0  0  0  0  0  0  0  0  0
  145.9117  136.5591  151.7316 H   0  0  0  0  0  0  0  0  0  0  0  0
  143.9319  134.6543  150.7013 H   0  0  0  0  0  0  0  0  0  0  0  0
  145.3132  135.3750  149.8793 H   0  0  0  0  0  0  0  0  0  0  0  0
  146.2276  133.2195  149.9920 H   0  0  0  0  0  0  0  0  0  0  0  0
  145.1255  132.7440  151.2842 H   0  0  0  0  0  0  0  0  0  0  0  0
  150.7180  138.9284  157.0872 H   0  0  0  0  0  0  0  0  0  0  0  0
  1  2  2  0  0  0  0
  2  3  1  0  0  0  0
  2 14  1  0  0  0  0
  3  4  1  0  0  0  0
  3 26  1  0  0  0  0
  4  5  1  0  0  0  0
  4 27  1  0  0  0  0
  4 28  1  0  0  0  0
  5 13  1  0  0  0  0
  5  6  1  0  0  0  0
  5 29  1  0  0  0  0
  6  7  1  0  0  0  0
  6 30  1  0  0  0  0
  6 31  1  0  0  0  0
  7 11  1  0  0  0  0
  7  8  1  0  0  0  0
  7 53  1  0  0  0  0
  8  9  1  0  0  0  0
  8 32  1  0  0  0  0
  8 33  1  0  0  0  0
  9 10  1  0  0  0  0
  9 34  1  0  0  0  0
  9 35  1  0  0  0  0
 10 11  1  0  0  0  0
 10 36  1  0  0  0  0
 10 37  1  0  0  0  0
 11 12  1  0  0  0  0
 11 38  1  0  0  0  0
 12 13  1  0  0  0  0
 12 39  1  0  0  0  0
 12 40  1  0  0  0  0
 14 15  1  0  0  0  0
 14 41  1  0  0  0  0
 15 20  1  0  0  0  0
 15 16  2  0  0  0  0
 16 17  1  0  0  0  0
 16 42  1  0  0  0  0
 17 18  2  0  0  0  0
 17 43  1  0  0  0  0
 18 19  1  0  0  0  0
 18 44  1  0  0  0  0
 19 20  2  0  0  0  0
 20 21  1  0  0  0  0
 21 25  1  0  0  0  0
 21 22  1  0  0  0  0
 22 23  1  0  0  0  0
 22 45  1  0  0  0  0
 22 46  1  0  0  0  0
 23 24  1  0  0  0  0
 23 47  1  0  0  0  0
 23 48  1  0  0  0  0
 24 25  1  0  0  0  0
 24 49  1  0  0  0  0
 24 50  1  0  0  0  0
 25 51  1  0  0  0  0
 25 52  1  0  0  0  0
M  CHG  1   7   1
M  END
> <s_m_source_file>
AV-unprocessed.smi

> <i_m_source_file_index>
1830

> <i_lp_mmshare_version>
43012

> <i_f3d_flags>
0

> <s_epik_input>
W0NIMl0xW0NIMl1bQ0gyXVtDQEhdKE4xMilbQ0gyXU9bQ0BASF0oW0NIMl0yKVtDSDJdW05IXUMoPU8pW05IXWMzW2NIXVtjSF1bY0hdbmMzTjRbQ0gyXVtDSDJdW0NIMl1bQ0gyXTQ=

> <s_epik_cmdline>
J2VwaWtfcHl0aG9uJywgJy1waCcsICc3LjAnLCAnLXRuJywgJzgnLCAnLW1hJywgJzIwMCcsICctbWV0YWxfYmluZGluZycsICctaW1hZScsICc8aW5maWxlLm1hZT4nLCAnLW9tYWUnLCAnPG91dGZpbGUubWFlPic=

> <r_lp_tautomer_probability>
1

> <r_epik_Ionization_Penalty>
0.193547

> <r_epik_Ionization_Penalty_Charging>
0.10673

> <r_epik_Ionization_Penalty_Neutral>
0.0868166

> <r_epik_State_Penalty>
0.173595

> <r_epik_Charging_Adjusted_Penalty>
0.280326

> <i_epik_Tot_Q>
1

> <i_epik_Tot_abs_Q>
1

> <r_epik_Metal_State_Penalty>
0.164683

> <b_epik_Metal_Only>
0

> <s_lp_Force_Field>
OPLS_2005

> <r_lp_Energy>
70.9361

> <b_lp_Chiralities_Consistent>
1

> <s_lp_Variant>
AV-unprocessed.smi:1830-7

> <Gold.Version>
5.8.1

> <Gold.Id.Protein>
6NUR|6NUR_protein|mol2

> <Gold.PLP.Fitness>
46.1506

> <Gold.PLP.PLP>
-41.2361

> <Gold.PLP.part.hbond>
-2.5752

> <Gold.PLP.part.metal>
0.0000

> <Gold.PLP.part.buried>
-3.0051

> <Gold.PLP.part.nonpolar>
-35.5432

> <Gold.PLP.part.repulsive>
1.5090

> <Gold.PLP.ligand.clash>
0.0000

> <Gold.PLP.ligand.torsion>
0.4161

> <Gold.PLP.Chemscore.Hbond>
1.9000

> <Gold.PLP.Chemscore.CHOScore>
0.0000

> <Gold.PLP.Chemscore.Metal>
0.0000

> <Gold.Chemscore.Hbonds>
donor molecule, donor type, donor heavy atom, donor atom, acceptor molecule, acceptor atom, score
      L1  H     3    26       P1  7948  0.96
      L1  H    14    41       P1  7948  0.75

> <Gold.PLP.Chemscore.Internal.Correction>
0.0467

> <Gold.Rescore>
     Score         DG    S(hbond)    S(metal)    S(lipo)     H(rot)  DE(clash)    DE(int)     intcor
     14.37     -16.64       1.48        0.00      83.86       1.41       0.03       2.24       ----

> <Gold.Chemscore.Fitness>
14.3738

> <Gold.Chemscore.DG>
-16.6401

> <Gold.Chemscore.ZeroCoef>
-5.4800

> <Gold.Chemscore.Hbond>
1.4819

> <Gold.Chemscore.Metal>
0.0000

> <Gold.Chemscore.Lipo>
83.8609

> <Gold.Chemscore.Internal_Hbond>
0.0000

> <Gold.Chemscore.DEClash>
0.0260

> <Gold.Chemscore.DEInternal>
2.2404

> <Gold.Chemscore.Rot>
1.4067

> <Gold.Chemscore.Internal.Correction>
   9.000000E+99

> <Gold.Chemscore.Hbonds>
donor molecule, donor type, donor heavy atom, donor atom, acceptor molecule, acceptor atom, score
      L1  H     3    26       P1  7948  0.37
      L1  H    14    41       P1  7948  0.09

> <Gold.Chemscore.Hbond.Weighted>
-4.9495

> <Gold.Chemscore.Metal.Weighted>
-0.0000

> <Gold.Chemscore.Lipo.Weighted>
-9.8117

> <Gold.Chemscore.Internal_Hbond.Weighted>
0.0000

> <Gold.Chemscore.DEClash.Weighted>
0.0260

> <Gold.Chemscore.DEInternal.Weighted>
2.2404

> <Gold.Chemscore.Rot.Weighted>
3.6011

> <Gold.Chemscore.Internal.Correction.Weighted>
   9.000000E+99

> <Gold.Protein.RotatedTorsions>
[ 6907 6896 6895 6894 ] final  -74.49 input  -60.11 | X-H torsion
[ 7974 7965 7964 7962 ] final  103.32 input  175.53 | X-H torsion
[ 8008 7997 7996 7995 ] final -153.46 input   59.86 | X-H torsion
[ 10167 10162 10161 10158 ] final -153.34 input  -65.29 | X-H torsion
[ 10718 10713 10712 10709 ] final  -12.39 input   66.30 | X-H torsion
[ 10763 10752 10751 10750 ] final   21.31 input  -60.55 | X-H torsion
[ 11005 11000 10999 10996 ] final   44.16 input  -57.11 | X-H torsion

> <Gold.Protein.ActiveResidues>
 VAL166  LYS551  ARG553  GLY616  TRP617  ASP618  TYR619  PRO620  LYS621  CYS622 
 ASP623  PHE694  ASN695  SER759  ASP760  ASP761  ALA762  ILE779  LEU786  VAL792 
 PHE793  MET794  SER795  GLU796  ALA797  LYS798  CYS799  TRP800  GLU811  SER814 

> <Gold.Protein.RotatedAtoms>
  150.7091  134.4862  159.5493 H   0  0  0  0  0  0  0  0  0  0  0  0  # atno 6907 bound_to 6896
  152.2489  134.8150  160.0458 H   0  0  0  0  0  0  0  0  0  0  0  0  # atno 6908 bound_to 6896
  151.8905  133.3480  159.3833 H   0  0  0  0  0  0  0  0  0  0  0  0  # atno 6909 bound_to 6896
  145.3475  139.2447  143.3576 H   0  0  0  0  0  0  0  0  0  0  0  0  # atno 7974 bound_to 7965
  155.6712  140.0733  157.2519 H   0  0  0  0  0  0  0  0  0  0  0  0  # atno 8008 bound_to 7997
  154.4123  140.1698  156.1933 H   0  0  0  0  0  0  0  0  0  0  0  0  # atno 8009 bound_to 7997
  155.9615  140.3369  155.6497 H   0  0  0  0  0  0  0  0  0  0  0  0  # atno 8010 bound_to 7997
  139.7105  143.9117  152.2466 H   0  0  0  0  0  0  0  0  0  0  0  0  # atno 10167 bound_to 10162
  156.6453  130.4939  149.6081 H   0  0  0  0  0  0  0  0  0  0  0  0  # atno 10718 bound_to 10713
  153.1005  135.6671  153.9681 H   0  0  0  0  0  0  0  0  0  0  0  0  # atno 10763 bound_to 10752
  153.9253  135.3010  155.3448 H   0  0  0  0  0  0  0  0  0  0  0  0  # atno 10764 bound_to 10752
  154.7426  135.5072  153.9223 H   0  0  0  0  0  0  0  0  0  0  0  0  # atno 10765 bound_to 10752
  140.1577  134.4381  155.8338 H   0  0  0  0  0  0  0  0  0  0  0  0  # atno 11005 bound_to 11000
  146.2982  140.4084  142.8714 LP  0  0  0  0  0  0  0  0  0  0  0  0  # atno 17320 bound_to 7965
  144.8743  140.7315  143.6027 LP  0  0  0  0  0  0  0  0  0  0  0  0  # atno 17321 bound_to 7965
  139.8984  144.6925  150.8692 LP  0  0  0  0  0  0  0  0  0  0  0  0  # atno 17342 bound_to 10162
  140.7732  143.3532  151.1973 LP  0  0  0  0  0  0  0  0  0  0  0  0  # atno 17343 bound_to 10162
  156.2127  130.6689  151.1286 LP  0  0  0  0  0  0  0  0  0  0  0  0  # atno 17370 bound_to 10713
  157.7158  131.0710  150.6331 LP  0  0  0  0  0  0  0  0  0  0  0  0  # atno 17371 bound_to 10713
  141.2206  133.6900  156.7537 LP  0  0  0  0  0  0  0  0  0  0  0  0  # atno 17394 bound_to 11000
  140.2527  134.8528  157.3683 LP  0  0  0  0  0  0  0  0  0  0  0  0  # atno 17395 bound_to 11000

$$$$
