AV-unprocessed.smi:2600|AV-procd|sdf|10182|dock3
  -GOLD-   2272014193D 1   1.00000     0.00000
 Structure written by MMmdl.
 44 45  0  0  0  0  0  0  0  0  1 V2000
  145.7299  131.6635  151.4061 C   0  0  0  0  0  0  0  0  0  0  0  0
  147.0682  132.4194  151.4469 C   0  0  0  0  0  0  0  0  0  0  0  0
  147.7895  132.4241  152.8158 C   0  0  2  0  0  0  0  0  0  0  0  0
  146.8983  133.1789  153.8281 C   0  0  0  0  0  0  0  0  0  0  0  0
  149.2037  133.0562  152.7170 C   0  0  0  0  0  0  0  0  0  0  0  0
  149.9229  132.8641  153.9846 N   0  0  0  0  0  0  0  0  0  0  0  0
  150.3039  133.8230  154.8647 C   0  0  0  0  0  0  0  0  0  0  0  0
  150.8383  133.5692  155.9448 O   0  0  0  0  0  0  0  0  0  0  0  0
  150.0652  135.0832  154.4605 N   0  0  0  0  0  0  0  0  0  0  0  0
  150.3799  136.2969  155.2105 C   0  0  0  0  0  0  0  0  0  0  0  0
  151.3185  137.2399  154.4333 C   0  0  0  0  0  0  0  0  0  0  0  0
  151.5199  138.5885  155.0556 C   0  0  0  0  0  0  0  0  0  0  0  0
  150.7040  139.6848  155.0433 C   0  0  0  0  0  0  0  0  0  0  0  0
  151.4079  140.6514  155.8119 C   0  0  0  0  0  0  0  0  0  0  0  0
  152.5683  140.1998  156.2536 N   0  0  0  0  0  0  0  0  0  0  0  0
  152.6443  138.9358  155.7857 N   0  0  0  0  0  0  0  0  0  0  0  0
  153.8207  138.1468  156.0978 C   0  0  0  0  0  0  0  0  0  0  0  0
  150.0838  131.4337  154.2534 C   0  0  0  0  0  0  0  0  0  0  0  0
  148.6883  130.8046  154.3923 C   0  0  0  0  0  0  0  0  0  0  0  0
  147.9119  131.0529  153.2177 O   0  0  0  0  0  0  0  0  0  0  0  0
  145.2464  131.7976  150.4382 H   0  0  0  0  0  0  0  0  0  0  0  0
  145.0411  132.0265  152.1691 H   0  0  0  0  0  0  0  0  0  0  0  0
  145.8622  130.5919  151.5506 H   0  0  0  0  0  0  0  0  0  0  0  0
  147.7303  132.0027  150.6866 H   0  0  0  0  0  0  0  0  0  0  0  0
  146.8800  133.4501  151.1438 H   0  0  0  0  0  0  0  0  0  0  0  0
  146.7356  134.2096  153.5119 H   0  0  0  0  0  0  0  0  0  0  0  0
  147.3346  133.2180  154.8248 H   0  0  0  0  0  0  0  0  0  0  0  0
  145.9208  132.7054  153.9228 H   0  0  0  0  0  0  0  0  0  0  0  0
  149.7919  132.5737  151.9368 H   0  0  0  0  0  0  0  0  0  0  0  0
  149.1199  134.0979  152.4078 H   0  0  0  0  0  0  0  0  0  0  0  0
  149.6282  135.2093  153.5590 H   0  0  0  0  0  0  0  0  0  0  0  0
  149.4670  136.8228  155.4929 H   0  0  0  0  0  0  0  0  0  0  0  0
  150.8552  136.0035  156.1464 H   0  0  0  0  0  0  0  0  0  0  0  0
  152.2853  136.7548  154.2982 H   0  0  0  0  0  0  0  0  0  0  0  0
  150.9199  137.3755  153.4271 H   0  0  0  0  0  0  0  0  0  0  0  0
  149.7407  139.7786  154.5646 H   0  0  0  0  0  0  0  0  0  0  0  0
  151.1126  141.6606  156.0588 H   0  0  0  0  0  0  0  0  0  0  0  0
  154.0046  137.4128  155.3137 H   0  0  0  0  0  0  0  0  0  0  0  0
  153.6720  137.6280  157.0449 H   0  0  0  0  0  0  0  0  0  0  0  0
  154.6963  138.7919  156.1803 H   0  0  0  0  0  0  0  0  0  0  0  0
  150.6252  130.9668  153.4295 H   0  0  0  0  0  0  0  0  0  0  0  0
  150.6709  131.2322  155.1503 H   0  0  0  0  0  0  0  0  0  0  0  0
  148.7776  129.7263  154.5249 H   0  0  0  0  0  0  0  0  0  0  0  0
  148.1786  131.1812  155.2793 H   0  0  0  0  0  0  0  0  0  0  0  0
  1  2  1  0  0  0  0
  1 21  1  0  0  0  0
  1 22  1  0  0  0  0
  1 23  1  0  0  0  0
  2  3  1  0  0  0  0
  2 24  1  0  0  0  0
  2 25  1  0  0  0  0
  3 20  1  0  0  0  0
  3  4  1  0  0  0  0
  3  5  1  0  0  0  0
  4 26  1  0  0  0  0
  4 27  1  0  0  0  0
  4 28  1  0  0  0  0
  5  6  1  0  0  0  0
  5 29  1  0  0  0  0
  5 30  1  0  0  0  0
  6  7  1  0  0  0  0
  6 18  1  0  0  0  0
  7  8  2  0  0  0  0
  7  9  1  0  0  0  0
  9 10  1  0  0  0  0
  9 31  1  0  0  0  0
 10 11  1  0  0  0  0
 10 32  1  0  0  0  0
 10 33  1  0  0  0  0
 11 12  1  0  0  0  0
 11 34  1  0  0  0  0
 11 35  1  0  0  0  0
 12 16  1  0  0  0  0
 12 13  2  0  0  0  0
 13 14  1  0  0  0  0
 13 36  1  0  0  0  0
 14 15  2  0  0  0  0
 14 37  1  0  0  0  0
 15 16  1  0  0  0  0
 16 17  1  0  0  0  0
 17 38  1  0  0  0  0
 17 39  1  0  0  0  0
 17 40  1  0  0  0  0
 18 19  1  0  0  0  0
 18 41  1  0  0  0  0
 18 42  1  0  0  0  0
 19 20  1  0  0  0  0
 19 43  1  0  0  0  0
 19 44  1  0  0  0  0
M  END
> <s_m_source_file>
AV-unprocessed.smi

> <i_m_source_file_index>
2600

> <i_lp_mmshare_version>
43012

> <i_f3d_flags>
0

> <s_epik_input>
W0NIM11bQ0gyXVtDQEBdMShbQ0gzXSlbQ0gyXU4oW0NIMl1bQ0gyXU8xKUMoPU8pW05IXVtDSDJdW0NIMl1jMltjSF1bY0hdbm4yW0NIM10=

> <s_epik_cmdline>
J2VwaWtfcHl0aG9uJywgJy1waCcsICc3LjAnLCAnLXRuJywgJzgnLCAnLW1hJywgJzIwMCcsICctbWV0YWxfYmluZGluZycsICctaW1hZScsICc8aW5maWxlLm1hZT4nLCAnLW9tYWUnLCAnPG91dGZpbGUubWFlPic=

> <r_lp_tautomer_probability>
1

> <r_epik_Ionization_Penalty>
0.00252014

> <r_epik_Ionization_Penalty_Charging>
0

> <r_epik_Ionization_Penalty_Neutral>
0.00252014

> <r_epik_State_Penalty>
0.00172506

> <r_epik_Charging_Adjusted_Penalty>
0.00172506

> <i_epik_Tot_Q>
0

> <i_epik_Tot_abs_Q>
0

> <r_epik_Metal_State_Penalty>
-0

> <b_epik_Metal_Only>
0

> <s_lp_Force_Field>
OPLS_2005

> <r_lp_Energy>
29.2507

> <b_lp_Chiralities_Consistent>
1

> <s_lp_Variant>
AV-unprocessed.smi:2600-2

> <Gold.Version>
5.8.1

> <Gold.Id.Protein>
6NUR|6NUR_protein|mol2

> <Gold.PLP.Fitness>
40.3513

> <Gold.PLP.PLP>
-34.9414

> <Gold.PLP.part.hbond>
-2.0000

> <Gold.PLP.part.metal>
0.0000

> <Gold.PLP.part.buried>
0.0532

> <Gold.PLP.part.nonpolar>
-32.2053

> <Gold.PLP.part.repulsive>
0.1575

> <Gold.PLP.ligand.clash>
0.0000

> <Gold.PLP.ligand.torsion>
0.3105

> <Gold.PLP.Chemscore.Hbond>
2.0000

> <Gold.PLP.Chemscore.CHOScore>
0.0000

> <Gold.PLP.Chemscore.Metal>
0.0000

> <Gold.Chemscore.Hbonds>
donor molecule, donor type, donor heavy atom, donor atom, acceptor molecule, acceptor atom, score
      L1  H     9    31       P1  7948  0.53
      P1  H  7997  8008       L1    15  0.38

> <Gold.PLP.Chemscore.Internal.Correction>
0.0308

> <Gold.Rescore>
     Score         DG    S(hbond)    S(metal)    S(lipo)     H(rot)  DE(clash)    DE(int)     intcor
     13.71     -15.98       1.52        0.00      78.52       1.47       1.71       0.55       ----

> <Gold.Chemscore.Fitness>
13.7116

> <Gold.Chemscore.DG>
-15.9775

> <Gold.Chemscore.ZeroCoef>
-5.4800

> <Gold.Chemscore.Hbond>
1.5219

> <Gold.Chemscore.Metal>
0.0000

> <Gold.Chemscore.Lipo>
78.5157

> <Gold.Chemscore.Internal_Hbond>
0.0000

> <Gold.Chemscore.DEClash>
1.7140

> <Gold.Chemscore.DEInternal>
0.5519

> <Gold.Chemscore.Rot>
1.4735

> <Gold.Chemscore.Internal.Correction>
   9.000000E+99

> <Gold.Chemscore.Hbonds>
donor molecule, donor type, donor heavy atom, donor atom, acceptor molecule, acceptor atom, score
      L1  H     9    31       P1  7948  0.03
      P1  H  7997  8008       L1    15  0.01

> <Gold.Chemscore.Hbond.Weighted>
-5.0833

> <Gold.Chemscore.Metal.Weighted>
-0.0000

> <Gold.Chemscore.Lipo.Weighted>
-9.1863

> <Gold.Chemscore.Internal_Hbond.Weighted>
0.0000

> <Gold.Chemscore.DEClash.Weighted>
1.7140

> <Gold.Chemscore.DEInternal.Weighted>
0.5519

> <Gold.Chemscore.Rot.Weighted>
3.7721

> <Gold.Chemscore.Internal.Correction.Weighted>
   9.000000E+99

> <Gold.Protein.RotatedTorsions>
[ 6907 6896 6895 6894 ] final   25.31 input  -60.11 | X-H torsion
[ 7974 7965 7964 7962 ] final    2.77 input  175.53 | X-H torsion
[ 8008 7997 7996 7995 ] final  -56.26 input   59.86 | X-H torsion
[ 10167 10162 10161 10158 ] final  179.96 input  -65.29 | X-H torsion
[ 10718 10713 10712 10709 ] final   71.26 input   66.30 | X-H torsion
[ 10763 10752 10751 10750 ] final   44.95 input  -60.55 | X-H torsion
[ 11005 11000 10999 10996 ] final  165.38 input  -57.11 | X-H torsion

> <Gold.Protein.ActiveResidues>
 VAL166  LYS551  ARG553  GLY616  TRP617  ASP618  TYR619  PRO620  LYS621  CYS622 
 ASP623  PHE694  ASN695  SER759  ASP760  ASP761  ALA762  ILE779  LEU786  VAL792 
 PHE793  MET794  SER795  GLU796  ALA797  LYS798  CYS799  TRP800  GLU811  SER814 

> <Gold.Protein.RotatedAtoms>
  151.9706  135.0078  160.0552 H   0  0  0  0  0  0  0  0  0  0  0  0  # atno 6907 bound_to 6896
  152.1786  133.4687  159.4955 H   0  0  0  0  0  0  0  0  0  0  0  0  # atno 6908 bound_to 6896
  150.6913  134.1779  159.4280 H   0  0  0  0  0  0  0  0  0  0  0  0  # atno 6909 bound_to 6896
  146.2444  140.0786  142.8358 H   0  0  0  0  0  0  0  0  0  0  0  0  # atno 7974 bound_to 7965
  154.4224  140.1134  156.5608 H   0  0  0  0  0  0  0  0  0  0  0  0  # atno 8008 bound_to 7997
  155.6313  140.3495  155.4665 H   0  0  0  0  0  0  0  0  0  0  0  0  # atno 8009 bound_to 7997
  155.9946  140.1186  157.0595 H   0  0  0  0  0  0  0  0  0  0  0  0  # atno 8010 bound_to 7997
  139.5359  144.2498  152.0794 H   0  0  0  0  0  0  0  0  0  0  0  0  # atno 10167 bound_to 10162
  157.6442  130.9519  150.0765 H   0  0  0  0  0  0  0  0  0  0  0  0  # atno 10718 bound_to 10713
  152.9832  135.6055  154.3357 H   0  0  0  0  0  0  0  0  0  0  0  0  # atno 10763 bound_to 10752
  154.3057  135.2772  155.2592 H   0  0  0  0  0  0  0  0  0  0  0  0  # atno 10764 bound_to 10752
  154.4824  135.5914  153.6455 H   0  0  0  0  0  0  0  0  0  0  0  0  # atno 10765 bound_to 10752
  140.2555  134.7943  157.3542 H   0  0  0  0  0  0  0  0  0  0  0  0  # atno 11005 bound_to 11000
  145.0752  140.9183  143.4858 LP  0  0  0  0  0  0  0  0  0  0  0  0  # atno 17320 bound_to 7965
  145.0928  139.2878  143.5726 LP  0  0  0  0  0  0  0  0  0  0  0  0  # atno 17321 bound_to 7965
  140.1968  144.4697  150.6451 LP  0  0  0  0  0  0  0  0  0  0  0  0  # atno 17342 bound_to 10162
  140.6566  143.2239  151.5955 LP  0  0  0  0  0  0  0  0  0  0  0  0  # atno 17343 bound_to 10162
  156.1754  130.3648  149.9108 LP  0  0  0  0  0  0  0  0  0  0  0  0  # atno 17370 bound_to 10713
  156.7074  130.8956  151.3606 LP  0  0  0  0  0  0  0  0  0  0  0  0  # atno 17371 bound_to 10713
  140.1516  134.4843  155.7957 LP  0  0  0  0  0  0  0  0  0  0  0  0  # atno 17394 bound_to 11000
  141.2196  133.6864  156.7388 LP  0  0  0  0  0  0  0  0  0  0  0  0  # atno 17395 bound_to 11000

$$$$
