AV-unprocessed.smi:196|AV-procd|sdf|1541|dock6
  -GOLD-   2262019403D 1   1.00000     0.00000
 Structure written by MMmdl.
 47 50  0  0  0  0  0  0  0  0  1 V2000
  144.5606  134.0507  162.3746 C   0  0  0  0  0  0  0  0  0  0  0  0
  145.3613  135.3070  161.9942 C   0  0  1  0  0  0  0  0  0  0  0  0
  144.8755  136.4426  162.6953 O   0  0  0  0  0  0  0  0  0  0  0  0
  145.8738  137.4427  162.6042 C   0  0  0  0  0  0  0  0  0  0  0  0
  147.1546  136.6649  162.8811 C   0  0  0  0  0  0  0  0  0  0  0  0
  146.8881  135.2843  162.2730 C   0  0  1  0  0  0  0  0  0  0  0  0
  147.2327  134.3043  163.2388 O   0  0  0  0  0  0  0  0  0  0  0  0
  147.7385  135.0334  161.0031 C   0  0  0  0  0  0  0  0  0  0  0  0
  147.8859  136.2108  160.1606 N   0  0  0  0  0  0  0  0  0  0  0  0
  146.8736  136.9536  159.5971 C   0  0  0  0  0  0  0  0  0  0  0  0
  147.2633  137.9717  158.8806 N   0  0  0  0  0  0  0  0  0  0  0  0
  148.6514  137.9285  158.9487 C   0  0  0  0  0  0  0  0  0  0  0  0
  149.7005  138.7243  158.4029 C   0  0  0  0  0  0  0  0  0  0  0  0
  149.4824  139.8210  157.6278 N   0  0  0  0  0  0  0  0  0  0  0  0
  148.2981  140.6385  157.8680 C   0  0  0  0  0  0  0  0  0  0  0  0
  148.7163  142.0750  157.5544 C   0  0  1  0  0  0  0  0  0  0  0  0
  149.1607  142.6612  158.6675 F   0  0  0  0  0  0  0  0  0  0  0  0
  149.8741  141.8986  156.5769 C   0  0  0  0  0  0  0  0  0  0  0  0
  150.5761  140.6221  157.0676 C   0  0  2  0  0  0  0  0  0  0  0  0
  151.3091  139.9127  155.9174 C   0  0  0  0  0  0  0  0  0  0  0  0
  150.5744  139.5723  154.8562 N   0  0  0  0  0  0  0  0  0  0  0  0
  152.5117  139.6640  155.9876 O   0  0  0  0  0  0  0  0  0  0  0  0
  150.9762  138.3432  158.6790 N   0  0  0  0  0  0  0  0  0  0  0  0
  151.2157  137.2717  159.4395 C   0  0  0  0  0  0  0  0  0  0  0  0
  150.3410  136.4473  160.0169 N   0  0  0  0  0  0  0  0  0  0  0  0
  149.0579  136.8166  159.7410 C   0  0  0  0  0  0  0  0  0  0  0  0
  147.9032  142.6862  157.1619 H   0  0  0  0  0  0  0  0  0  0  0  0
  151.2777  140.8809  157.8632 H   0  0  0  0  0  0  0  0  0  0  0  0
  144.9369  133.1709  161.8522 H   0  0  0  0  0  0  0  0  0  0  0  0
  143.5103  134.1683  162.1081 H   0  0  0  0  0  0  0  0  0  0  0  0
  144.6067  133.8541  163.4459 H   0  0  0  0  0  0  0  0  0  0  0  0
  145.1908  135.5162  160.9375 H   0  0  0  0  0  0  0  0  0  0  0  0
  145.8817  137.8673  161.5989 H   0  0  0  0  0  0  0  0  0  0  0  0
  145.7060  138.2483  163.3193 H   0  0  0  0  0  0  0  0  0  0  0  0
  148.0344  137.1604  162.4688 H   0  0  0  0  0  0  0  0  0  0  0  0
  147.2965  136.5978  163.9613 H   0  0  0  0  0  0  0  0  0  0  0  0
  146.4630  134.1014  163.7480 H   0  0  0  0  0  0  0  0  0  0  0  0
  148.7341  134.6876  161.2838 H   0  0  0  0  0  0  0  0  0  0  0  0
  147.3001  134.2358  160.4017 H   0  0  0  0  0  0  0  0  0  0  0  0
  145.8288  136.7188  159.7390 H   0  0  0  0  0  0  0  0  0  0  0  0
  147.5121  140.3142  157.1851 H   0  0  0  0  0  0  0  0  0  0  0  0
  147.9181  140.5512  158.8874 H   0  0  0  0  0  0  0  0  0  0  0  0
  149.4742  141.7618  155.5704 H   0  0  0  0  0  0  0  0  0  0  0  0
  150.5389  142.7627  156.5545 H   0  0  0  0  0  0  0  0  0  0  0  0
  151.0046  139.0983  154.0755 H   0  0  0  0  0  0  0  0  0  0  0  0
  149.5875  139.7854  154.8423 H   0  0  0  0  0  0  0  0  0  0  0  0
  152.2572  137.0430  159.6103 H   0  0  0  0  0  0  0  0  0  0  0  0
  1  2  1  0  0  0  0
  1 29  1  0  0  0  0
  1 30  1  0  0  0  0
  1 31  1  0  0  0  0
  2  6  1  0  0  0  0
  2  3  1  0  0  0  0
  2 32  1  0  0  0  0
  3  4  1  0  0  0  0
  4  5  1  0  0  0  0
  4 33  1  0  0  0  0
  4 34  1  0  0  0  0
  5  6  1  0  0  0  0
  5 35  1  0  0  0  0
  5 36  1  0  0  0  0
  6  7  1  0  0  0  0
  6  8  1  0  0  0  0
  7 37  1  0  0  0  0
  8  9  1  0  0  0  0
  8 38  1  0  0  0  0
  8 39  1  0  0  0  0
  9 26  1  0  0  0  0
  9 10  1  0  0  0  0
 10 11  2  0  0  0  0
 10 40  1  0  0  0  0
 11 12  1  0  0  0  0
 12 26  2  0  0  0  0
 12 13  1  0  0  0  0
 13 14  1  0  0  0  0
 13 23  2  0  0  0  0
 14 19  1  0  0  0  0
 14 15  1  0  0  0  0
 15 16  1  0  0  0  0
 15 41  1  0  0  0  0
 15 42  1  0  0  0  0
 16 27  1  0  0  0  0
 16 17  1  0  0  0  0
 16 18  1  0  0  0  0
 18 19  1  0  0  0  0
 18 43  1  0  0  0  0
 18 44  1  0  0  0  0
 19 28  1  0  0  0  0
 19 20  1  0  0  0  0
 20 21  1  0  0  0  0
 20 22  2  0  0  0  0
 21 45  1  0  0  0  0
 21 46  1  0  0  0  0
 23 24  1  0  0  0  0
 24 25  2  0  0  0  0
 24 47  1  0  0  0  0
 25 26  1  0  0  0  0
M  END
> <s_m_source_file>
AV-unprocessed.smi

> <i_m_source_file_index>
196

> <i_lp_mmshare_version>
43012

> <i_f3d_flags>
0

> <s_epik_input>
W0NIMl0xW0NIMl1PW0NAQEhdKFtDSDNdKVtDQEBdMShbT0hdKVtDSDJdbihbY0hdbjIpYyhjMjMpbltjSF1uYzNONFtDSDJdW0NASF0oRilbQ0gyXVtDQEhdNEMoPU8pW05IMl0=

> <s_epik_cmdline>
J2VwaWtfcHl0aG9uJywgJy1waCcsICc3LjAnLCAnLXRuJywgJzgnLCAnLW1hJywgJzIwMCcsICctbWV0YWxfYmluZGluZycsICctaW1hZScsICc8aW5maWxlLm1hZT4nLCAnLW9tYWUnLCAnPG91dGZpbGUubWFlPic=

> <r_lp_tautomer_probability>
1

> <r_epik_Ionization_Penalty>
0.000857933

> <r_epik_Ionization_Penalty_Charging>
0

> <r_epik_Ionization_Penalty_Neutral>
0.000857933

> <r_epik_State_Penalty>
0.000462053

> <r_epik_Charging_Adjusted_Penalty>
0.000462053

> <i_epik_Tot_Q>
0

> <i_epik_Tot_abs_Q>
0

> <r_epik_Metal_State_Penalty>
-0

> <b_epik_Metal_Only>
0

> <s_lp_Force_Field>
OPLS_2005

> <r_lp_Energy>
42.8122

> <b_lp_Chiralities_Consistent>
1

> <s_lp_Variant>
AV-unprocessed.smi:196-14

> <Gold.Version>
5.8.1

> <Gold.Id.Protein>
6NUR|6NUR_protein|mol2

> <Gold.PLP.Fitness>
41.4423

> <Gold.PLP.PLP>
-36.2513

> <Gold.PLP.part.hbond>
-3.9835

> <Gold.PLP.part.metal>
0.0000

> <Gold.PLP.part.buried>
-3.1165

> <Gold.PLP.part.nonpolar>
-29.8503

> <Gold.PLP.part.repulsive>
0.1160

> <Gold.PLP.ligand.clash>
0.0000

> <Gold.PLP.ligand.torsion>
0.5404

> <Gold.PLP.Chemscore.Hbond>
2.0000

> <Gold.PLP.Chemscore.CHOScore>
0.0000

> <Gold.PLP.Chemscore.Metal>
0.0000

> <Gold.Chemscore.Hbonds>
donor molecule, donor type, donor heavy atom, donor atom, acceptor molecule, acceptor atom, score
      P1  H  6896  6909       L1    25  1.00
      P1  H  6934  6947       L1    11  0.01
      P1  H  7997  8008       L1    22  1.00

> <Gold.PLP.Chemscore.Internal.Correction>
0.2718

> <Gold.Rescore>
     Score         DG    S(hbond)    S(metal)    S(lipo)     H(rot)  DE(clash)    DE(int)     intcor
     10.01     -11.89       1.67        0.00      64.02       2.60       0.72       1.15       ----

> <Gold.Chemscore.Fitness>
10.0087

> <Gold.Chemscore.DG>
-11.8856

> <Gold.Chemscore.ZeroCoef>
-5.4800

> <Gold.Chemscore.Hbond>
1.6656

> <Gold.Chemscore.Metal>
0.0000

> <Gold.Chemscore.Lipo>
64.0194

> <Gold.Chemscore.Internal_Hbond>
0.0000

> <Gold.Chemscore.DEClash>
0.7245

> <Gold.Chemscore.DEInternal>
1.1524

> <Gold.Chemscore.Rot>
2.5968

> <Gold.Chemscore.Internal.Correction>
   9.000000E+99

> <Gold.Chemscore.Hbonds>
donor molecule, donor type, donor heavy atom, donor atom, acceptor molecule, acceptor atom, score
      P1  H  6896  6909       L1    25  0.25
      P1  H  7997  8008       L1    22  1.00

> <Gold.Chemscore.Hbond.Weighted>
-5.5631

> <Gold.Chemscore.Metal.Weighted>
-0.0000

> <Gold.Chemscore.Lipo.Weighted>
-7.4903

> <Gold.Chemscore.Internal_Hbond.Weighted>
0.0000

> <Gold.Chemscore.DEClash.Weighted>
0.7245

> <Gold.Chemscore.DEInternal.Weighted>
1.1524

> <Gold.Chemscore.Rot.Weighted>
6.6477

> <Gold.Chemscore.Internal.Correction.Weighted>
   9.000000E+99

> <Gold.Protein.RotatedTorsions>
[ 6907 6896 6895 6894 ] final   91.68 input  -60.11 | X-H torsion
[ 7974 7965 7964 7962 ] final  -72.32 input  175.53 | X-H torsion
[ 8008 7997 7996 7995 ] final  -44.54 input   59.86 | X-H torsion
[ 10167 10162 10161 10158 ] final  -57.87 input  -65.29 | X-H torsion
[ 10718 10713 10712 10709 ] final  -80.58 input   66.30 | X-H torsion
[ 10763 10752 10751 10750 ] final -162.57 input  -60.55 | X-H torsion
[ 11005 11000 10999 10996 ] final   57.57 input  -57.11 | X-H torsion

> <Gold.Protein.ActiveResidues>
 VAL166  LYS551  ARG553  GLY616  TRP617  ASP618  TYR619  PRO620  LYS621  CYS622 
 ASP623  PHE694  ASN695  SER759  ASP760  ASP761  ALA762  ILE779  LEU786  VAL792 
 PHE793  MET794  SER795  GLU796  ALA797  LYS798  CYS799  TRP800  GLU811  SER814 

> <Gold.Protein.RotatedAtoms>
  152.5451  134.1619  159.8560 H   0  0  0  0  0  0  0  0  0  0  0  0  # atno 6907 bound_to 6896
  151.1636  133.4822  159.2601 H   0  0  0  0  0  0  0  0  0  0  0  0  # atno 6908 bound_to 6896
  151.1347  135.0160  159.8653 H   0  0  0  0  0  0  0  0  0  0  0  0  # atno 6909 bound_to 6896
  145.6667  140.9235  143.0905 H   0  0  0  0  0  0  0  0  0  0  0  0  # atno 7974 bound_to 7965
  154.3998  140.1419  156.3700 H   0  0  0  0  0  0  0  0  0  0  0  0  # atno 8008 bound_to 7997
  155.8101  140.3473  155.5432 H   0  0  0  0  0  0  0  0  0  0  0  0  # atno 8009 bound_to 7997
  155.8395  140.0924  157.1734 H   0  0  0  0  0  0  0  0  0  0  0  0  # atno 8010 bound_to 7997
  140.6232  143.2427  151.5429 H   0  0  0  0  0  0  0  0  0  0  0  0  # atno 10167 bound_to 10162
  156.0067  130.4578  150.3822 H   0  0  0  0  0  0  0  0  0  0  0  0  # atno 10718 bound_to 10713
  154.7202  135.3024  154.9060 H   0  0  0  0  0  0  0  0  0  0  0  0  # atno 10763 bound_to 10752
  153.9934  135.6716  153.4759 H   0  0  0  0  0  0  0  0  0  0  0  0  # atno 10764 bound_to 10752
  153.0827  135.5000  154.8452 H   0  0  0  0  0  0  0  0  0  0  0  0  # atno 10765 bound_to 10752
  140.0443  134.5829  155.9343 H   0  0  0  0  0  0  0  0  0  0  0  0  # atno 11005 bound_to 11000
  144.7070  139.8519  143.7426 LP  0  0  0  0  0  0  0  0  0  0  0  0  # atno 17320 bound_to 7965
  146.1080  139.4081  143.0305 LP  0  0  0  0  0  0  0  0  0  0  0  0  # atno 17321 bound_to 7965
  139.5456  144.2529  152.1436 LP  0  0  0  0  0  0  0  0  0  0  0  0  # atno 17342 bound_to 10162
  140.1754  144.4896  150.6557 LP  0  0  0  0  0  0  0  0  0  0  0  0  # atno 17343 bound_to 10162
  157.1901  131.0413  151.2704 LP  0  0  0  0  0  0  0  0  0  0  0  0  # atno 17370 bound_to 10713
  157.4069  130.7364  149.6809 LP  0  0  0  0  0  0  0  0  0  0  0  0  # atno 17371 bound_to 10713
  141.1899  133.6566  156.5387 LP  0  0  0  0  0  0  0  0  0  0  0  0  # atno 17394 bound_to 11000
  140.4019  134.7349  157.4785 LP  0  0  0  0  0  0  0  0  0  0  0  0  # atno 17395 bound_to 11000

$$$$
