AV-unprocessed.smi:1669|AV-procd|sdf|6683|dock4
  -GOLD-   22720 7403D 1   1.00000     0.00000
 Structure written by MMmdl.
 48 50  0  0  0  0  0  0  0  0  2 V2000
  151.6651  139.6319  156.5736 C   0  0  0  0  0  0  0  0  0  0  0  0
  150.8558  139.0619  157.6760 N   0  3  1  0  0  0  0  0  0  0  0  0
  150.0676  140.0922  158.4014 C   0  0  0  0  0  0  0  0  0  0  0  0
  150.8954  141.3264  158.7091 C   0  0  0  0  0  0  0  0  0  0  0  0
  151.9652  141.2451  159.6252 C   0  0  0  0  0  0  0  0  0  0  0  0
  152.7394  142.3863  159.9115 C   0  0  0  0  0  0  0  0  0  0  0  0
  152.4455  143.6128  159.2850 C   0  0  0  0  0  0  0  0  0  0  0  0
  151.3760  143.6985  158.3728 C   0  0  0  0  0  0  0  0  0  0  0  0
  150.6013  142.5579  158.0857 C   0  0  0  0  0  0  0  0  0  0  0  0
  150.0260  137.9165  157.2254 C   0  0  0  0  0  0  0  0  0  0  0  0
  149.3373  137.2036  158.4102 C   0  0  2  0  0  0  0  0  0  0  0  0
  150.3211  136.8390  159.3566 O   0  0  0  0  0  0  0  0  0  0  0  0
  148.5652  135.9311  158.0087 C   0  0  0  0  0  0  0  0  0  0  0  0
  148.2997  135.0609  159.1469 N   0  0  0  0  0  0  0  0  0  0  0  0
  148.5335  133.7288  159.2702 C   0  0  0  0  0  0  0  0  0  0  0  0
  149.1495  132.9149  158.1739 C   0  0  0  0  0  0  0  0  0  0  0  0
  150.5037  133.2423  157.9479 O   0  0  0  0  0  0  0  0  0  0  0  0
  148.1724  133.1824  160.4314 N   0  0  0  0  0  0  0  0  0  0  0  0
  147.6697  134.2604  161.1330 C   0  0  0  0  0  0  0  0  0  0  0  0
  147.1242  134.3359  162.4344 C   0  0  0  0  0  0  0  0  0  0  0  0
  146.6663  135.5680  162.9455 C   0  0  0  0  0  0  0  0  0  0  0  0
  146.7489  136.7396  162.1657 C   0  0  0  0  0  0  0  0  0  0  0  0
  147.2890  136.6862  160.8666 C   0  0  0  0  0  0  0  0  0  0  0  0
  147.7407  135.4531  160.3593 C   0  0  0  0  0  0  0  0  0  0  0  0
  151.0259  140.0682  155.8048 H   0  0  0  0  0  0  0  0  0  0  0  0
  152.2815  138.8615  156.1093 H   0  0  0  0  0  0  0  0  0  0  0  0
  152.3405  140.4061  156.9376 H   0  0  0  0  0  0  0  0  0  0  0  0
  149.1819  140.3610  157.8231 H   0  0  0  0  0  0  0  0  0  0  0  0
  149.6990  139.7002  159.3494 H   0  0  0  0  0  0  0  0  0  0  0  0
  152.1962  140.3070  160.1088 H   0  0  0  0  0  0  0  0  0  0  0  0
  153.5593  142.3208  160.6115 H   0  0  0  0  0  0  0  0  0  0  0  0
  153.0396  144.4878  159.5048 H   0  0  0  0  0  0  0  0  0  0  0  0
  151.1499  144.6394  157.8927 H   0  0  0  0  0  0  0  0  0  0  0  0
  149.7835  142.6318  157.3838 H   0  0  0  0  0  0  0  0  0  0  0  0
  149.2984  138.2860  156.5019 H   0  0  0  0  0  0  0  0  0  0  0  0
  150.6370  137.1883  156.6895 H   0  0  0  0  0  0  0  0  0  0  0  0
  148.6456  137.8823  158.9074 H   0  0  0  0  0  0  0  0  0  0  0  0
  150.9666  137.5282  159.4056 H   0  0  0  0  0  0  0  0  0  0  0  0
  147.6293  136.1939  157.5169 H   0  0  0  0  0  0  0  0  0  0  0  0
  149.1402  135.3601  157.2782 H   0  0  0  0  0  0  0  0  0  0  0  0
  149.0863  131.8568  158.4306 H   0  0  0  0  0  0  0  0  0  0  0  0
  148.5825  133.0480  157.2526 H   0  0  0  0  0  0  0  0  0  0  0  0
  150.9555  132.4673  157.6503 H   0  0  0  0  0  0  0  0  0  0  0  0
  147.0586  133.4450  163.0413 H   0  0  0  0  0  0  0  0  0  0  0  0
  146.2516  135.6145  163.9420 H   0  0  0  0  0  0  0  0  0  0  0  0
  146.3988  137.6797  162.5665 H   0  0  0  0  0  0  0  0  0  0  0  0
  147.3564  137.5835  160.2694 H   0  0  0  0  0  0  0  0  0  0  0  0
  151.5144  138.6777  158.3391 H   0  0  0  0  0  0  0  0  0  0  0  0
  1  2  1  0  0  0  0
  1 25  1  0  0  0  0
  1 26  1  0  0  0  0
  1 27  1  0  0  0  0
  2  3  1  0  0  0  0
  2 10  1  0  0  0  0
  2 48  1  0  0  0  0
  3  4  1  0  0  0  0
  3 28  1  0  0  0  0
  3 29  1  0  0  0  0
  4  9  1  0  0  0  0
  4  5  2  0  0  0  0
  5  6  1  0  0  0  0
  5 30  1  0  0  0  0
  6  7  2  0  0  0  0
  6 31  1  0  0  0  0
  7  8  1  0  0  0  0
  7 32  1  0  0  0  0
  8  9  2  0  0  0  0
  8 33  1  0  0  0  0
  9 34  1  0  0  0  0
 10 11  1  0  0  0  0
 10 35  1  0  0  0  0
 10 36  1  0  0  0  0
 11 12  1  0  0  0  0
 11 13  1  0  0  0  0
 11 37  1  0  0  0  0
 12 38  1  0  0  0  0
 13 14  1  0  0  0  0
 13 39  1  0  0  0  0
 13 40  1  0  0  0  0
 14 24  1  0  0  0  0
 14 15  1  0  0  0  0
 15 16  1  0  0  0  0
 15 18  2  0  0  0  0
 16 17  1  0  0  0  0
 16 41  1  0  0  0  0
 16 42  1  0  0  0  0
 17 43  1  0  0  0  0
 18 19  1  0  0  0  0
 19 24  2  0  0  0  0
 19 20  1  0  0  0  0
 20 21  2  0  0  0  0
 20 44  1  0  0  0  0
 21 22  1  0  0  0  0
 21 45  1  0  0  0  0
 22 23  2  0  0  0  0
 22 46  1  0  0  0  0
 23 24  1  0  0  0  0
 23 47  1  0  0  0  0
M  CHG  1   2   1
M  END
> <s_m_source_file>
AV-unprocessed.smi

> <i_m_source_file_index>
1669

> <i_lp_mmshare_version>
43012

> <i_f3d_flags>
0

> <s_epik_input>
W2NIXTFbY0hdW2NIXVtjSF1bY0hdYzFbQ0gyXU4oW0NIM10pW0NIMl1bQ0BIXShbT0hdKVtDSDJdbihjKG4yKVtDSDJdW09IXSljKGMyMylbY0hdW2NIXVtjSF1bY0hdMw==

> <s_epik_cmdline>
J2VwaWtfcHl0aG9uJywgJy1waCcsICc3LjAnLCAnLXRuJywgJzgnLCAnLW1hJywgJzIwMCcsICctbWV0YWxfYmluZGluZycsICctaW1hZScsICc8aW5maWxlLm1hZT4nLCAnLW9tYWUnLCAnPG91dGZpbGUubWFlPic=

> <r_epik_Ionization_Penalty>
0.0949884

> <r_epik_Ionization_Penalty_Charging>
0.0475377

> <r_epik_Ionization_Penalty_Neutral>
0.0474507

> <r_epik_State_Penalty>
0.078247

> <r_epik_Charging_Adjusted_Penalty>
0.125785

> <i_epik_Tot_Q>
1

> <i_epik_Tot_abs_Q>
1

> <r_epik_Metal_State_Penalty>
0.0403451

> <b_epik_Metal_Only>
0

> <s_lp_Force_Field>
OPLS_2005

> <r_lp_Energy>
16.111

> <b_lp_Chiralities_Consistent>
1

> <s_lp_Variant>
AV-unprocessed.smi:1669-1

> <Gold.Version>
5.8.1

> <Gold.Id.Protein>
6NUR|6NUR_protein|mol2

> <Gold.PLP.Fitness>
49.9886

> <Gold.PLP.PLP>
-44.8686

> <Gold.PLP.part.hbond>
-2.0000

> <Gold.PLP.part.metal>
0.0000

> <Gold.PLP.part.buried>
-5.0264

> <Gold.PLP.part.nonpolar>
-38.7813

> <Gold.PLP.part.repulsive>
0.0359

> <Gold.PLP.ligand.clash>
0.0000

> <Gold.PLP.ligand.torsion>
0.4780

> <Gold.PLP.Chemscore.Hbond>
2.0000

> <Gold.PLP.Chemscore.CHOScore>
0.0000

> <Gold.PLP.Chemscore.Metal>
0.0000

> <Gold.Chemscore.Hbonds>
donor molecule, donor type, donor heavy atom, donor atom, acceptor molecule, acceptor atom, score
      P1  H  6896  6908       L1    17  0.70
      P1  H  6896  6909       L1    12  1.00

> <Gold.PLP.Chemscore.Internal.Correction>
0.0759

> <Gold.Rescore>
     Score         DG    S(hbond)    S(metal)    S(lipo)     H(rot)  DE(clash)    DE(int)     intcor
     17.33     -18.04       1.89        0.00     122.92       3.17       0.18       0.53       ----

> <Gold.Chemscore.Fitness>
17.3342

> <Gold.Chemscore.DG>
-18.0427

> <Gold.Chemscore.ZeroCoef>
-5.4800

> <Gold.Chemscore.Hbond>
1.8876

> <Gold.Chemscore.Metal>
0.0000

> <Gold.Chemscore.Lipo>
122.9159

> <Gold.Chemscore.Internal_Hbond>
0.0000

> <Gold.Chemscore.DEClash>
0.1808

> <Gold.Chemscore.DEInternal>
0.5277

> <Gold.Chemscore.Rot>
3.1731

> <Gold.Chemscore.Internal.Correction>
   9.000000E+99

> <Gold.Chemscore.Hbonds>
donor molecule, donor type, donor heavy atom, donor atom, acceptor molecule, acceptor atom, score
      P1  H  6896  6908       L1    17  0.16
      P1  H  6896  6909       L1    12  0.76

> <Gold.Chemscore.Hbond.Weighted>
-6.3046

> <Gold.Chemscore.Metal.Weighted>
-0.0000

> <Gold.Chemscore.Lipo.Weighted>
-14.3812

> <Gold.Chemscore.Internal_Hbond.Weighted>
0.0000

> <Gold.Chemscore.DEClash.Weighted>
0.1808

> <Gold.Chemscore.DEInternal.Weighted>
0.5277

> <Gold.Chemscore.Rot.Weighted>
8.1230

> <Gold.Chemscore.Internal.Correction.Weighted>
   9.000000E+99

> <Gold.Protein.RotatedTorsions>
[ 6907 6896 6895 6894 ] final   92.97 input  -60.11 | X-H torsion
[ 7974 7965 7964 7962 ] final   68.82 input  175.53 | X-H torsion
[ 8008 7997 7996 7995 ] final  -51.88 input   59.86 | X-H torsion
[ 10167 10162 10161 10158 ] final -122.66 input  -65.29 | X-H torsion
[ 10718 10713 10712 10709 ] final   85.72 input   66.30 | X-H torsion
[ 10763 10752 10751 10750 ] final  -78.98 input  -60.55 | X-H torsion
[ 11005 11000 10999 10996 ] final  152.73 input  -57.11 | X-H torsion

> <Gold.Protein.ActiveResidues>
 VAL166  LYS551  ARG553  GLY616  TRP617  ASP618  TYR619  PRO620  LYS621  CYS622 
 ASP623  PHE694  ASN695  SER759  ASP760  ASP761  ALA762  ILE779  LEU786  VAL792 
 PHE793  MET794  SER795  GLU796  ALA797  LYS798  CYS799  TRP800  GLU811  SER814 

> <Gold.Protein.RotatedAtoms>
  152.5453  134.1421  159.8482 H   0  0  0  0  0  0  0  0  0  0  0  0  # atno 6907 bound_to 6896
  151.1456  133.4935  159.2603 H   0  0  0  0  0  0  0  0  0  0  0  0  # atno 6908 bound_to 6896
  151.1527  135.0245  159.8730 H   0  0  0  0  0  0  0  0  0  0  0  0  # atno 6909 bound_to 6896
  145.7979  139.2967  143.1172 H   0  0  0  0  0  0  0  0  0  0  0  0  # atno 7974 bound_to 7965
  154.4093  140.1237  156.4901 H   0  0  0  0  0  0  0  0  0  0  0  0  # atno 8008 bound_to 7997
  155.6999  140.3495  155.4909 H   0  0  0  0  0  0  0  0  0  0  0  0  # atno 8009 bound_to 7997
  155.9394  140.1084  157.1058 H   0  0  0  0  0  0  0  0  0  0  0  0  # atno 8010 bound_to 7997
  140.0118  143.5433  152.2259 H   0  0  0  0  0  0  0  0  0  0  0  0  # atno 10167 bound_to 10162
  157.6919  131.0186  150.2864 H   0  0  0  0  0  0  0  0  0  0  0  0  # atno 10718 bound_to 10713
  154.5328  135.5711  153.6773 H   0  0  0  0  0  0  0  0  0  0  0  0  # atno 10763 bound_to 10752
  152.9943  135.6209  154.2606 H   0  0  0  0  0  0  0  0  0  0  0  0  # atno 10764 bound_to 10752
  154.2533  135.2858  155.2787 H   0  0  0  0  0  0  0  0  0  0  0  0  # atno 10765 bound_to 10752
  140.1333  134.8787  157.2234 H   0  0  0  0  0  0  0  0  0  0  0  0  # atno 11005 bound_to 11000
  145.9908  140.8604  143.0067 LP  0  0  0  0  0  0  0  0  0  0  0  0  # atno 17320 bound_to 7965
  144.6772  140.2213  143.7366 LP  0  0  0  0  0  0  0  0  0  0  0  0  # atno 17321 bound_to 7965
  139.6199  144.7627  151.2763 LP  0  0  0  0  0  0  0  0  0  0  0  0  # atno 17342 bound_to 10162
  140.7378  143.6667  150.8117 LP  0  0  0  0  0  0  0  0  0  0  0  0  # atno 17343 bound_to 10162
  156.3402  130.3814  149.7415 LP  0  0  0  0  0  0  0  0  0  0  0  0  # atno 17370 bound_to 10713
  156.4926  130.8092  151.3101 LP  0  0  0  0  0  0  0  0  0  0  0  0  # atno 17371 bound_to 10713
  140.2814  134.3346  155.7342 LP  0  0  0  0  0  0  0  0  0  0  0  0  # atno 17394 bound_to 11000
  141.2174  133.7480  156.9369 LP  0  0  0  0  0  0  0  0  0  0  0  0  # atno 17395 bound_to 11000

$$$$
