AV-unprocessed.smi:461|AV-procd|sdf|2631|dock8
  -GOLD-   2262023 33D 1   1.00000     0.00000
 Structure written by MMmdl.
 33 34  0  0  0  0  0  0  0  0  1 V2000
  151.6629  144.3051  160.8089 C   0  0  0  0  0  0  0  0  0  0  0  0
  152.1579  143.0563  160.2278 N   0  0  0  0  0  0  0  0  0  0  0  0
  151.6495  142.7905  158.9667 N   0  0  0  0  0  0  0  0  0  0  0  0
  152.0427  141.6925  158.3901 C   0  0  0  0  0  0  0  0  0  0  0  0
  151.6443  141.2454  157.1370 N   0  0  0  0  0  0  0  0  0  0  0  0
  150.7140  141.9404  156.2593 C   0  0  0  0  0  0  0  0  0  0  0  0
  149.6630  140.9935  155.6568 C   0  0  1  0  0  0  0  0  0  0  0  0
  148.6623  141.6895  154.7409 C   0  0  0  0  0  0  0  0  0  0  0  0
  148.1224  140.5302  153.9285 C   0  0  0  0  0  0  0  0  0  0  0  0
  149.3063  139.5611  153.8664 C   0  0  0  0  0  0  0  0  0  0  0  0
  150.2776  140.0562  154.7841 O   0  0  0  0  0  0  0  0  0  0  0  0
  153.0215  140.7545  159.0786 C   0  0  0  0  0  0  0  0  0  0  0  0
  153.3853  139.7132  158.5237 O   0  0  0  0  0  0  0  0  0  0  0  0
  153.4481  141.1387  160.3135 N   0  0  0  0  0  0  0  0  0  0  0  0
  154.3955  140.2412  160.9995 C   0  0  0  0  0  0  0  0  0  0  0  0
  153.0353  142.2833  160.9332 C   0  0  0  0  0  0  0  0  0  0  0  0
  153.4203  142.6106  162.0585 O   0  0  0  0  0  0  0  0  0  0  0  0
  152.4879  144.9914  161.0058 H   0  0  0  0  0  0  0  0  0  0  0  0
  151.1450  144.1137  161.7498 H   0  0  0  0  0  0  0  0  0  0  0  0
  150.9610  144.8177  160.1489 H   0  0  0  0  0  0  0  0  0  0  0  0
  151.2810  142.4285  155.4661 H   0  0  0  0  0  0  0  0  0  0  0  0
  150.2216  142.7361  156.8204 H   0  0  0  0  0  0  0  0  0  0  0  0
  149.1231  140.4548  156.4376 H   0  0  0  0  0  0  0  0  0  0  0  0
  147.8861  142.2260  155.2872 H   0  0  0  0  0  0  0  0  0  0  0  0
  149.1724  142.3977  154.0864 H   0  0  0  0  0  0  0  0  0  0  0  0
  147.2881  140.0637  154.4541 H   0  0  0  0  0  0  0  0  0  0  0  0
  147.7720  140.8352  152.9421 H   0  0  0  0  0  0  0  0  0  0  0  0
  149.0018  138.5519  154.1458 H   0  0  0  0  0  0  0  0  0  0  0  0
  149.7413  139.5193  152.8677 H   0  0  0  0  0  0  0  0  0  0  0  0
  154.8102  140.6392  161.9262 H   0  0  0  0  0  0  0  0  0  0  0  0
  155.2496  140.0165  160.3582 H   0  0  0  0  0  0  0  0  0  0  0  0
  153.9065  139.2981  161.2481 H   0  0  0  0  0  0  0  0  0  0  0  0
  151.9404  140.3421  156.7952 H   0  0  0  0  0  0  0  0  0  0  0  0
  1 18  1  0  0  0  0
  1 19  1  0  0  0  0
  1 20  1  0  0  0  0
  1  2  1  0  0  0  0
  2 16  1  0  0  0  0
  2  3  1  0  0  0  0
  3  4  2  0  0  0  0
  4 12  1  0  0  0  0
  4  5  1  0  0  0  0
  5  6  1  0  0  0  0
  5 33  1  0  0  0  0
  6  7  1  0  0  0  0
  6 21  1  0  0  0  0
  6 22  1  0  0  0  0
  7 11  1  0  0  0  0
  7  8  1  0  0  0  0
  7 23  1  0  0  0  0
  8  9  1  0  0  0  0
  8 24  1  0  0  0  0
  8 25  1  0  0  0  0
  9 10  1  0  0  0  0
  9 26  1  0  0  0  0
  9 27  1  0  0  0  0
 10 11  1  0  0  0  0
 10 28  1  0  0  0  0
 10 29  1  0  0  0  0
 12 13  2  0  0  0  0
 12 14  1  0  0  0  0
 14 15  1  0  0  0  0
 14 16  1  0  0  0  0
 15 30  1  0  0  0  0
 15 31  1  0  0  0  0
 15 32  1  0  0  0  0
 16 17  2  0  0  0  0
M  END
> <s_m_source_file>
AV-unprocessed.smi

> <i_m_source_file_index>
461

> <i_lp_mmshare_version>
43012

> <i_f3d_flags>
0

> <s_epik_input>
Tz1jMW4oW0NIM10pYyg9TyljKG5uMVtDSDNdKVtOSF1bQ0gyXVtDQEBIXTJbQ0gyXVtDSDJdW0NIMl1PMg==

> <s_epik_cmdline>
J2VwaWtfcHl0aG9uJywgJy1waCcsICc3LjAnLCAnLXRuJywgJzgnLCAnLW1hJywgJzIwMCcsICctbWV0YWxfYmluZGluZycsICctaW1hZScsICc8aW5maWxlLm1hZT4nLCAnLW9tYWUnLCAnPG91dGZpbGUubWFlPic=

> <r_lp_tautomer_probability>
1

> <r_epik_Ionization_Penalty>
0.000103292

> <r_epik_Ionization_Penalty_Charging>
5.59445e-09

> <r_epik_Ionization_Penalty_Neutral>
0.000103287

> <r_epik_State_Penalty>
-0

> <r_epik_Charging_Adjusted_Penalty>
5.59445e-09

> <i_epik_Tot_Q>
0

> <i_epik_Tot_abs_Q>
0

> <r_epik_Metal_State_Penalty>
-0

> <b_epik_Metal_Only>
0

> <s_lp_Force_Field>
OPLS_2005

> <r_lp_Energy>
40.9993

> <b_lp_Chiralities_Consistent>
1

> <s_lp_Variant>
AV-unprocessed.smi:461-2

> <Gold.Version>
5.8.1

> <Gold.Id.Protein>
6NUR|6NUR_protein|mol2

> <Gold.PLP.Fitness>
39.5626

> <Gold.PLP.PLP>
-33.7497

> <Gold.PLP.part.hbond>
-2.0000

> <Gold.PLP.part.metal>
0.0000

> <Gold.PLP.part.buried>
0.6142

> <Gold.PLP.part.nonpolar>
-31.7705

> <Gold.PLP.part.repulsive>
0.2293

> <Gold.PLP.ligand.clash>
0.0000

> <Gold.PLP.ligand.torsion>
0.0972

> <Gold.PLP.Chemscore.Hbond>
2.0000

> <Gold.PLP.Chemscore.CHOScore>
0.0000

> <Gold.PLP.Chemscore.Metal>
0.0000

> <Gold.Chemscore.Hbonds>
donor molecule, donor type, donor heavy atom, donor atom, acceptor molecule, acceptor atom, score
      P1  H  7989  7998       L1    11  0.99
      P1  H  7997  8010       L1    13  1.00

> <Gold.PLP.Chemscore.Internal.Correction>
0.0073

> <Gold.Rescore>
     Score         DG    S(hbond)    S(metal)    S(lipo)     H(rot)  DE(clash)    DE(int)     intcor
     12.65     -14.18       1.69        0.00      54.48       1.30       1.42       0.11       ----

> <Gold.Chemscore.Fitness>
12.6511

> <Gold.Chemscore.DG>
-14.1812

> <Gold.Chemscore.ZeroCoef>
-5.4800

> <Gold.Chemscore.Hbond>
1.6897

> <Gold.Chemscore.Metal>
0.0000

> <Gold.Chemscore.Lipo>
54.4773

> <Gold.Chemscore.Internal_Hbond>
0.0000

> <Gold.Chemscore.DEClash>
1.4205

> <Gold.Chemscore.DEInternal>
0.1095

> <Gold.Chemscore.Rot>
1.2954

> <Gold.Chemscore.Internal.Correction>
   9.000000E+99

> <Gold.Chemscore.Hbonds>
donor molecule, donor type, donor heavy atom, donor atom, acceptor molecule, acceptor atom, score
      P1  H  7989  7998       L1    11  0.21
      P1  H  7997  8010       L1    13  0.84

> <Gold.Chemscore.Hbond.Weighted>
-5.6436

> <Gold.Chemscore.Metal.Weighted>
-0.0000

> <Gold.Chemscore.Lipo.Weighted>
-6.3738

> <Gold.Chemscore.Internal_Hbond.Weighted>
0.0000

> <Gold.Chemscore.DEClash.Weighted>
1.4205

> <Gold.Chemscore.DEInternal.Weighted>
0.1095

> <Gold.Chemscore.Rot.Weighted>
3.3163

> <Gold.Chemscore.Internal.Correction.Weighted>
   9.000000E+99

> <Gold.Protein.RotatedTorsions>
[ 6907 6896 6895 6894 ] final  -90.20 input  -60.11 | X-H torsion
[ 7974 7965 7964 7962 ] final -131.94 input  175.53 | X-H torsion
[ 8008 7997 7996 7995 ] final   33.28 input   59.86 | X-H torsion
[ 10167 10162 10161 10158 ] final -155.49 input  -65.29 | X-H torsion
[ 10718 10713 10712 10709 ] final  166.28 input   66.30 | X-H torsion
[ 10763 10752 10751 10750 ] final  152.90 input  -60.55 | X-H torsion
[ 11005 11000 10999 10996 ] final -167.05 input  -57.11 | X-H torsion

> <Gold.Protein.ActiveResidues>
 VAL166  LYS551  ARG553  GLY616  TRP617  ASP618  TYR619  PRO620  LYS621  CYS622 
 ASP623  PHE694  ASN695  SER759  ASP760  ASP761  ALA762  ILE779  LEU786  VAL792 
 PHE793  MET794  SER795  GLU796  ALA797  LYS798  CYS799  TRP800  GLU811  SER814 

> <Gold.Protein.RotatedAtoms>
  150.6880  134.2468  159.4494 H   0  0  0  0  0  0  0  0  0  0  0  0  # atno 6907 bound_to 6896
  152.0408  134.9710  160.0583 H   0  0  0  0  0  0  0  0  0  0  0  0  # atno 6908 bound_to 6896
  152.1212  133.4319  159.4713 H   0  0  0  0  0  0  0  0  0  0  0  0  # atno 6909 bound_to 6896
  144.9332  140.7153  143.4893 H   0  0  0  0  0  0  0  0  0  0  0  0  # atno 7974 bound_to 7965
  155.1360  140.3262  155.4463 H   0  0  0  0  0  0  0  0  0  0  0  0  # atno 8008 bound_to 7997
  156.2619  140.2002  156.6427 H   0  0  0  0  0  0  0  0  0  0  0  0  # atno 8009 bound_to 7997
  154.6577  140.0551  157.0014 H   0  0  0  0  0  0  0  0  0  0  0  0  # atno 8010 bound_to 7997
  139.6927  143.9394  152.2392 H   0  0  0  0  0  0  0  0  0  0  0  0  # atno 10167 bound_to 10162
  157.0682  131.0359  151.2622 H   0  0  0  0  0  0  0  0  0  0  0  0  # atno 10718 bound_to 10713
  154.1275  135.2829  155.3193 H   0  0  0  0  0  0  0  0  0  0  0  0  # atno 10763 bound_to 10752
  154.6379  135.5412  153.7759 H   0  0  0  0  0  0  0  0  0  0  0  0  # atno 10764 bound_to 10752
  153.0292  135.6479  154.1426 H   0  0  0  0  0  0  0  0  0  0  0  0  # atno 10765 bound_to 10752
  140.5576  134.5365  157.5136 H   0  0  0  0  0  0  0  0  0  0  0  0  # atno 11005 bound_to 11000
  145.3108  139.1819  143.4640 LP  0  0  0  0  0  0  0  0  0  0  0  0  # atno 17320 bound_to 7965
  146.3256  140.3112  142.8627 LP  0  0  0  0  0  0  0  0  0  0  0  0  # atno 17321 bound_to 7965
  139.9214  144.6797  150.8457 LP  0  0  0  0  0  0  0  0  0  0  0  0  # atno 17342 bound_to 10162
  140.7687  143.3372  151.2284 LP  0  0  0  0  0  0  0  0  0  0  0  0  # atno 17343 bound_to 10162
  157.4900  130.7816  149.7498 LP  0  0  0  0  0  0  0  0  0  0  0  0  # atno 17370 bound_to 10713
  155.9958  130.3909  150.2803 LP  0  0  0  0  0  0  0  0  0  0  0  0  # atno 17371 bound_to 10713
  139.9423  134.7764  156.0646 LP  0  0  0  0  0  0  0  0  0  0  0  0  # atno 17394 bound_to 11000
  141.1134  133.6636  156.3033 LP  0  0  0  0  0  0  0  0  0  0  0  0  # atno 17395 bound_to 11000

$$$$
