AV-unprocessed.smi:1050|AV-procd|sdf|4612|dock5
  -GOLD-   22720 3113D 1   1.00000     0.00000
 Structure written by MMmdl.
 48 49  0  0  0  0  0  0  0  0  1 V2000
  147.4080  136.6645  162.9638 C   0  0  0  0  0  0  0  0  0  0  0  0
  147.5558  137.1939  161.6505 O   0  0  0  0  0  0  0  0  0  0  0  0
  147.8625  136.3227  160.6254 C   0  0  0  0  0  0  0  0  0  0  0  0
  147.7068  134.9418  160.8417 C   0  0  0  0  0  0  0  0  0  0  0  0
  148.0188  134.0532  159.7972 C   0  0  0  0  0  0  0  0  0  0  0  0
  148.4680  134.5703  158.5578 C   0  0  0  0  0  0  0  0  0  0  0  0
  148.8428  133.7418  157.4604 N   0  0  0  0  0  0  0  0  0  0  0  0
  149.5121  132.5745  157.4657 C   0  0  0  0  0  0  0  0  0  0  0  0
  149.9369  132.0154  158.4765 O   0  0  0  0  0  0  0  0  0  0  0  0
  149.7262  131.9277  156.0866 C   0  0  2  0  0  0  0  0  0  0  0  0
  151.2163  131.6853  155.8005 C   0  0  0  0  0  0  0  0  0  0  0  0
  149.2202  132.7719  155.0556 O   0  0  0  0  0  0  0  0  0  0  0  0
  149.1615  132.1835  153.7622 C   0  0  0  0  0  0  0  0  0  0  0  0
  148.6078  135.9784  158.4370 C   0  0  0  0  0  0  0  0  0  0  0  0
  149.0552  136.5516  157.2306 N   0  0  0  0  0  0  0  0  0  0  0  0
  150.4147  136.2115  156.8061 C   0  0  0  0  0  0  0  0  0  0  0  0
  150.6790  136.7303  155.3810 C   0  0  0  0  0  0  0  0  0  0  0  0
  150.4098  138.1740  155.3501 N   0  0  0  0  0  0  0  0  0  0  0  0
  151.3416  139.1450  155.1989 C   0  0  0  0  0  0  0  0  0  0  0  0
  152.8009  138.7505  154.9622 C   0  0  0  0  0  0  0  0  0  0  0  0
  151.0661  140.3438  155.2449 O   0  0  0  0  0  0  0  0  0  0  0  0
  149.0016  138.4590  155.6561 C   0  0  0  0  0  0  0  0  0  0  0  0
  148.6853  137.9593  157.0794 C   0  0  0  0  0  0  0  0  0  0  0  0
  148.3069  136.8261  159.4495 N   0  0  0  0  0  0  0  0  0  0  0  0
  147.1715  137.4736  163.6545 H   0  0  0  0  0  0  0  0  0  0  0  0
  148.3289  136.1928  163.3096 H   0  0  0  0  0  0  0  0  0  0  0  0
  146.5942  135.9392  163.0124 H   0  0  0  0  0  0  0  0  0  0  0  0
  147.3607  134.5690  161.7945 H   0  0  0  0  0  0  0  0  0  0  0  0
  147.9234  132.9940  159.9768 H   0  0  0  0  0  0  0  0  0  0  0  0
  148.4911  134.0395  156.5617 H   0  0  0  0  0  0  0  0  0  0  0  0
  149.2142  130.9640  156.0488 H   0  0  0  0  0  0  0  0  0  0  0  0
  151.6688  131.0539  156.5662 H   0  0  0  0  0  0  0  0  0  0  0  0
  151.7767  132.6203  155.7613 H   0  0  0  0  0  0  0  0  0  0  0  0
  151.3483  131.1843  154.8413 H   0  0  0  0  0  0  0  0  0  0  0  0
  148.8372  132.9326  153.0400 H   0  0  0  0  0  0  0  0  0  0  0  0
  148.4522  131.3566  153.7178 H   0  0  0  0  0  0  0  0  0  0  0  0
  150.1417  131.8216  153.4494 H   0  0  0  0  0  0  0  0  0  0  0  0
  151.1378  136.6495  157.4959 H   0  0  0  0  0  0  0  0  0  0  0  0
  150.5489  135.1297  156.8403 H   0  0  0  0  0  0  0  0  0  0  0  0
  151.6886  136.4636  155.0726 H   0  0  0  0  0  0  0  0  0  0  0  0
  150.0158  136.2297  154.6736 H   0  0  0  0  0  0  0  0  0  0  0  0
  153.1769  138.1433  155.7864 H   0  0  0  0  0  0  0  0  0  0  0  0
  153.4321  139.6368  154.8882 H   0  0  0  0  0  0  0  0  0  0  0  0
  152.9033  138.1907  154.0322 H   0  0  0  0  0  0  0  0  0  0  0  0
  148.7546  139.5182  155.5742 H   0  0  0  0  0  0  0  0  0  0  0  0
  148.3671  137.9480  154.9303 H   0  0  0  0  0  0  0  0  0  0  0  0
  147.6258  138.1030  157.2917 H   0  0  0  0  0  0  0  0  0  0  0  0
  149.2362  138.5505  157.8124 H   0  0  0  0  0  0  0  0  0  0  0  0
  1  2  1  0  0  0  0
  1 25  1  0  0  0  0
  1 26  1  0  0  0  0
  1 27  1  0  0  0  0
  2  3  1  0  0  0  0
  3 24  1  0  0  0  0
  3  4  2  0  0  0  0
  4  5  1  0  0  0  0
  4 28  1  0  0  0  0
  5  6  2  0  0  0  0
  5 29  1  0  0  0  0
  6  7  1  0  0  0  0
  6 14  1  0  0  0  0
  7  8  1  0  0  0  0
  7 30  1  0  0  0  0
  8  9  2  0  0  0  0
  8 10  1  0  0  0  0
 10 11  1  0  0  0  0
 10 12  1  0  0  0  0
 10 31  1  0  0  0  0
 11 32  1  0  0  0  0
 11 33  1  0  0  0  0
 11 34  1  0  0  0  0
 12 13  1  0  0  0  0
 13 35  1  0  0  0  0
 13 36  1  0  0  0  0
 13 37  1  0  0  0  0
 14 15  1  0  0  0  0
 14 24  2  0  0  0  0
 15 23  1  0  0  0  0
 15 16  1  0  0  0  0
 16 17  1  0  0  0  0
 16 38  1  0  0  0  0
 16 39  1  0  0  0  0
 17 18  1  0  0  0  0
 17 40  1  0  0  0  0
 17 41  1  0  0  0  0
 18 19  1  0  0  0  0
 18 22  1  0  0  0  0
 19 20  1  0  0  0  0
 19 21  2  0  0  0  0
 20 42  1  0  0  0  0
 20 43  1  0  0  0  0
 20 44  1  0  0  0  0
 22 23  1  0  0  0  0
 22 45  1  0  0  0  0
 22 46  1  0  0  0  0
 23 47  1  0  0  0  0
 23 48  1  0  0  0  0
M  END
> <s_m_source_file>
AV-unprocessed.smi

> <i_m_source_file_index>
1050

> <i_lp_mmshare_version>
43012

> <i_f3d_flags>
0

> <s_epik_input>
W0NIM11PYzFbY0hdW2NIXWMoW05IXUMoPU8pW0NASF0oW0NIM10pT1tDSDNdKWMobjEpTjJbQ0gyXVtDSDJdTihDKD1PKVtDSDNdKVtDSDJdW0NIMl0y

> <s_epik_cmdline>
J2VwaWtfcHl0aG9uJywgJy1waCcsICc3LjAnLCAnLXRuJywgJzgnLCAnLW1hJywgJzIwMCcsICctbWV0YWxfYmluZGluZycsICctaW1hZScsICc8aW5maWxlLm1hZT4nLCAnLW9tYWUnLCAnPG91dGZpbGUubWFlPic=

> <r_lp_tautomer_probability>
1

> <r_epik_Ionization_Penalty>
0.000150604

> <r_epik_Ionization_Penalty_Charging>
0

> <r_epik_Ionization_Penalty_Neutral>
0.000150604

> <r_epik_State_Penalty>
-0

> <r_epik_Charging_Adjusted_Penalty>
0

> <i_epik_Tot_Q>
0

> <i_epik_Tot_abs_Q>
0

> <r_epik_Metal_State_Penalty>
-0

> <b_epik_Metal_Only>
0

> <s_lp_Force_Field>
OPLS_2005

> <r_lp_Energy>
41.1233

> <b_lp_Chiralities_Consistent>
1

> <s_lp_Variant>
AV-unprocessed.smi:1050-1

> <Gold.Version>
5.8.1

> <Gold.Id.Protein>
6NUR|6NUR_protein|mol2

> <Gold.PLP.Fitness>
42.7017

> <Gold.PLP.PLP>
-32.8533

> <Gold.PLP.part.hbond>
-4.0000

> <Gold.PLP.part.metal>
0.0000

> <Gold.PLP.part.buried>
-5.7246

> <Gold.PLP.part.nonpolar>
-25.1390

> <Gold.PLP.part.repulsive>
0.1204

> <Gold.PLP.ligand.clash>
0.0231

> <Gold.PLP.ligand.torsion>
0.8761

> <Gold.PLP.Chemscore.Hbond>
3.7600

> <Gold.PLP.Chemscore.CHOScore>
0.0000

> <Gold.PLP.Chemscore.Metal>
0.0000

> <Gold.Chemscore.Hbonds>
donor molecule, donor type, donor heavy atom, donor atom, acceptor molecule, acceptor atom, score
      P1  H  6896  6909       L1     9  1.00
      P1  H  6931  6943       L1     2  0.91
      P1  H  6934  6947       L1     2  0.78
      P1  H  7989  7998       L1    21  1.00

> <Gold.PLP.Chemscore.Internal.Correction>
0.3437

> <Gold.Rescore>
     Score         DG    S(hbond)    S(metal)    S(lipo)     H(rot)  DE(clash)    DE(int)     intcor
     12.95     -14.91       2.05        0.00      59.46       1.71       0.02       1.94       ----

> <Gold.Chemscore.Fitness>
12.9492

> <Gold.Chemscore.DG>
-14.9059

> <Gold.Chemscore.ZeroCoef>
-5.4800

> <Gold.Chemscore.Hbond>
2.0502

> <Gold.Chemscore.Metal>
0.0000

> <Gold.Chemscore.Lipo>
59.4631

> <Gold.Chemscore.Internal_Hbond>
0.0000

> <Gold.Chemscore.DEClash>
0.0162

> <Gold.Chemscore.DEInternal>
1.9405

> <Gold.Chemscore.Rot>
1.7106

> <Gold.Chemscore.Internal.Correction>
   9.000000E+99

> <Gold.Chemscore.Hbonds>
donor molecule, donor type, donor heavy atom, donor atom, acceptor molecule, acceptor atom, score
      P1  H  6896  6909       L1     9  0.36
      P1  H  6931  6943       L1     2  0.12
      P1  H  6934  6947       L1     2  0.59
      P1  H  7989  7998       L1    21  0.25

> <Gold.Chemscore.Hbond.Weighted>
-6.8477

> <Gold.Chemscore.Metal.Weighted>
-0.0000

> <Gold.Chemscore.Lipo.Weighted>
-6.9572

> <Gold.Chemscore.Internal_Hbond.Weighted>
0.0000

> <Gold.Chemscore.DEClash.Weighted>
0.0162

> <Gold.Chemscore.DEInternal.Weighted>
1.9405

> <Gold.Chemscore.Rot.Weighted>
4.3790

> <Gold.Chemscore.Internal.Correction.Weighted>
   9.000000E+99

> <Gold.Protein.RotatedTorsions>
[ 6907 6896 6895 6894 ] final  -34.30 input  -60.11 | X-H torsion
[ 7974 7965 7964 7962 ] final  154.57 input  175.53 | X-H torsion
[ 8008 7997 7996 7995 ] final  101.34 input   59.86 | X-H torsion
[ 10167 10162 10161 10158 ] final  169.16 input  -65.29 | X-H torsion
[ 10718 10713 10712 10709 ] final   73.03 input   66.30 | X-H torsion
[ 10763 10752 10751 10750 ] final   92.27 input  -60.55 | X-H torsion
[ 11005 11000 10999 10996 ] final   26.34 input  -57.11 | X-H torsion

> <Gold.Protein.ActiveResidues>
 VAL166  LYS551  ARG553  GLY616  TRP617  ASP618  TYR619  PRO620  LYS621  CYS622 
 ASP623  PHE694  ASN695  SER759  ASP760  ASP761  ALA762  ILE779  LEU786  VAL792 
 PHE793  MET794  SER795  GLU796  ALA797  LYS798  CYS799  TRP800  GLU811  SER814 

> <Gold.Protein.RotatedAtoms>
  151.0544  134.9695  159.8227 H   0  0  0  0  0  0  0  0  0  0  0  0  # atno 6907 bound_to 6896
  152.5386  134.2496  159.8904 H   0  0  0  0  0  0  0  0  0  0  0  0  # atno 6908 bound_to 6896
  151.2513  133.4306  159.2645 H   0  0  0  0  0  0  0  0  0  0  0  0  # atno 6909 bound_to 6896
  144.8080  139.6952  143.6154 H   0  0  0  0  0  0  0  0  0  0  0  0  # atno 7974 bound_to 7965
  156.1289  140.3199  155.8319 H   0  0  0  0  0  0  0  0  0  0  0  0  # atno 8008 bound_to 7997
  155.4368  140.0522  157.3031 H   0  0  0  0  0  0  0  0  0  0  0  0  # atno 8009 bound_to 7997
  154.4884  140.2082  155.9616 H   0  0  0  0  0  0  0  0  0  0  0  0  # atno 8010 bound_to 7997
  139.4985  144.3736  151.9698 H   0  0  0  0  0  0  0  0  0  0  0  0  # atno 10167 bound_to 10162
  157.6529  130.9608  150.1012 H   0  0  0  0  0  0  0  0  0  0  0  0  # atno 10718 bound_to 10713
  153.2174  135.4367  155.0449 H   0  0  0  0  0  0  0  0  0  0  0  0  # atno 10763 bound_to 10752
  154.8232  135.3348  154.6978 H   0  0  0  0  0  0  0  0  0  0  0  0  # atno 10764 bound_to 10752
  153.7412  135.7004  153.5022 H   0  0  0  0  0  0  0  0  0  0  0  0  # atno 10765 bound_to 10752
  140.3380  134.2364  155.7693 H   0  0  0  0  0  0  0  0  0  0  0  0  # atno 11005 bound_to 11000
  146.2374  139.5933  142.9514 LP  0  0  0  0  0  0  0  0  0  0  0  0  # atno 17320 bound_to 7965
  145.5392  141.0422  143.2340 LP  0  0  0  0  0  0  0  0  0  0  0  0  # atno 17321 bound_to 7965
  140.3173  144.3469  150.6018 LP  0  0  0  0  0  0  0  0  0  0  0  0  # atno 17342 bound_to 10162
  140.5751  143.2177  151.7529 LP  0  0  0  0  0  0  0  0  0  0  0  0  # atno 17343 bound_to 10162
  156.1934  130.3656  149.8880 LP  0  0  0  0  0  0  0  0  0  0  0  0  # atno 17370 bound_to 10713
  156.6802  130.8855  151.3575 LP  0  0  0  0  0  0  0  0  0  0  0  0  # atno 17371 bound_to 10713
  141.2046  133.7882  157.0279 LP  0  0  0  0  0  0  0  0  0  0  0  0  # atno 17394 bound_to 11000
  140.0804  134.9651  157.1615 LP  0  0  0  0  0  0  0  0  0  0  0  0  # atno 17395 bound_to 11000

$$$$
