#       Name:                AV-unprocessed.smi:1155
#       Creating user name   scv26
#       Creation time:       Fri Mar 27 03:48:07 2020


#       File generated by GOLD software.
#

@<TRIPOS>MOLECULE
AV-unprocessed.smi:1155
    42    44     1
SMALL
NO_CHARGES


@<TRIPOS>ATOM
      1 ****        -3.3780   4.0824   0.4859 C.3            1 S1                 0.0000
      2 ****        -3.5789   2.6810   0.1081 N.am           1 S1                 0.0000
      3 ****        -2.4575   1.8288   0.1249 C.2            1 S1                 0.0000
      4 ****        -2.5392   0.5218  -0.2087 C.2            1 S1                 0.0000
      5 ****        -1.4713  -0.3880  -0.1995 N.am           1 S1                 0.0000
      6 ****        -0.1517  -0.1501  -0.0792 C.2            1 S1                 0.0000
      7 ****         0.3750   0.9596  -0.0033 O.2            1 S1                 0.0000
      8 ****         0.5398  -1.3004  -0.0687 N.am           1 S1                 0.0000
      9 ****         1.9914  -1.4483   0.0203 C.3            1 S1                 0.0000
     10 ****         2.5875  -0.9285   1.3205 C.3            1 S1                 0.0000
     11 ****         3.8338  -1.5432   1.9116 C.3            1 S1                 0.0000
     12 ****         2.4983  -1.7296   2.5967 C.3            1 S1                 0.0000
     13 ****         2.7375  -0.8886  -1.1816 C.3            1 S1                 0.0000
     14 ****         2.7750  -1.6342  -2.4933 C.3            1 S1                 0.0000
     15 ****         4.0302  -1.5067  -1.6591 C.3            1 S1                 0.0000
     16 ****        -3.8463   0.0217  -0.5784 C.2            1 S1                 0.0000
     17 ****        -4.9247   0.8290  -0.5923 C.2            1 S1                 0.0000
     18 ****        -4.8260   2.2455  -0.2333 C.2            1 S1                 0.0000
     19 ****        -5.8036   2.9941  -0.2379 O.2            1 S1                 0.0000
     20 ****        -2.3316   4.3244   0.6750 H              1 S1                 0.0000
     21 ****        -3.9369   4.3158   1.3933 H              1 S1                 0.0000
     22 ****        -3.7232   4.7483  -0.3063 H              1 S1                 0.0000
     23 ****        -1.5498   2.3181   0.4399 H              1 S1                 0.0000
     24 ****        -1.7413  -1.3552  -0.3026 H              1 S1                 0.0000
     25 ****         0.0124  -2.1583  -0.1389 H              1 S1                 0.0000
     26 ****         2.1523  -2.5273   0.0132 H              1 S1                 0.0000
     27 ****         2.5081   0.1508   1.4366 H              1 S1                 0.0000
     28 ****         4.2637  -2.4083   1.4111 H              1 S1                 0.0000
     29 ****         4.5505  -0.8710   2.3791 H              1 S1                 0.0000
     30 ****         2.3251  -1.1821   3.5209 H              1 S1                 0.0000
     31 ****         2.0419  -2.7160   2.5461 H              1 S1                 0.0000
     32 ****         2.6853   0.1957  -1.2610 H              1 S1                 0.0000
     33 ****         2.2962  -2.6105  -2.5354 H              1 S1                 0.0000
     34 ****         2.7135  -1.0445  -3.4056 H              1 S1                 0.0000
     35 ****         4.8064  -0.8335  -2.0172 H              1 S1                 0.0000
     36 ****         4.3861  -2.4020  -1.1531 H              1 S1                 0.0000
     37 ****        -3.9635  -1.0167  -0.8521 H              1 S1                 0.0000
     38 ****        -5.8853   0.4245  -0.8752 H              1 S1                 0.0000
     39 ****        -0.1902   1.7842  -0.0294 LP             1 S1                 0.0000
     40 ****         1.3681   1.0368   0.0844 LP             1 S1                 0.0000
     41 ****        -5.6980   3.9560   0.0142 LP             1 S1                 0.0000
     42 ****        -6.7032   2.6402  -0.4938 LP             1 S1                 0.0000
@<TRIPOS>BOND
    1    1    2 1     
    2    1   20 1     
    3    1   21 1     
    4    1   22 1     
    5    2   18 am    
    6    2    3 1     
    7    3    4 2     
    8    3   23 1     
    9    4    5 1     
   10    4   16 1     
   11    5    6 am    
   12    5   24 1     
   13    6    7 2     
   14    6    8 am    
   15    8    9 1     
   16    8   25 1     
   17    9   10 1     
   18    9   13 1     
   19    9   26 1     
   20   10   12 1     
   21   10   11 1     
   22   10   27 1     
   23   11   12 1     
   24   11   28 1     
   25   11   29 1     
   26   12   30 1     
   27   12   31 1     
   28   13   15 1     
   29   13   14 1     
   30   13   32 1     
   31   14   15 1     
   32   14   33 1     
   33   14   34 1     
   34   15   35 1     
   35   15   36 1     
   36   16   17 2     
   37   16   37 1     
   38   17   18 1     
   39   17   38 1     
   40   18   19 2     
   41    7   39 1     
   42    7   40 1     
   43   19   41 1     
   44   19   42 1     
@<TRIPOS>SUBSTRUCTURE
      1 S1             1
@<TRIPOS>SET
LONE_PAIRS      STATIC     ATOMS    <user>   **** ""
4 39 40 41 42
DONOR_HYDROGENS      STATIC     ATOMS    <user>   **** ""
2 24 25
ATOM$BLUE        STATIC     ATOMS    COLORGROUP SYSTEM
4 39 40 41 42
ATOM$RED        STATIC     ATOMS    COLORGROUP SYSTEM
2 24 25
