AV-unprocessed.smi:2858|AV-procd|sdf|11002|dock5
  -GOLD-   2272015463D 1   1.00000     0.00000
 Structure written by MMmdl.
 39 40  0  0  0  0  0  0  0  0  3 V2000
  142.7106  136.8937  153.9481 O   0  0  0  0  0  0  0  0  0  0  0  0
  143.2979  137.8525  154.4442 C   0  0  0  0  0  0  0  0  0  0  0  0
  144.8151  137.9796  154.1389 C   0  0  0  0  0  0  0  0  0  0  0  0
  145.3289  139.3599  154.3763 N   0  3  2  0  0  0  0  0  0  0  0  0
  146.7925  139.4824  154.1595 C   0  0  0  0  0  0  0  0  0  0  0  0
  147.2787  140.9376  154.2592 C   0  0  0  0  0  0  0  0  0  0  0  0
  148.8037  141.0562  154.1092 C   0  0  0  0  0  0  0  0  0  0  0  0
  149.3628  141.9817  155.0876 N   0  0  0  0  0  0  0  0  0  0  0  0
  150.1629  141.6311  156.1049 C   0  0  0  0  0  0  0  0  0  0  0  0
  150.5272  140.4729  156.3114 O   0  0  0  0  0  0  0  0  0  0  0  0
  150.4940  142.6974  156.8541 N   0  0  0  0  0  0  0  0  0  0  0  0
  151.3293  142.7386  158.0021 C   0  0  0  0  0  0  0  0  0  0  0  0
  151.5920  144.0332  158.5039 C   0  0  0  0  0  0  0  0  0  0  0  0
  152.4138  144.1832  159.6375 C   0  0  0  0  0  0  0  0  0  0  0  0
  152.9531  143.0331  160.2410 C   0  0  0  0  0  0  0  0  0  0  0  0
  152.6418  141.7815  159.6786 C   0  0  0  0  0  0  0  0  0  0  0  0
  151.8537  141.6352  158.5924 N   0  0  0  0  0  0  0  0  0  0  0  0
  144.9004  139.8923  155.6955 C   0  0  0  0  0  0  0  0  0  0  0  0
  143.3662  140.0207  155.7497 C   0  0  0  0  0  0  0  0  0  0  0  0
  142.7359  138.7834  155.2764 N   0  5  0  0  0  0  0  0  0  0  0  0
  145.3537  137.2686  154.7671 H   0  0  0  0  0  0  0  0  0  0  0  0
  144.9830  137.6891  153.1021 H   0  0  0  0  0  0  0  0  0  0  0  0
  147.3169  138.9025  154.9202 H   0  0  0  0  0  0  0  0  0  0  0  0
  147.0641  139.0459  153.1973 H   0  0  0  0  0  0  0  0  0  0  0  0
  146.8031  141.5510  153.4942 H   0  0  0  0  0  0  0  0  0  0  0  0
  146.9725  141.3500  155.2217 H   0  0  0  0  0  0  0  0  0  0  0  0
  149.2771  140.0774  154.2047 H   0  0  0  0  0  0  0  0  0  0  0  0
  149.0518  141.4250  153.1137 H   0  0  0  0  0  0  0  0  0  0  0  0
  149.1128  142.9549  154.9900 H   0  0  0  0  0  0  0  0  0  0  0  0
  150.1054  143.5842  156.5697 H   0  0  0  0  0  0  0  0  0  0  0  0
  151.1698  144.9064  158.0277 H   0  0  0  0  0  0  0  0  0  0  0  0
  152.6266  145.1642  160.0360 H   0  0  0  0  0  0  0  0  0  0  0  0
  153.5886  143.1079  161.1110 H   0  0  0  0  0  0  0  0  0  0  0  0
  153.0357  140.8737  160.1111 H   0  0  0  0  0  0  0  0  0  0  0  0
  145.2599  139.2346  156.4888 H   0  0  0  0  0  0  0  0  0  0  0  0
  145.3410  140.8740  155.8726 H   0  0  0  0  0  0  0  0  0  0  0  0
  143.0605  140.2722  156.7649 H   0  0  0  0  0  0  0  0  0  0  0  0
  143.0663  140.8668  155.1307 H   0  0  0  0  0  0  0  0  0  0  0  0
  144.8810  139.9543  153.6938 H   0  0  0  0  0  0  0  0  0  0  0  0
  1  2  2  0  0  0  0
  2 20  1  0  0  0  0
  2  3  1  0  0  0  0
  3  4  1  0  0  0  0
  3 21  1  0  0  0  0
  3 22  1  0  0  0  0
  4  5  1  0  0  0  0
  4 18  1  0  0  0  0
  4 39  1  0  0  0  0
  5  6  1  0  0  0  0
  5 23  1  0  0  0  0
  5 24  1  0  0  0  0
  6  7  1  0  0  0  0
  6 25  1  0  0  0  0
  6 26  1  0  0  0  0
  7  8  1  0  0  0  0
  7 27  1  0  0  0  0
  7 28  1  0  0  0  0
  8  9  1  0  0  0  0
  8 29  1  0  0  0  0
  9 10  2  0  0  0  0
  9 11  1  0  0  0  0
 11 12  1  0  0  0  0
 11 30  1  0  0  0  0
 12 17  1  0  0  0  0
 12 13  2  0  0  0  0
 13 14  1  0  0  0  0
 13 31  1  0  0  0  0
 14 15  2  0  0  0  0
 14 32  1  0  0  0  0
 15 16  1  0  0  0  0
 15 33  1  0  0  0  0
 16 17  2  0  0  0  0
 16 34  1  0  0  0  0
 18 19  1  0  0  0  0
 18 35  1  0  0  0  0
 18 36  1  0  0  0  0
 19 20  1  0  0  0  0
 19 37  1  0  0  0  0
 19 38  1  0  0  0  0
M  CHG  1   4   1
M  CHG  1  20  -1
M  END
> <s_m_source_file>
AV-unprocessed.smi

> <i_m_source_file_index>
2858

> <i_lp_mmshare_version>
43012

> <i_f3d_flags>
0

> <s_epik_input>
Tz1DMVtDSDJdTihbQ0gyXVtDSDJdW05IXTEpW0NIMl1bQ0gyXVtDSDJdW05IXUMoPU8pW05IXWMyW2NIXVtjSF1bY0hdW2NIXW4y

> <s_epik_cmdline>
J2VwaWtfcHl0aG9uJywgJy1waCcsICc3LjAnLCAnLXRuJywgJzgnLCAnLW1hJywgJzIwMCcsICctbWV0YWxfYmluZGluZycsICctaW1hZScsICc8aW5maWxlLm1hZT4nLCAnLW9tYWUnLCAnPG91dGZpbGUubWFlPic=

> <r_epik_Ionization_Penalty>
5.09835

> <r_epik_Ionization_Penalty_Charging>
5.09831

> <r_epik_Ionization_Penalty_Neutral>
4.20822e-05

> <r_epik_State_Penalty>
5.19693

> <r_epik_Charging_Adjusted_Penalty>
10.2952

> <i_epik_Tot_Q>
0

> <i_epik_Tot_abs_Q>
2

> <r_epik_Metal_State_Penalty>
1.27693

> <b_epik_Metal_Only>
1

> <s_lp_Force_Field>
OPLS_2005

> <r_lp_Energy>
13.8629

> <b_lp_Chiralities_Consistent>
1

> <s_lp_Variant>
AV-unprocessed.smi:2858-4

> <Gold.Version>
5.8.1

> <Gold.Id.Protein>
6NUR|6NUR_protein|mol2

> <Gold.PLP.Fitness>
44.2609

> <Gold.PLP.PLP>
-32.9294

> <Gold.PLP.part.hbond>
-3.0000

> <Gold.PLP.part.metal>
0.0000

> <Gold.PLP.part.buried>
-5.0356

> <Gold.PLP.part.nonpolar>
-26.0050

> <Gold.PLP.part.repulsive>
0.4166

> <Gold.PLP.ligand.clash>
0.0000

> <Gold.PLP.ligand.torsion>
0.3566

> <Gold.PLP.Chemscore.Hbond>
4.0000

> <Gold.PLP.Chemscore.CHOScore>
0.0000

> <Gold.PLP.Chemscore.Metal>
0.0000

> <Gold.Chemscore.Hbonds>
donor molecule, donor type, donor heavy atom, donor atom, acceptor molecule, acceptor atom, score
      L1  H     4    39       P1 10175  2.00
      L1  H     8    29       P1  8028  1.00
      L1  H    11    30       P1  8028  1.00

> <Gold.PLP.Chemscore.Internal.Correction>
0.0447

> <Gold.Rescore>
     Score         DG    S(hbond)    S(metal)    S(lipo)     H(rot)  DE(clash)    DE(int)     intcor
     16.88     -18.59       2.95        0.00      71.94       2.02       0.10       1.61       ----

> <Gold.Chemscore.Fitness>
16.8815

> <Gold.Chemscore.DG>
-18.5911

> <Gold.Chemscore.ZeroCoef>
-5.4800

> <Gold.Chemscore.Hbond>
2.9547

> <Gold.Chemscore.Metal>
0.0000

> <Gold.Chemscore.Lipo>
71.9391

> <Gold.Chemscore.Internal_Hbond>
0.0000

> <Gold.Chemscore.DEClash>
0.1014

> <Gold.Chemscore.DEInternal>
1.6082

> <Gold.Chemscore.Rot>
2.0213

> <Gold.Chemscore.Internal.Correction>
   9.000000E+99

> <Gold.Chemscore.Hbonds>
donor molecule, donor type, donor heavy atom, donor atom, acceptor molecule, acceptor atom, score
      L1  H     4    39       P1 10175  0.99
      L1  H     8    29       P1  8028  0.97
      L1  H    11    30       P1  8028  0.98

> <Gold.Chemscore.Hbond.Weighted>
-9.8686

> <Gold.Chemscore.Metal.Weighted>
-0.0000

> <Gold.Chemscore.Lipo.Weighted>
-8.4169

> <Gold.Chemscore.Internal_Hbond.Weighted>
0.0000

> <Gold.Chemscore.DEClash.Weighted>
0.1014

> <Gold.Chemscore.DEInternal.Weighted>
1.6082

> <Gold.Chemscore.Rot.Weighted>
5.1744

> <Gold.Chemscore.Internal.Correction.Weighted>
   9.000000E+99

> <Gold.Protein.RotatedTorsions>
[ 6907 6896 6895 6894 ] final -157.45 input  -60.11 | X-H torsion
[ 7974 7965 7964 7962 ] final -129.69 input  175.53 | X-H torsion
[ 8008 7997 7996 7995 ] final   94.06 input   59.86 | X-H torsion
[ 10167 10162 10161 10158 ] final -122.52 input  -65.29 | X-H torsion
[ 10718 10713 10712 10709 ] final   83.26 input   66.30 | X-H torsion
[ 10763 10752 10751 10750 ] final   36.47 input  -60.55 | X-H torsion
[ 11005 11000 10999 10996 ] final  175.61 input  -57.11 | X-H torsion

> <Gold.Protein.ActiveResidues>
 VAL166  LYS551  ARG553  GLY616  TRP617  ASP618  TYR619  PRO620  LYS621  CYS622 
 ASP623  PHE694  ASN695  SER759  ASP760  ASP761  ALA762  ILE779  LEU786  VAL792 
 PHE793  MET794  SER795  GLU796  ALA797  LYS798  CYS799  TRP800  GLU811  SER814 

> <Gold.Protein.RotatedAtoms>
  151.3030  133.4114  159.2640 H   0  0  0  0  0  0  0  0  0  0  0  0  # atno 6907 bound_to 6896
  151.0179  134.9447  159.8053 H   0  0  0  0  0  0  0  0  0  0  0  0  # atno 6908 bound_to 6896
  152.5317  134.2994  159.9125 H   0  0  0  0  0  0  0  0  0  0  0  0  # atno 6909 bound_to 6896
  144.9547  140.7382  143.4766 H   0  0  0  0  0  0  0  0  0  0  0  0  # atno 7974 bound_to 7965
  156.0537  140.3305  155.7380 H   0  0  0  0  0  0  0  0  0  0  0  0  # atno 8008 bound_to 7997
  155.5562  140.0615  157.2856 H   0  0  0  0  0  0  0  0  0  0  0  0  # atno 8009 bound_to 7997
  154.4448  140.1885  156.0724 H   0  0  0  0  0  0  0  0  0  0  0  0  # atno 8010 bound_to 7997
  140.0133  143.5419  152.2253 H   0  0  0  0  0  0  0  0  0  0  0  0  # atno 10167 bound_to 10162
  157.6875  131.0083  150.2497 H   0  0  0  0  0  0  0  0  0  0  0  0  # atno 10718 bound_to 10713
  153.0076  135.6305  154.1990 H   0  0  0  0  0  0  0  0  0  0  0  0  # atno 10763 bound_to 10752
  154.1733  135.2817  155.3076 H   0  0  0  0  0  0  0  0  0  0  0  0  # atno 10764 bound_to 10752
  154.5891  135.5623  153.7321 H   0  0  0  0  0  0  0  0  0  0  0  0  # atno 10765 bound_to 10752
  140.3641  134.7087  157.4350 H   0  0  0  0  0  0  0  0  0  0  0  0  # atno 11005 bound_to 11000
  145.2791  139.1925  143.4801 LP  0  0  0  0  0  0  0  0  0  0  0  0  # atno 17320 bound_to 7965
  146.3333  140.2749  142.8607 LP  0  0  0  0  0  0  0  0  0  0  0  0  # atno 17321 bound_to 7965
  139.6190  144.7625  151.2783 LP  0  0  0  0  0  0  0  0  0  0  0  0  # atno 17342 bound_to 10162
  140.7372  143.6684  150.8103 LP  0  0  0  0  0  0  0  0  0  0  0  0  # atno 17343 bound_to 10162
  156.3096  130.3770  149.7674 LP  0  0  0  0  0  0  0  0  0  0  0  0  # atno 17370 bound_to 10713
  156.5278  130.8244  151.3226 LP  0  0  0  0  0  0  0  0  0  0  0  0  # atno 17371 bound_to 10713
  140.0603  134.6005  155.8756 LP  0  0  0  0  0  0  0  0  0  0  0  0  # atno 17394 bound_to 11000
  141.1975  133.6596  156.5744 LP  0  0  0  0  0  0  0  0  0  0  0  0  # atno 17395 bound_to 11000

$$$$
