AV-unprocessed.smi:1236|AV-procd|sdf|5179|dock9
  -GOLD-   22720 4263D 1   1.00000     0.00000
 Structure written by MMmdl.
 39 40  0  0  0  0  0  0  0  0  1 V2000
  146.9826  139.7607  151.7080 C   0  0  0  0  0  0  0  0  0  0  0  0
  146.3526  138.7107  152.6329 C   0  0  2  0  0  0  0  0  0  0  0  0
  146.9383  138.7985  154.0588 C   0  0  0  0  0  0  0  0  0  0  0  0
  148.2428  139.4534  154.1695 N   0  0  0  0  0  0  0  0  0  0  0  0
  149.2341  138.6281  154.8560 C   0  0  0  0  0  0  0  0  0  0  0  0
  150.5923  139.3418  154.9667 C   0  0  0  0  0  0  0  0  0  0  0  0
  150.4241  140.5903  155.6306 O   0  0  0  0  0  0  0  0  0  0  0  0
  149.4943  141.4426  154.9701 C   0  0  0  0  0  0  0  0  0  0  0  0
  148.1335  140.7336  154.8598 C   0  0  0  0  0  0  0  0  0  0  0  0
  146.5843  137.3799  152.0726 N   0  0  0  0  0  0  0  0  0  0  0  0
  145.6379  136.4758  151.7775 C   0  0  0  0  0  0  0  0  0  0  0  0
  144.4316  136.6790  151.9188 O   0  0  0  0  0  0  0  0  0  0  0  0
  146.1842  135.3354  151.3204 N   0  0  0  0  0  0  0  0  0  0  0  0
  145.5228  134.1454  150.9153 C   0  0  0  0  0  0  0  0  0  0  0  0
  146.3487  133.0020  150.8275 C   0  0  0  0  0  0  0  0  0  0  0  0
  145.7886  131.7710  150.4347 C   0  0  0  0  0  0  0  0  0  0  0  0
  144.4151  131.7151  150.1383 C   0  0  0  0  0  0  0  0  0  0  0  0
  143.6641  132.8998  150.2499 C   0  0  0  0  0  0  0  0  0  0  0  0
  144.1988  134.0802  150.6266 N   0  0  0  0  0  0  0  0  0  0  0  0
  146.8127  140.7685  152.0876 H   0  0  0  0  0  0  0  0  0  0  0  0
  146.5530  139.7103  150.7069 H   0  0  0  0  0  0  0  0  0  0  0  0
  148.0596  139.6169  151.6166 H   0  0  0  0  0  0  0  0  0  0  0  0
  145.2844  138.9275  152.6676 H   0  0  0  0  0  0  0  0  0  0  0  0
  146.2214  139.3402  154.6775 H   0  0  0  0  0  0  0  0  0  0  0  0
  146.9991  137.7966  154.4861 H   0  0  0  0  0  0  0  0  0  0  0  0
  148.8770  138.3733  155.8547 H   0  0  0  0  0  0  0  0  0  0  0  0
  149.3801  137.6874  154.3275 H   0  0  0  0  0  0  0  0  0  0  0  0
  151.2979  138.7303  155.5291 H   0  0  0  0  0  0  0  0  0  0  0  0
  151.0242  139.5020  153.9778 H   0  0  0  0  0  0  0  0  0  0  0  0
  149.3953  142.3693  155.5354 H   0  0  0  0  0  0  0  0  0  0  0  0
  149.8721  141.7080  153.9816 H   0  0  0  0  0  0  0  0  0  0  0  0
  147.4334  141.3813  154.3310 H   0  0  0  0  0  0  0  0  0  0  0  0
  147.7240  140.5817  155.8597 H   0  0  0  0  0  0  0  0  0  0  0  0
  147.5474  137.1182  151.9232 H   0  0  0  0  0  0  0  0  0  0  0  0
  147.1914  135.3126  151.2629 H   0  0  0  0  0  0  0  0  0  0  0  0
  147.4022  133.0629  151.0587 H   0  0  0  0  0  0  0  0  0  0  0  0
  146.4028  130.8858  150.3623 H   0  0  0  0  0  0  0  0  0  0  0  0
  143.9492  130.7898  149.8331 H   0  0  0  0  0  0  0  0  0  0  0  0
  142.6067  132.9002  150.0305 H   0  0  0  0  0  0  0  0  0  0  0  0
  1  2  1  0  0  0  0
  1 20  1  0  0  0  0
  1 21  1  0  0  0  0
  1 22  1  0  0  0  0
  2  3  1  0  0  0  0
  2 10  1  0  0  0  0
  2 23  1  0  0  0  0
  3  4  1  0  0  0  0
  3 24  1  0  0  0  0
  3 25  1  0  0  0  0
  4  9  1  0  0  0  0
  4  5  1  0  0  0  0
  5  6  1  0  0  0  0
  5 26  1  0  0  0  0
  5 27  1  0  0  0  0
  6  7  1  0  0  0  0
  6 28  1  0  0  0  0
  6 29  1  0  0  0  0
  7  8  1  0  0  0  0
  8  9  1  0  0  0  0
  8 30  1  0  0  0  0
  8 31  1  0  0  0  0
  9 32  1  0  0  0  0
  9 33  1  0  0  0  0
 10 11  1  0  0  0  0
 10 34  1  0  0  0  0
 11 12  2  0  0  0  0
 11 13  1  0  0  0  0
 13 14  1  0  0  0  0
 13 35  1  0  0  0  0
 14 19  1  0  0  0  0
 14 15  2  0  0  0  0
 15 16  1  0  0  0  0
 15 36  1  0  0  0  0
 16 17  2  0  0  0  0
 16 37  1  0  0  0  0
 17 18  1  0  0  0  0
 17 38  1  0  0  0  0
 18 19  2  0  0  0  0
 18 39  1  0  0  0  0
M  END
> <s_m_source_file>
AV-unprocessed.smi

> <i_m_source_file_index>
1236

> <i_lp_mmshare_version>
43012

> <i_f3d_flags>
0

> <s_epik_input>
W0NIMl0xW0NIMl1PW0NIMl1bQ0gyXU4xW0NIMl1bQ0BASF0oW0NIM10pW05IXUMoPU8pW05IXWMyW2NIXVtjSF1bY0hdW2NIXW4y

> <s_epik_cmdline>
J2VwaWtfcHl0aG9uJywgJy1waCcsICc3LjAnLCAnLXRuJywgJzgnLCAnLW1hJywgJzIwMCcsICctbWV0YWxfYmluZGluZycsICctaW1hZScsICc8aW5maWxlLm1hZT4nLCAnLW9tYWUnLCAnPG91dGZpbGUubWFlPic=

> <r_epik_Ionization_Penalty>
0.26604

> <r_epik_Ionization_Penalty_Charging>
0

> <r_epik_Ionization_Penalty_Neutral>
0.26604

> <r_epik_State_Penalty>
0.257924

> <r_epik_Charging_Adjusted_Penalty>
0.257924

> <i_epik_Tot_Q>
0

> <i_epik_Tot_abs_Q>
0

> <r_epik_Metal_State_Penalty>
0.257923

> <b_epik_Metal_Only>
0

> <s_lp_Force_Field>
OPLS_2005

> <r_lp_Energy>
27.6221

> <b_lp_Chiralities_Consistent>
1

> <s_lp_Variant>
AV-unprocessed.smi:1236-1

> <Gold.Version>
5.8.1

> <Gold.Id.Protein>
6NUR|6NUR_protein|mol2

> <Gold.PLP.Fitness>
38.8556

> <Gold.PLP.PLP>
-32.7723

> <Gold.PLP.part.hbond>
-3.0000

> <Gold.PLP.part.metal>
0.0000

> <Gold.PLP.part.buried>
0.9813

> <Gold.PLP.part.nonpolar>
-31.6376

> <Gold.PLP.part.repulsive>
0.8383

> <Gold.PLP.ligand.clash>
0.0000

> <Gold.PLP.ligand.torsion>
1.3553

> <Gold.PLP.Chemscore.Hbond>
1.9280

> <Gold.PLP.Chemscore.CHOScore>
1.0000

> <Gold.PLP.Chemscore.Metal>
0.0000

> <Gold.Chemscore.Hbonds>
donor molecule, donor type, donor heavy atom, donor atom, acceptor molecule, acceptor atom, score
      L1  H    10    34       P1  7948  1.00
      L1  H    13    35       P1  7948  0.94
      L1  C    18    39       P1 10186  1.00

> <Gold.PLP.Chemscore.Internal.Correction>
0.0100

> <Gold.Rescore>
     Score         DG    S(hbond)    S(metal)    S(lipo)     H(rot)  DE(clash)    DE(int)     intcor
     13.94     -17.63       1.91        0.00      82.44       1.51       1.20       2.49       ----

> <Gold.Chemscore.Fitness>
13.9442

> <Gold.Chemscore.DG>
-17.6259

> <Gold.Chemscore.ZeroCoef>
-5.4800

> <Gold.Chemscore.Hbond>
1.9061

> <Gold.Chemscore.Metal>
0.0000

> <Gold.Chemscore.Lipo>
82.4446

> <Gold.Chemscore.Internal_Hbond>
0.0000

> <Gold.Chemscore.DEClash>
1.1951

> <Gold.Chemscore.DEInternal>
2.4866

> <Gold.Chemscore.Rot>
1.5104

> <Gold.Chemscore.Internal.Correction>
   9.000000E+99

> <Gold.Chemscore.Hbonds>
donor molecule, donor type, donor heavy atom, donor atom, acceptor molecule, acceptor atom, score
      L1  H    10    34       P1  7948  1.00
      L1  H    13    35       P1  7948  0.71

> <Gold.Chemscore.Hbond.Weighted>
-6.3664

> <Gold.Chemscore.Metal.Weighted>
-0.0000

> <Gold.Chemscore.Lipo.Weighted>
-9.6460

> <Gold.Chemscore.Internal_Hbond.Weighted>
0.0000

> <Gold.Chemscore.DEClash.Weighted>
1.1951

> <Gold.Chemscore.DEInternal.Weighted>
2.4866

> <Gold.Chemscore.Rot.Weighted>
3.8665

> <Gold.Chemscore.Internal.Correction.Weighted>
   9.000000E+99

> <Gold.Protein.RotatedTorsions>
[ 6907 6896 6895 6894 ] final -168.29 input  -60.11 | X-H torsion
[ 7974 7965 7964 7962 ] final -121.57 input  175.53 | X-H torsion
[ 8008 7997 7996 7995 ] final -147.68 input   59.86 | X-H torsion
[ 10167 10162 10161 10158 ] final  -33.12 input  -65.29 | X-H torsion
[ 10718 10713 10712 10709 ] final   -2.41 input   66.30 | X-H torsion
[ 10763 10752 10751 10750 ] final  139.81 input  -60.55 | X-H torsion
[ 11005 11000 10999 10996 ] final   84.58 input  -57.11 | X-H torsion

> <Gold.Protein.ActiveResidues>
 VAL166  LYS551  ARG553  GLY616  TRP617  ASP618  TYR619  PRO620  LYS621  CYS622 
 ASP623  PHE694  ASN695  SER759  ASP760  ASP761  ALA762  ILE779  LEU786  VAL792 
 PHE793  MET794  SER795  GLU796  ALA797  LYS798  CYS799  TRP800  GLU811  SER814 

> <Gold.Protein.RotatedAtoms>
  151.4731  133.3564  159.2826 H   0  0  0  0  0  0  0  0  0  0  0  0  # atno 6907 bound_to 6896
  150.8947  134.8356  159.7329 H   0  0  0  0  0  0  0  0  0  0  0  0  # atno 6908 bound_to 6896
  152.4844  134.4645  159.9668 H   0  0  0  0  0  0  0  0  0  0  0  0  # atno 6909 bound_to 6896
  145.0389  140.8128  143.4278 H   0  0  0  0  0  0  0  0  0  0  0  0  # atno 7974 bound_to 7965
  155.5794  140.0642  157.2787 H   0  0  0  0  0  0  0  0  0  0  0  0  # atno 8008 bound_to 7997
  154.4337  140.1854  156.1008 H   0  0  0  0  0  0  0  0  0  0  0  0  # atno 8009 bound_to 7997
  156.0316  140.3306  155.7149 H   0  0  0  0  0  0  0  0  0  0  0  0  # atno 8010 bound_to 7997
  140.7210  143.3643  151.1900 H   0  0  0  0  0  0  0  0  0  0  0  0  # atno 10167 bound_to 10162
  156.7912  130.5362  149.5735 H   0  0  0  0  0  0  0  0  0  0  0  0  # atno 10718 bound_to 10713
  153.9124  135.3009  155.3448 H   0  0  0  0  0  0  0  0  0  0  0  0  # atno 10763 bound_to 10752
  154.7617  135.4931  153.9479 H   0  0  0  0  0  0  0  0  0  0  0  0  # atno 10764 bound_to 10752
  153.1186  135.6776  153.9477 H   0  0  0  0  0  0  0  0  0  0  0  0  # atno 10765 bound_to 10752
  139.8996  134.8226  156.2464 H   0  0  0  0  0  0  0  0  0  0  0  0  # atno 11005 bound_to 11000
  145.1674  139.2424  143.5360 LP  0  0  0  0  0  0  0  0  0  0  0  0  # atno 17320 bound_to 7965
  146.3507  140.1416  142.8594 LP  0  0  0  0  0  0  0  0  0  0  0  0  # atno 17321 bound_to 7965
  139.7202  143.9235  152.2982 LP  0  0  0  0  0  0  0  0  0  0  0  0  # atno 17342 bound_to 10162
  139.8990  144.6923  150.8686 LP  0  0  0  0  0  0  0  0  0  0  0  0  # atno 17343 bound_to 10162
  156.1158  130.6073  151.0118 LP  0  0  0  0  0  0  0  0  0  0  0  0  # atno 17370 bound_to 10713
  157.6599  131.0882  150.7861 LP  0  0  0  0  0  0  0  0  0  0  0  0  # atno 17371 bound_to 10713
  141.0252  133.7019  156.1335 LP  0  0  0  0  0  0  0  0  0  0  0  0  # atno 17394 bound_to 11000
  140.7177  134.4393  157.5577 LP  0  0  0  0  0  0  0  0  0  0  0  0  # atno 17395 bound_to 11000

$$$$
