AV-unprocessed.smi:2158|AV-procd|sdf|8788|dock10
  -GOLD-   2272011563D 1   1.00000     0.00000
 Structure written by MMmdl.
 31 31  0  0  0  0  0  0  0  0  1 V2000
  151.9544  144.6616  160.6586 C   0  0  0  0  0  0  0  0  0  0  0  0
  151.3592  143.7752  159.5548 C   0  0  0  0  0  0  0  0  0  0  0  0
  151.3861  144.4141  158.1515 C   0  0  1  0  0  0  0  0  0  0  0  0
  152.8225  144.6790  157.6794 C   0  0  0  0  0  0  0  0  0  0  0  0
  150.7137  143.5584  157.1747 N   0  0  0  0  0  0  0  0  0  0  0  0
  150.9831  142.2636  156.9431 C   0  0  0  0  0  0  0  0  0  0  0  0
  151.8685  141.6407  157.5310 O   0  0  0  0  0  0  0  0  0  0  0  0
  150.1312  141.5851  155.8605 C   0  0  0  0  0  0  0  0  0  0  0  0
  150.4445  140.1591  155.6856 N   0  0  0  0  0  0  0  0  0  0  0  0
  150.6684  139.6421  154.4174 C   0  0  0  0  0  0  0  0  0  0  0  0
  150.9696  138.3426  154.1845 C   0  0  0  0  0  0  0  0  0  0  0  0
  151.0762  137.3990  155.2922 C   0  0  0  0  0  0  0  0  0  0  0  0
  151.3405  136.2039  155.1829 O   0  0  0  0  0  0  0  0  0  0  0  0
  150.8488  137.9583  156.5524 N   0  0  0  0  0  0  0  0  0  0  0  0
  150.5396  139.2968  156.7996 C   0  0  0  0  0  0  0  0  0  0  0  0
  150.3620  139.6876  157.9527 O   0  0  0  0  0  0  0  0  0  0  0  0
  150.9165  137.3446  157.3513 H   0  0  0  0  0  0  0  0  0  0  0  0
  151.9707  144.1333  161.6118 H   0  0  0  0  0  0  0  0  0  0  0  0
  151.3723  145.5724  160.7998 H   0  0  0  0  0  0  0  0  0  0  0  0
  152.9784  144.9512  160.4213 H   0  0  0  0  0  0  0  0  0  0  0  0
  151.9175  142.8388  159.5283 H   0  0  0  0  0  0  0  0  0  0  0  0
  150.3357  143.5080  159.8203 H   0  0  0  0  0  0  0  0  0  0  0  0
  150.8841  145.3814  158.2086 H   0  0  0  0  0  0  0  0  0  0  0  0
  153.3460  145.3424  158.3685 H   0  0  0  0  0  0  0  0  0  0  0  0
  152.8317  145.1533  156.6974 H   0  0  0  0  0  0  0  0  0  0  0  0
  153.3958  143.7542  157.6084 H   0  0  0  0  0  0  0  0  0  0  0  0
  149.9757  143.9866  156.6347 H   0  0  0  0  0  0  0  0  0  0  0  0
  149.0720  141.7105  156.0948 H   0  0  0  0  0  0  0  0  0  0  0  0
  150.2838  142.1219  154.9230 H   0  0  0  0  0  0  0  0  0  0  0  0
  150.6044  140.3057  153.5667 H   0  0  0  0  0  0  0  0  0  0  0  0
  151.1334  137.9996  153.1732 H   0  0  0  0  0  0  0  0  0  0  0  0
  1  2  1  0  0  0  0
  1 18  1  0  0  0  0
  1 19  1  0  0  0  0
  1 20  1  0  0  0  0
  2  3  1  0  0  0  0
  2 21  1  0  0  0  0
  2 22  1  0  0  0  0
  3  4  1  0  0  0  0
  3  5  1  0  0  0  0
  3 23  1  0  0  0  0
  4 24  1  0  0  0  0
  4 25  1  0  0  0  0
  4 26  1  0  0  0  0
  5  6  1  0  0  0  0
  5 27  1  0  0  0  0
  6  7  2  0  0  0  0
  6  8  1  0  0  0  0
  8  9  1  0  0  0  0
  8 28  1  0  0  0  0
  8 29  1  0  0  0  0
  9 15  1  0  0  0  0
  9 10  1  0  0  0  0
 10 11  2  0  0  0  0
 10 30  1  0  0  0  0
 11 12  1  0  0  0  0
 11 31  1  0  0  0  0
 12 13  2  0  0  0  0
 12 14  1  0  0  0  0
 14 17  1  0  0  0  0
 14 15  1  0  0  0  0
 15 16  2  0  0  0  0
M  END
> <s_m_source_file>
AV-unprocessed.smi

> <i_m_source_file_index>
2158

> <i_lp_mmshare_version>
43012

> <i_f3d_flags>
0

> <s_epik_input>
W0NIM11bQ0gyXVtDQEhdKFtDSDNdKVtOSF1DKD1PKVtDSDJdbjFbY0hdW2NIXWMoPU8pW25IXWMxPU8=

> <s_epik_cmdline>
J2VwaWtfcHl0aG9uJywgJy1waCcsICc3LjAnLCAnLXRuJywgJzgnLCAnLW1hJywgJzIwMCcsICctbWV0YWxfYmluZGluZycsICctaW1hZScsICc8aW5maWxlLm1hZT4nLCAnLW9tYWUnLCAnPG91dGZpbGUubWFlPic=

> <r_lp_tautomer_probability>
0.999537

> <r_epik_Ionization_Penalty>
0.00326083

> <r_epik_Ionization_Penalty_Charging>
0.00326081

> <r_epik_Ionization_Penalty_Neutral>
1.93017e-08

> <r_epik_State_Penalty>
0.00230249

> <r_epik_Charging_Adjusted_Penalty>
0.0055633

> <i_epik_Tot_Q>
0

> <i_epik_Tot_abs_Q>
0

> <r_epik_Metal_State_Penalty>
0.364899

> <b_epik_Metal_Only>
0

> <s_lp_Force_Field>
OPLS_2005

> <r_lp_Energy>
2.92089

> <b_lp_Chiralities_Consistent>
1

> <s_lp_Variant>
AV-unprocessed.smi:2158-2

> <Gold.Version>
5.8.1

> <Gold.Id.Protein>
6NUR|6NUR_protein|mol2

> <Gold.PLP.Fitness>
39.1758

> <Gold.PLP.PLP>
-31.0089

> <Gold.PLP.part.hbond>
-2.0000

> <Gold.PLP.part.metal>
0.0000

> <Gold.PLP.part.buried>
-1.3081

> <Gold.PLP.part.nonpolar>
-26.8493

> <Gold.PLP.part.repulsive>
0.1544

> <Gold.PLP.ligand.clash>
0.0000

> <Gold.PLP.ligand.torsion>
0.1970

> <Gold.PLP.Chemscore.Hbond>
2.0000

> <Gold.PLP.Chemscore.CHOScore>
0.8482

> <Gold.PLP.Chemscore.Metal>
0.0000

> <Gold.Chemscore.Hbonds>
donor molecule, donor type, donor heavy atom, donor atom, acceptor molecule, acceptor atom, score
      L1  H     5    27       P1  8028  1.00
      P1  H 10752 10763       L1    13  1.00
      L1  C    10    30       P1  7957  0.81

> <Gold.PLP.Chemscore.Internal.Correction>
0.0162

> <Gold.Rescore>
     Score         DG    S(hbond)    S(metal)    S(lipo)     H(rot)  DE(clash)    DE(int)     intcor
     10.13     -15.54       1.96        0.00      73.49       1.99       0.65       4.76       ----

> <Gold.Chemscore.Fitness>
10.1279

> <Gold.Chemscore.DG>
-15.5360

> <Gold.Chemscore.ZeroCoef>
-5.4800

> <Gold.Chemscore.Hbond>
1.9619

> <Gold.Chemscore.Metal>
0.0000

> <Gold.Chemscore.Lipo>
73.4925

> <Gold.Chemscore.Internal_Hbond>
0.0000

> <Gold.Chemscore.DEClash>
0.6522

> <Gold.Chemscore.DEInternal>
4.7559

> <Gold.Chemscore.Rot>
1.9904

> <Gold.Chemscore.Internal.Correction>
   9.000000E+99

> <Gold.Chemscore.Hbonds>
donor molecule, donor type, donor heavy atom, donor atom, acceptor molecule, acceptor atom, score
      L1  H     5    27       P1  8028  0.99
      P1  H 10752 10763       L1    13  0.99

> <Gold.Chemscore.Hbond.Weighted>
-6.5528

> <Gold.Chemscore.Metal.Weighted>
-0.0000

> <Gold.Chemscore.Lipo.Weighted>
-8.5986

> <Gold.Chemscore.Internal_Hbond.Weighted>
0.0000

> <Gold.Chemscore.DEClash.Weighted>
0.6522

> <Gold.Chemscore.DEInternal.Weighted>
4.7559

> <Gold.Chemscore.Rot.Weighted>
5.0955

> <Gold.Chemscore.Internal.Correction.Weighted>
   9.000000E+99

> <Gold.Protein.RotatedTorsions>
[ 6907 6896 6895 6894 ] final   54.15 input  -60.11 | X-H torsion
[ 7974 7965 7964 7962 ] final  -67.52 input  175.53 | X-H torsion
[ 8008 7997 7996 7995 ] final    7.05 input   59.86 | X-H torsion
[ 10167 10162 10161 10158 ] final   22.25 input  -65.29 | X-H torsion
[ 10718 10713 10712 10709 ] final -137.36 input   66.30 | X-H torsion
[ 10763 10752 10751 10750 ] final   55.97 input  -60.55 | X-H torsion
[ 11005 11000 10999 10996 ] final  170.67 input  -57.11 | X-H torsion

> <Gold.Protein.ActiveResidues>
 VAL166  LYS551  ARG553  GLY616  TRP617  ASP618  TYR619  PRO620  LYS621  CYS622 
 ASP623  PHE694  ASN695  SER759  ASP760  ASP761  ALA762  ILE779  LEU786  VAL792 
 PHE793  MET794  SER795  GLU796  ALA797  LYS798  CYS799  TRP800  GLU811  SER814 

> <Gold.Protein.RotatedAtoms>
  152.3409  134.7135  160.0263 H   0  0  0  0  0  0  0  0  0  0  0  0  # atno 6907 bound_to 6896
  151.7521  133.3322  159.3402 H   0  0  0  0  0  0  0  0  0  0  0  0  # atno 6908 bound_to 6896
  150.7479  134.6115  159.6133 H   0  0  0  0  0  0  0  0  0  0  0  0  # atno 6909 bound_to 6896
  145.7281  140.9009  143.0595 H   0  0  0  0  0  0  0  0  0  0  0  0  # atno 7974 bound_to 7965
  154.7488  140.2763  155.6310 H   0  0  0  0  0  0  0  0  0  0  0  0  # atno 8008 bound_to 7997
  156.2891  140.2682  156.2162 H   0  0  0  0  0  0  0  0  0  0  0  0  # atno 8009 bound_to 7997
  155.0163  140.0372  157.2409 H   0  0  0  0  0  0  0  0  0  0  0  0  # atno 8010 bound_to 7997
  140.5363  143.9755  150.6493 H   0  0  0  0  0  0  0  0  0  0  0  0  # atno 10167 bound_to 10162
  156.2873  130.7355  151.1370 H   0  0  0  0  0  0  0  0  0  0  0  0  # atno 10718 bound_to 10713
  152.9825  135.5692  154.5154 H   0  0  0  0  0  0  0  0  0  0  0  0  # atno 10763 bound_to 10752
  154.4651  135.2783  155.1686 H   0  0  0  0  0  0  0  0  0  0  0  0  # atno 10764 bound_to 10752
  154.3258  135.6259  153.5582 H   0  0  0  0  0  0  0  0  0  0  0  0  # atno 10765 bound_to 10752
  140.3108  134.7518  157.3990 H   0  0  0  0  0  0  0  0  0  0  0  0  # atno 11005 bound_to 11000
  144.6900  139.9293  143.7471 LP  0  0  0  0  0  0  0  0  0  0  0  0  # atno 17320 bound_to 7965
  146.0563  139.3560  143.0608 LP  0  0  0  0  0  0  0  0  0  0  0  0  # atno 17321 bound_to 7965
  140.3144  143.3177  152.0847 LP  0  0  0  0  0  0  0  0  0  0  0  0  # atno 17342 bound_to 10162
  139.4972  144.6615  151.6453 LP  0  0  0  0  0  0  0  0  0  0  0  0  # atno 17343 bound_to 10162
  157.7332  131.0593  150.5588 LP  0  0  0  0  0  0  0  0  0  0  0  0  # atno 17370 bound_to 10713
  156.5700  130.4277  149.6024 LP  0  0  0  0  0  0  0  0  0  0  0  0  # atno 17371 bound_to 10713
  140.1026  134.5452  155.8339 LP  0  0  0  0  0  0  0  0  0  0  0  0  # atno 17394 bound_to 11000
  141.2108  133.6699  156.6538 LP  0  0  0  0  0  0  0  0  0  0  0  0  # atno 17395 bound_to 11000

$$$$
