#       Name:                AV-unprocessed.smi:3203
#       Creating user name   scv26
#       Creation time:       Fri Mar 27 18:08:26 2020


#       File generated by GOLD software.
#

@<TRIPOS>MOLECULE
AV-unprocessed.smi:3203
    37    38     1
SMALL
NO_CHARGES


@<TRIPOS>ATOM
      1 ****        -1.5249  -2.0135  -0.4215 C.3            1 S1                 0.0000
      2 ****        -2.6335  -1.0022  -0.6664 C.ar           1 S1                 0.0000
      3 ****        -3.9616  -1.4550  -0.8148 C.ar           1 S1                 0.0000
      4 ****        -4.9843  -0.5179  -1.0401 C.ar           1 S1                 0.0000
      5 ****        -4.6332   0.8414  -1.1074 C.ar           1 S1                 0.0000
      6 ****        -3.3669   1.2831  -0.9667 N.ar           1 S1                 0.0000
      7 ****        -2.3680   0.3912  -0.7486 C.ar           1 S1                 0.0000
      8 ****        -1.0095   0.7823  -0.5920 N.am           1 S1                 0.0000
      9 ****        -0.4818   2.0214  -0.5910 C.2            1 S1                 0.0000
     10 ****        -1.1252   3.0585  -0.7498 O.2            1 S1                 0.0000
     11 ****         1.0330   2.1052  -0.3983 C.3            1 S1                 0.0000
     12 ****         1.4588   1.0700   0.4757 O.3            1 S1                 0.0000
     13 ****         2.8602   1.0707   0.6825 C.3            1 S1                 0.0000
     14 ****         3.2166  -0.0637   1.6188 C.3            1 S1                 0.0000
     15 ****         4.6216  -0.6212   1.6474 C.3            1 S1                 0.0000
     16 ****         3.4963  -1.4480   1.0788 C.3            1 S1                 0.0000
     17 ****        -1.9141  -3.0319  -0.3988 H              1 S1                 0.0000
     18 ****        -1.0358  -1.8196   0.5335 H              1 S1                 0.0000
     19 ****        -0.7756  -1.9591  -1.2119 H              1 S1                 0.0000
     20 ****        -4.1973  -2.5077  -0.7570 H              1 S1                 0.0000
     21 ****        -6.0106  -0.8325  -1.1574 H              1 S1                 0.0000
     22 ****        -5.3879   1.5945  -1.2791 H              1 S1                 0.0000
     23 ****        -0.3554   0.0268  -0.4486 H              1 S1                 0.0000
     24 ****         1.5186   2.0090  -1.3704 H              1 S1                 0.0000
     25 ****         1.2972   3.0803   0.0143 H              1 S1                 0.0000
     26 ****         3.3885   0.9493  -0.2648 H              1 S1                 0.0000
     27 ****         3.1791   2.0138   1.1287 H              1 S1                 0.0000
     28 ****         2.7069  -0.0171   2.5795 H              1 S1                 0.0000
     29 ****         5.3459  -0.2105   0.9465 H              1 S1                 0.0000
     30 ****         5.0243  -0.9177   2.6138 H              1 S1                 0.0000
     31 ****         3.1472  -2.2950   1.6656 H              1 S1                 0.0000
     32 ****         3.4704  -1.5864  -0.0003 H              1 S1                 0.0000
     33 ****        -3.1655   2.2611  -1.0227 LP             1 S1                 0.0000
     34 ****        -2.1140   3.0166  -0.8927 LP             1 S1                 0.0000
     35 ****        -0.6591   3.9432  -0.7359 LP             1 S1                 0.0000
     36 ****         1.1940   0.1898   0.0819 LP             1 S1                 0.0000
     37 ****         1.0051   1.1901   1.3587 LP             1 S1                 0.0000
@<TRIPOS>BOND
    1    1    2 1     
    2    1   17 1     
    3    1   18 1     
    4    1   19 1     
    5    2    7 ar    
    6    2    3 ar    
    7    3    4 ar    
    8    3   20 1     
    9    4    5 ar    
   10    4   21 1     
   11    5    6 ar    
   12    5   22 1     
   13    6    7 ar    
   14    7    8 1     
   15    8    9 am    
   16    8   23 1     
   17    9   10 2     
   18    9   11 1     
   19   11   12 1     
   20   11   24 1     
   21   11   25 1     
   22   12   13 1     
   23   13   14 1     
   24   13   26 1     
   25   13   27 1     
   26   14   16 1     
   27   14   15 1     
   28   14   28 1     
   29   15   16 1     
   30   15   29 1     
   31   15   30 1     
   32   16   31 1     
   33   16   32 1     
   34    6   33 1     
   35   10   34 1     
   36   10   35 1     
   37   12   36 1     
   38   12   37 1     
@<TRIPOS>SUBSTRUCTURE
      1 S1             1
@<TRIPOS>SET
LONE_PAIRS      STATIC     ATOMS    <user>   **** ""
5 33 34 35 36 37
DONOR_HYDROGENS      STATIC     ATOMS    <user>   **** ""
1 23
ATOM$BLUE        STATIC     ATOMS    COLORGROUP SYSTEM
5 33 34 35 36 37
ATOM$RED        STATIC     ATOMS    COLORGROUP SYSTEM
1 23
