#       Name:                AV-unprocessed.smi:166
#       Creating user name   scv26
#       Creation time:       Thu Mar 26 19:12:49 2020


#       File generated by GOLD software.
#

@<TRIPOS>MOLECULE
AV-unprocessed.smi:166
    64    68     1
SMALL
NO_CHARGES


@<TRIPOS>ATOM
      1 ****        -4.6113   0.0515  -2.8517 O.3            1 S1                 0.0000
      2 ****        -4.7029  -1.2099  -2.2154 C.3            1 S1                 0.0000
      3 ****        -4.1630  -1.0842  -0.7693 C.3            1 S1                 0.0000
      4 ****        -2.7503  -0.7409  -0.6941 N.pl3          1 S1                 0.0000
      5 ****        -1.6952  -1.6160  -0.5612 C.2            1 S1                 0.0000
      6 ****        -0.5144  -1.0626  -0.5121 N.2            1 S1                 0.0000
      7 ****        -0.7749   0.2995  -0.5985 C.ar           1 S1                 0.0000
      8 ****         0.0343   1.4707  -0.5981 C.ar           1 S1                 0.0000
      9 ****         1.3800   1.4770  -0.5005 N.3            1 S1                 0.0000
     10 ****         2.0438   1.0813  -1.7387 C.3            1 S1                 0.0000
     11 ****         3.5561   1.3443  -1.6502 C.3            1 S1                 0.0000
     12 ****         4.1580   0.6736  -0.4051 C.3            1 S1                 0.0000
     13 ****         3.4108   1.1181   0.8645 C.3            1 S1                 0.0000
     14 ****         3.9537   0.3890   1.9575 O.3            1 S1                 0.0000
     15 ****         3.6457   0.9269   3.2345 C.3            1 S1                 0.0000
     16 ****         4.3185   0.0810   4.2939 C.3            1 S1                 0.0000
     17 ****         4.5070   0.6207   5.6937 C.3            1 S1                 0.0000
     18 ****         5.7024   0.4255   4.7962 C.3            1 S1                 0.0000
     19 ****         1.9000   0.8459   0.7103 C.3            1 S1                 0.0000
     20 ****        -0.5828   2.6719  -0.7139 N.ar           1 S1                 0.0000
     21 ****        -1.9145   2.7310  -0.8115 C.ar           1 S1                 0.0000
     22 ****        -2.7969   1.7292  -0.8187 N.ar           1 S1                 0.0000
     23 ****        -2.1765   0.5189  -0.7131 C.ar           1 S1                 0.0000
     24 ****        -6.1591  -1.6766  -2.2504 C.3            1 S1                 0.0000
     25 ****        -6.0566  -3.1259  -2.7073 C.3            1 S1                 0.0000
     26 ****        -4.9885  -3.0782  -3.6355 O.3            1 S1                 0.0000
     27 ****        -3.9693  -2.2709  -3.0627 C.3            1 S1                 0.0000
     28 ****        -3.7097   0.3341  -2.8315 H              1 S1                 0.0000
     29 ****        -4.7278  -0.3306  -0.2186 H              1 S1                 0.0000
     30 ****        -4.3104  -2.0238  -0.2352 H              1 S1                 0.0000
     31 ****        -1.8279  -2.6865  -0.5031 H              1 S1                 0.0000
     32 ****         1.8601   0.0224  -1.9264 H              1 S1                 0.0000
     33 ****         1.6218   1.6338  -2.5796 H              1 S1                 0.0000
     34 ****         4.0518   0.9797  -2.5502 H              1 S1                 0.0000
     35 ****         3.7381   2.4189  -1.6086 H              1 S1                 0.0000
     36 ****         4.0939  -0.4104  -0.5092 H              1 S1                 0.0000
     37 ****         5.2176   0.9176  -0.3228 H              1 S1                 0.0000
     38 ****         3.5825   2.1864   1.0101 H              1 S1                 0.0000
     39 ****         3.9901   1.9594   3.3119 H              1 S1                 0.0000
     40 ****         2.5711   0.9170   3.4149 H              1 S1                 0.0000
     41 ****         4.0773  -0.9784   4.2279 H              1 S1                 0.0000
     42 ****         4.1889   1.6426   5.8910 H              1 S1                 0.0000
     43 ****         4.3800  -0.0747   6.5209 H              1 S1                 0.0000
     44 ****         6.3733  -0.4005   5.0231 H              1 S1                 0.0000
     45 ****         6.1806   1.3165   4.3944 H              1 S1                 0.0000
     46 ****         1.3511   1.2235   1.5733 H              1 S1                 0.0000
     47 ****         1.7306  -0.2301   0.6669 H              1 S1                 0.0000
     48 ****        -2.3332   3.7231  -0.8953 H              1 S1                 0.0000
     49 ****        -6.6738  -1.5752  -1.2944 H              1 S1                 0.0000
     50 ****        -6.7315  -1.1150  -2.9908 H              1 S1                 0.0000
     51 ****        -5.7972  -3.7839  -1.8762 H              1 S1                 0.0000
     52 ****        -6.9758  -3.4908  -3.1658 H              1 S1                 0.0000
     53 ****        -3.3237  -1.8458  -3.8322 H              1 S1                 0.0000
     54 ****        -3.3539  -2.9196  -2.4394 H              1 S1                 0.0000
     55 ****        -5.1832   0.7147  -2.3690 LP             1 S1                 0.0000
     56 ****        -4.9189  -0.0263  -3.8000 LP             1 S1                 0.0000
     57 ****         0.3738  -1.5149  -0.4309 LP             1 S1                 0.0000
     58 ****         1.6331   2.4364  -0.3758 LP             1 S1                 0.0000
     59 ****         4.9486   0.3711   1.8578 LP             1 S1                 0.0000
     60 ****         3.5979  -0.5447   1.9178 LP             1 S1                 0.0000
     61 ****        -0.0422   3.5131  -0.7263 LP             1 S1                 0.0000
     62 ****        -3.7867   1.8506  -0.8921 LP             1 S1                 0.0000
     63 ****        -5.3005  -2.6763  -4.4964 LP             1 S1                 0.0000
     64 ****        -4.6404  -4.0003  -3.8049 LP             1 S1                 0.0000
@<TRIPOS>BOND
    1    1    2 1     
    2    1   28 1     
    3    2   27 1     
    4    2    3 1     
    5    2   24 1     
    6    3    4 1     
    7    3   29 1     
    8    3   30 1     
    9    4   23 1     
   10    4    5 1     
   11    5    6 2     
   12    5   31 1     
   13    6    7 1     
   14    7   23 ar    
   15    7    8 ar    
   16    8    9 1     
   17    8   20 ar    
   18    9   19 1     
   19    9   10 1     
   20   10   11 1     
   21   10   32 1     
   22   10   33 1     
   23   11   12 1     
   24   11   34 1     
   25   11   35 1     
   26   12   13 1     
   27   12   36 1     
   28   12   37 1     
   29   13   14 1     
   30   13   19 1     
   31   13   38 1     
   32   14   15 1     
   33   15   16 1     
   34   15   39 1     
   35   15   40 1     
   36   16   18 1     
   37   16   17 1     
   38   16   41 1     
   39   17   18 1     
   40   17   42 1     
   41   17   43 1     
   42   18   44 1     
   43   18   45 1     
   44   19   46 1     
   45   19   47 1     
   46   20   21 ar    
   47   21   22 ar    
   48   21   48 1     
   49   22   23 ar    
   50   24   25 1     
   51   24   49 1     
   52   24   50 1     
   53   25   26 1     
   54   25   51 1     
   55   25   52 1     
   56   26   27 1     
   57   27   53 1     
   58   27   54 1     
   59    1   55 1     
   60    1   56 1     
   61    6   57 1     
   62    9   58 1     
   63   14   59 1     
   64   14   60 1     
   65   20   61 1     
   66   22   62 1     
   67   26   63 1     
   68   26   64 1     
@<TRIPOS>SUBSTRUCTURE
      1 S1             1
@<TRIPOS>SET
LONE_PAIRS      STATIC     ATOMS    <user>   **** ""
10 55 56 57 58 59 60 61 62 63 64
DONOR_HYDROGENS      STATIC     ATOMS    <user>   **** ""
1 28
ATOM$BLUE        STATIC     ATOMS    COLORGROUP SYSTEM
10 55 56 57 58 59 60 61 62 63 64
ATOM$RED        STATIC     ATOMS    COLORGROUP SYSTEM
1 28
