AV-unprocessed.smi:69|AV-procd|sdf|652|dock2
  -GOLD-   2262016553D 1   1.00000     0.00000
 Structure written by MMmdl.
 32 34  0  0  0  0  0  0  0  0  1 V2000
  145.3931  142.6350  159.4554 N   0  0  0  0  0  0  0  0  0  0  0  0
  145.8121  142.4838  158.1915 C   0  0  0  0  0  0  0  0  0  0  0  0
  144.9306  142.7124  157.1895 N   0  0  0  0  0  0  0  0  0  0  0  0
  145.3253  142.5713  155.9194 C   0  0  0  0  0  0  0  0  0  0  0  0
  146.5253  142.2161  155.4509 N   0  0  0  0  0  0  0  0  0  0  0  0
  147.4097  141.9834  156.4650 C   0  0  0  0  0  0  0  0  0  0  0  0
  147.1343  142.0982  157.8548 C   0  0  0  0  0  0  0  0  0  0  0  0
  148.2745  141.7978  158.5873 N   0  0  0  0  0  0  0  0  0  0  0  0
  149.1714  141.5256  157.6766 C   0  0  0  0  0  0  0  0  0  0  0  0
  148.7286  141.5944  156.3707 N   0  0  0  0  0  0  0  0  0  0  0  0
  149.4790  141.3667  155.0927 C   0  0  1  0  0  0  0  0  0  0  0  0
  150.6588  140.6832  155.3813 O   0  0  0  0  0  0  0  0  0  0  0  0
  150.4230  139.2843  155.2910 C   0  0  2  0  0  0  0  0  0  0  0  0
  151.7556  138.5383  155.1282 C   0  0  0  0  0  0  0  0  0  0  0  0
  152.6770  138.9768  156.1038 O   0  0  0  0  0  0  0  0  0  0  0  0
  149.5131  139.1932  154.0624 C   0  0  1  0  0  0  0  0  0  0  0  0
  148.6976  138.0410  154.1408 O   0  0  0  0  0  0  0  0  0  0  0  0
  148.6649  140.4619  154.1463 C   0  0  2  0  0  0  0  0  0  0  0  0
  148.5174  141.0436  152.8670 O   0  0  0  0  0  0  0  0  0  0  0  0
  149.6799  142.3707  154.7158 H   0  0  0  0  0  0  0  0  0  0  0  0
  149.8863  138.9392  156.1770 H   0  0  0  0  0  0  0  0  0  0  0  0
  150.1105  139.1786  153.1490 H   0  0  0  0  0  0  0  0  0  0  0  0
  147.6796  140.2621  154.5713 H   0  0  0  0  0  0  0  0  0  0  0  0
  146.0337  142.4713  160.2188 H   0  0  0  0  0  0  0  0  0  0  0  0
  144.4395  142.9094  159.6417 H   0  0  0  0  0  0  0  0  0  0  0  0
  144.5721  142.7714  155.1717 H   0  0  0  0  0  0  0  0  0  0  0  0
  150.1860  141.2666  157.9419 H   0  0  0  0  0  0  0  0  0  0  0  0
  151.6067  137.4684  155.2769 H   0  0  0  0  0  0  0  0  0  0  0  0
  152.1671  138.6728  154.1274 H   0  0  0  0  0  0  0  0  0  0  0  0
  152.5529  138.4624  156.8867 H   0  0  0  0  0  0  0  0  0  0  0  0
  148.8487  137.5155  153.3697 H   0  0  0  0  0  0  0  0  0  0  0  0
  148.7150  140.3863  152.2169 H   0  0  0  0  0  0  0  0  0  0  0  0
  1  2  1  0  0  0  0
  1 24  1  0  0  0  0
  1 25  1  0  0  0  0
  2  7  1  0  0  0  0
  2  3  2  0  0  0  0
  3  4  1  0  0  0  0
  4  5  2  0  0  0  0
  4 26  1  0  0  0  0
  5  6  1  0  0  0  0
  6 10  1  0  0  0  0
  6  7  2  0  0  0  0
  7  8  1  0  0  0  0
  8  9  2  0  0  0  0
  9 10  1  0  0  0  0
  9 27  1  0  0  0  0
 10 11  1  0  0  0  0
 11 20  1  0  0  0  0
 11 18  1  0  0  0  0
 11 12  1  0  0  0  0
 12 13  1  0  0  0  0
 13 21  1  0  0  0  0
 13 14  1  0  0  0  0
 13 16  1  0  0  0  0
 14 15  1  0  0  0  0
 14 28  1  0  0  0  0
 14 29  1  0  0  0  0
 15 30  1  0  0  0  0
 16 22  1  0  0  0  0
 16 17  1  0  0  0  0
 16 18  1  0  0  0  0
 17 31  1  0  0  0  0
 18 23  1  0  0  0  0
 18 19  1  0  0  0  0
 19 32  1  0  0  0  0
M  END
> <s_m_source_file>
AV-unprocessed.smi

> <i_m_source_file_index>
69

> <i_lp_mmshare_version>
43012

> <i_f3d_flags>
0

> <s_epik_input>
bjFbY0hdbmMoW05IMl0pYyhjMTIpbltjSF1uMltDQEBIXTNPW0NASF0oW0NIMl1bT0hdKVtDQEBIXShbT0hdKVtDQEhdM1tPSF0=

> <s_epik_cmdline>
J2VwaWtfcHl0aG9uJywgJy1waCcsICc3LjAnLCAnLXRuJywgJzgnLCAnLW1hJywgJzIwMCcsICctbWV0YWxfYmluZGluZycsICctaW1hZScsICc8aW5maWxlLm1hZT4nLCAnLW9tYWUnLCAnPG91dGZpbGUubWFlPic=

> <r_lp_tautomer_probability>
1

> <r_epik_Ionization_Penalty>
0.000428445

> <r_epik_Ionization_Penalty_Charging>
0

> <r_epik_Ionization_Penalty_Neutral>
0.000428445

> <r_epik_State_Penalty>
-0

> <r_epik_Charging_Adjusted_Penalty>
0

> <i_epik_Tot_Q>
0

> <i_epik_Tot_abs_Q>
0

> <r_epik_Metal_State_Penalty>
-0

> <b_epik_Metal_Only>
0

> <s_epik_Chemistry_Notes>
This compound contains an acetal/aminal-like group ( X-CH(R)-Y where X, Y are N, S, or O) that may be acid/base labile, releasing an aldehyde.

> <s_lp_Force_Field>
OPLS_2005

> <r_lp_Energy>
31.7018

> <b_lp_Chiralities_Consistent>
1

> <s_lp_Variant>
AV-unprocessed.smi:69-10

> <Gold.Version>
5.8.1

> <Gold.Id.Protein>
6NUR|6NUR_protein|mol2

> <Gold.PLP.Fitness>
37.2429

> <Gold.PLP.PLP>
-24.4690

> <Gold.PLP.part.hbond>
-5.3181

> <Gold.PLP.part.metal>
0.0000

> <Gold.PLP.part.buried>
0.1463

> <Gold.PLP.part.nonpolar>
-18.7116

> <Gold.PLP.part.repulsive>
0.4839

> <Gold.PLP.ligand.clash>
0.0000

> <Gold.PLP.ligand.torsion>
0.4331

> <Gold.PLP.Chemscore.Hbond>
4.5366

> <Gold.PLP.Chemscore.CHOScore>
0.0000

> <Gold.PLP.Chemscore.Metal>
0.0000

> <Gold.Chemscore.Hbonds>
donor molecule, donor type, donor heavy atom, donor atom, acceptor molecule, acceptor atom, score
      L1  H    17    31       P1  7948  1.00
      L1  H    19    32       P1  7957  0.63
      P1  H  7989  7998       L1    12  0.55
      P1  H  7997  8008       L1    15  0.81
      P1  H  8011  8017       L1    19  0.95

> <Gold.PLP.Chemscore.Internal.Correction>
0.0304

> <Gold.Rescore>
     Score         DG    S(hbond)    S(metal)    S(lipo)     H(rot)  DE(clash)    DE(int)     intcor
      8.24      -8.57       2.93        0.00      30.83       4.03       0.11       0.21       ----

> <Gold.Chemscore.Fitness>
8.2417

> <Gold.Chemscore.DG>
-8.5678

> <Gold.Chemscore.ZeroCoef>
-5.4800

> <Gold.Chemscore.Hbond>
2.9316

> <Gold.Chemscore.Metal>
0.0000

> <Gold.Chemscore.Lipo>
30.8301

> <Gold.Chemscore.Internal_Hbond>
0.0000

> <Gold.Chemscore.DEClash>
0.1146

> <Gold.Chemscore.DEInternal>
0.2114

> <Gold.Chemscore.Rot>
4.0277

> <Gold.Chemscore.Internal.Correction>
   9.000000E+99

> <Gold.Chemscore.Hbonds>
donor molecule, donor type, donor heavy atom, donor atom, acceptor molecule, acceptor atom, score
      L1  H    17    31       P1  7948  0.98
      L1  H    19    32       P1  7957  0.61
      P1  H  7989  7998       L1    12  0.02
      P1  H  7997  8008       L1    15  0.69
      P1  H  8011  8017       L1    19  0.20

> <Gold.Chemscore.Hbond.Weighted>
-9.7916

> <Gold.Chemscore.Metal.Weighted>
-0.0000

> <Gold.Chemscore.Lipo.Weighted>
-3.6071

> <Gold.Chemscore.Internal_Hbond.Weighted>
0.0000

> <Gold.Chemscore.DEClash.Weighted>
0.1146

> <Gold.Chemscore.DEInternal.Weighted>
0.2114

> <Gold.Chemscore.Rot.Weighted>
10.3110

> <Gold.Chemscore.Internal.Correction.Weighted>
   9.000000E+99

> <Gold.Protein.RotatedTorsions>
[ 6907 6896 6895 6894 ] final -107.94 input  -60.11 | X-H torsion
[ 7974 7965 7964 7962 ] final   82.44 input  175.53 | X-H torsion
[ 8008 7997 7996 7995 ] final  -21.15 input   59.86 | X-H torsion
[ 10167 10162 10161 10158 ] final -140.69 input  -65.29 | X-H torsion
[ 10718 10713 10712 10709 ] final   30.62 input   66.30 | X-H torsion
[ 10763 10752 10751 10750 ] final  -75.86 input  -60.55 | X-H torsion
[ 11005 11000 10999 10996 ] final   80.59 input  -57.11 | X-H torsion

> <Gold.Protein.ActiveResidues>
 VAL166  LYS551  ARG553  GLY616  TRP617  ASP618  TYR619  PRO620  LYS621  CYS622 
 ASP623  PHE694  ASN695  SER759  ASP760  ASP761  ALA762  ILE779  LEU786  VAL792 
 PHE793  MET794  SER795  GLU796  ALA797  LYS798  CYS799  TRP800  GLU811  SER814 

> <Gold.Protein.RotatedAtoms>
  150.7473  133.9751  159.3557 H   0  0  0  0  0  0  0  0  0  0  0  0  # atno 6907 bound_to 6896
  151.7687  135.0790  160.0366 H   0  0  0  0  0  0  0  0  0  0  0  0  # atno 6908 bound_to 6896
  152.3353  133.5968  159.5874 H   0  0  0  0  0  0  0  0  0  0  0  0  # atno 6909 bound_to 6896
  145.6250  139.2393  143.2117 H   0  0  0  0  0  0  0  0  0  0  0  0  # atno 7974 bound_to 7965
  154.4724  140.2042  155.9962 H   0  0  0  0  0  0  0  0  0  0  0  0  # atno 8008 bound_to 7997
  156.1032  140.3240  155.7941 H   0  0  0  0  0  0  0  0  0  0  0  0  # atno 8009 bound_to 7997
  155.4761  140.0535  157.2964 H   0  0  0  0  0  0  0  0  0  0  0  0  # atno 8010 bound_to 7997
  139.8257  143.7514  152.2666 H   0  0  0  0  0  0  0  0  0  0  0  0  # atno 10167 bound_to 10162
  157.2620  130.7166  149.6459 H   0  0  0  0  0  0  0  0  0  0  0  0  # atno 10718 bound_to 10713
  154.4921  135.5817  153.6467 H   0  0  0  0  0  0  0  0  0  0  0  0  # atno 10763 bound_to 10752
  152.9864  135.6115  154.3111 H   0  0  0  0  0  0  0  0  0  0  0  0  # atno 10764 bound_to 10752
  154.3012  135.2846  155.2589 H   0  0  0  0  0  0  0  0  0  0  0  0  # atno 10765 bound_to 10752
  139.9129  134.7932  156.1929 H   0  0  0  0  0  0  0  0  0  0  0  0  # atno 11005 bound_to 11000
  146.1401  140.7068  142.9371 LP  0  0  0  0  0  0  0  0  0  0  0  0  # atno 17320 bound_to 7965
  144.7216  140.4391  143.7004 LP  0  0  0  0  0  0  0  0  0  0  0  0  # atno 17321 bound_to 7965
  139.7706  144.7478  151.0230 LP  0  0  0  0  0  0  0  0  0  0  0  0  # atno 17342 bound_to 10162
  140.7810  143.4649  151.0226 LP  0  0  0  0  0  0  0  0  0  0  0  0  # atno 17343 bound_to 10162
  155.9664  130.4394  150.5259 LP  0  0  0  0  0  0  0  0  0  0  0  0  # atno 17370 bound_to 10713
  157.3165  131.0674  151.1963 LP  0  0  0  0  0  0  0  0  0  0  0  0  # atno 17371 bound_to 10713
  141.0572  133.6859  156.1883 LP  0  0  0  0  0  0  0  0  0  0  0  0  # atno 17394 bound_to 11000
  140.6718  134.4860  157.5587 LP  0  0  0  0  0  0  0  0  0  0  0  0  # atno 17395 bound_to 11000

$$$$
