AV-unprocessed.smi:54|AV-procd|sdf|544|dock2
  -GOLD-   2262016433D 1   1.00000     0.00000
 Structure written by MMmdl.
 44 46  0  0  0  0  0  0  0  0  1 V2000
  144.6628  132.6685  151.0793 C   0  0  0  0  0  0  0  0  0  0  0  0
  146.0750  132.0772  151.2138 C   0  0  0  0  0  0  0  0  0  0  0  0
  146.0255  130.5548  151.4232 C   0  0  0  0  0  0  0  0  0  0  0  0
  146.8370  132.7589  152.3560 C   0  0  0  0  0  0  0  0  0  0  0  0
  146.3231  133.6333  153.0551 O   0  0  0  0  0  0  0  0  0  0  0  0
  148.2044  132.3099  152.5466 N   0  0  0  0  0  0  0  0  0  0  0  0
  149.0839  132.7454  153.4778 C   0  0  0  0  0  0  0  0  0  0  0  0
  149.1674  134.0136  153.8549 N   0  0  0  0  0  0  0  0  0  0  0  0
  150.1085  134.2586  154.8160 C   0  0  0  0  0  0  0  0  0  0  0  0
  150.9421  133.3328  155.4073 C   0  0  0  0  0  0  0  0  0  0  0  0
  151.7669  133.9567  156.3368 N   0  0  0  0  0  0  0  0  0  0  0  0
  151.4165  135.2117  156.2801 C   0  0  0  0  0  0  0  0  0  0  0  0
  150.4135  135.4794  155.3776 N   0  0  0  0  0  0  0  0  0  0  0  0
  149.7580  136.7794  155.0393 C   0  0  1  0  0  0  0  0  0  0  0  0
  149.3529  137.3835  156.2352 O   0  0  0  0  0  0  0  0  0  0  0  0
  150.0315  138.6230  156.4153 C   0  0  1  0  0  0  0  0  0  0  0  0
  150.2320  138.9418  157.9084 C   0  0  0  0  0  0  0  0  0  0  0  0
  149.0138  138.9641  158.6231 O   0  0  0  0  0  0  0  0  0  0  0  0
  151.2855  138.5299  155.5437 C   0  0  2  0  0  0  0  0  0  0  0  0
  151.7940  139.7917  155.1555 O   0  0  0  0  0  0  0  0  0  0  0  0
  150.7821  137.7073  154.3650 C   0  0  2  0  0  0  0  0  0  0  0  0
  150.1658  138.4888  153.3573 O   0  0  0  0  0  0  0  0  0  0  0  0
  150.8563  131.9549  155.0173 C   0  0  0  0  0  0  0  0  0  0  0  0
  151.5104  131.0018  155.4351 O   0  0  0  0  0  0  0  0  0  0  0  0
  149.8826  131.7449  154.0318 N   0  0  0  0  0  0  0  0  0  0  0  0
  148.9100  136.5023  154.4114 H   0  0  0  0  0  0  0  0  0  0  0  0
  149.3686  139.3801  155.9924 H   0  0  0  0  0  0  0  0  0  0  0  0
  152.0695  137.9698  156.0542 H   0  0  0  0  0  0  0  0  0  0  0  0
  151.5856  137.1355  153.8982 H   0  0  0  0  0  0  0  0  0  0  0  0
  144.6982  133.7475  150.9234 H   0  0  0  0  0  0  0  0  0  0  0  0
  144.0621  132.4796  151.9701 H   0  0  0  0  0  0  0  0  0  0  0  0
  144.1379  132.2336  150.2284 H   0  0  0  0  0  0  0  0  0  0  0  0
  146.6127  132.2697  150.2842 H   0  0  0  0  0  0  0  0  0  0  0  0
  147.0262  130.1367  151.5390 H   0  0  0  0  0  0  0  0  0  0  0  0
  145.5620  130.0598  150.5693 H   0  0  0  0  0  0  0  0  0  0  0  0
  145.4486  130.2899  152.3103 H   0  0  0  0  0  0  0  0  0  0  0  0
  148.5426  131.6264  151.8855 H   0  0  0  0  0  0  0  0  0  0  0  0
  151.8801  135.9679  156.8959 H   0  0  0  0  0  0  0  0  0  0  0  0
  150.8652  138.1789  158.3616 H   0  0  0  0  0  0  0  0  0  0  0  0
  150.7456  139.8954  158.0314 H   0  0  0  0  0  0  0  0  0  0  0  0
  149.1100  139.5440  159.3632 H   0  0  0  0  0  0  0  0  0  0  0  0
  151.9200  140.3123  155.9344 H   0  0  0  0  0  0  0  0  0  0  0  0
  149.5916  137.9295  152.8560 H   0  0  0  0  0  0  0  0  0  0  0  0
  149.7682  130.7964  153.7067 H   0  0  0  0  0  0  0  0  0  0  0  0
  1  2  1  0  0  0  0
  1 30  1  0  0  0  0
  1 31  1  0  0  0  0
  1 32  1  0  0  0  0
  2  3  1  0  0  0  0
  2  4  1  0  0  0  0
  2 33  1  0  0  0  0
  3 34  1  0  0  0  0
  3 35  1  0  0  0  0
  3 36  1  0  0  0  0
  4  5  2  0  0  0  0
  4  6  1  0  0  0  0
  6 37  1  0  0  0  0
  6  7  1  0  0  0  0
  7 25  1  0  0  0  0
  7  8  2  0  0  0  0
  8  9  1  0  0  0  0
  9 13  1  0  0  0  0
  9 10  2  0  0  0  0
 10 11  1  0  0  0  0
 10 23  1  0  0  0  0
 11 12  2  0  0  0  0
 12 13  1  0  0  0  0
 12 38  1  0  0  0  0
 13 14  1  0  0  0  0
 14 26  1  0  0  0  0
 14 21  1  0  0  0  0
 14 15  1  0  0  0  0
 15 16  1  0  0  0  0
 16 27  1  0  0  0  0
 16 17  1  0  0  0  0
 16 19  1  0  0  0  0
 17 18  1  0  0  0  0
 17 39  1  0  0  0  0
 17 40  1  0  0  0  0
 18 41  1  0  0  0  0
 19 28  1  0  0  0  0
 19 20  1  0  0  0  0
 19 21  1  0  0  0  0
 20 42  1  0  0  0  0
 21 29  1  0  0  0  0
 21 22  1  0  0  0  0
 22 43  1  0  0  0  0
 23 24  2  0  0  0  0
 23 25  1  0  0  0  0
 25 44  1  0  0  0  0
M  END
> <s_m_source_file>
AV-unprocessed.smi

> <i_m_source_file_index>
54

> <i_lp_mmshare_version>
43012

> <i_f3d_flags>
0

> <s_epik_input>
W0NIM11bQ0hdKFtDSDNdKUMoPU8pW05IXWMobjEpW25IXWMoPU8pYyhjMTIpbltjSF1uMltDQEBIXTNPW0NASF0oW0NIMl1bT0hdKVtDQEBIXShbT0hdKVtDQEhdM1tPSF0=

> <s_epik_cmdline>
J2VwaWtfcHl0aG9uJywgJy1waCcsICc3LjAnLCAnLXRuJywgJzgnLCAnLW1hJywgJzIwMCcsICctbWV0YWxfYmluZGluZycsICctaW1hZScsICc8aW5maWxlLm1hZT4nLCAnLW9tYWUnLCAnPG91dGZpbGUubWFlPic=

> <r_lp_tautomer_probability>
0.85571

> <r_epik_Ionization_Penalty>
0.0316551

> <r_epik_Ionization_Penalty_Charging>
0.0316043

> <r_epik_Ionization_Penalty_Neutral>
5.07097e-05

> <r_epik_State_Penalty>
3.15494e-07

> <r_epik_Charging_Adjusted_Penalty>
0.0316047

> <i_epik_Tot_Q>
0

> <i_epik_Tot_abs_Q>
0

> <r_epik_Metal_State_Penalty>
0.421206

> <b_epik_Metal_Only>
0

> <s_epik_Chemistry_Notes>
This compound contains an acetal/aminal-like group ( X-CH(R)-Y where X, Y are N, S, or O) that may be acid/base labile, releasing an aldehyde.

> <s_lp_Force_Field>
OPLS_2005

> <r_lp_Energy>
44.5551

> <b_lp_Chiralities_Consistent>
1

> <s_lp_Variant>
AV-unprocessed.smi:54-16

> <Gold.Version>
5.8.1

> <Gold.Id.Protein>
6NUR|6NUR_protein|mol2

> <Gold.PLP.Fitness>
43.7019

> <Gold.PLP.PLP>
-35.5876

> <Gold.PLP.part.hbond>
-6.1828

> <Gold.PLP.part.metal>
0.0000

> <Gold.PLP.part.buried>
-5.5911

> <Gold.PLP.part.nonpolar>
-25.1614

> <Gold.PLP.part.repulsive>
1.1749

> <Gold.PLP.ligand.clash>
0.0000

> <Gold.PLP.ligand.torsion>
0.4161

> <Gold.PLP.Chemscore.Hbond>
2.9600

> <Gold.PLP.Chemscore.CHOScore>
0.0000

> <Gold.PLP.Chemscore.Metal>
0.0000

> <Gold.Chemscore.Hbonds>
donor molecule, donor type, donor heavy atom, donor atom, acceptor molecule, acceptor atom, score
      L1  H     6    37       P1 10747  1.00
      L1  H    22    43       P1  7948  1.00
      P1  H  7989  7998       L1    20  0.99

> <Gold.PLP.Chemscore.Internal.Correction>
0.0664

> <Gold.Rescore>
     Score         DG    S(hbond)    S(metal)    S(lipo)     H(rot)  DE(clash)    DE(int)     intcor
      8.81      -9.88       2.66        0.00      50.11       4.05       0.40       0.66       ----

> <Gold.Chemscore.Fitness>
8.8100

> <Gold.Chemscore.DG>
-9.8756

> <Gold.Chemscore.ZeroCoef>
-5.4800

> <Gold.Chemscore.Hbond>
2.6643

> <Gold.Chemscore.Metal>
0.0000

> <Gold.Chemscore.Lipo>
50.1119

> <Gold.Chemscore.Internal_Hbond>
0.0000

> <Gold.Chemscore.DEClash>
0.4029

> <Gold.Chemscore.DEInternal>
0.6628

> <Gold.Chemscore.Rot>
4.0493

> <Gold.Chemscore.Internal.Correction>
   9.000000E+99

> <Gold.Chemscore.Hbonds>
donor molecule, donor type, donor heavy atom, donor atom, acceptor molecule, acceptor atom, score
      L1  H     6    37       P1 10747  0.99
      L1  H    22    43       P1  7948  0.69
      P1  H  7989  7998       L1    20  0.78

> <Gold.Chemscore.Hbond.Weighted>
-8.8988

> <Gold.Chemscore.Metal.Weighted>
-0.0000

> <Gold.Chemscore.Lipo.Weighted>
-5.8631

> <Gold.Chemscore.Internal_Hbond.Weighted>
0.0000

> <Gold.Chemscore.DEClash.Weighted>
0.4029

> <Gold.Chemscore.DEInternal.Weighted>
0.6628

> <Gold.Chemscore.Rot.Weighted>
10.3662

> <Gold.Chemscore.Internal.Correction.Weighted>
   9.000000E+99

> <Gold.Protein.RotatedTorsions>
[ 6907 6896 6895 6894 ] final  -71.57 input  -60.11 | X-H torsion
[ 7974 7965 7964 7962 ] final -171.10 input  175.53 | X-H torsion
[ 8008 7997 7996 7995 ] final   79.51 input   59.86 | X-H torsion
[ 10167 10162 10161 10158 ] final   86.63 input  -65.29 | X-H torsion
[ 10718 10713 10712 10709 ] final -142.79 input   66.30 | X-H torsion
[ 10763 10752 10751 10750 ] final -161.34 input  -60.55 | X-H torsion
[ 11005 11000 10999 10996 ] final  154.51 input  -57.11 | X-H torsion

> <Gold.Protein.ActiveResidues>
 VAL166  LYS551  ARG553  GLY616  TRP617  ASP618  TYR619  PRO620  LYS621  CYS622 
 ASP623  PHE694  ASN695  SER759  ASP760  ASP761  ALA762  ILE779  LEU786  VAL792 
 PHE793  MET794  SER795  GLU796  ALA797  LYS798  CYS799  TRP800  GLU811  SER814 

> <Gold.Protein.RotatedAtoms>
  150.7207  134.5289  159.5690 H   0  0  0  0  0  0  0  0  0  0  0  0  # atno 6907 bound_to 6896
  152.2827  134.7808  160.0402 H   0  0  0  0  0  0  0  0  0  0  0  0  # atno 6908 bound_to 6896
  151.8449  133.3394  159.3691 H   0  0  0  0  0  0  0  0  0  0  0  0  # atno 6909 bound_to 6896
  144.7161  140.1973  143.6342 H   0  0  0  0  0  0  0  0  0  0  0  0  # atno 7974 bound_to 7965
  155.8707  140.3449  155.5819 H   0  0  0  0  0  0  0  0  0  0  0  0  # atno 8008 bound_to 7997
  155.7830  140.0861  157.2068 H   0  0  0  0  0  0  0  0  0  0  0  0  # atno 8009 bound_to 7997
  154.4017  140.1497  156.3061 H   0  0  0  0  0  0  0  0  0  0  0  0  # atno 8010 bound_to 7997
  139.8855  144.6415  150.8796 H   0  0  0  0  0  0  0  0  0  0  0  0  # atno 10167 bound_to 10162
  156.3502  130.7684  151.1835 H   0  0  0  0  0  0  0  0  0  0  0  0  # atno 10718 bound_to 10713
  154.7312  135.3047  154.8888 H   0  0  0  0  0  0  0  0  0  0  0  0  # atno 10763 bound_to 10752
  153.9730  135.6739  153.4752 H   0  0  0  0  0  0  0  0  0  0  0  0  # atno 10764 bound_to 10752
  153.0920  135.4954  154.8629 H   0  0  0  0  0  0  0  0  0  0  0  0  # atno 10765 bound_to 10752
  140.1496  134.8684  157.2437 H   0  0  0  0  0  0  0  0  0  0  0  0  # atno 11005 bound_to 11000
  145.8713  139.2273  143.1659 LP  0  0  0  0  0  0  0  0  0  0  0  0  # atno 17320 bound_to 7965
  146.0082  140.8459  142.9984 LP  0  0  0  0  0  0  0  0  0  0  0  0  # atno 17321 bound_to 7965
  140.7736  143.3551  151.1937 LP  0  0  0  0  0  0  0  0  0  0  0  0  # atno 17342 bound_to 10162
  139.7157  143.9305  152.2965 LP  0  0  0  0  0  0  0  0  0  0  0  0  # atno 17343 bound_to 10162
  157.7460  131.0430  150.4720 LP  0  0  0  0  0  0  0  0  0  0  0  0  # atno 17370 bound_to 10713
  156.4914  130.4096  149.6404 LP  0  0  0  0  0  0  0  0  0  0  0  0  # atno 17371 bound_to 10713
  140.2621  134.3559  155.7403 LP  0  0  0  0  0  0  0  0  0  0  0  0  # atno 17394 bound_to 11000
  141.2197  133.7375  156.9095 LP  0  0  0  0  0  0  0  0  0  0  0  0  # atno 17395 bound_to 11000

$$$$
