AV-unprocessed.smi:2881|AV-procd|sdf|11065|dock2
  -GOLD-   2272015533D 1   1.00000     0.00000
 Structure written by MMmdl.
 40 42  0  0  0  0  0  0  0  0  1 V2000
  145.0135  133.0713  151.4565 C   0  0  0  0  0  0  0  0  0  0  0  0
  145.0688  134.5590  151.2704 C   0  0  0  0  0  0  0  0  0  0  0  0
  145.9815  135.4854  151.8546 C   0  0  0  0  0  0  0  0  0  0  0  0
  145.5986  136.6991  151.3554 C   0  0  0  0  0  0  0  0  0  0  0  0
  146.1475  138.0735  151.5702 C   0  0  0  0  0  0  0  0  0  0  0  0
  146.6659  138.2380  152.9989 C   0  0  0  0  0  0  0  0  0  0  0  0
  145.9037  138.0857  153.9531 O   0  0  0  0  0  0  0  0  0  0  0  0
  147.9640  138.5500  153.1316 N   0  0  0  0  0  0  0  0  0  0  0  0
  148.6611  138.7121  154.4048 C   0  0  2  0  0  0  0  0  0  0  0  0
  148.0193  139.7683  155.3398 C   0  0  2  0  0  0  0  0  0  0  0  0
  147.7996  141.1114  154.6107 C   0  0  0  0  0  0  0  0  0  0  0  0
  149.2372  141.6304  154.4225 C   0  0  0  0  0  0  0  0  0  0  0  0
  150.0875  140.5315  155.0899 C   0  0  1  0  0  0  0  0  0  0  0  0
  149.1895  140.1178  156.2503 C   0  0  0  0  0  0  0  0  0  0  0  0
  150.0931  139.2709  154.1942 C   0  0  1  0  0  0  0  0  0  0  0  0
  151.2019  138.2699  154.5714 C   0  0  0  0  0  0  0  0  0  0  0  0
  150.8561  136.9745  154.1280 O   0  0  0  0  0  0  0  0  0  0  0  0
  144.5190  136.4524  150.5373 N   0  0  0  0  0  0  0  0  0  0  0  0
  144.1867  135.1495  150.4780 N   0  0  0  0  0  0  0  0  0  0  0  0
  144.0060  137.1528  150.0210 H   0  0  0  0  0  0  0  0  0  0  0  0
  145.8816  132.7112  152.0091 H   0  0  0  0  0  0  0  0  0  0  0  0
  144.9951  132.5543  150.4968 H   0  0  0  0  0  0  0  0  0  0  0  0
  144.1219  132.7788  152.0114 H   0  0  0  0  0  0  0  0  0  0  0  0
  146.7974  135.2880  152.5341 H   0  0  0  0  0  0  0  0  0  0  0  0
  145.3721  138.8157  151.3773 H   0  0  0  0  0  0  0  0  0  0  0  0
  146.9556  138.2781  150.8666 H   0  0  0  0  0  0  0  0  0  0  0  0
  148.5176  138.6524  152.2936 H   0  0  0  0  0  0  0  0  0  0  0  0
  148.7023  137.7493  154.9186 H   0  0  0  0  0  0  0  0  0  0  0  0
  147.1315  139.4070  155.8601 H   0  0  0  0  0  0  0  0  0  0  0  0
  147.2611  141.0128  153.6684 H   0  0  0  0  0  0  0  0  0  0  0  0
  147.2296  141.7969  155.2391 H   0  0  0  0  0  0  0  0  0  0  0  0
  149.4939  141.7771  153.3727 H   0  0  0  0  0  0  0  0  0  0  0  0
  149.3671  142.5855  154.9328 H   0  0  0  0  0  0  0  0  0  0  0  0
  151.0822  140.8739  155.3769 H   0  0  0  0  0  0  0  0  0  0  0  0
  148.9725  140.9338  156.9422 H   0  0  0  0  0  0  0  0  0  0  0  0
  149.5676  139.2653  156.8163 H   0  0  0  0  0  0  0  0  0  0  0  0
  150.2530  139.5741  153.1576 H   0  0  0  0  0  0  0  0  0  0  0  0
  152.1436  138.5525  154.1003 H   0  0  0  0  0  0  0  0  0  0  0  0
  151.3735  138.2487  155.6477 H   0  0  0  0  0  0  0  0  0  0  0  0
  151.1594  136.8692  153.2391 H   0  0  0  0  0  0  0  0  0  0  0  0
  1 21  1  0  0  0  0
  1 22  1  0  0  0  0
  1 23  1  0  0  0  0
  1  2  1  0  0  0  0
  2 19  2  0  0  0  0
  2  3  1  0  0  0  0
  3  4  2  0  0  0  0
  3 24  1  0  0  0  0
  4 18  1  0  0  0  0
  4  5  1  0  0  0  0
  5  6  1  0  0  0  0
  5 25  1  0  0  0  0
  5 26  1  0  0  0  0
  6  7  2  0  0  0  0
  6  8  1  0  0  0  0
  8  9  1  0  0  0  0
  8 27  1  0  0  0  0
  9 15  1  0  0  0  0
  9 10  1  0  0  0  0
  9 28  1  0  0  0  0
 10 14  1  0  0  0  0
 10 11  1  0  0  0  0
 10 29  1  0  0  0  0
 11 12  1  0  0  0  0
 11 30  1  0  0  0  0
 11 31  1  0  0  0  0
 12 13  1  0  0  0  0
 12 32  1  0  0  0  0
 12 33  1  0  0  0  0
 13 14  1  0  0  0  0
 13 15  1  0  0  0  0
 13 34  1  0  0  0  0
 14 35  1  0  0  0  0
 14 36  1  0  0  0  0
 15 16  1  0  0  0  0
 15 37  1  0  0  0  0
 16 17  1  0  0  0  0
 16 38  1  0  0  0  0
 16 39  1  0  0  0  0
 17 40  1  0  0  0  0
 18 19  1  0  0  0  0
 18 20  1  0  0  0  0
M  END
> <s_m_source_file>
AV-unprocessed.smi

> <i_m_source_file_index>
2881

> <i_lp_mmshare_version>
43012

> <i_f3d_flags>
0

> <s_epik_input>
W0NIM11jMVtjSF1jKG5bbkhdMSlbQ0gyXUMoPU8pW05IXVtDQEhdKFtDQEBIXTIzKVtDQEhdKFtDSDJdW09IXSlbQ0BASF0oW0NIMl0zKVtDSDJdW0NIMl0y

> <s_epik_cmdline>
J2VwaWtfcHl0aG9uJywgJy1waCcsICc3LjAnLCAnLXRuJywgJzgnLCAnLW1hJywgJzIwMCcsICctbWV0YWxfYmluZGluZycsICctaW1hZScsICc8aW5maWxlLm1hZT4nLCAnLW9tYWUnLCAnPG91dGZpbGUubWFlPic=

> <r_lp_tautomer_probability>
0.5

> <r_epik_Ionization_Penalty>
0.00013396

> <r_epik_Ionization_Penalty_Charging>
0

> <r_epik_Ionization_Penalty_Neutral>
0.00013396

> <r_epik_State_Penalty>
0.41068

> <r_epik_Charging_Adjusted_Penalty>
0.41068

> <i_epik_Tot_Q>
0

> <i_epik_Tot_abs_Q>
0

> <r_epik_Metal_State_Penalty>
0.41066

> <b_epik_Metal_Only>
0

> <s_lp_Force_Field>
OPLS_2005

> <r_lp_Energy>
46.7591

> <b_lp_Chiralities_Consistent>
1

> <s_lp_Variant>
AV-unprocessed.smi:2881-11

> <Gold.Version>
5.8.1

> <Gold.Id.Protein>
6NUR|6NUR_protein|mol2

> <Gold.PLP.Fitness>
37.2155

> <Gold.PLP.PLP>
-30.0524

> <Gold.PLP.part.hbond>
-4.6369

> <Gold.PLP.part.metal>
0.0000

> <Gold.PLP.part.buried>
4.4993

> <Gold.PLP.part.nonpolar>
-29.2127

> <Gold.PLP.part.repulsive>
0.4988

> <Gold.PLP.ligand.clash>
0.0000

> <Gold.PLP.ligand.torsion>
0.6016

> <Gold.PLP.Chemscore.Hbond>
2.7784

> <Gold.PLP.Chemscore.CHOScore>
0.0000

> <Gold.PLP.Chemscore.Metal>
0.0000

> <Gold.Chemscore.Hbonds>
donor molecule, donor type, donor heavy atom, donor atom, acceptor molecule, acceptor atom, score
      L1  H     8    27       P1  7957  0.80
      L1  H    17    40       P1  7949  1.00
      L1  H    18    20       P1 10171  0.70

> <Gold.PLP.Chemscore.Internal.Correction>
0.0311

> <Gold.Rescore>
     Score         DG    S(hbond)    S(metal)    S(lipo)     H(rot)  DE(clash)    DE(int)     intcor
     13.32     -15.53       2.06        0.00      76.96       2.28       0.72       1.49       ----

> <Gold.Chemscore.Fitness>
13.3156

> <Gold.Chemscore.DG>
-15.5260

> <Gold.Chemscore.ZeroCoef>
-5.4800

> <Gold.Chemscore.Hbond>
2.0559

> <Gold.Chemscore.Metal>
0.0000

> <Gold.Chemscore.Lipo>
76.9607

> <Gold.Chemscore.Internal_Hbond>
0.0000

> <Gold.Chemscore.DEClash>
0.7155

> <Gold.Chemscore.DEInternal>
1.4949

> <Gold.Chemscore.Rot>
2.2755

> <Gold.Chemscore.Internal.Correction>
   9.000000E+99

> <Gold.Chemscore.Hbonds>
donor molecule, donor type, donor heavy atom, donor atom, acceptor molecule, acceptor atom, score
      L1  H     8    27       P1  7957  0.69
      L1  H    17    40       P1  7949  0.48
      L1  H    18    20       P1 10171  0.66

> <Gold.Chemscore.Hbond.Weighted>
-6.8668

> <Gold.Chemscore.Metal.Weighted>
-0.0000

> <Gold.Chemscore.Lipo.Weighted>
-9.0044

> <Gold.Chemscore.Internal_Hbond.Weighted>
0.0000

> <Gold.Chemscore.DEClash.Weighted>
0.7155

> <Gold.Chemscore.DEInternal.Weighted>
1.4949

> <Gold.Chemscore.Rot.Weighted>
5.8252

> <Gold.Chemscore.Internal.Correction.Weighted>
   9.000000E+99

> <Gold.Protein.RotatedTorsions>
[ 6907 6896 6895 6894 ] final  -42.46 input  -60.11 | X-H torsion
[ 7974 7965 7964 7962 ] final  102.71 input  175.53 | X-H torsion
[ 8008 7997 7996 7995 ] final  -84.86 input   59.86 | X-H torsion
[ 10167 10162 10161 10158 ] final -173.30 input  -65.29 | X-H torsion
[ 10718 10713 10712 10709 ] final   32.73 input   66.30 | X-H torsion
[ 10763 10752 10751 10750 ] final -104.92 input  -60.55 | X-H torsion
[ 11005 11000 10999 10996 ] final  161.92 input  -57.11 | X-H torsion

> <Gold.Protein.ActiveResidues>
 VAL166  LYS551  ARG553  GLY616  TRP617  ASP618  TYR619  PRO620  LYS621  CYS622 
 ASP623  PHE694  ASN695  SER759  ASP760  ASP761  ALA762  ILE779  LEU786  VAL792 
 PHE793  MET794  SER795  GLU796  ALA797  LYS798  CYS799  TRP800  GLU811  SER814 

> <Gold.Protein.RotatedAtoms>
  150.9549  134.8945  159.7694 H   0  0  0  0  0  0  0  0  0  0  0  0  # atno 6907 bound_to 6896
  152.5134  134.3753  159.9342 H   0  0  0  0  0  0  0  0  0  0  0  0  # atno 6908 bound_to 6896
  151.3768  133.3795  159.2740 H   0  0  0  0  0  0  0  0  0  0  0  0  # atno 6909 bound_to 6896
  145.3555  139.2429  143.3535 H   0  0  0  0  0  0  0  0  0  0  0  0  # atno 7974 bound_to 7965
  154.6344  140.0599  156.9771 H   0  0  0  0  0  0  0  0  0  0  0  0  # atno 8008 bound_to 7997
  155.1615  140.3283  155.4392 H   0  0  0  0  0  0  0  0  0  0  0  0  # atno 8009 bound_to 7997
  156.2499  140.1930  156.6722 H   0  0  0  0  0  0  0  0  0  0  0  0  # atno 8010 bound_to 7997
  139.5696  144.1673  152.1364 H   0  0  0  0  0  0  0  0  0  0  0  0  # atno 10167 bound_to 10162
  157.2890  130.7293  149.6599 H   0  0  0  0  0  0  0  0  0  0  0  0  # atno 10718 bound_to 10713
  154.7911  135.4768  154.0055 H   0  0  0  0  0  0  0  0  0  0  0  0  # atno 10763 bound_to 10752
  153.1633  135.6812  153.8719 H   0  0  0  0  0  0  0  0  0  0  0  0  # atno 10764 bound_to 10752
  153.8325  135.3190  155.3398 H   0  0  0  0  0  0  0  0  0  0  0  0  # atno 10765 bound_to 10752
  140.2206  134.8199  157.3216 H   0  0  0  0  0  0  0  0  0  0  0  0  # atno 11005 bound_to 11000
  146.2950  140.4179  142.8725 LP  0  0  0  0  0  0  0  0  0  0  0  0  # atno 17320 bound_to 7965
  144.8686  140.7240  143.6061 LP  0  0  0  0  0  0  0  0  0  0  0  0  # atno 17321 bound_to 7965
  140.1203  144.5379  150.6867 LP  0  0  0  0  0  0  0  0  0  0  0  0  # atno 17342 bound_to 10162
  140.6980  143.2416  151.4945 LP  0  0  0  0  0  0  0  0  0  0  0  0  # atno 17343 bound_to 10162
  155.9666  130.4315  150.4921 LP  0  0  0  0  0  0  0  0  0  0  0  0  # atno 17370 bound_to 10713
  157.2880  131.0620  151.2153 LP  0  0  0  0  0  0  0  0  0  0  0  0  # atno 17371 bound_to 10713
  140.1854  134.4437  155.7747 LP  0  0  0  0  0  0  0  0  0  0  0  0  # atno 17394 bound_to 11000
  141.2223  133.7002  156.7938 LP  0  0  0  0  0  0  0  0  0  0  0  0  # atno 17395 bound_to 11000

$$$$
