AV-unprocessed.smi:3176|AV-procd|sdf|12124|dock4
  -GOLD-   2272017563D 1   1.00000     0.00000
 Structure written by MMmdl.
 32 33  0  0  0  0  0  0  0  0  1 V2000
  150.8146  139.5388  158.7316 O   0  0  0  0  0  0  0  0  0  0  0  0
  151.8161  139.5737  158.0155 C   0  0  0  0  0  0  0  0  0  0  0  0
  153.0633  139.4222  158.4870 N   0  0  0  0  0  0  0  0  0  0  0  0
  153.4082  139.2143  159.8888 C   0  0  0  0  0  0  0  0  0  0  0  0
  154.2429  140.3800  160.4459 C   0  0  0  0  0  0  0  0  0  0  0  0
  153.4546  141.6743  160.5061 C   0  0  0  0  0  0  0  0  0  0  0  0
  153.1785  142.2908  161.7453 C   0  0  0  0  0  0  0  0  0  0  0  0
  152.4486  143.4951  161.7479 C   0  0  0  0  0  0  0  0  0  0  0  0
  152.0263  144.0344  160.5175 C   0  0  0  0  0  0  0  0  0  0  0  0
  152.3544  143.3428  159.3343 C   0  0  0  0  0  0  0  0  0  0  0  0
  153.0544  142.1877  159.3207 N   0  0  0  0  0  0  0  0  0  0  0  0
  151.6792  139.7912  156.5046 C   0  0  2  0  0  0  0  0  0  0  0  0
  150.7533  138.7727  155.8139 C   0  0  0  0  0  0  0  0  0  0  0  0
  151.7031  137.9172  154.9988 C   0  0  0  0  0  0  0  0  0  0  0  0
  152.8220  138.9017  154.6922 C   0  0  0  0  0  0  0  0  0  0  0  0
  152.9645  139.6141  155.9111 O   0  0  0  0  0  0  0  0  0  0  0  0
  153.8274  139.4555  157.8278 H   0  0  0  0  0  0  0  0  0  0  0  0
  152.5005  139.0781  160.4793 H   0  0  0  0  0  0  0  0  0  0  0  0
  153.9704  138.2829  159.9643 H   0  0  0  0  0  0  0  0  0  0  0  0
  154.6028  140.1368  161.4468 H   0  0  0  0  0  0  0  0  0  0  0  0
  155.1313  140.5363  159.8324 H   0  0  0  0  0  0  0  0  0  0  0  0
  153.5190  141.8535  162.6726 H   0  0  0  0  0  0  0  0  0  0  0  0
  152.2179  143.9959  162.6765 H   0  0  0  0  0  0  0  0  0  0  0  0
  151.4647  144.9562  160.4813 H   0  0  0  0  0  0  0  0  0  0  0  0
  152.0469  143.7279  158.3732 H   0  0  0  0  0  0  0  0  0  0  0  0
  151.3291  140.8042  156.2988 H   0  0  0  0  0  0  0  0  0  0  0  0
  150.1541  138.1753  156.5029 H   0  0  0  0  0  0  0  0  0  0  0  0
  150.0618  139.2958  155.1524 H   0  0  0  0  0  0  0  0  0  0  0  0
  152.0844  137.0958  155.6071 H   0  0  0  0  0  0  0  0  0  0  0  0
  151.2427  137.4986  154.1034 H   0  0  0  0  0  0  0  0  0  0  0  0
  153.7506  138.4098  154.4019 H   0  0  0  0  0  0  0  0  0  0  0  0
  152.5300  139.5899  153.8972 H   0  0  0  0  0  0  0  0  0  0  0  0
  1  2  2  0  0  0  0
  2  3  1  0  0  0  0
  2 12  1  0  0  0  0
  3  4  1  0  0  0  0
  3 17  1  0  0  0  0
  4  5  1  0  0  0  0
  4 18  1  0  0  0  0
  4 19  1  0  0  0  0
  5  6  1  0  0  0  0
  5 20  1  0  0  0  0
  5 21  1  0  0  0  0
  6 11  1  0  0  0  0
  6  7  2  0  0  0  0
  7  8  1  0  0  0  0
  7 22  1  0  0  0  0
  8  9  2  0  0  0  0
  8 23  1  0  0  0  0
  9 10  1  0  0  0  0
  9 24  1  0  0  0  0
 10 11  2  0  0  0  0
 10 25  1  0  0  0  0
 12 16  1  0  0  0  0
 12 13  1  0  0  0  0
 12 26  1  0  0  0  0
 13 14  1  0  0  0  0
 13 27  1  0  0  0  0
 13 28  1  0  0  0  0
 14 15  1  0  0  0  0
 14 29  1  0  0  0  0
 14 30  1  0  0  0  0
 15 16  1  0  0  0  0
 15 31  1  0  0  0  0
 15 32  1  0  0  0  0
M  END
> <s_m_source_file>
AV-unprocessed.smi

> <i_m_source_file_index>
3176

> <i_lp_mmshare_version>
43012

> <i_f3d_flags>
0

> <s_epik_input>
TzFbQ0gyXVtDSDJdW0NIMl1bQ0BIXTFDKD1PKVtOSF1bQ0gyXVtDSDJdYzJbY0hdW2NIXVtjSF1bY0hdbjI=

> <s_epik_cmdline>
J2VwaWtfcHl0aG9uJywgJy1waCcsICc3LjAnLCAnLXRuJywgJzgnLCAnLW1hJywgJzIwMCcsICctbWV0YWxfYmluZGluZycsICctaW1hZScsICc8aW5maWxlLm1hZT4nLCAnLW9tYWUnLCAnPG91dGZpbGUubWFlPic=

> <r_epik_Ionization_Penalty>
0.0282744

> <r_epik_Ionization_Penalty_Charging>
0

> <r_epik_Ionization_Penalty_Neutral>
0.0282744

> <r_epik_State_Penalty>
0.0231919

> <r_epik_Charging_Adjusted_Penalty>
0.0231919

> <i_epik_Tot_Q>
0

> <i_epik_Tot_abs_Q>
0

> <r_epik_Metal_State_Penalty>
0.02213

> <b_epik_Metal_Only>
0

> <s_lp_Force_Field>
OPLS_2005

> <r_lp_Energy>
16.3652

> <b_lp_Chiralities_Consistent>
1

> <s_lp_Variant>
AV-unprocessed.smi:3176-1

> <Gold.Version>
5.8.1

> <Gold.Id.Protein>
6NUR|6NUR_protein|mol2

> <Gold.PLP.Fitness>
40.0807

> <Gold.PLP.PLP>
-37.2789

> <Gold.PLP.part.hbond>
-0.9794

> <Gold.PLP.part.metal>
0.0000

> <Gold.PLP.part.buried>
-4.8457

> <Gold.PLP.part.nonpolar>
-31.1940

> <Gold.PLP.part.repulsive>
0.0963

> <Gold.PLP.ligand.clash>
0.0000

> <Gold.PLP.ligand.torsion>
0.1077

> <Gold.PLP.Chemscore.Hbond>
1.0000

> <Gold.PLP.Chemscore.CHOScore>
0.0000

> <Gold.PLP.Chemscore.Metal>
0.0000

> <Gold.Chemscore.Hbonds>
donor molecule, donor type, donor heavy atom, donor atom, acceptor molecule, acceptor atom, score
      P1  H  7997  8009       L1    16  1.00

> <Gold.PLP.Chemscore.Internal.Correction>
0.0171

> <Gold.Rescore>
     Score         DG    S(hbond)    S(metal)    S(lipo)     H(rot)  DE(clash)    DE(int)     intcor
     15.27     -16.65       0.96        0.00     101.12       1.52       0.02       1.36       ----

> <Gold.Chemscore.Fitness>
15.2689

> <Gold.Chemscore.DG>
-16.6481

> <Gold.Chemscore.ZeroCoef>
-5.4800

> <Gold.Chemscore.Hbond>
0.9634

> <Gold.Chemscore.Metal>
0.0000

> <Gold.Chemscore.Lipo>
101.1193

> <Gold.Chemscore.Internal_Hbond>
0.0000

> <Gold.Chemscore.DEClash>
0.0239

> <Gold.Chemscore.DEInternal>
1.3553

> <Gold.Chemscore.Rot>
1.5159

> <Gold.Chemscore.Internal.Correction>
   9.000000E+99

> <Gold.Chemscore.Hbonds>
donor molecule, donor type, donor heavy atom, donor atom, acceptor molecule, acceptor atom, score
      P1  H  7997  8009       L1    16  0.94

> <Gold.Chemscore.Hbond.Weighted>
-3.2178

> <Gold.Chemscore.Metal.Weighted>
-0.0000

> <Gold.Chemscore.Lipo.Weighted>
-11.8310

> <Gold.Chemscore.Internal_Hbond.Weighted>
0.0000

> <Gold.Chemscore.DEClash.Weighted>
0.0239

> <Gold.Chemscore.DEInternal.Weighted>
1.3553

> <Gold.Chemscore.Rot.Weighted>
3.8807

> <Gold.Chemscore.Internal.Correction.Weighted>
   9.000000E+99

> <Gold.Protein.RotatedTorsions>
[ 6907 6896 6895 6894 ] final  138.41 input  -60.11 | X-H torsion
[ 7974 7965 7964 7962 ] final   68.92 input  175.53 | X-H torsion
[ 8008 7997 7996 7995 ] final -171.28 input   59.86 | X-H torsion
[ 10167 10162 10161 10158 ] final -110.06 input  -65.29 | X-H torsion
[ 10718 10713 10712 10709 ] final   92.41 input   66.30 | X-H torsion
[ 10763 10752 10751 10750 ] final -146.05 input  -60.55 | X-H torsion
[ 11005 11000 10999 10996 ] final  -94.20 input  -57.11 | X-H torsion

> <Gold.Protein.ActiveResidues>
 VAL166  LYS551  ARG553  GLY616  TRP617  ASP618  TYR619  PRO620  LYS621  CYS622 
 ASP623  PHE694  ASN695  SER759  ASP760  ASP761  ALA762  ILE779  LEU786  VAL792 
 PHE793  MET794  SER795  GLU796  ALA797  LYS798  CYS799  TRP800  GLU811  SER814 

> <Gold.Protein.RotatedAtoms>
  152.2669  133.5347  159.5415 H   0  0  0  0  0  0  0  0  0  0  0  0  # atno 6907 bound_to 6896
  150.7145  134.0752  159.3887 H   0  0  0  0  0  0  0  0  0  0  0  0  # atno 6908 bound_to 6896
  151.8668  135.0504  160.0526 H   0  0  0  0  0  0  0  0  0  0  0  0  # atno 6909 bound_to 6896
  145.7968  139.2961  143.1178 H   0  0  0  0  0  0  0  0  0  0  0  0  # atno 7974 bound_to 7965
  155.9295  140.1088  157.1143 H   0  0  0  0  0  0  0  0  0  0  0  0  # atno 8008 bound_to 7997
  154.4068  140.1240  156.4850 H   0  0  0  0  0  0  0  0  0  0  0  0  # atno 8009 bound_to 7997
  155.7097  140.3471  155.4971 H   0  0  0  0  0  0  0  0  0  0  0  0  # atno 8010 bound_to 7997
  140.1485  143.4218  152.1511 H   0  0  0  0  0  0  0  0  0  0  0  0  # atno 10167 bound_to 10162
  157.6958  131.0442  150.3877 H   0  0  0  0  0  0  0  0  0  0  0  0  # atno 10718 bound_to 10713
  154.8355  135.3397  154.6600 H   0  0  0  0  0  0  0  0  0  0  0  0  # atno 10763 bound_to 10752
  153.7215  135.6958  153.5016 H   0  0  0  0  0  0  0  0  0  0  0  0  # atno 10764 bound_to 10752
  153.2378  135.4395  155.0618 H   0  0  0  0  0  0  0  0  0  0  0  0  # atno 10765 bound_to 10752
  141.1477  133.7940  157.0265 H   0  0  0  0  0  0  0  0  0  0  0  0  # atno 11005 bound_to 11000
  145.9920  140.8594  143.0062 LP  0  0  0  0  0  0  0  0  0  0  0  0  # atno 17320 bound_to 7965
  144.6774  140.2229  143.7364 LP  0  0  0  0  0  0  0  0  0  0  0  0  # atno 17321 bound_to 7965
  139.5437  144.7279  151.4651 LP  0  0  0  0  0  0  0  0  0  0  0  0  # atno 17342 bound_to 10162
  140.6717  143.8280  150.7007 LP  0  0  0  0  0  0  0  0  0  0  0  0  # atno 17343 bound_to 10162
  156.4284  130.3967  149.6777 LP  0  0  0  0  0  0  0  0  0  0  0  0  # atno 17370 bound_to 10713
  156.4003  130.7671  151.2678 LP  0  0  0  0  0  0  0  0  0  0  0  0  # atno 17371 bound_to 10713
  140.0781  134.9664  157.1580 LP  0  0  0  0  0  0  0  0  0  0  0  0  # atno 17394 bound_to 11000
  140.3615  134.2489  155.7186 LP  0  0  0  0  0  0  0  0  0  0  0  0  # atno 17395 bound_to 11000

$$$$
