#       Name:                AV-unprocessed.smi:781
#       Creating user name   scv26
#       Creation time:       Fri Mar 27 01:13:25 2020


#       File generated by GOLD software.
#

@<TRIPOS>MOLECULE
AV-unprocessed.smi:781
    45    47     1
SMALL
NO_CHARGES


@<TRIPOS>ATOM
      1 ****        -6.4307   2.7637   0.2816 C.3            1 S1                 0.0000
      2 ****        -4.9723   2.4576   0.2520 C.2            1 S1                 0.0000
      3 ****        -4.2644   1.2912   0.3302 C.2            1 S1                 0.0000
      4 ****        -2.9161   1.7284   0.2376 C.2            1 S1                 0.0000
      5 ****        -1.8460   0.7990   0.2823 N.am           1 S1                 0.0000
      6 ****        -0.5301   1.0583   0.1980 C.2            1 S1                 0.0000
      7 ****        -0.0339   2.1753   0.0481 O.2            1 S1                 0.0000
      8 ****         0.1924  -0.0663   0.2924 N.am           1 S1                 0.0000
      9 ****         1.6510  -0.1312   0.2348 C.3            1 S1                 0.0000
     10 ****         2.2177  -0.0140  -1.2031 C.3            1 S1                 0.0000
     11 ****         1.5300  -1.0065  -2.1649 C.3            1 S1                 0.0000
     12 ****         2.0587  -2.3684  -1.6773 C.3            1 S1                 0.0000
     13 ****         3.0060  -1.9746  -0.5268 C.3            1 S1                 0.0000
     14 ****         3.5864  -0.6641  -1.0463 C.3            1 S1                 0.0000
     15 ****         2.1713  -1.5196   0.6930 C.3            1 S1                 0.0000
     16 ****         2.9940  -1.4677   1.9947 C.3            1 S1                 0.0000
     17 ****         2.1582  -1.1443   3.0860 O.3            1 S1                 0.0000
     18 ****        -2.8102   3.0427   0.1144 N.2            1 S1                 0.0000
     19 ****        -4.1275   3.5166   0.1230 O.3            1 S1                 0.0000
     20 ****        -7.0215   1.8477   0.2941 H              1 S1                 0.0000
     21 ****        -6.7227   3.3413  -0.5956 H              1 S1                 0.0000
     22 ****        -6.6858   3.3427   1.1693 H              1 S1                 0.0000
     23 ****        -4.6514   0.2887   0.4366 H              1 S1                 0.0000
     24 ****        -2.1108  -0.1682   0.3959 H              1 S1                 0.0000
     25 ****        -0.2968  -0.9407   0.4143 H              1 S1                 0.0000
     26 ****         2.0762   0.6567   0.8597 H              1 S1                 0.0000
     27 ****         2.2407   1.0094  -1.5795 H              1 S1                 0.0000
     28 ****         0.4419  -0.9469  -2.1497 H              1 S1                 0.0000
     29 ****         1.8493  -0.8234  -3.1918 H              1 S1                 0.0000
     30 ****         1.2583  -3.0319  -1.3481 H              1 S1                 0.0000
     31 ****         2.6039  -2.8745  -2.4749 H              1 S1                 0.0000
     32 ****         3.7426  -2.7446  -0.2954 H              1 S1                 0.0000
     33 ****         4.1255  -0.7728  -1.9892 H              1 S1                 0.0000
     34 ****         4.2293  -0.1523  -0.3288 H              1 S1                 0.0000
     35 ****         1.3497  -2.2225   0.8435 H              1 S1                 0.0000
     36 ****         3.4522  -2.4374   2.1912 H              1 S1                 0.0000
     37 ****         3.8007  -0.7374   1.9308 H              1 S1                 0.0000
     38 ****         2.6857  -1.1117   3.8696 H              1 S1                 0.0000
     39 ****        -0.6243   2.9796  -0.0208 LP             1 S1                 0.0000
     40 ****         0.9593   2.2782  -0.0048 LP             1 S1                 0.0000
     41 ****         1.4490  -1.8422   3.1858 LP             1 S1                 0.0000
     42 ****         1.7301  -0.2540   2.9305 LP             1 S1                 0.0000
     43 ****        -1.9710   3.5803   0.0328 LP             1 S1                 0.0000
     44 ****        -4.2544   4.1437   0.8916 LP             1 S1                 0.0000
     45 ****        -4.3180   3.9964  -0.7335 LP             1 S1                 0.0000
@<TRIPOS>BOND
    1    1    2 1     
    2    1   20 1     
    3    1   21 1     
    4    1   22 1     
    5    2   19 1     
    6    2    3 2     
    7    3    4 1     
    8    3   23 1     
    9    4    5 1     
   10    4   18 2     
   11    5    6 am    
   12    5   24 1     
   13    6    7 2     
   14    6    8 am    
   15    8    9 1     
   16    8   25 1     
   17    9   15 1     
   18    9   10 1     
   19    9   26 1     
   20   10   14 1     
   21   10   11 1     
   22   10   27 1     
   23   11   12 1     
   24   11   28 1     
   25   11   29 1     
   26   12   13 1     
   27   12   30 1     
   28   12   31 1     
   29   13   14 1     
   30   13   15 1     
   31   13   32 1     
   32   14   33 1     
   33   14   34 1     
   34   15   16 1     
   35   15   35 1     
   36   16   17 1     
   37   16   36 1     
   38   16   37 1     
   39   17   38 1     
   40   18   19 1     
   41    7   39 1     
   42    7   40 1     
   43   17   41 1     
   44   17   42 1     
   45   18   43 1     
   46   19   44 1     
   47   19   45 1     
@<TRIPOS>SUBSTRUCTURE
      1 S1             1
@<TRIPOS>SET
LONE_PAIRS      STATIC     ATOMS    <user>   **** ""
7 39 40 41 42 43 44 45
DONOR_HYDROGENS      STATIC     ATOMS    <user>   **** ""
3 24 25 38
ATOM$BLUE        STATIC     ATOMS    COLORGROUP SYSTEM
7 39 40 41 42 43 44 45
ATOM$RED        STATIC     ATOMS    COLORGROUP SYSTEM
3 24 25 38
