AV-unprocessed.smi:2215|AV-procd|sdf|8960|dock3
  -GOLD-   2272012183D 1   1.00000     0.00000
 Structure written by MMmdl.
 40 41  0  0  0  0  0  0  0  0  1 V2000
  151.0237  142.2508  156.8352 C   0  0  0  0  0  0  0  0  0  0  0  0
  150.3154  141.2622  155.9330 C   0  0  0  0  0  0  0  0  0  0  0  0
  150.9666  140.1055  155.4644 C   0  0  0  0  0  0  0  0  0  0  0  0
  150.2602  139.2215  154.6261 C   0  0  0  0  0  0  0  0  0  0  0  0
  148.9229  139.5142  154.2754 C   0  0  0  0  0  0  0  0  0  0  0  0
  148.3044  138.5631  153.4209 N   0  0  0  0  0  0  0  0  0  0  0  0
  146.9978  138.2622  153.3182 C   0  0  0  0  0  0  0  0  0  0  0  0
  146.0944  138.7682  153.9848 O   0  0  0  0  0  0  0  0  0  0  0  0
  146.7891  137.3237  152.3836 N   0  0  0  0  0  0  0  0  0  0  0  0
  145.4848  136.7790  152.0189 C   0  0  0  0  0  0  0  0  0  0  0  0
  145.5823  135.4119  151.2992 C   0  0  2  0  0  0  0  0  0  0  0  0
  144.2539  135.0445  150.5967 C   0  0  0  0  0  0  0  0  0  0  0  0
  144.3230  133.6737  149.9062 C   0  0  0  0  0  0  0  0  0  0  0  0
  144.7198  132.5732  150.8990 C   0  0  0  0  0  0  0  0  0  0  0  0
  146.0532  132.9104  151.5797 C   0  0  0  0  0  0  0  0  0  0  0  0
  145.9984  134.2832  152.2753 C   0  0  1  0  0  0  0  0  0  0  0  0
  147.2787  134.5467  152.8135 O   0  0  0  0  0  0  0  0  0  0  0  0
  148.3031  140.6300  154.7346 N   0  0  0  0  0  0  0  0  0  0  0  0
  148.9805  141.4760  155.5387 C   0  0  0  0  0  0  0  0  0  0  0  0
  152.0863  142.0205  156.9169 H   0  0  0  0  0  0  0  0  0  0  0  0
  150.5901  142.2273  157.8352 H   0  0  0  0  0  0  0  0  0  0  0  0
  150.9246  143.2626  156.4411 H   0  0  0  0  0  0  0  0  0  0  0  0
  151.9898  139.8954  155.7394 H   0  0  0  0  0  0  0  0  0  0  0  0
  150.7456  138.3299  154.2568 H   0  0  0  0  0  0  0  0  0  0  0  0
  148.9291  138.0617  152.8074 H   0  0  0  0  0  0  0  0  0  0  0  0
  147.5880  136.9622  151.8834 H   0  0  0  0  0  0  0  0  0  0  0  0
  144.8707  136.7022  152.9176 H   0  0  0  0  0  0  0  0  0  0  0  0
  144.9868  137.5030  151.3735 H   0  0  0  0  0  0  0  0  0  0  0  0
  146.3527  135.4857  150.5296 H   0  0  0  0  0  0  0  0  0  0  0  0
  143.4421  135.0406  151.3254 H   0  0  0  0  0  0  0  0  0  0  0  0
  143.9951  135.7985  149.8528 H   0  0  0  0  0  0  0  0  0  0  0  0
  143.3594  133.4367  149.4546 H   0  0  0  0  0  0  0  0  0  0  0  0
  145.0462  133.7107  149.0905 H   0  0  0  0  0  0  0  0  0  0  0  0
  143.9401  132.4586  151.6532 H   0  0  0  0  0  0  0  0  0  0  0  0
  144.7962  131.6153  150.3836 H   0  0  0  0  0  0  0  0  0  0  0  0
  146.3018  132.1335  152.3038 H   0  0  0  0  0  0  0  0  0  0  0  0
  146.8491  132.9040  150.8334 H   0  0  0  0  0  0  0  0  0  0  0  0
  145.2884  134.2365  153.1021 H   0  0  0  0  0  0  0  0  0  0  0  0
  147.7663  135.0626  152.1895 H   0  0  0  0  0  0  0  0  0  0  0  0
  148.4405  142.3491  155.8752 H   0  0  0  0  0  0  0  0  0  0  0  0
  1  2  1  0  0  0  0
  1 20  1  0  0  0  0
  1 21  1  0  0  0  0
  1 22  1  0  0  0  0
  2 19  1  0  0  0  0
  2  3  2  0  0  0  0
  3  4  1  0  0  0  0
  3 23  1  0  0  0  0
  4  5  2  0  0  0  0
  4 24  1  0  0  0  0
  5  6  1  0  0  0  0
  5 18  1  0  0  0  0
  6  7  1  0  0  0  0
  6 25  1  0  0  0  0
  7  8  2  0  0  0  0
  7  9  1  0  0  0  0
  9 10  1  0  0  0  0
  9 26  1  0  0  0  0
 10 11  1  0  0  0  0
 10 27  1  0  0  0  0
 10 28  1  0  0  0  0
 11 16  1  0  0  0  0
 11 12  1  0  0  0  0
 11 29  1  0  0  0  0
 12 13  1  0  0  0  0
 12 30  1  0  0  0  0
 12 31  1  0  0  0  0
 13 14  1  0  0  0  0
 13 32  1  0  0  0  0
 13 33  1  0  0  0  0
 14 15  1  0  0  0  0
 14 34  1  0  0  0  0
 14 35  1  0  0  0  0
 15 16  1  0  0  0  0
 15 36  1  0  0  0  0
 15 37  1  0  0  0  0
 16 17  1  0  0  0  0
 16 38  1  0  0  0  0
 17 39  1  0  0  0  0
 18 19  2  0  0  0  0
 19 40  1  0  0  0  0
M  END
> <s_m_source_file>
AV-unprocessed.smi

> <i_m_source_file_index>
2215

> <i_lp_mmshare_version>
43012

> <i_f3d_flags>
0

> <s_epik_input>
W0NIM11jMVtjSF1bY0hdYyhuW2NIXTEpW05IXUMoPU8pW05IXVtDSDJdW0NAQEhdMltDSDJdW0NIMl1bQ0gyXVtDSDJdW0NASF0yW09IXQ==

> <s_epik_cmdline>
J2VwaWtfcHl0aG9uJywgJy1waCcsICc3LjAnLCAnLXRuJywgJzgnLCAnLW1hJywgJzIwMCcsICctbWV0YWxfYmluZGluZycsICctaW1hZScsICc8aW5maWxlLm1hZT4nLCAnLW9tYWUnLCAnPG91dGZpbGUubWFlPic=

> <r_lp_tautomer_probability>
1

> <r_epik_Ionization_Penalty>
6.08491e-05

> <r_epik_Ionization_Penalty_Charging>
0

> <r_epik_Ionization_Penalty_Neutral>
6.08491e-05

> <r_epik_State_Penalty>
-0

> <r_epik_Charging_Adjusted_Penalty>
0

> <i_epik_Tot_Q>
0

> <i_epik_Tot_abs_Q>
0

> <r_epik_Metal_State_Penalty>
-0

> <b_epik_Metal_Only>
0

> <s_lp_Force_Field>
OPLS_2005

> <r_lp_Energy>
13.8041

> <b_lp_Chiralities_Consistent>
1

> <s_lp_Variant>
AV-unprocessed.smi:2215-1

> <Gold.Version>
5.8.1

> <Gold.Id.Protein>
6NUR|6NUR_protein|mol2

> <Gold.PLP.Fitness>
45.6082

> <Gold.PLP.PLP>
-35.1107

> <Gold.PLP.part.hbond>
-3.7805

> <Gold.PLP.part.metal>
0.0000

> <Gold.PLP.part.buried>
-2.1849

> <Gold.PLP.part.nonpolar>
-30.2959

> <Gold.PLP.part.repulsive>
0.3604

> <Gold.PLP.ligand.clash>
0.0000

> <Gold.PLP.ligand.torsion>
0.3928

> <Gold.PLP.Chemscore.Hbond>
2.7593

> <Gold.PLP.Chemscore.CHOScore>
1.0000

> <Gold.PLP.Chemscore.Metal>
0.0000

> <Gold.Chemscore.Hbonds>
donor molecule, donor type, donor heavy atom, donor atom, acceptor molecule, acceptor atom, score
      L1  H     6    25       P1  7948  0.77
      L1  H     9    26       P1  7948  0.99
      L1  H    17    39       P1  7948  1.00
      L1  C    19    40       P1  8028  1.00

> <Gold.PLP.Chemscore.Internal.Correction>
0.0054

> <Gold.Rescore>
     Score         DG    S(hbond)    S(metal)    S(lipo)     H(rot)  DE(clash)    DE(int)     intcor
     16.52     -19.46       2.78        0.00      78.10       1.73       0.14       2.80       ----

> <Gold.Chemscore.Fitness>
16.5198

> <Gold.Chemscore.DG>
-19.4614

> <Gold.Chemscore.ZeroCoef>
-5.4800

> <Gold.Chemscore.Hbond>
2.7790

> <Gold.Chemscore.Metal>
0.0000

> <Gold.Chemscore.Lipo>
78.1050

> <Gold.Chemscore.Internal_Hbond>
0.0000

> <Gold.Chemscore.DEClash>
0.1413

> <Gold.Chemscore.DEInternal>
2.8003

> <Gold.Chemscore.Rot>
1.7339

> <Gold.Chemscore.Internal.Correction>
   9.000000E+99

> <Gold.Chemscore.Hbonds>
donor molecule, donor type, donor heavy atom, donor atom, acceptor molecule, acceptor atom, score
      L1  H     6    25       P1  7948  0.71
      L1  H     9    26       P1  7948  0.90
      L1  H    17    39       P1  7948  0.86

> <Gold.Chemscore.Hbond.Weighted>
-9.2817

> <Gold.Chemscore.Metal.Weighted>
-0.0000

> <Gold.Chemscore.Lipo.Weighted>
-9.1383

> <Gold.Chemscore.Internal_Hbond.Weighted>
0.0000

> <Gold.Chemscore.DEClash.Weighted>
0.1413

> <Gold.Chemscore.DEInternal.Weighted>
2.8003

> <Gold.Chemscore.Rot.Weighted>
4.4387

> <Gold.Chemscore.Internal.Correction.Weighted>
   9.000000E+99

> <Gold.Protein.RotatedTorsions>
[ 6907 6896 6895 6894 ] final -134.51 input  -60.11 | X-H torsion
[ 7974 7965 7964 7962 ] final -130.47 input  175.53 | X-H torsion
[ 8008 7997 7996 7995 ] final  -26.64 input   59.86 | X-H torsion
[ 10167 10162 10161 10158 ] final  -67.20 input  -65.29 | X-H torsion
[ 10718 10713 10712 10709 ] final -103.67 input   66.30 | X-H torsion
[ 10763 10752 10751 10750 ] final -131.95 input  -60.55 | X-H torsion
[ 11005 11000 10999 10996 ] final  -51.97 input  -57.11 | X-H torsion

> <Gold.Protein.ActiveResidues>
 VAL166  LYS551  ARG553  GLY616  TRP617  ASP618  TYR619  PRO620  LYS621  CYS622 
 ASP623  PHE694  ASN695  SER759  ASP760  ASP761  ALA762  ILE779  LEU786  VAL792 
 PHE793  MET794  SER795  GLU796  ALA797  LYS798  CYS799  TRP800  GLU811  SER814 

> <Gold.Protein.RotatedAtoms>
  150.9867  133.6191  159.2714 H   0  0  0  0  0  0  0  0  0  0  0  0  # atno 6907 bound_to 6896
  151.3426  135.0866  159.9386 H   0  0  0  0  0  0  0  0  0  0  0  0  # atno 6908 bound_to 6896
  152.5233  133.9475  159.7710 H   0  0  0  0  0  0  0  0  0  0  0  0  # atno 6909 bound_to 6896
  144.9471  140.7304  143.4810 H   0  0  0  0  0  0  0  0  0  0  0  0  # atno 7974 bound_to 7965
  154.4415  140.1894  156.0806 H   0  0  0  0  0  0  0  0  0  0  0  0  # atno 8008 bound_to 7997
  156.0441  140.3316  155.7251 H   0  0  0  0  0  0  0  0  0  0  0  0  # atno 8009 bound_to 7997
  155.5655  140.0607  157.2809 H   0  0  0  0  0  0  0  0  0  0  0  0  # atno 8010 bound_to 7997
  140.5600  143.2312  151.6746 H   0  0  0  0  0  0  0  0  0  0  0  0  # atno 10167 bound_to 10162
  156.0274  130.5478  150.7287 H   0  0  0  0  0  0  0  0  0  0  0  0  # atno 10718 bound_to 10713
  154.8747  135.3813  154.4330 H   0  0  0  0  0  0  0  0  0  0  0  0  # atno 10763 bound_to 10752
  153.5022  135.7030  153.5830 H   0  0  0  0  0  0  0  0  0  0  0  0  # atno 10764 bound_to 10752
  153.4157  135.3914  155.2045 H   0  0  0  0  0  0  0  0  0  0  0  0  # atno 10765 bound_to 10752
  141.0899  133.6634  156.3956 H   0  0  0  0  0  0  0  0  0  0  0  0  # atno 11005 bound_to 11000
  145.2901  139.1887  143.4745 LP  0  0  0  0  0  0  0  0  0  0  0  0  # atno 17320 bound_to 7965
  146.3307  140.2876  142.8613 LP  0  0  0  0  0  0  0  0  0  0  0  0  # atno 17321 bound_to 7965
  139.5066  144.3677  152.0501 LP  0  0  0  0  0  0  0  0  0  0  0  0  # atno 17342 bound_to 10162
  140.2802  144.3867  150.6121 LP  0  0  0  0  0  0  0  0  0  0  0  0  # atno 17343 bound_to 10162
  157.4885  131.0909  151.0455 LP  0  0  0  0  0  0  0  0  0  0  0  0  # atno 17370 bound_to 10713
  157.0868  130.5926  149.5431 LP  0  0  0  0  0  0  0  0  0  0  0  0  # atno 17371 bound_to 10713
  140.5275  134.6244  157.5339 LP  0  0  0  0  0  0  0  0  0  0  0  0  # atno 17394 bound_to 11000
  139.9724  134.7271  156.0016 LP  0  0  0  0  0  0  0  0  0  0  0  0  # atno 17395 bound_to 11000

$$$$
