AV-unprocessed.smi:2439|AV-procd|sdf|9606|dock2
  -GOLD-   2272013243D 1   1.00000     0.00000
 Structure written by MMmdl.
 41 43  0  0  0  0  0  0  0  0  2 V2000
  151.8076  144.9966  160.6475 N   0  0  0  0  0  0  0  0  0  0  0  0
  152.3697  143.9871  160.7071 C   0  0  0  0  0  0  0  0  0  0  0  0
  153.0792  142.7155  160.7819 C   0  0  0  0  0  0  0  0  0  0  0  0
  153.6287  142.3122  162.0170 C   0  0  0  0  0  0  0  0  0  0  0  0
  154.3166  141.0876  162.0944 C   0  0  0  0  0  0  0  0  0  0  0  0
  154.4261  140.3103  160.9275 C   0  0  0  0  0  0  0  0  0  0  0  0
  153.9055  140.6840  159.7400 N   0  0  0  0  0  0  0  0  0  0  0  0
  153.2423  141.8637  159.6563 C   0  0  0  0  0  0  0  0  0  0  0  0
  152.7108  142.2275  158.4048 N   0  0  0  0  0  0  0  0  0  0  0  0
  151.8963  141.3133  157.6130 C   0  0  0  0  0  0  0  0  0  0  0  0
  150.5498  141.9314  157.1989 C   0  0  1  0  0  0  0  0  0  0  0  0
  150.1082  141.4405  155.8088 C   0  0  0  0  0  0  0  0  0  0  0  0
  148.7677  141.9774  155.4666 N   0  3  1  0  0  0  0  0  0  0  0  0
  148.2937  141.5923  154.1114 C   0  0  0  0  0  0  0  0  0  0  0  0
  147.8303  140.1240  154.0518 C   0  0  0  0  0  0  0  0  0  0  0  0
  146.7723  139.8343  155.1251 C   0  0  0  0  0  0  0  0  0  0  0  0
  147.2924  140.2361  156.5126 C   0  0  0  0  0  0  0  0  0  0  0  0
  147.7586  141.7088  156.5282 C   0  0  1  0  0  0  0  0  0  0  0  0
  148.3038  142.1443  157.9026 C   0  0  0  0  0  0  0  0  0  0  0  0
  149.5654  141.5347  158.1480 O   0  0  0  0  0  0  0  0  0  0  0  0
  153.5279  142.9305  162.8977 H   0  0  0  0  0  0  0  0  0  0  0  0
  154.7490  140.7524  163.0257 H   0  0  0  0  0  0  0  0  0  0  0  0
  154.9466  139.3642  160.9468 H   0  0  0  0  0  0  0  0  0  0  0  0
  152.9815  143.1084  157.9908 H   0  0  0  0  0  0  0  0  0  0  0  0
  152.4577  140.9994  156.7322 H   0  0  0  0  0  0  0  0  0  0  0  0
  151.7245  140.4097  158.1986 H   0  0  0  0  0  0  0  0  0  0  0  0
  150.6310  143.0198  157.1857 H   0  0  0  0  0  0  0  0  0  0  0  0
  150.8284  141.7655  155.0568 H   0  0  0  0  0  0  0  0  0  0  0  0
  150.1002  140.3507  155.7872 H   0  0  0  0  0  0  0  0  0  0  0  0
  147.4617  142.2446  153.8426 H   0  0  0  0  0  0  0  0  0  0  0  0
  149.0773  141.7764  153.3756 H   0  0  0  0  0  0  0  0  0  0  0  0
  147.4232  139.9054  153.0641 H   0  0  0  0  0  0  0  0  0  0  0  0
  148.6811  139.4552  154.1826 H   0  0  0  0  0  0  0  0  0  0  0  0
  145.8603  140.3886  154.9003 H   0  0  0  0  0  0  0  0  0  0  0  0
  146.5049  138.7772  155.1147 H   0  0  0  0  0  0  0  0  0  0  0  0
  146.5052  140.0881  157.2525 H   0  0  0  0  0  0  0  0  0  0  0  0
  148.1092  139.5749  156.8039 H   0  0  0  0  0  0  0  0  0  0  0  0
  146.8884  142.3293  156.3089 H   0  0  0  0  0  0  0  0  0  0  0  0
  148.4045  143.2298  157.9501 H   0  0  0  0  0  0  0  0  0  0  0  0
  147.6107  141.8610  158.6950 H   0  0  0  0  0  0  0  0  0  0  0  0
  148.8844  142.9806  155.4434 H   0  0  0  0  0  0  0  0  0  0  0  0
  1  2  3  0  0  0  0
  2  3  1  0  0  0  0
  3  8  1  0  0  0  0
  3  4  2  0  0  0  0
  4  5  1  0  0  0  0
  4 21  1  0  0  0  0
  5  6  2  0  0  0  0
  5 22  1  0  0  0  0
  6  7  1  0  0  0  0
  6 23  1  0  0  0  0
  7  8  2  0  0  0  0
  8  9  1  0  0  0  0
  9 10  1  0  0  0  0
  9 24  1  0  0  0  0
 10 11  1  0  0  0  0
 10 25  1  0  0  0  0
 10 26  1  0  0  0  0
 11 20  1  0  0  0  0
 11 12  1  0  0  0  0
 11 27  1  0  0  0  0
 12 13  1  0  0  0  0
 12 28  1  0  0  0  0
 12 29  1  0  0  0  0
 13 18  1  0  0  0  0
 13 14  1  0  0  0  0
 13 41  1  0  0  0  0
 14 15  1  0  0  0  0
 14 30  1  0  0  0  0
 14 31  1  0  0  0  0
 15 16  1  0  0  0  0
 15 32  1  0  0  0  0
 15 33  1  0  0  0  0
 16 17  1  0  0  0  0
 16 34  1  0  0  0  0
 16 35  1  0  0  0  0
 17 18  1  0  0  0  0
 17 36  1  0  0  0  0
 17 37  1  0  0  0  0
 18 19  1  0  0  0  0
 18 38  1  0  0  0  0
 19 20  1  0  0  0  0
 19 39  1  0  0  0  0
 19 40  1  0  0  0  0
M  CHG  1  13   1
M  END
> <s_m_source_file>
AV-unprocessed.smi

> <i_m_source_file_index>
2439

> <i_lp_mmshare_version>
43012

> <i_f3d_flags>
0

> <s_epik_input>
TiNDYzFbY0hdW2NIXVtjSF1uYzFbTkhdW0NIMl1bQ0BIXShbQ0gyXTIpT1tDSDJdW0NAQEhdKE4yMylbQ0gyXVtDSDJdW0NIMl1bQ0gyXTM=

> <s_epik_cmdline>
J2VwaWtfcHl0aG9uJywgJy1waCcsICc3LjAnLCAnLXRuJywgJzgnLCAnLW1hJywgJzIwMCcsICctbWV0YWxfYmluZGluZycsICctaW1hZScsICc8aW5maWxlLm1hZT4nLCAnLW9tYWUnLCAnPG91dGZpbGUubWFlPic=

> <r_epik_Ionization_Penalty>
0.0803594

> <r_epik_Ionization_Penalty_Charging>
0.0803403

> <r_epik_Ionization_Penalty_Neutral>
1.90988e-05

> <r_epik_State_Penalty>
0.0711481

> <r_epik_Charging_Adjusted_Penalty>
0.151488

> <i_epik_Tot_Q>
1

> <i_epik_Tot_abs_Q>
1

> <r_epik_Metal_State_Penalty>
0.0711482

> <b_epik_Metal_Only>
0

> <s_lp_Force_Field>
OPLS_2005

> <r_lp_Energy>
29.8986

> <b_lp_Chiralities_Consistent>
1

> <s_lp_Variant>
AV-unprocessed.smi:2439-4

> <Gold.Version>
5.8.1

> <Gold.Id.Protein>
6NUR|6NUR_protein|mol2

> <Gold.PLP.Fitness>
40.6879

> <Gold.PLP.PLP>
-36.5376

> <Gold.PLP.part.hbond>
-1.0000

> <Gold.PLP.part.metal>
0.0000

> <Gold.PLP.part.buried>
-4.7725

> <Gold.PLP.part.nonpolar>
-30.6987

> <Gold.PLP.part.repulsive>
0.4682

> <Gold.PLP.ligand.clash>
0.0000

> <Gold.PLP.ligand.torsion>
0.9262

> <Gold.PLP.Chemscore.Hbond>
2.0000

> <Gold.PLP.Chemscore.CHOScore>
0.0000

> <Gold.PLP.Chemscore.Metal>
0.0000

> <Gold.Chemscore.Hbonds>
donor molecule, donor type, donor heavy atom, donor atom, acceptor molecule, acceptor atom, score
      L1  H    13    41       P1  8028  2.00

> <Gold.PLP.Chemscore.Internal.Correction>
0.0028

> <Gold.Rescore>
     Score         DG    S(hbond)    S(metal)    S(lipo)     H(rot)  DE(clash)    DE(int)     intcor
     14.47     -15.50       1.00        0.00      84.79       1.27       0.08       0.95       ----

> <Gold.Chemscore.Fitness>
14.4700

> <Gold.Chemscore.DG>
-15.4965

> <Gold.Chemscore.ZeroCoef>
-5.4800

> <Gold.Chemscore.Hbond>
0.9991

> <Gold.Chemscore.Metal>
0.0000

> <Gold.Chemscore.Lipo>
84.7888

> <Gold.Chemscore.Internal_Hbond>
0.0000

> <Gold.Chemscore.DEClash>
0.0765

> <Gold.Chemscore.DEInternal>
0.9500

> <Gold.Chemscore.Rot>
1.2659

> <Gold.Chemscore.Internal.Correction>
   9.000000E+99

> <Gold.Chemscore.Hbonds>
donor molecule, donor type, donor heavy atom, donor atom, acceptor molecule, acceptor atom, score
      L1  H    13    41       P1  8028  1.00

> <Gold.Chemscore.Hbond.Weighted>
-3.3369

> <Gold.Chemscore.Metal.Weighted>
-0.0000

> <Gold.Chemscore.Lipo.Weighted>
-9.9203

> <Gold.Chemscore.Internal_Hbond.Weighted>
0.0000

> <Gold.Chemscore.DEClash.Weighted>
0.0765

> <Gold.Chemscore.DEInternal.Weighted>
0.9500

> <Gold.Chemscore.Rot.Weighted>
3.2408

> <Gold.Chemscore.Internal.Correction.Weighted>
   9.000000E+99

> <Gold.Protein.RotatedTorsions>
[ 6907 6896 6895 6894 ] final  172.95 input  -60.11 | X-H torsion
[ 7974 7965 7964 7962 ] final   87.81 input  175.53 | X-H torsion
[ 8008 7997 7996 7995 ] final  147.63 input   59.86 | X-H torsion
[ 10167 10162 10161 10158 ] final    9.26 input  -65.29 | X-H torsion
[ 10718 10713 10712 10709 ] final   61.71 input   66.30 | X-H torsion
[ 10763 10752 10751 10750 ] final  -79.09 input  -60.55 | X-H torsion
[ 11005 11000 10999 10996 ] final -149.70 input  -57.11 | X-H torsion

> <Gold.Protein.ActiveResidues>
 VAL166  LYS551  ARG553  GLY616  TRP617  ASP618  TYR619  PRO620  LYS621  CYS622 
 ASP623  PHE694  ASN695  SER759  ASP760  ASP761  ALA762  ILE779  LEU786  VAL792 
 PHE793  MET794  SER795  GLU796  ALA797  LYS798  CYS799  TRP800  GLU811  SER814 

> <Gold.Protein.RotatedAtoms>
  151.7762  133.3345  159.3458 H   0  0  0  0  0  0  0  0  0  0  0  0  # atno 6907 bound_to 6896
  150.7443  134.5973  159.6028 H   0  0  0  0  0  0  0  0  0  0  0  0  # atno 6908 bound_to 6896
  152.3308  134.7264  160.0341 H   0  0  0  0  0  0  0  0  0  0  0  0  # atno 6909 bound_to 6896
  145.5540  139.2298  143.2496 H   0  0  0  0  0  0  0  0  0  0  0  0  # atno 7974 bound_to 7965
  156.2818  140.2150  156.5568 H   0  0  0  0  0  0  0  0  0  0  0  0  # atno 8008 bound_to 7997
  154.7246  140.0500  157.0693 H   0  0  0  0  0  0  0  0  0  0  0  0  # atno 8009 bound_to 7997
  155.0434  140.3148  155.4720 H   0  0  0  0  0  0  0  0  0  0  0  0  # atno 8010 bound_to 7997
  140.6265  143.8089  150.7240 H   0  0  0  0  0  0  0  0  0  0  0  0  # atno 10167 bound_to 10162
  157.5848  130.9009  149.9495 H   0  0  0  0  0  0  0  0  0  0  0  0  # atno 10718 bound_to 10713
  154.5342  135.5707  153.6784 H   0  0  0  0  0  0  0  0  0  0  0  0  # atno 10763 bound_to 10752
  152.9947  135.6212  154.2589 H   0  0  0  0  0  0  0  0  0  0  0  0  # atno 10764 bound_to 10752
  154.2517  135.2859  155.2794 H   0  0  0  0  0  0  0  0  0  0  0  0  # atno 10765 bound_to 10752
  140.7480  134.3439  157.5132 H   0  0  0  0  0  0  0  0  0  0  0  0  # atno 11005 bound_to 11000
  146.1897  140.6364  142.9151 LP  0  0  0  0  0  0  0  0  0  0  0  0  # atno 17320 bound_to 7965
  144.7515  140.5203  143.6798 LP  0  0  0  0  0  0  0  0  0  0  0  0  # atno 17321 bound_to 7965
  140.1691  143.4210  152.2014 LP  0  0  0  0  0  0  0  0  0  0  0  0  # atno 17342 bound_to 10162
  139.5485  144.7318  151.4508 LP  0  0  0  0  0  0  0  0  0  0  0  0  # atno 17343 bound_to 10162
  156.0896  130.3664  150.0421 LP  0  0  0  0  0  0  0  0  0  0  0  0  # atno 17370 bound_to 10713
  156.8554  130.9473  151.3622 LP  0  0  0  0  0  0  0  0  0  0  0  0  # atno 17371 bound_to 10713
  139.8793  134.9123  156.3058 LP  0  0  0  0  0  0  0  0  0  0  0  0  # atno 17394 bound_to 11000
  140.9777  133.7287  156.0626 LP  0  0  0  0  0  0  0  0  0  0  0  0  # atno 17395 bound_to 11000

$$$$
