#       Name:                AV-unprocessed.smi:2573
#       Creating user name   scv26
#       Creation time:       Fri Mar 27 14:13:10 2020


#       File generated by GOLD software.
#

@<TRIPOS>MOLECULE
AV-unprocessed.smi:2573
    42    43     1
SMALL
NO_CHARGES


@<TRIPOS>ATOM
      1 ****        -2.7084   2.5446  -2.4226 C.3            1 S1                 0.0000
      2 ****        -3.5563   1.6848  -1.4752 C.3            1 S1                 0.0000
      3 ****        -2.9189   1.4662  -0.0907 C.3            1 S1                 0.0000
      4 ****        -1.6598   0.7260  -0.1662 N.am           1 S1                 0.0000
      5 ****        -0.4093   1.2418  -0.0995 C.2            1 S1                 0.0000
      6 ****        -0.1232   2.4303   0.0436 O.2            1 S1                 0.0000
      7 ****         0.4734   0.2217  -0.2110 N.am           1 S1                 0.0000
      8 ****         1.9312   0.3257  -0.1734 C.3            1 S1                 0.0000
      9 ****         2.4768   0.1303   1.2562 C.3            1 S1                 0.0000
     10 ****         2.4074   1.3750   1.9239 O.3            1 S1                 0.0000
     11 ****         3.9486  -0.3337   1.2509 C.3            1 S1                 0.0000
     12 ****         4.4892  -0.7777   2.6229 C.3            1 S1                 0.0000
     13 ****         5.7443  -1.2015   2.4765 F              1 S1                 0.0000
     14 ****         4.4848   0.2291   3.4961 F              1 S1                 0.0000
     15 ****         3.7574  -1.7817   3.1060 F              1 S1                 0.0000
     16 ****        -0.2320  -0.9840  -0.3385 C.ar           1 S1                 0.0000
     17 ****         0.2157  -2.3106  -0.4664 C.ar           1 S1                 0.0000
     18 ****        -0.7712  -3.3183  -0.5760 C.ar           1 S1                 0.0000
     19 ****        -2.1517  -2.9895  -0.5549 C.ar           1 S1                 0.0000
     20 ****        -2.5746  -1.6464  -0.4217 C.ar           1 S1                 0.0000
     21 ****        -1.5737  -0.6654  -0.3141 C.ar           1 S1                 0.0000
     22 ****        -3.2378   2.7263  -3.3580 H              1 S1                 0.0000
     23 ****        -1.7656   2.0565  -2.6696 H              1 S1                 0.0000
     24 ****        -2.4795   3.5125  -1.9759 H              1 S1                 0.0000
     25 ****        -4.5256   2.1652  -1.3405 H              1 S1                 0.0000
     26 ****        -3.7609   0.7227  -1.9460 H              1 S1                 0.0000
     27 ****        -2.7629   2.4274   0.4016 H              1 S1                 0.0000
     28 ****        -3.6103   0.9154   0.5479 H              1 S1                 0.0000
     29 ****         2.3301  -0.4446  -0.8341 H              1 S1                 0.0000
     30 ****         2.2672   1.2734  -0.5986 H              1 S1                 0.0000
     31 ****         1.8700  -0.6017   1.7908 H              1 S1                 0.0000
     32 ****         1.5126   1.6792   1.9047 H              1 S1                 0.0000
     33 ****         4.0460  -1.1801   0.5699 H              1 S1                 0.0000
     34 ****         4.5835   0.4531   0.8407 H              1 S1                 0.0000
     35 ****         1.2673  -2.5559  -0.4798 H              1 S1                 0.0000
     36 ****        -0.4704  -4.3507  -0.6766 H              1 S1                 0.0000
     37 ****        -2.8891  -3.7741  -0.6404 H              1 S1                 0.0000
     38 ****        -3.6234  -1.3896  -0.4033 H              1 S1                 0.0000
     39 ****        -0.8493   3.1134   0.1222 LP             1 S1                 0.0000
     40 ****         0.8353   2.7128   0.0813 LP             1 S1                 0.0000
     41 ****         2.9981   2.0374   1.4633 LP             1 S1                 0.0000
     42 ****         2.7054   1.2654   2.8722 LP             1 S1                 0.0000
@<TRIPOS>BOND
    1    1    2 1     
    2    1   22 1     
    3    1   23 1     
    4    1   24 1     
    5    2    3 1     
    6    2   25 1     
    7    2   26 1     
    8    3    4 1     
    9    3   27 1     
   10    3   28 1     
   11    4   21 1     
   12    4    5 am    
   13    5    6 2     
   14    5    7 am    
   15    7    8 1     
   16    7   16 1     
   17    8    9 1     
   18    8   29 1     
   19    8   30 1     
   20    9   10 1     
   21    9   11 1     
   22    9   31 1     
   23   10   32 1     
   24   11   12 1     
   25   11   33 1     
   26   11   34 1     
   27   12   13 1     
   28   12   14 1     
   29   12   15 1     
   30   16   21 ar    
   31   16   17 ar    
   32   17   18 ar    
   33   17   35 1     
   34   18   19 ar    
   35   18   36 1     
   36   19   20 ar    
   37   19   37 1     
   38   20   21 ar    
   39   20   38 1     
   40    6   39 1     
   41    6   40 1     
   42   10   41 1     
   43   10   42 1     
@<TRIPOS>SUBSTRUCTURE
      1 S1             1
@<TRIPOS>SET
LONE_PAIRS      STATIC     ATOMS    <user>   **** ""
4 39 40 41 42
DONOR_HYDROGENS      STATIC     ATOMS    <user>   **** ""
1 32
ATOM$BLUE        STATIC     ATOMS    COLORGROUP SYSTEM
4 39 40 41 42
ATOM$RED        STATIC     ATOMS    COLORGROUP SYSTEM
1 32
