#       Name:                AV-unprocessed.smi:1332
#       Creating user name   scv26
#       Creation time:       Fri Mar 27 05:06:44 2020


#       File generated by GOLD software.
#

@<TRIPOS>MOLECULE
AV-unprocessed.smi:1332
    45    46     1
SMALL
NO_CHARGES


@<TRIPOS>ATOM
      1 ****        -2.0083   1.0364   1.8315 C.3            1 S1                 0.0000
      2 ****        -1.2260  -0.2423   2.1494 C.3            1 S1                 0.0000
      3 ****         0.2923  -0.0194   2.1347 C.3            1 S1                 0.0000
      4 ****         1.0855  -1.3062   2.4278 C.3            1 S1                 0.0000
      5 ****         2.6138  -1.1231   2.3497 C.3            1 S1                 0.0000
      6 ****         3.0280  -0.6703   1.0275 N.am           1 S1                 0.0000
      7 ****         3.1528  -1.4580  -0.0526 C.2            1 S1                 0.0000
      8 ****         3.1112  -2.6871  -0.0039 O.2            1 S1                 0.0000
      9 ****         3.3081  -0.7488  -1.4016 C.3            1 S1                 0.0000
     10 ****         2.1556   0.1896  -1.6401 C.2            1 S1                 0.0000
     11 ****         2.2261   1.5515  -1.8038 C.2            1 S1                 0.0000
     12 ****         0.6504   2.2701  -2.0013 S.3            1 S1                 0.0000
     13 ****        -0.0631   0.6664  -1.8538 C.2            1 S1                 0.0000
     14 ****        -1.4678   0.4239  -1.8927 N.am           1 S1                 0.0000
     15 ****        -2.4120   1.4965  -2.1796 C.3            1 S1                 0.0000
     16 ****        -3.7746   0.8142  -2.1035 C.3            1 S1                 0.0000
     17 ****        -3.4166  -0.5448  -1.7722 N.am           1 S1                 0.0000
     18 ****        -2.1020  -0.7430  -1.6547 C.2            1 S1                 0.0000
     19 ****        -1.5913  -1.8248  -1.3689 O.2            1 S1                 0.0000
     20 ****         0.8457  -0.3018  -1.6949 N.2            1 S1                 0.0000
     21 ****        -3.0811   0.8431   1.8179 H              1 S1                 0.0000
     22 ****        -1.7301   1.4351   0.8562 H              1 S1                 0.0000
     23 ****        -1.8172   1.8099   2.5756 H              1 S1                 0.0000
     24 ****        -1.5338  -0.6222   3.1241 H              1 S1                 0.0000
     25 ****        -1.4881  -1.0112   1.4219 H              1 S1                 0.0000
     26 ****         0.5751   0.3786   1.1602 H              1 S1                 0.0000
     27 ****         0.5580   0.7446   2.8662 H              1 S1                 0.0000
     28 ****         0.8224  -1.6726   3.4206 H              1 S1                 0.0000
     29 ****         0.7800  -2.0862   1.7289 H              1 S1                 0.0000
     30 ****         2.9379  -0.3838   3.0824 H              1 S1                 0.0000
     31 ****         3.1211  -2.0547   2.6051 H              1 S1                 0.0000
     32 ****         3.0931   0.3281   0.8914 H              1 S1                 0.0000
     33 ****         4.2565  -0.2105  -1.4083 H              1 S1                 0.0000
     34 ****         3.3650  -1.4910  -2.1988 H              1 S1                 0.0000
     35 ****         3.1070   2.1762  -1.8066 H              1 S1                 0.0000
     36 ****        -2.3277   2.2950  -1.4413 H              1 S1                 0.0000
     37 ****        -2.2288   1.9155  -3.1698 H              1 S1                 0.0000
     38 ****        -4.4067   1.2458  -1.3269 H              1 S1                 0.0000
     39 ****        -4.3048   0.8492  -3.0559 H              1 S1                 0.0000
     40 ****        -4.1072  -1.2693  -1.6390 H              1 S1                 0.0000
     41 ****         2.9786  -3.1485   0.8733 LP             1 S1                 0.0000
     42 ****         3.2101  -3.2243  -0.8416 LP             1 S1                 0.0000
     43 ****        -0.5974  -1.9036  -1.2914 LP             1 S1                 0.0000
     44 ****        -2.1699  -2.6255  -1.2141 LP             1 S1                 0.0000
     45 ****         0.6146  -1.2720  -1.6230 LP             1 S1                 0.0000
@<TRIPOS>BOND
    1    1    2 1     
    2    1   21 1     
    3    1   22 1     
    4    1   23 1     
    5    2    3 1     
    6    2   24 1     
    7    2   25 1     
    8    3    4 1     
    9    3   26 1     
   10    3   27 1     
   11    4    5 1     
   12    4   28 1     
   13    4   29 1     
   14    5    6 1     
   15    5   30 1     
   16    5   31 1     
   17    6    7 am    
   18    6   32 1     
   19    7    8 2     
   20    7    9 1     
   21    9   10 1     
   22    9   33 1     
   23    9   34 1     
   24   10   20 1     
   25   10   11 2     
   26   11   12 1     
   27   11   35 1     
   28   12   13 1     
   29   13   14 1     
   30   13   20 2     
   31   14   18 am    
   32   14   15 1     
   33   15   16 1     
   34   15   36 1     
   35   15   37 1     
   36   16   17 1     
   37   16   38 1     
   38   16   39 1     
   39   17   18 am    
   40   17   40 1     
   41   18   19 2     
   42    8   41 1     
   43    8   42 1     
   44   19   43 1     
   45   19   44 1     
   46   20   45 1     
@<TRIPOS>SUBSTRUCTURE
      1 S1             1
@<TRIPOS>SET
LONE_PAIRS      STATIC     ATOMS    <user>   **** ""
5 41 42 43 44 45
DONOR_HYDROGENS      STATIC     ATOMS    <user>   **** ""
2 32 40
ATOM$BLUE        STATIC     ATOMS    COLORGROUP SYSTEM
5 41 42 43 44 45
ATOM$RED        STATIC     ATOMS    COLORGROUP SYSTEM
2 32 40
