AV-unprocessed.smi:1833|AV-procd|sdf|7466|dock3
  -GOLD-   22720 9163D 1   1.00000     0.00000
 Structure written by MMmdl.
 42 43  0  0  0  0  0  0  0  0  2 V2000
  144.1551  135.0871  151.6805 C   0  0  0  0  0  0  0  0  0  0  0  0
  145.5517  135.6664  151.4186 C   0  0  0  0  0  0  0  0  0  0  0  0
  146.5969  135.0404  152.2666 N   0  3  2  0  0  0  0  0  0  0  0  0
  146.7031  133.5768  152.0281 C   0  0  0  0  0  0  0  0  0  0  0  0
  147.8771  132.9635  152.8098 C   0  0  0  0  0  0  0  0  0  0  0  0
  147.7730  133.2804  154.3101 C   0  0  0  0  0  0  0  0  0  0  0  0
  147.6229  134.7939  154.5409 C   0  0  1  0  0  0  0  0  0  0  0  0
  148.8730  135.4746  154.2052 N   0  0  0  0  0  0  0  0  0  0  0  0
  149.7039  136.0465  155.0872 C   0  0  0  0  0  0  0  0  0  0  0  0
  149.4949  136.0938  156.2992 O   0  0  0  0  0  0  0  0  0  0  0  0
  150.7884  136.5552  154.4863 N   0  0  0  0  0  0  0  0  0  0  0  0
  151.9144  137.1905  155.1648 C   0  0  0  0  0  0  0  0  0  0  0  0
  152.1509  138.6392  154.7016 C   0  0  0  0  0  0  0  0  0  0  0  0
  151.3876  139.6627  155.4784 C   0  0  0  0  0  0  0  0  0  0  0  0
  150.6304  140.6112  154.9181 N   0  0  0  0  0  0  0  0  0  0  0  0
  150.0214  141.4352  155.8680 C   0  0  0  0  0  0  0  0  0  0  0  0
  150.3005  141.0799  157.1627 C   0  0  0  0  0  0  0  0  0  0  0  0
  151.3576  139.6981  157.2381 S   0  0  0  0  0  0  0  0  0  0  0  0
  146.4385  135.3418  153.7155 C   0  0  0  0  0  0  0  0  0  0  0  0
  143.3999  135.6398  151.1215 H   0  0  0  0  0  0  0  0  0  0  0  0
  143.8944  135.1492  152.7375 H   0  0  0  0  0  0  0  0  0  0  0  0
  144.0815  134.0442  151.3742 H   0  0  0  0  0  0  0  0  0  0  0  0
  145.8169  135.5714  150.3648 H   0  0  0  0  0  0  0  0  0  0  0  0
  145.5110  136.7354  151.6319 H   0  0  0  0  0  0  0  0  0  0  0  0
  145.7680  133.0928  152.3143 H   0  0  0  0  0  0  0  0  0  0  0  0
  146.8464  133.3848  150.9642 H   0  0  0  0  0  0  0  0  0  0  0  0
  147.8988  131.8837  152.6601 H   0  0  0  0  0  0  0  0  0  0  0  0
  148.8190  133.3450  152.4138 H   0  0  0  0  0  0  0  0  0  0  0  0
  146.9075  132.7639  154.7272 H   0  0  0  0  0  0  0  0  0  0  0  0
  148.6445  132.8951  154.8409 H   0  0  0  0  0  0  0  0  0  0  0  0
  147.4191  134.9559  155.6010 H   0  0  0  0  0  0  0  0  0  0  0  0
  149.1406  135.4805  153.2317 H   0  0  0  0  0  0  0  0  0  0  0  0
  150.8592  136.4683  153.4832 H   0  0  0  0  0  0  0  0  0  0  0  0
  151.7850  137.1559  156.2480 H   0  0  0  0  0  0  0  0  0  0  0  0
  152.8026  136.5970  154.9484 H   0  0  0  0  0  0  0  0  0  0  0  0
  153.2120  138.8765  154.7827 H   0  0  0  0  0  0  0  0  0  0  0  0
  151.8975  138.7374  153.6452 H   0  0  0  0  0  0  0  0  0  0  0  0
  149.4032  142.2551  155.5355 H   0  0  0  0  0  0  0  0  0  0  0  0
  149.9537  141.5469  158.0726 H   0  0  0  0  0  0  0  0  0  0  0  0
  146.3548  136.4163  153.8758 H   0  0  0  0  0  0  0  0  0  0  0  0
  145.5047  134.9053  154.0734 H   0  0  0  0  0  0  0  0  0  0  0  0
  147.4781  135.4410  151.9781 H   0  0  0  0  0  0  0  0  0  0  0  0
  1  2  1  0  0  0  0
  1 20  1  0  0  0  0
  1 21  1  0  0  0  0
  1 22  1  0  0  0  0
  2  3  1  0  0  0  0
  2 23  1  0  0  0  0
  2 24  1  0  0  0  0
  3 19  1  0  0  0  0
  3  4  1  0  0  0  0
  3 42  1  0  0  0  0
  4  5  1  0  0  0  0
  4 25  1  0  0  0  0
  4 26  1  0  0  0  0
  5  6  1  0  0  0  0
  5 27  1  0  0  0  0
  5 28  1  0  0  0  0
  6  7  1  0  0  0  0
  6 29  1  0  0  0  0
  6 30  1  0  0  0  0
  7  8  1  0  0  0  0
  7 19  1  0  0  0  0
  7 31  1  0  0  0  0
  8  9  1  0  0  0  0
  8 32  1  0  0  0  0
  9 10  2  0  0  0  0
  9 11  1  0  0  0  0
 11 12  1  0  0  0  0
 11 33  1  0  0  0  0
 12 13  1  0  0  0  0
 12 34  1  0  0  0  0
 12 35  1  0  0  0  0
 13 14  1  0  0  0  0
 13 36  1  0  0  0  0
 13 37  1  0  0  0  0
 14 18  1  0  0  0  0
 14 15  2  0  0  0  0
 15 16  1  0  0  0  0
 16 17  2  0  0  0  0
 16 38  1  0  0  0  0
 17 18  1  0  0  0  0
 17 39  1  0  0  0  0
 19 40  1  0  0  0  0
 19 41  1  0  0  0  0
M  CHG  1   3   1
M  END
> <s_m_source_file>
AV-unprocessed.smi

> <i_m_source_file_index>
1833

> <i_lp_mmshare_version>
43012

> <i_f3d_flags>
0

> <s_epik_input>
W0NIM11bQ0gyXU4xW0NIMl1bQ0gyXVtDSDJdW0NASF0oW0NIMl0xKVtOSF1DKD1PKVtOSF1bQ0gyXVtDSDJdYzJuW2NIXVtjSF1zMg==

> <s_epik_cmdline>
J2VwaWtfcHl0aG9uJywgJy1waCcsICc3LjAnLCAnLXRuJywgJzgnLCAnLW1hJywgJzIwMCcsICctbWV0YWxfYmluZGluZycsICctaW1hZScsICc8aW5maWxlLm1hZT4nLCAnLW9tYWUnLCAnPG91dGZpbGUubWFlPic=

> <r_lp_tautomer_probability>
1

> <r_epik_Ionization_Penalty>
0.00269629

> <r_epik_Ionization_Penalty_Charging>
0.00233899

> <r_epik_Ionization_Penalty_Neutral>
0.000357304

> <r_epik_State_Penalty>
-0

> <r_epik_Charging_Adjusted_Penalty>
0.00233899

> <i_epik_Tot_Q>
1

> <i_epik_Tot_abs_Q>
1

> <r_epik_Metal_State_Penalty>
-0

> <b_epik_Metal_Only>
0

> <s_lp_Force_Field>
OPLS_2005

> <r_lp_Energy>
14.5557

> <b_lp_Chiralities_Consistent>
1

> <s_lp_Variant>
AV-unprocessed.smi:1833-2

> <Gold.Version>
5.8.1

> <Gold.Id.Protein>
6NUR|6NUR_protein|mol2

> <Gold.PLP.Fitness>
45.5171

> <Gold.PLP.PLP>
-28.8454

> <Gold.PLP.part.hbond>
-4.1130

> <Gold.PLP.part.metal>
0.0000

> <Gold.PLP.part.buried>
1.2605

> <Gold.PLP.part.nonpolar>
-25.4438

> <Gold.PLP.part.repulsive>
0.2237

> <Gold.PLP.ligand.clash>
0.0000

> <Gold.PLP.ligand.torsion>
0.3643

> <Gold.PLP.Chemscore.Hbond>
4.7801

> <Gold.PLP.Chemscore.CHOScore>
0.9996

> <Gold.PLP.Chemscore.Metal>
0.0000

> <Gold.Chemscore.Hbonds>
donor molecule, donor type, donor heavy atom, donor atom, acceptor molecule, acceptor atom, score
      L1  H     3    42       P1  7948  2.00
      L1  H     8    32       P1  7948  0.93
      L1  H    11    33       P1  7949  0.73
      P1  H  7989  7998       L1    15  0.86
      L1  C    16    38       P1  8028  1.00

> <Gold.PLP.Chemscore.Internal.Correction>
0.0611

> <Gold.Rescore>
     Score         DG    S(hbond)    S(metal)    S(lipo)     H(rot)  DE(clash)    DE(int)     intcor
     16.24     -18.12       2.84        0.00      64.50       1.71       1.59       0.29       ----

> <Gold.Chemscore.Fitness>
16.2443

> <Gold.Chemscore.DG>
-18.1237

> <Gold.Chemscore.ZeroCoef>
-5.4800

> <Gold.Chemscore.Hbond>
2.8403

> <Gold.Chemscore.Metal>
0.0000

> <Gold.Chemscore.Lipo>
64.5029

> <Gold.Chemscore.Internal_Hbond>
0.0000

> <Gold.Chemscore.DEClash>
1.5917

> <Gold.Chemscore.DEInternal>
0.2876

> <Gold.Chemscore.Rot>
1.7147

> <Gold.Chemscore.Internal.Correction>
   9.000000E+99

> <Gold.Chemscore.Hbonds>
donor molecule, donor type, donor heavy atom, donor atom, acceptor molecule, acceptor atom, score
      L1  H     3    42       P1  7948  0.99
      L1  H     8    32       P1  7948  0.34
      L1  H    11    33       P1  7949  0.10
      P1  H  7989  7998       L1    15  0.16

> <Gold.Chemscore.Hbond.Weighted>
-9.4864

> <Gold.Chemscore.Metal.Weighted>
-0.0000

> <Gold.Chemscore.Lipo.Weighted>
-7.5468

> <Gold.Chemscore.Internal_Hbond.Weighted>
0.0000

> <Gold.Chemscore.DEClash.Weighted>
1.5917

> <Gold.Chemscore.DEInternal.Weighted>
0.2876

> <Gold.Chemscore.Rot.Weighted>
4.3896

> <Gold.Chemscore.Internal.Correction.Weighted>
   9.000000E+99

> <Gold.Protein.RotatedTorsions>
[ 6907 6896 6895 6894 ] final  170.91 input  -60.11 | X-H torsion
[ 7974 7965 7964 7962 ] final  -81.21 input  175.53 | X-H torsion
[ 8008 7997 7996 7995 ] final  -27.88 input   59.86 | X-H torsion
[ 10167 10162 10161 10158 ] final  -45.11 input  -65.29 | X-H torsion
[ 10718 10713 10712 10709 ] final  174.58 input   66.30 | X-H torsion
[ 10763 10752 10751 10750 ] final -157.77 input  -60.55 | X-H torsion
[ 11005 11000 10999 10996 ] final   10.74 input  -57.11 | X-H torsion

> <Gold.Protein.ActiveResidues>
 VAL166  LYS551  ARG553  GLY616  TRP617  ASP618  TYR619  PRO620  LYS621  CYS622 
 ASP623  PHE694  ASN695  SER759  ASP760  ASP761  ALA762  ILE779  LEU786  VAL792 
 PHE793  MET794  SER795  GLU796  ALA797  LYS798  CYS799  TRP800  GLU811  SER814 

> <Gold.Protein.RotatedAtoms>
  151.8086  133.3379  159.3548 H   0  0  0  0  0  0  0  0  0  0  0  0  # atno 6907 bound_to 6896
  150.7333  134.5685  159.5887 H   0  0  0  0  0  0  0  0  0  0  0  0  # atno 6908 bound_to 6896
  152.3091  134.7520  160.0392 H   0  0  0  0  0  0  0  0  0  0  0  0  # atno 6909 bound_to 6896
  145.5496  140.9498  143.1506 H   0  0  0  0  0  0  0  0  0  0  0  0  # atno 7974 bound_to 7965
  154.4357  140.1860  156.1002 H   0  0  0  0  0  0  0  0  0  0  0  0  # atno 8008 bound_to 7997
  156.0298  140.3332  155.7101 H   0  0  0  0  0  0  0  0  0  0  0  0  # atno 8009 bound_to 7997
  155.5856  140.0626  157.2763 H   0  0  0  0  0  0  0  0  0  0  0  0  # atno 8010 bound_to 7997
  140.6871  143.2896  151.3592 H   0  0  0  0  0  0  0  0  0  0  0  0  # atno 10167 bound_to 10162
  156.9475  131.0020  151.2955 H   0  0  0  0  0  0  0  0  0  0  0  0  # atno 10718 bound_to 10713
  154.7610  135.3118  154.8378 H   0  0  0  0  0  0  0  0  0  0  0  0  # atno 10763 bound_to 10752
  153.9139  135.6803  153.4754 H   0  0  0  0  0  0  0  0  0  0  0  0  # atno 10764 bound_to 10752
  153.1211  135.4822  154.9128 H   0  0  0  0  0  0  0  0  0  0  0  0  # atno 10765 bound_to 10752
  140.5111  134.0651  155.7818 H   0  0  0  0  0  0  0  0  0  0  0  0  # atno 11005 bound_to 11000
  144.7536  139.7132  143.7263 LP  0  0  0  0  0  0  0  0  0  0  0  0  # atno 17320 bound_to 7965
  146.1925  139.5174  142.9795 LP  0  0  0  0  0  0  0  0  0  0  0  0  # atno 17321 bound_to 7965
  139.6239  144.0853  152.2416 LP  0  0  0  0  0  0  0  0  0  0  0  0  # atno 17342 bound_to 10162
  140.0306  144.6083  150.7491 LP  0  0  0  0  0  0  0  0  0  0  0  0  # atno 17343 bound_to 10162
  157.5744  130.8333  149.8435 LP  0  0  0  0  0  0  0  0  0  0  0  0  # atno 17370 bound_to 10713
  156.0377  130.3747  150.1516 LP  0  0  0  0  0  0  0  0  0  0  0  0  # atno 17371 bound_to 10713
  141.1385  133.9180  157.2380 LP  0  0  0  0  0  0  0  0  0  0  0  0  # atno 17394 bound_to 11000
  139.9658  135.0142  156.9383 LP  0  0  0  0  0  0  0  0  0  0  0  0  # atno 17395 bound_to 11000

$$$$
