AV-unprocessed.smi:2184|AV-procd|sdf|8871|dock2
  -GOLD-   2272012 73D 1   1.00000     0.00000
 Structure written by MMmdl.
 47 48  0  0  0  0  0  0  0  0  1 V2000
  145.0804  134.2354  151.0759 C   0  0  0  0  0  0  0  0  0  0  0  0
  145.6616  135.8617  150.5212 S   0  0  0  0  0  0  0  0  0  0  0  0
  145.5208  136.8254  152.0564 C   0  0  2  0  0  0  0  0  0  0  0  0
  144.0421  137.0514  152.4086 C   0  0  0  0  0  0  0  0  0  0  0  0
  146.2823  138.1543  151.9717 C   0  0  0  0  0  0  0  0  0  0  0  0
  146.9237  138.4442  150.9613 O   0  0  0  0  0  0  0  0  0  0  0  0
  146.2108  138.9512  153.0477 N   0  0  0  0  0  0  0  0  0  0  0  0
  146.8708  140.2455  153.1654 C   0  0  0  0  0  0  0  0  0  0  0  0
  147.9871  140.2833  154.1992 C   0  0  0  0  0  0  0  0  0  0  0  0
  148.7096  141.4587  154.4989 C   0  0  0  0  0  0  0  0  0  0  0  0
  149.7328  141.4051  155.4640 C   0  0  0  0  0  0  0  0  0  0  0  0
  150.0133  140.1763  156.1062 C   0  0  0  0  0  0  0  0  0  0  0  0
  151.0342  140.1042  157.0773 N   0  0  0  0  0  0  0  0  0  0  0  0
  151.5649  141.3529  157.6162 C   0  0  0  0  0  0  0  0  0  0  0  0
  152.3827  141.0783  158.8907 C   0  0  2  0  0  0  0  0  0  0  0  0
  153.0647  142.3456  159.4165 C   0  0  0  0  0  0  0  0  0  0  0  0
  153.3967  140.1137  158.6098 O   0  0  0  0  0  0  0  0  0  0  0  0
  152.9144  138.8671  158.1027 C   0  0  1  0  0  0  0  0  0  0  0  0
  152.1918  138.0402  159.1812 C   0  0  0  0  0  0  0  0  0  0  0  0
  152.0648  139.0983  156.8377 C   0  0  0  0  0  0  0  0  0  0  0  0
  149.3269  139.0464  155.8073 N   0  0  0  0  0  0  0  0  0  0  0  0
  148.3457  139.1038  154.8823 C   0  0  0  0  0  0  0  0  0  0  0  0
  145.0462  133.5448  150.2334 H   0  0  0  0  0  0  0  0  0  0  0  0
  144.0793  134.3112  151.5005 H   0  0  0  0  0  0  0  0  0  0  0  0
  145.7496  133.8208  151.8297 H   0  0  0  0  0  0  0  0  0  0  0  0
  145.9584  136.2244  152.8552 H   0  0  0  0  0  0  0  0  0  0  0  0
  143.9356  137.6400  153.3208 H   0  0  0  0  0  0  0  0  0  0  0  0
  143.5333  136.1012  152.5724 H   0  0  0  0  0  0  0  0  0  0  0  0
  143.5134  137.5735  151.6100 H   0  0  0  0  0  0  0  0  0  0  0  0
  145.6692  138.6374  153.8396 H   0  0  0  0  0  0  0  0  0  0  0  0
  147.2814  140.5202  152.1926 H   0  0  0  0  0  0  0  0  0  0  0  0
  146.1347  141.0065  153.4291 H   0  0  0  0  0  0  0  0  0  0  0  0
  148.4980  142.3933  154.0009 H   0  0  0  0  0  0  0  0  0  0  0  0
  150.2985  142.2970  155.6886 H   0  0  0  0  0  0  0  0  0  0  0  0
  152.1899  141.8322  156.8613 H   0  0  0  0  0  0  0  0  0  0  0  0
  150.7507  142.0399  157.8506 H   0  0  0  0  0  0  0  0  0  0  0  0
  151.7236  140.7017  159.6731 H   0  0  0  0  0  0  0  0  0  0  0  0
  152.3311  143.1167  159.6535 H   0  0  0  0  0  0  0  0  0  0  0  0
  153.7564  142.7562  158.6805 H   0  0  0  0  0  0  0  0  0  0  0  0
  153.6299  142.1355  160.3246 H   0  0  0  0  0  0  0  0  0  0  0  0
  153.7967  138.2978  157.8091 H   0  0  0  0  0  0  0  0  0  0  0  0
  151.9548  137.0436  158.8080 H   0  0  0  0  0  0  0  0  0  0  0  0
  151.2537  138.4977  159.4945 H   0  0  0  0  0  0  0  0  0  0  0  0
  152.8190  137.9206  160.0648 H   0  0  0  0  0  0  0  0  0  0  0  0
  151.6437  138.1505  156.5048 H   0  0  0  0  0  0  0  0  0  0  0  0
  152.7045  139.4551  156.0292 H   0  0  0  0  0  0  0  0  0  0  0  0
  147.8304  138.1760  154.6816 H   0  0  0  0  0  0  0  0  0  0  0  0
  1  2  1  0  0  0  0
  1 23  1  0  0  0  0
  1 24  1  0  0  0  0
  1 25  1  0  0  0  0
  2  3  1  0  0  0  0
  3  4  1  0  0  0  0
  3  5  1  0  0  0  0
  3 26  1  0  0  0  0
  4 27  1  0  0  0  0
  4 28  1  0  0  0  0
  4 29  1  0  0  0  0
  5  6  2  0  0  0  0
  5  7  1  0  0  0  0
  7  8  1  0  0  0  0
  7 30  1  0  0  0  0
  8  9  1  0  0  0  0
  8 31  1  0  0  0  0
  8 32  1  0  0  0  0
  9 22  1  0  0  0  0
  9 10  2  0  0  0  0
 10 11  1  0  0  0  0
 10 33  1  0  0  0  0
 11 12  2  0  0  0  0
 11 34  1  0  0  0  0
 12 13  1  0  0  0  0
 12 21  1  0  0  0  0
 13 20  1  0  0  0  0
 13 14  1  0  0  0  0
 14 15  1  0  0  0  0
 14 35  1  0  0  0  0
 14 36  1  0  0  0  0
 15 16  1  0  0  0  0
 15 17  1  0  0  0  0
 15 37  1  0  0  0  0
 16 38  1  0  0  0  0
 16 39  1  0  0  0  0
 16 40  1  0  0  0  0
 17 18  1  0  0  0  0
 18 19  1  0  0  0  0
 18 20  1  0  0  0  0
 18 41  1  0  0  0  0
 19 42  1  0  0  0  0
 19 43  1  0  0  0  0
 19 44  1  0  0  0  0
 20 45  1  0  0  0  0
 20 46  1  0  0  0  0
 21 22  2  0  0  0  0
 22 47  1  0  0  0  0
M  END
> <s_m_source_file>
AV-unprocessed.smi

> <i_m_source_file_index>
2184

> <i_lp_mmshare_version>
43012

> <i_f3d_flags>
0

> <s_epik_input>
W0NIM11TW0NASF0oW0NIM10pQyg9TylbTkhdW0NIMl1jMVtjSF1bY0hdYyhuW2NIXTEpTjJbQ0gyXVtDQEBIXShbQ0gzXSlPW0NAQEhdKFtDSDNdKVtDSDJdMg==

> <s_epik_cmdline>
J2VwaWtfcHl0aG9uJywgJy1waCcsICc3LjAnLCAnLXRuJywgJzgnLCAnLW1hJywgJzIwMCcsICctbWV0YWxfYmluZGluZycsICctaW1hZScsICc8aW5maWxlLm1hZT4nLCAnLW9tYWUnLCAnPG91dGZpbGUubWFlPic=

> <r_lp_tautomer_probability>
1

> <r_epik_Ionization_Penalty>
0.00551702

> <r_epik_Ionization_Penalty_Charging>
0

> <r_epik_Ionization_Penalty_Neutral>
0.00551702

> <r_epik_State_Penalty>
0.00403758

> <r_epik_Charging_Adjusted_Penalty>
0.00403758

> <i_epik_Tot_Q>
0

> <i_epik_Tot_abs_Q>
0

> <r_epik_Metal_State_Penalty>
-0

> <b_epik_Metal_Only>
0

> <s_lp_Force_Field>
OPLS_2005

> <r_lp_Energy>
19.5459

> <b_lp_Chiralities_Consistent>
1

> <s_lp_Variant>
AV-unprocessed.smi:2184-3

> <Gold.Version>
5.8.1

> <Gold.Id.Protein>
6NUR|6NUR_protein|mol2

> <Gold.PLP.Fitness>
41.9741

> <Gold.PLP.PLP>
-37.3055

> <Gold.PLP.part.hbond>
-3.0000

> <Gold.PLP.part.metal>
0.0000

> <Gold.PLP.part.buried>
-4.1880

> <Gold.PLP.part.nonpolar>
-31.9795

> <Gold.PLP.part.repulsive>
0.8454

> <Gold.PLP.ligand.clash>
0.0000

> <Gold.PLP.ligand.torsion>
0.3387

> <Gold.PLP.Chemscore.Hbond>
1.6496

> <Gold.PLP.Chemscore.CHOScore>
0.0000

> <Gold.PLP.Chemscore.Metal>
0.0000

> <Gold.Chemscore.Hbonds>
donor molecule, donor type, donor heavy atom, donor atom, acceptor molecule, acceptor atom, score
      P1  H  7954  7966       L1     6  1.00
      P1  H  7997  8009       L1    17  0.36

> <Gold.PLP.Chemscore.Internal.Correction>
0.3972

> <Gold.Rescore>
     Score         DG    S(hbond)    S(metal)    S(lipo)     H(rot)  DE(clash)    DE(int)     intcor
     13.85     -16.12       1.04        0.00      96.17       1.59       1.42       0.85       ----

> <Gold.Chemscore.Fitness>
13.8492

> <Gold.Chemscore.DG>
-16.1212

> <Gold.Chemscore.ZeroCoef>
-5.4800

> <Gold.Chemscore.Hbond>
1.0394

> <Gold.Chemscore.Metal>
0.0000

> <Gold.Chemscore.Lipo>
96.1701

> <Gold.Chemscore.Internal_Hbond>
0.0000

> <Gold.Chemscore.DEClash>
1.4192

> <Gold.Chemscore.DEInternal>
0.8528

> <Gold.Chemscore.Rot>
1.5947

> <Gold.Chemscore.Internal.Correction>
   9.000000E+99

> <Gold.Chemscore.Hbonds>
donor molecule, donor type, donor heavy atom, donor atom, acceptor molecule, acceptor atom, score
      P1  H  7954  7966       L1     6  0.97
      P1  H  7997  8009       L1    17  0.01

> <Gold.Chemscore.Hbond.Weighted>
-3.4717

> <Gold.Chemscore.Metal.Weighted>
-0.0000

> <Gold.Chemscore.Lipo.Weighted>
-11.2519

> <Gold.Chemscore.Internal_Hbond.Weighted>
0.0000

> <Gold.Chemscore.DEClash.Weighted>
1.4192

> <Gold.Chemscore.DEInternal.Weighted>
0.8528

> <Gold.Chemscore.Rot.Weighted>
4.0824

> <Gold.Chemscore.Internal.Correction.Weighted>
   9.000000E+99

> <Gold.Protein.RotatedTorsions>
[ 6907 6896 6895 6894 ] final -133.11 input  -60.11 | X-H torsion
[ 7974 7965 7964 7962 ] final   15.91 input  175.53 | X-H torsion
[ 8008 7997 7996 7995 ] final  135.23 input   59.86 | X-H torsion
[ 10167 10162 10161 10158 ] final -162.90 input  -65.29 | X-H torsion
[ 10718 10713 10712 10709 ] final  -12.94 input   66.30 | X-H torsion
[ 10763 10752 10751 10750 ] final   39.75 input  -60.55 | X-H torsion
[ 11005 11000 10999 10996 ] final  -51.62 input  -57.11 | X-H torsion

> <Gold.Protein.ActiveResidues>
 VAL166  LYS551  ARG553  GLY616  TRP617  ASP618  TYR619  PRO620  LYS621  CYS622 
 ASP623  PHE694  ASN695  SER759  ASP760  ASP761  ALA762  ILE779  LEU786  VAL792 
 PHE793  MET794  SER795  GLU796  ALA797  LYS798  CYS799  TRP800  GLU811  SER814 

> <Gold.Protein.RotatedAtoms>
  150.9702  133.6352  159.2739 H   0  0  0  0  0  0  0  0  0  0  0  0  # atno 6907 bound_to 6896
  151.3643  135.0909  159.9454 H   0  0  0  0  0  0  0  0  0  0  0  0  # atno 6908 bound_to 6896
  152.5180  133.9269  159.7616 H   0  0  0  0  0  0  0  0  0  0  0  0  # atno 6909 bound_to 6896
  146.2265  139.8825  142.8568 H   0  0  0  0  0  0  0  0  0  0  0  0  # atno 7974 bound_to 7965
  156.3002  140.2476  156.3547 H   0  0  0  0  0  0  0  0  0  0  0  0  # atno 8008 bound_to 7997
  154.8932  140.0408  157.1870 H   0  0  0  0  0  0  0  0  0  0  0  0  # atno 8009 bound_to 7997
  154.8576  140.2915  155.5563 H   0  0  0  0  0  0  0  0  0  0  0  0  # atno 8010 bound_to 7997
  139.6359  144.0351  152.2054 H   0  0  0  0  0  0  0  0  0  0  0  0  # atno 10167 bound_to 10162
  156.6375  130.4918  149.6107 H   0  0  0  0  0  0  0  0  0  0  0  0  # atno 10718 bound_to 10713
  152.9957  135.6211  154.2515 H   0  0  0  0  0  0  0  0  0  0  0  0  # atno 10763 bound_to 10752
  154.2253  135.2794  155.2911 H   0  0  0  0  0  0  0  0  0  0  0  0  # atno 10764 bound_to 10752
  154.5494  135.5737  153.6967 H   0  0  0  0  0  0  0  0  0  0  0  0  # atno 10765 bound_to 10752
  141.0881  133.6638  156.3904 H   0  0  0  0  0  0  0  0  0  0  0  0  # atno 11005 bound_to 11000
  145.2499  141.0040  143.3887 LP  0  0  0  0  0  0  0  0  0  0  0  0  # atno 17320 bound_to 7965
  144.9383  139.4218  143.6461 LP  0  0  0  0  0  0  0  0  0  0  0  0  # atno 17321 bound_to 7965
  140.0028  144.6281  150.7715 LP  0  0  0  0  0  0  0  0  0  0  0  0  # atno 17342 bound_to 10162
  140.7465  143.2891  151.3379 LP  0  0  0  0  0  0  0  0  0  0  0  0  # atno 17343 bound_to 10162
  156.2186  130.6723  151.1344 LP  0  0  0  0  0  0  0  0  0  0  0  0  # atno 17370 bound_to 10713
  157.7181  131.0698  150.6246 LP  0  0  0  0  0  0  0  0  0  0  0  0  # atno 17371 bound_to 10713
  140.5316  134.6207  157.5352 LP  0  0  0  0  0  0  0  0  0  0  0  0  # atno 17394 bound_to 11000
  139.9702  134.7305  156.0057 LP  0  0  0  0  0  0  0  0  0  0  0  0  # atno 17395 bound_to 11000

$$$$
