#       Name:                AV-unprocessed.smi:244
#       Creating user name   scv26
#       Creation time:       Thu Mar 26 20:50:48 2020


#       File generated by GOLD software.
#

@<TRIPOS>MOLECULE
AV-unprocessed.smi:244
    67    71     1
SMALL
NO_CHARGES


@<TRIPOS>ATOM
      1 ****        -2.1216  -0.7198   1.5834 C.3            1 S1                 0.0000
      2 ****        -3.1757   0.3049   1.7648 N.4            1 S1                 1.0000
      3 ****        -4.5549  -0.2179   1.5988 C.3            1 S1                 0.0000
      4 ****        -4.9209  -0.4075   0.1182 C.3            1 S1                 0.0000
      5 ****        -4.7380   0.9093  -0.6622 C.3            1 S1                 0.0000
      6 ****        -5.0832   0.7788  -2.0417 O.3            1 S1                 0.0000
      7 ****        -4.1617   0.0146  -2.8138 C.3            1 S1                 0.0000
      8 ****        -2.7620   0.6337  -2.7142 C.3            1 S1                 0.0000
      9 ****        -2.3506   0.7546  -1.3206 N.3            1 S1                 0.0000
     10 ****        -1.0495   1.1224  -1.2477 C.ar           1 S1                 0.0000
     11 ****        -0.7071   2.4363  -1.1819 N.ar           1 S1                 0.0000
     12 ****         0.5808   2.7886  -1.1177 C.ar           1 S1                 0.0000
     13 ****         1.6610   2.0045  -1.1061 N.ar           1 S1                 0.0000
     14 ****         1.3181   0.6863  -1.1804 C.ar           1 S1                 0.0000
     15 ****        -0.0023   0.1644  -1.2623 C.ar           1 S1                 0.0000
     16 ****         0.0339  -1.2221  -1.3312 N.2            1 S1                 0.0000
     17 ****         1.3074  -1.5058  -1.2899 C.2            1 S1                 0.0000
     18 ****         2.1485  -0.4203  -1.1842 N.pl3          1 S1                 0.0000
     19 ****         3.6005  -0.4482  -1.1034 C.3            1 S1                 0.0000
     20 ****         4.1474  -0.4986   0.3453 C.3            1 S1                 0.0000
     21 ****         3.7521   0.6937   1.0016 O.3            1 S1                 0.0000
     22 ****         3.5953  -1.6971   1.1485 C.3            1 S1                 0.0000
     23 ****         4.3032  -1.8609   2.5054 C.3            1 S1                 0.0000
     24 ****         5.7088  -1.9642   2.3152 O.3            1 S1                 0.0000
     25 ****         6.2713  -0.7910   1.7405 C.3            1 S1                 0.0000
     26 ****         5.6880  -0.5634   0.3345 C.3            1 S1                 0.0000
     27 ****        -3.3143   1.4927  -0.4940 C.3            1 S1                 0.0000
     28 ****        -2.9416   1.5686   1.0151 C.3            1 S1                 0.0000
     29 ****        -2.1409  -1.1548   0.5853 H              1 S1                 0.0000
     30 ****        -2.2542  -1.5295   2.3013 H              1 S1                 0.0000
     31 ****        -1.1327  -0.2909   1.7489 H              1 S1                 0.0000
     32 ****        -4.6667  -1.1561   2.1437 H              1 S1                 0.0000
     33 ****        -5.2486   0.4874   2.0581 H              1 S1                 0.0000
     34 ****        -4.3078  -1.2038  -0.3010 H              1 S1                 0.0000
     35 ****        -5.9549  -0.7434   0.0352 H              1 S1                 0.0000
     36 ****        -5.4433   1.6298  -0.2460 H              1 S1                 0.0000
     37 ****        -4.1521  -1.0278  -2.4966 H              1 S1                 0.0000
     38 ****        -4.4938   0.0158  -3.8521 H              1 S1                 0.0000
     39 ****        -2.0508   0.0198  -3.2693 H              1 S1                 0.0000
     40 ****        -2.7613   1.6220  -3.1770 H              1 S1                 0.0000
     41 ****         0.7733   3.8501  -1.0667 H              1 S1                 0.0000
     42 ****         1.6716  -2.5224  -1.3232 H              1 S1                 0.0000
     43 ****         3.9494  -1.3169  -1.6637 H              1 S1                 0.0000
     44 ****         3.9902   0.4257  -1.6275 H              1 S1                 0.0000
     45 ****         4.0810   1.4312   0.5103 H              1 S1                 0.0000
     46 ****         2.5214  -1.5966   1.3097 H              1 S1                 0.0000
     47 ****         3.7361  -2.6118   0.5710 H              1 S1                 0.0000
     48 ****         4.0747  -1.0269   3.1707 H              1 S1                 0.0000
     49 ****         3.9499  -2.7646   3.0022 H              1 S1                 0.0000
     50 ****         6.0904   0.0689   2.3872 H              1 S1                 0.0000
     51 ****         7.3525  -0.9163   1.6783 H              1 S1                 0.0000
     52 ****         6.0088  -1.3860  -0.3061 H              1 S1                 0.0000
     53 ****         6.1076   0.3437  -0.1023 H              1 S1                 0.0000
     54 ****        -3.3361   2.5129  -0.8810 H              1 S1                 0.0000
     55 ****        -3.5732   2.3277   1.4780 H              1 S1                 0.0000
     56 ****        -1.9207   1.9141   1.1765 H              1 S1                 0.0000
     57 ****        -3.1037   0.5627   2.7389 H              1 S1                 0.0000
     58 ****        -5.1371   1.6954  -2.4379 LP             1 S1                 0.0000
     59 ****        -5.9789   0.3378  -2.0988 LP             1 S1                 0.0000
     60 ****        -2.3798  -0.1428  -0.8805 LP             1 S1                 0.0000
     61 ****        -1.4185   3.1391  -1.1816 LP             1 S1                 0.0000
     62 ****         2.6012   2.3404  -1.0502 LP             1 S1                 0.0000
     63 ****        -0.7367  -1.8560  -1.3972 LP             1 S1                 0.0000
     64 ****         4.1300   0.7100   1.9273 LP             1 S1                 0.0000
     65 ****         2.7542   0.7378   1.0480 LP             1 S1                 0.0000
     66 ****         5.8939  -2.7379   1.7092 LP             1 S1                 0.0000
     67 ****         6.1410  -2.1249   3.2025 LP             1 S1                 0.0000
@<TRIPOS>BOND
    1    1    2 1     
    2    1   29 1     
    3    1   30 1     
    4    1   31 1     
    5    2   28 1     
    6    2    3 1     
    7    2   57 1     
    8    3    4 1     
    9    3   32 1     
   10    3   33 1     
   11    4    5 1     
   12    4   34 1     
   13    4   35 1     
   14    5   27 1     
   15    5    6 1     
   16    5   36 1     
   17    6    7 1     
   18    7    8 1     
   19    7   37 1     
   20    7   38 1     
   21    8    9 1     
   22    8   39 1     
   23    8   40 1     
   24    9   10 1     
   25    9   27 1     
   26   10   15 ar    
   27   10   11 ar    
   28   11   12 ar    
   29   12   13 ar    
   30   12   41 1     
   31   13   14 ar    
   32   14   18 1     
   33   14   15 ar    
   34   15   16 1     
   35   16   17 2     
   36   17   18 1     
   37   17   42 1     
   38   18   19 1     
   39   19   20 1     
   40   19   43 1     
   41   19   44 1     
   42   20   26 1     
   43   20   21 1     
   44   20   22 1     
   45   21   45 1     
   46   22   23 1     
   47   22   46 1     
   48   22   47 1     
   49   23   24 1     
   50   23   48 1     
   51   23   49 1     
   52   24   25 1     
   53   25   26 1     
   54   25   50 1     
   55   25   51 1     
   56   26   52 1     
   57   26   53 1     
   58   27   28 1     
   59   27   54 1     
   60   28   55 1     
   61   28   56 1     
   62    6   58 1     
   63    6   59 1     
   64    9   60 1     
   65   11   61 1     
   66   13   62 1     
   67   16   63 1     
   68   21   64 1     
   69   21   65 1     
   70   24   66 1     
   71   24   67 1     
@<TRIPOS>SUBSTRUCTURE
      1 S1             1
@<TRIPOS>SET
LONE_PAIRS      STATIC     ATOMS    <user>   **** ""
10 58 59 60 61 62 63 64 65 66 67
DONOR_HYDROGENS      STATIC     ATOMS    <user>   **** ""
2 57 45
ATOM$BLUE        STATIC     ATOMS    COLORGROUP SYSTEM
10 58 59 60 61 62 63 64 65 66 67
ATOM$RED        STATIC     ATOMS    COLORGROUP SYSTEM
2 57 45
