AV-unprocessed.smi:2790|AV-procd|sdf|10767|dock3
  -GOLD-   2272015203D 1   1.00000     0.00000
 Structure written by MMmdl.
 47 48  0  0  0  0  0  0  0  0  3 V2000
  147.7052  135.2836  154.4757 C   0  0  0  0  0  0  0  0  0  0  0  0
  148.8423  134.6280  153.7881 N   0  3  0  0  0  0  0  0  0  0  0  0
  148.4423  133.3436  153.1729 C   0  0  0  0  0  0  0  0  0  0  0  0
  150.0440  134.4892  154.6507 C   0  0  0  0  0  0  0  0  0  0  0  0
  150.7710  135.8165  154.8895 C   0  0  0  0  0  0  0  0  0  0  0  0
  151.6826  135.8895  155.7139 O   0  0  0  0  0  0  0  0  0  0  0  0
  150.3453  136.8616  154.1636 N   0  0  0  0  0  0  0  0  0  0  0  0
  150.8872  138.2192  154.2264 C   0  0  0  0  0  0  0  0  0  0  0  0
  150.0192  139.1912  155.0821 C   0  0  0  0  0  0  0  0  0  0  0  0
  148.7357  139.5378  154.2921 C   0  0  0  0  0  0  0  0  0  0  0  0
  147.8459  138.5028  153.9062 C   0  0  0  0  0  0  0  0  0  0  0  0
  146.6731  138.8079  153.1871 C   0  0  0  0  0  0  0  0  0  0  0  0
  146.4002  140.0871  152.8594 N   0  3  0  0  0  0  0  0  0  0  0  0
  147.2143  141.1107  153.1893 C   0  0  0  0  0  0  0  0  0  0  0  0
  148.4017  140.8641  153.9083 C   0  0  0  0  0  0  0  0  0  0  0  0
  149.6109  138.4984  156.4160 C   0  0  0  0  0  0  0  0  0  0  0  0
  150.7806  138.2451  157.3856 C   0  0  0  0  0  0  0  0  0  0  0  0
  151.5389  139.5386  157.7021 C   0  0  0  0  0  0  0  0  0  0  0  0
  152.0097  140.2218  156.4141 C   0  0  0  0  0  0  0  0  0  0  0  0
  150.8307  140.4722  155.4563 C   0  0  0  0  0  0  0  0  0  0  0  0
  147.3553  134.6800  155.3140 H   0  0  0  0  0  0  0  0  0  0  0  0
  146.8716  135.4250  153.7868 H   0  0  0  0  0  0  0  0  0  0  0  0
  147.9847  136.2661  154.8572 H   0  0  0  0  0  0  0  0  0  0  0  0
  148.1639  132.6146  153.9353 H   0  0  0  0  0  0  0  0  0  0  0  0
  149.2588  132.9271  152.5820 H   0  0  0  0  0  0  0  0  0  0  0  0
  147.5915  133.4834  152.5053 H   0  0  0  0  0  0  0  0  0  0  0  0
  149.7705  134.0272  155.6011 H   0  0  0  0  0  0  0  0  0  0  0  0
  150.7621  133.8214  154.1722 H   0  0  0  0  0  0  0  0  0  0  0  0
  149.5805  136.7103  153.5217 H   0  0  0  0  0  0  0  0  0  0  0  0
  151.8827  138.1341  154.6627 H   0  0  0  0  0  0  0  0  0  0  0  0
  151.0581  138.6079  153.2229 H   0  0  0  0  0  0  0  0  0  0  0  0
  148.0523  137.4726  154.1549 H   0  0  0  0  0  0  0  0  0  0  0  0
  145.9508  138.0712  152.8662 H   0  0  0  0  0  0  0  0  0  0  0  0
  146.8939  142.0919  152.8703 H   0  0  0  0  0  0  0  0  0  0  0  0
  149.0293  141.7078  154.1492 H   0  0  0  0  0  0  0  0  0  0  0  0
  148.8757  139.1210  156.9284 H   0  0  0  0  0  0  0  0  0  0  0  0
  149.1136  137.5476  156.2253 H   0  0  0  0  0  0  0  0  0  0  0  0
  150.4010  137.8100  158.3105 H   0  0  0  0  0  0  0  0  0  0  0  0
  151.4658  137.5081  156.9669 H   0  0  0  0  0  0  0  0  0  0  0  0
  150.8903  140.2155  158.2597 H   0  0  0  0  0  0  0  0  0  0  0  0
  152.3918  139.3248  158.3468 H   0  0  0  0  0  0  0  0  0  0  0  0
  152.4889  141.1700  156.6596 H   0  0  0  0  0  0  0  0  0  0  0  0
  152.7758  139.6163  155.9310 H   0  0  0  0  0  0  0  0  0  0  0  0
  151.2014  140.9761  154.5636 H   0  0  0  0  0  0  0  0  0  0  0  0
  150.1691  141.1832  155.9536 H   0  0  0  0  0  0  0  0  0  0  0  0
  149.1113  135.2340  153.0253 H   0  0  0  0  0  0  0  0  0  0  0  0
  145.5447  140.2882  152.3404 H   0  0  0  0  0  0  0  0  0  0  0  0
  1  2  1  0  0  0  0
  1 21  1  0  0  0  0
  1 22  1  0  0  0  0
  1 23  1  0  0  0  0
  2  3  1  0  0  0  0
  2  4  1  0  0  0  0
  2 46  1  0  0  0  0
  3 24  1  0  0  0  0
  3 25  1  0  0  0  0
  3 26  1  0  0  0  0
  4  5  1  0  0  0  0
  4 27  1  0  0  0  0
  4 28  1  0  0  0  0
  5  6  2  0  0  0  0
  5  7  1  0  0  0  0
  7  8  1  0  0  0  0
  7 29  1  0  0  0  0
  8  9  1  0  0  0  0
  8 30  1  0  0  0  0
  8 31  1  0  0  0  0
  9 20  1  0  0  0  0
  9 10  1  0  0  0  0
  9 16  1  0  0  0  0
 10 15  1  0  0  0  0
 10 11  2  0  0  0  0
 11 12  1  0  0  0  0
 11 32  1  0  0  0  0
 12 13  2  0  0  0  0
 12 33  1  0  0  0  0
 13 14  1  0  0  0  0
 13 47  1  0  0  0  0
 14 15  2  0  0  0  0
 14 34  1  0  0  0  0
 15 35  1  0  0  0  0
 16 17  1  0  0  0  0
 16 36  1  0  0  0  0
 16 37  1  0  0  0  0
 17 18  1  0  0  0  0
 17 38  1  0  0  0  0
 17 39  1  0  0  0  0
 18 19  1  0  0  0  0
 18 40  1  0  0  0  0
 18 41  1  0  0  0  0
 19 20  1  0  0  0  0
 19 42  1  0  0  0  0
 19 43  1  0  0  0  0
 20 44  1  0  0  0  0
 20 45  1  0  0  0  0
M  CHG  1   2   1
M  CHG  1  13   1
M  END
> <s_m_source_file>
AV-unprocessed.smi

> <i_m_source_file_index>
2790

> <i_lp_mmshare_version>
43012

> <i_f3d_flags>
0

> <s_epik_input>
W0NIM11OKFtDSDNdKVtDSDJdQyg9TylbTkhdW0NIMl1DMShbQ0gyXVtDSDJdW0NIMl1bQ0gyXVtDSDJdMSljMltjSF1bY0hdbltjSF1bY0hdMg==

> <s_epik_cmdline>
J2VwaWtfcHl0aG9uJywgJy1waCcsICc3LjAnLCAnLXRuJywgJzgnLCAnLW1hJywgJzIwMCcsICctbWV0YWxfYmluZGluZycsICctaW1hZScsICc8aW5maWxlLm1hZT4nLCAnLW9tYWUnLCAnPG91dGZpbGUubWFlPic=

> <r_epik_Ionization_Penalty>
1.49613

> <r_epik_Ionization_Penalty_Charging>
1.4961

> <r_epik_Ionization_Penalty_Neutral>
2.84587e-05

> <r_epik_State_Penalty>
1.54102

> <r_epik_Charging_Adjusted_Penalty>
3.03712

> <i_epik_Tot_Q>
2

> <i_epik_Tot_abs_Q>
2

> <r_epik_Metal_State_Penalty>
1.62888

> <b_epik_Metal_Only>
0

> <s_lp_Force_Field>
OPLS_2005

> <r_lp_Energy>
33.1663

> <b_lp_Chiralities_Consistent>
1

> <s_lp_Variant>
AV-unprocessed.smi:2790-2

> <Gold.Version>
5.8.1

> <Gold.Id.Protein>
6NUR|6NUR_protein|mol2

> <Gold.PLP.Fitness>
50.0759

> <Gold.PLP.PLP>
-33.2857

> <Gold.PLP.part.hbond>
-4.6272

> <Gold.PLP.part.metal>
0.0000

> <Gold.PLP.part.buried>
-4.4277

> <Gold.PLP.part.nonpolar>
-25.2481

> <Gold.PLP.part.repulsive>
0.0861

> <Gold.PLP.ligand.clash>
0.0000

> <Gold.PLP.ligand.torsion>
0.5196

> <Gold.PLP.Chemscore.Hbond>
5.9280

> <Gold.PLP.Chemscore.CHOScore>
0.0000

> <Gold.PLP.Chemscore.Metal>
0.0000

> <Gold.Chemscore.Hbonds>
donor molecule, donor type, donor heavy atom, donor atom, acceptor molecule, acceptor atom, score
      L1  H     2    46       P1  7948  1.57
      L1  H     7    29       P1  7948  0.98
      L1  H    13    47       P1 10175  1.82
      P1  H 10752 10764       L1     6  1.00

> <Gold.PLP.Chemscore.Internal.Correction>
0.0453

> <Gold.Rescore>
     Score         DG    S(hbond)    S(metal)    S(lipo)     H(rot)  DE(clash)    DE(int)     intcor
     19.59     -21.30       3.57        0.00      71.31       1.73       0.24       1.47       ----

> <Gold.Chemscore.Fitness>
19.5866

> <Gold.Chemscore.DG>
-21.2999

> <Gold.Chemscore.ZeroCoef>
-5.4800

> <Gold.Chemscore.Hbond>
3.5675

> <Gold.Chemscore.Metal>
0.0000

> <Gold.Chemscore.Lipo>
71.3075

> <Gold.Chemscore.Internal_Hbond>
0.0000

> <Gold.Chemscore.DEClash>
0.2408

> <Gold.Chemscore.DEInternal>
1.4724

> <Gold.Chemscore.Rot>
1.7339

> <Gold.Chemscore.Internal.Correction>
   9.000000E+99

> <Gold.Chemscore.Hbonds>
donor molecule, donor type, donor heavy atom, donor atom, acceptor molecule, acceptor atom, score
      L1  H     2    46       P1  7948  0.13
      L1  H     7    29       P1  7948  0.65
      L1  H    13    47       P1 10175  0.54
      P1  H 10752 10764       L1     6  0.55

> <Gold.Chemscore.Hbond.Weighted>
-11.9156

> <Gold.Chemscore.Metal.Weighted>
-0.0000

> <Gold.Chemscore.Lipo.Weighted>
-8.3430

> <Gold.Chemscore.Internal_Hbond.Weighted>
0.0000

> <Gold.Chemscore.DEClash.Weighted>
0.2408

> <Gold.Chemscore.DEInternal.Weighted>
1.4724

> <Gold.Chemscore.Rot.Weighted>
4.4387

> <Gold.Chemscore.Internal.Correction.Weighted>
   9.000000E+99

> <Gold.Protein.RotatedTorsions>
[ 6907 6896 6895 6894 ] final -164.31 input  -60.11 | X-H torsion
[ 7974 7965 7964 7962 ] final -161.82 input  175.53 | X-H torsion
[ 8008 7997 7996 7995 ] final -166.13 input   59.86 | X-H torsion
[ 10167 10162 10161 10158 ] final -174.15 input  -65.29 | X-H torsion
[ 10718 10713 10712 10709 ] final  156.09 input   66.30 | X-H torsion
[ 10763 10752 10751 10750 ] final  -39.13 input  -60.55 | X-H torsion
[ 11005 11000 10999 10996 ] final   48.56 input  -57.11 | X-H torsion

> <Gold.Protein.ActiveResidues>
 VAL166  LYS551  ARG553  GLY616  TRP617  ASP618  TYR619  PRO620  LYS621  CYS622 
 ASP623  PHE694  ASN695  SER759  ASP760  ASP761  ALA762  ILE779  LEU786  VAL792 
 PHE793  MET794  SER795  GLU796  ALA797  LYS798  CYS799  TRP800  GLU811  SER814 

> <Gold.Protein.RotatedAtoms>
  151.4098  133.3731  159.2742 H   0  0  0  0  0  0  0  0  0  0  0  0  # atno 6907 bound_to 6896
  150.9371  134.8784  159.7599 H   0  0  0  0  0  0  0  0  0  0  0  0  # atno 6908 bound_to 6896
  152.5055  134.4046  159.9480 H   0  0  0  0  0  0  0  0  0  0  0  0  # atno 6909 bound_to 6896
  144.7378  140.3342  143.6147 H   0  0  0  0  0  0  0  0  0  0  0  0  # atno 7974 bound_to 7965
  155.8595  140.0976  157.1622 H   0  0  0  0  0  0  0  0  0  0  0  0  # atno 8008 bound_to 7997
  154.3989  140.1368  156.4006 H   0  0  0  0  0  0  0  0  0  0  0  0  # atno 8009 bound_to 7997
  155.7872  140.3457  155.5332 H   0  0  0  0  0  0  0  0  0  0  0  0  # atno 8010 bound_to 7997
  139.5649  144.1779  152.1297 H   0  0  0  0  0  0  0  0  0  0  0  0  # atno 10167 bound_to 10162
  157.2097  131.0695  151.1977 H   0  0  0  0  0  0  0  0  0  0  0  0  # atno 10718 bound_to 10713
  153.9242  135.6779  153.4747 H   0  0  0  0  0  0  0  0  0  0  0  0  # atno 10763 bound_to 10752
  153.1013  135.4827  154.8868 H   0  0  0  0  0  0  0  0  0  0  0  0  # atno 10764 bound_to 10752
  154.7462  135.3173  154.8597 H   0  0  0  0  0  0  0  0  0  0  0  0  # atno 10765 bound_to 10752
  140.1180  134.4867  155.8621 H   0  0  0  0  0  0  0  0  0  0  0  0  # atno 11005 bound_to 11000
  145.7441  139.1773  143.2359 LP  0  0  0  0  0  0  0  0  0  0  0  0  # atno 17320 bound_to 7965
  146.1112  140.7426  142.9502 LP  0  0  0  0  0  0  0  0  0  0  0  0  # atno 17321 bound_to 7965
  140.1300  144.5296  150.6808 LP  0  0  0  0  0  0  0  0  0  0  0  0  # atno 17342 bound_to 10162
  140.6932  143.2388  151.5074 LP  0  0  0  0  0  0  0  0  0  0  0  0  # atno 17343 bound_to 10162
  157.3685  130.7168  149.6549 LP  0  0  0  0  0  0  0  0  0  0  0  0  # atno 17370 bound_to 10713
  155.9692  130.4205  150.4427 LP  0  0  0  0  0  0  0  0  0  0  0  0  # atno 17371 bound_to 10713
  141.2145  133.6750  156.6833 LP  0  0  0  0  0  0  0  0  0  0  0  0  # atno 17394 bound_to 11000
  140.3003  134.8169  157.4092 LP  0  0  0  0  0  0  0  0  0  0  0  0  # atno 17395 bound_to 11000

$$$$
