#       Name:                AV-unprocessed.smi:3303
#       Creating user name   scv26
#       Creation time:       Fri Mar 27 19:02:08 2020


#       File generated by GOLD software.
#

@<TRIPOS>MOLECULE
AV-unprocessed.smi:3303
    46    47     1
SMALL
NO_CHARGES


@<TRIPOS>ATOM
      1 ****        -1.7725  -0.8264  -2.9240 C.3            1 S1                 0.0000
      2 ****        -2.0538  -1.1323  -1.4422 C.3            1 S1                 0.0000
      3 ****        -1.6535  -2.5692  -1.0548 C.3            1 S1                 0.0000
      4 ****        -2.0360  -2.8712   0.3470 N.4            1 S1                 1.0000
      5 ****        -1.8941  -4.3058   0.6846 C.3            1 S1                 0.0000
      6 ****        -1.4235  -1.9457   1.3422 C.3            1 S1                 0.0000
      7 ****         0.0844  -2.1904   1.5704 C.3            1 S1                 0.0000
      8 ****        -1.7546  -0.4762   0.9937 C.3            1 S1                 0.0000
      9 ****        -1.4530  -0.0873  -0.4736 C.3            1 S1                 0.0000
     10 ****        -0.0262   0.1005  -0.7248 N.3            1 S1                 0.0000
     11 ****         0.4760   1.3526  -0.1769 C.3            1 S1                 0.0000
     12 ****         1.9578   1.5109  -0.5417 C.3            1 S1                 0.0000
     13 ****         2.5442   2.7972   0.0078 C.ar           1 S1                 0.0000
     14 ****         3.3124   2.7900   1.1916 C.ar           1 S1                 0.0000
     15 ****         3.8262   4.0128   1.6651 C.ar           1 S1                 0.0000
     16 ****         3.5525   5.1893   0.9412 C.ar           1 S1                 0.0000
     17 ****         2.7731   5.0904  -0.2287 C.ar           1 S1                 0.0000
     18 ****         2.2753   3.9231  -0.6912 N.ar           1 S1                 0.0000
     19 ****        -0.7144  -0.9308  -3.1660 H              1 S1                 0.0000
     20 ****        -2.0756   0.1893  -3.1797 H              1 S1                 0.0000
     21 ****        -2.3243  -1.5062  -3.5738 H              1 S1                 0.0000
     22 ****        -3.1370  -1.0705  -1.3246 H              1 S1                 0.0000
     23 ****        -2.1607  -3.2719  -1.7173 H              1 S1                 0.0000
     24 ****        -0.5842  -2.7270  -1.1987 H              1 S1                 0.0000
     25 ****        -0.8655  -4.6461   0.5610 H              1 S1                 0.0000
     26 ****        -2.5266  -4.9120   0.0355 H              1 S1                 0.0000
     27 ****        -2.2002  -4.4946   1.7141 H              1 S1                 0.0000
     28 ****        -1.9121  -2.1506   2.2958 H              1 S1                 0.0000
     29 ****         0.4923  -1.4576   2.2671 H              1 S1                 0.0000
     30 ****         0.6649  -2.1222   0.6517 H              1 S1                 0.0000
     31 ****         0.2705  -3.1729   2.0036 H              1 S1                 0.0000
     32 ****        -2.8242  -0.3331   1.1530 H              1 S1                 0.0000
     33 ****        -1.2766   0.1998   1.7018 H              1 S1                 0.0000
     34 ****        -1.9418   0.8653  -0.6844 H              1 S1                 0.0000
     35 ****         0.1325   0.1058  -1.7227 H              1 S1                 0.0000
     36 ****        -0.0973   2.1876  -0.5814 H              1 S1                 0.0000
     37 ****         0.3646   1.3707   0.9065 H              1 S1                 0.0000
     38 ****         2.5301   0.6648  -0.1588 H              1 S1                 0.0000
     39 ****         2.0824   1.5013  -1.6256 H              1 S1                 0.0000
     40 ****         3.5033   1.8713   1.7266 H              1 S1                 0.0000
     41 ****         4.4187   4.0475   2.5674 H              1 S1                 0.0000
     42 ****         3.9301   6.1446   1.2744 H              1 S1                 0.0000
     43 ****         2.5428   5.9724  -0.8078 H              1 S1                 0.0000
     44 ****        -3.0278  -2.6863   0.3950 H              1 S1                 0.0000
     45 ****         0.4581  -0.6509  -0.2766 LP             1 S1                 0.0000
     46 ****         1.7246   3.8924  -1.5253 LP             1 S1                 0.0000
@<TRIPOS>BOND
    1    1    2 1     
    2    1   19 1     
    3    1   20 1     
    4    1   21 1     
    5    2    9 1     
    6    2    3 1     
    7    2   22 1     
    8    3    4 1     
    9    3   23 1     
   10    3   24 1     
   11    4    5 1     
   12    4    6 1     
   13    4   44 1     
   14    5   25 1     
   15    5   26 1     
   16    5   27 1     
   17    6    7 1     
   18    6    8 1     
   19    6   28 1     
   20    7   29 1     
   21    7   30 1     
   22    7   31 1     
   23    8    9 1     
   24    8   32 1     
   25    8   33 1     
   26    9   10 1     
   27    9   34 1     
   28   10   11 1     
   29   10   35 1     
   30   11   12 1     
   31   11   36 1     
   32   11   37 1     
   33   12   13 1     
   34   12   38 1     
   35   12   39 1     
   36   13   18 ar    
   37   13   14 ar    
   38   14   15 ar    
   39   14   40 1     
   40   15   16 ar    
   41   15   41 1     
   42   16   17 ar    
   43   16   42 1     
   44   17   18 ar    
   45   17   43 1     
   46   10   45 1     
   47   18   46 1     
@<TRIPOS>SUBSTRUCTURE
      1 S1             1
@<TRIPOS>SET
LONE_PAIRS      STATIC     ATOMS    <user>   **** ""
2 45 46
DONOR_HYDROGENS      STATIC     ATOMS    <user>   **** ""
2 44 35
ATOM$BLUE        STATIC     ATOMS    COLORGROUP SYSTEM
2 45 46
ATOM$RED        STATIC     ATOMS    COLORGROUP SYSTEM
2 44 35
