AV-unprocessed.smi:2078|AV-procd|sdf|8463|dock6
  -GOLD-   2272011163D 1   1.00000     0.00000
 Structure written by MMmdl.
 42 43  0  0  0  0  0  0  0  0  2 V2000
  153.7222  137.7974  157.0153 C   0  0  0  0  0  0  0  0  0  0  0  0
  152.6929  138.2410  156.0332 C   0  0  0  0  0  0  0  0  0  0  0  0
  151.7019  137.5822  155.3611 C   0  0  0  0  0  0  0  0  0  0  0  0
  151.0973  138.6125  154.5932 C   0  0  0  0  0  0  0  0  0  0  0  0
  150.0001  138.3356  153.7381 N   0  0  0  0  0  0  0  0  0  0  0  0
  148.7820  138.9027  153.7624 C   0  0  0  0  0  0  0  0  0  0  0  0
  148.4195  139.7749  154.5525 O   0  0  0  0  0  0  0  0  0  0  0  0
  147.9853  138.3958  152.8100 N   0  0  0  0  0  0  0  0  0  0  0  0
  146.6051  138.8062  152.5799 C   0  0  0  0  0  0  0  0  0  0  0  0
  145.8596  137.8022  151.6793 C   0  0  0  0  0  0  0  0  0  0  0  0
  146.1862  136.3935  152.0142 N   0  3  1  0  0  0  0  0  0  0  0  0
  145.8403  136.0553  153.4188 C   0  0  0  0  0  0  0  0  0  0  0  0
  146.3135  134.6385  153.7799 C   0  0  0  0  0  0  0  0  0  0  0  0
  145.7296  133.6016  152.8124 C   0  0  0  0  0  0  0  0  0  0  0  0
  146.0658  133.9786  151.3596 C   0  0  1  0  0  0  0  0  0  0  0  0
  145.4671  132.9728  150.3661 C   0  0  0  0  0  0  0  0  0  0  0  0
  145.5980  135.4168  151.0580 C   0  0  0  0  0  0  0  0  0  0  0  0
  151.6676  139.7931  154.7789 N   0  0  0  0  0  0  0  0  0  0  0  0
  152.6932  139.5609  155.7030 O   0  0  0  0  0  0  0  0  0  0  0  0
  153.6610  136.7225  157.1859 H   0  0  0  0  0  0  0  0  0  0  0  0
  153.5843  138.3005  157.9724 H   0  0  0  0  0  0  0  0  0  0  0  0
  154.7249  138.0258  156.6538 H   0  0  0  0  0  0  0  0  0  0  0  0
  151.4525  136.5326  155.4140 H   0  0  0  0  0  0  0  0  0  0  0  0
  150.1604  137.6297  153.0350 H   0  0  0  0  0  0  0  0  0  0  0  0
  148.3610  137.6845  152.1996 H   0  0  0  0  0  0  0  0  0  0  0  0
  146.1067  138.9314  153.5416 H   0  0  0  0  0  0  0  0  0  0  0  0
  146.6172  139.7889  152.1079 H   0  0  0  0  0  0  0  0  0  0  0  0
  144.7892  137.9674  151.8105 H   0  0  0  0  0  0  0  0  0  0  0  0
  146.0691  137.9827  150.6236 H   0  0  0  0  0  0  0  0  0  0  0  0
  146.3074  136.7699  154.0977 H   0  0  0  0  0  0  0  0  0  0  0  0
  144.7616  136.1412  153.5603 H   0  0  0  0  0  0  0  0  0  0  0  0
  147.4031  134.5961  153.7502 H   0  0  0  0  0  0  0  0  0  0  0  0
  146.0227  134.3979  154.8029 H   0  0  0  0  0  0  0  0  0  0  0  0
  146.1223  132.6117  153.0481 H   0  0  0  0  0  0  0  0  0  0  0  0
  144.6477  133.5472  152.9431 H   0  0  0  0  0  0  0  0  0  0  0  0
  147.1506  133.9463  151.2449 H   0  0  0  0  0  0  0  0  0  0  0  0
  144.3783  132.9548  150.4261 H   0  0  0  0  0  0  0  0  0  0  0  0
  145.8280  131.9632  150.5642 H   0  0  0  0  0  0  0  0  0  0  0  0
  145.7395  133.2235  149.3405 H   0  0  0  0  0  0  0  0  0  0  0  0
  144.5092  135.4766  151.1031 H   0  0  0  0  0  0  0  0  0  0  0  0
  145.8826  135.6746  150.0385 H   0  0  0  0  0  0  0  0  0  0  0  0
  147.1900  136.3080  151.9445 H   0  0  0  0  0  0  0  0  0  0  0  0
  1  2  1  0  0  0  0
  1 20  1  0  0  0  0
  1 21  1  0  0  0  0
  1 22  1  0  0  0  0
  2 19  1  0  0  0  0
  2  3  2  0  0  0  0
  3  4  1  0  0  0  0
  3 23  1  0  0  0  0
  4  5  1  0  0  0  0
  4 18  2  0  0  0  0
  5  6  1  0  0  0  0
  5 24  1  0  0  0  0
  6  7  2  0  0  0  0
  6  8  1  0  0  0  0
  8  9  1  0  0  0  0
  8 25  1  0  0  0  0
  9 10  1  0  0  0  0
  9 26  1  0  0  0  0
  9 27  1  0  0  0  0
 10 11  1  0  0  0  0
 10 28  1  0  0  0  0
 10 29  1  0  0  0  0
 11 17  1  0  0  0  0
 11 12  1  0  0  0  0
 11 42  1  0  0  0  0
 12 13  1  0  0  0  0
 12 30  1  0  0  0  0
 12 31  1  0  0  0  0
 13 14  1  0  0  0  0
 13 32  1  0  0  0  0
 13 33  1  0  0  0  0
 14 15  1  0  0  0  0
 14 34  1  0  0  0  0
 14 35  1  0  0  0  0
 15 16  1  0  0  0  0
 15 17  1  0  0  0  0
 15 36  1  0  0  0  0
 16 37  1  0  0  0  0
 16 38  1  0  0  0  0
 16 39  1  0  0  0  0
 17 40  1  0  0  0  0
 17 41  1  0  0  0  0
 18 19  1  0  0  0  0
M  CHG  1  11   1
M  END
> <s_m_source_file>
AV-unprocessed.smi

> <i_m_source_file_index>
2078

> <i_lp_mmshare_version>
43012

> <i_f3d_flags>
0

> <s_epik_input>
W0NIM11jMVtjSF1jKG5vMSlbTkhdQyg9TylbTkhdW0NIMl1bQ0gyXU4yW0NIMl1bQ0gyXVtDSDJdW0NAQEhdKFtDSDNdKVtDSDJdMg==

> <s_epik_cmdline>
J2VwaWtfcHl0aG9uJywgJy1waCcsICc3LjAnLCAnLXRuJywgJzgnLCAnLW1hJywgJzIwMCcsICctbWV0YWxfYmluZGluZycsICctaW1hZScsICc8aW5maWxlLm1hZT4nLCAnLW9tYWUnLCAnPG91dGZpbGUubWFlPic=

> <r_epik_Ionization_Penalty>
0.00216453

> <r_epik_Ionization_Penalty_Charging>
0.00212879

> <r_epik_Ionization_Penalty_Neutral>
3.57418e-05

> <r_epik_State_Penalty>
0.00146033

> <r_epik_Charging_Adjusted_Penalty>
0.00358912

> <i_epik_Tot_Q>
1

> <i_epik_Tot_abs_Q>
1

> <r_epik_Metal_State_Penalty>
0.0215827

> <b_epik_Metal_Only>
0

> <s_lp_Force_Field>
OPLS_2005

> <r_lp_Energy>
12.7312

> <b_lp_Chiralities_Consistent>
1

> <s_lp_Variant>
AV-unprocessed.smi:2078-1

> <Gold.Version>
5.8.1

> <Gold.Id.Protein>
6NUR|6NUR_protein|mol2

> <Gold.PLP.Fitness>
45.8599

> <Gold.PLP.PLP>
-30.9960

> <Gold.PLP.part.hbond>
-6.7514

> <Gold.PLP.part.metal>
0.0000

> <Gold.PLP.part.buried>
-1.1249

> <Gold.PLP.part.nonpolar>
-24.6848

> <Gold.PLP.part.repulsive>
0.3258

> <Gold.PLP.ligand.clash>
0.0000

> <Gold.PLP.ligand.torsion>
0.7177

> <Gold.PLP.Chemscore.Hbond>
5.4259

> <Gold.PLP.Chemscore.CHOScore>
0.0000

> <Gold.PLP.Chemscore.Metal>
0.0000

> <Gold.Chemscore.Hbonds>
donor molecule, donor type, donor heavy atom, donor atom, acceptor molecule, acceptor atom, score
      L1  H     5    24       P1  7948  0.46
      L1  H     8    25       P1  7948  1.00
      L1  H    11    42       P1  7948  2.00
      P1  H  7989  7998       L1    18  1.00
      P1  H  7997  8009       L1    19  1.00

> <Gold.PLP.Chemscore.Internal.Correction>
0.0217

> <Gold.Rescore>
     Score         DG    S(hbond)    S(metal)    S(lipo)     H(rot)  DE(clash)    DE(int)     intcor
     20.41     -21.19       3.88        0.00      57.70       1.57       0.10       0.69       ----

> <Gold.Chemscore.Fitness>
20.4065

> <Gold.Chemscore.DG>
-21.1874

> <Gold.Chemscore.ZeroCoef>
-5.4800

> <Gold.Chemscore.Hbond>
3.8846

> <Gold.Chemscore.Metal>
0.0000

> <Gold.Chemscore.Lipo>
57.7040

> <Gold.Chemscore.Internal_Hbond>
0.0000

> <Gold.Chemscore.DEClash>
0.0959

> <Gold.Chemscore.DEInternal>
0.6850

> <Gold.Chemscore.Rot>
1.5697

> <Gold.Chemscore.Internal.Correction>
   9.000000E+99

> <Gold.Chemscore.Hbonds>
donor molecule, donor type, donor heavy atom, donor atom, acceptor molecule, acceptor atom, score
      L1  H     5    24       P1  7948  0.07
      L1  H     8    25       P1  7948  0.96
      L1  H    11    42       P1  7948  1.00
      P1  H  7989  7998       L1    18  0.94
      P1  H  7997  8009       L1    19  0.55

> <Gold.Chemscore.Hbond.Weighted>
-12.9745

> <Gold.Chemscore.Metal.Weighted>
-0.0000

> <Gold.Chemscore.Lipo.Weighted>
-6.7514

> <Gold.Chemscore.Internal_Hbond.Weighted>
0.0000

> <Gold.Chemscore.DEClash.Weighted>
0.0959

> <Gold.Chemscore.DEInternal.Weighted>
0.6850

> <Gold.Chemscore.Rot.Weighted>
4.0185

> <Gold.Chemscore.Internal.Correction.Weighted>
   9.000000E+99

> <Gold.Protein.RotatedTorsions>
[ 6907 6896 6895 6894 ] final  -84.97 input  -60.11 | X-H torsion
[ 7974 7965 7964 7962 ] final   34.61 input  175.53 | X-H torsion
[ 8008 7997 7996 7995 ] final -146.38 input   59.86 | X-H torsion
[ 10167 10162 10161 10158 ] final   95.33 input  -65.29 | X-H torsion
[ 10718 10713 10712 10709 ] final  -96.64 input   66.30 | X-H torsion
[ 10763 10752 10751 10750 ] final -143.30 input  -60.55 | X-H torsion
[ 11005 11000 10999 10996 ] final  -14.77 input  -57.11 | X-H torsion

> <Gold.Protein.ActiveResidues>
 VAL166  LYS551  ARG553  GLY616  TRP617  ASP618  TYR619  PRO620  LYS621  CYS622 
 ASP623  PHE694  ASN695  SER759  ASP760  ASP761  ALA762  ILE779  LEU786  VAL792 
 PHE793  MET794  SER795  GLU796  ALA797  LYS798  CYS799  TRP800  GLU811  SER814 

> <Gold.Protein.RotatedAtoms>
  150.6873  134.3276  159.4813 H   0  0  0  0  0  0  0  0  0  0  0  0  # atno 6907 bound_to 6896
  152.1145  134.9248  160.0574 H   0  0  0  0  0  0  0  0  0  0  0  0  # atno 6908 bound_to 6896
  152.0478  133.3971  159.4401 H   0  0  0  0  0  0  0  0  0  0  0  0  # atno 6909 bound_to 6896
  146.1340  139.6246  142.9207 H   0  0  0  0  0  0  0  0  0  0  0  0  # atno 7974 bound_to 7965
  155.5585  140.0623  157.2834 H   0  0  0  0  0  0  0  0  0  0  0  0  # atno 8008 bound_to 7997
  154.4398  140.1890  156.0803 H   0  0  0  0  0  0  0  0  0  0  0  0  # atno 8009 bound_to 7997
  156.0464  140.3289  155.7305 H   0  0  0  0  0  0  0  0  0  0  0  0  # atno 8010 bound_to 7997
  139.7999  144.6818  150.9779 H   0  0  0  0  0  0  0  0  0  0  0  0  # atno 10167 bound_to 10162
  156.0066  130.5160  150.6256 H   0  0  0  0  0  0  0  0  0  0  0  0  # atno 10718 bound_to 10713
  154.8475  135.3472  154.6165 H   0  0  0  0  0  0  0  0  0  0  0  0  # atno 10763 bound_to 10752
  153.6773  135.6982  153.5133 H   0  0  0  0  0  0  0  0  0  0  0  0  # atno 10764 bound_to 10752
  153.2695  135.4297  155.0930 H   0  0  0  0  0  0  0  0  0  0  0  0  # atno 10765 bound_to 10752
  140.7898  133.8296  155.9369 H   0  0  0  0  0  0  0  0  0  0  0  0  # atno 11005 bound_to 11000
  145.5196  141.0432  143.2442 LP  0  0  0  0  0  0  0  0  0  0  0  0  # atno 17320 bound_to 7965
  144.7720  139.6712  143.7190 LP  0  0  0  0  0  0  0  0  0  0  0  0  # atno 17321 bound_to 7965
  140.7820  143.4292  151.0720 LP  0  0  0  0  0  0  0  0  0  0  0  0  # atno 17342 bound_to 10162
  139.7965  143.8144  152.3158 LP  0  0  0  0  0  0  0  0  0  0  0  0  # atno 17343 bound_to 10162
  157.4064  131.0817  151.1262 LP  0  0  0  0  0  0  0  0  0  0  0  0  # atno 17370 bound_to 10713
  157.1907  130.6350  149.5703 LP  0  0  0  0  0  0  0  0  0  0  0  0  # atno 17371 bound_to 10713
  140.9400  134.1913  157.4804 LP  0  0  0  0  0  0  0  0  0  0  0  0  # atno 17394 bound_to 11000
  139.8732  134.9868  156.5340 LP  0  0  0  0  0  0  0  0  0  0  0  0  # atno 17395 bound_to 11000

$$$$
