AV-unprocessed.smi:1961|AV-procd|sdf|7918|dock4
  -GOLD-   2272010 83D 1   1.00000     0.00000
 Structure written by MMmdl.
 36 37  0  0  0  0  0  0  0  0  1 V2000
  146.8411  139.3296  151.7119 C   0  0  0  0  0  0  0  0  0  0  0  0
  147.2097  138.7407  153.0815 C   0  0  0  0  0  0  0  0  0  0  0  0
  145.9829  138.4006  153.9410 C   0  0  0  0  0  0  0  0  0  0  0  0
  148.1953  139.5946  153.8173 C   0  0  0  0  0  0  0  0  0  0  0  0
  149.4498  139.2021  154.0776 N   0  0  0  0  0  0  0  0  0  0  0  0
  150.1726  140.1650  154.7676 N   0  0  0  0  0  0  0  0  0  0  0  0
  149.4411  141.2614  155.0089 C   0  0  0  0  0  0  0  0  0  0  0  0
  149.9328  142.4034  155.6949 N   0  0  0  0  0  0  0  0  0  0  0  0
  150.8612  142.4567  156.6662 C   0  0  0  0  0  0  0  0  0  0  0  0
  151.4478  141.4861  157.1458 O   0  0  0  0  0  0  0  0  0  0  0  0
  151.0785  143.7195  157.0605 N   0  0  0  0  0  0  0  0  0  0  0  0
  152.0290  144.1219  158.0920 C   0  0  0  0  0  0  0  0  0  0  0  0
  151.9674  143.2054  159.3264 C   0  0  2  0  0  0  0  0  0  0  0  0
  152.3906  143.8671  160.6400 C   0  0  0  0  0  0  0  0  0  0  0  0
  152.9599  142.7193  161.4626 C   0  0  0  0  0  0  0  0  0  0  0  0
  153.0148  141.5444  160.4834 C   0  0  0  0  0  0  0  0  0  0  0  0
  152.8951  142.1401  159.2005 O   0  0  0  0  0  0  0  0  0  0  0  0
  147.7923  141.2029  154.4099 S   0  0  0  0  0  0  0  0  0  0  0  0
  147.7296  139.4807  151.0979 H   0  0  0  0  0  0  0  0  0  0  0  0
  146.3396  140.2925  151.8155 H   0  0  0  0  0  0  0  0  0  0  0  0
  146.1718  138.6641  151.1661 H   0  0  0  0  0  0  0  0  0  0  0  0
  147.7136  137.7943  152.8807 H   0  0  0  0  0  0  0  0  0  0  0  0
  146.2780  137.9066  154.8674 H   0  0  0  0  0  0  0  0  0  0  0  0
  145.3052  137.7305  153.4114 H   0  0  0  0  0  0  0  0  0  0  0  0
  145.4225  139.2981  154.2052 H   0  0  0  0  0  0  0  0  0  0  0  0
  149.5383  143.2857  155.4041 H   0  0  0  0  0  0  0  0  0  0  0  0
  150.5529  144.4569  156.6146 H   0  0  0  0  0  0  0  0  0  0  0  0
  153.0406  144.1355  157.6828 H   0  0  0  0  0  0  0  0  0  0  0  0
  151.8008  145.1486  158.3796 H   0  0  0  0  0  0  0  0  0  0  0  0
  150.9681  142.7786  159.4324 H   0  0  0  0  0  0  0  0  0  0  0  0
  153.1711  144.6078  160.4603 H   0  0  0  0  0  0  0  0  0  0  0  0
  151.5592  144.3704  161.1345 H   0  0  0  0  0  0  0  0  0  0  0  0
  153.9556  142.9723  161.8285 H   0  0  0  0  0  0  0  0  0  0  0  0
  152.3355  142.4832  162.3249 H   0  0  0  0  0  0  0  0  0  0  0  0
  153.9348  140.9660  160.5707 H   0  0  0  0  0  0  0  0  0  0  0  0
  152.1718  140.8705  160.6446 H   0  0  0  0  0  0  0  0  0  0  0  0
  1  2  1  0  0  0  0
  1 19  1  0  0  0  0
  1 20  1  0  0  0  0
  1 21  1  0  0  0  0
  2  3  1  0  0  0  0
  2  4  1  0  0  0  0
  2 22  1  0  0  0  0
  3 23  1  0  0  0  0
  3 24  1  0  0  0  0
  3 25  1  0  0  0  0
  4 18  1  0  0  0  0
  4  5  2  0  0  0  0
  5  6  1  0  0  0  0
  6  7  2  0  0  0  0
  7  8  1  0  0  0  0
  7 18  1  0  0  0  0
  8  9  1  0  0  0  0
  8 26  1  0  0  0  0
  9 10  2  0  0  0  0
  9 11  1  0  0  0  0
 11 12  1  0  0  0  0
 11 27  1  0  0  0  0
 12 13  1  0  0  0  0
 12 28  1  0  0  0  0
 12 29  1  0  0  0  0
 13 17  1  0  0  0  0
 13 14  1  0  0  0  0
 13 30  1  0  0  0  0
 14 15  1  0  0  0  0
 14 31  1  0  0  0  0
 14 32  1  0  0  0  0
 15 16  1  0  0  0  0
 15 33  1  0  0  0  0
 15 34  1  0  0  0  0
 16 17  1  0  0  0  0
 16 35  1  0  0  0  0
 16 36  1  0  0  0  0
M  END
> <s_m_source_file>
AV-unprocessed.smi

> <i_m_source_file_index>
1961

> <i_lp_mmshare_version>
43012

> <i_f3d_flags>
0

> <s_epik_input>
W0NIM11bQ0hdKFtDSDNdKWMxbm5jKHMxKVtOSF1DKD1PKVtOSF1bQ0gyXVtDQEBIXTJbQ0gyXVtDSDJdW0NIMl1PMg==

> <s_epik_cmdline>
J2VwaWtfcHl0aG9uJywgJy1waCcsICc3LjAnLCAnLXRuJywgJzgnLCAnLW1hJywgJzIwMCcsICctbWV0YWxfYmluZGluZycsICctaW1hZScsICc8aW5maWxlLm1hZT4nLCAnLW9tYWUnLCAnPG91dGZpbGUubWFlPic=

> <r_lp_tautomer_probability>
1

> <r_epik_Ionization_Penalty>
0.000505257

> <r_epik_Ionization_Penalty_Charging>
0

> <r_epik_Ionization_Penalty_Neutral>
0.000505257

> <r_epik_State_Penalty>
-0

> <r_epik_Charging_Adjusted_Penalty>
0

> <i_epik_Tot_Q>
0

> <i_epik_Tot_abs_Q>
0

> <r_epik_Metal_State_Penalty>
0.219912

> <b_epik_Metal_Only>
0

> <s_lp_Force_Field>
OPLS_2005

> <r_lp_Energy>
10.186

> <b_lp_Chiralities_Consistent>
1

> <s_lp_Variant>
AV-unprocessed.smi:1961-1

> <Gold.Version>
5.8.1

> <Gold.Id.Protein>
6NUR|6NUR_protein|mol2

> <Gold.PLP.Fitness>
45.6643

> <Gold.PLP.PLP>
-38.4688

> <Gold.PLP.part.hbond>
-3.0000

> <Gold.PLP.part.metal>
0.0000

> <Gold.PLP.part.buried>
-1.6823

> <Gold.PLP.part.nonpolar>
-34.6129

> <Gold.PLP.part.repulsive>
1.2674

> <Gold.PLP.ligand.clash>
0.0000

> <Gold.PLP.ligand.torsion>
0.7147

> <Gold.PLP.Chemscore.Hbond>
2.8480

> <Gold.PLP.Chemscore.CHOScore>
0.0000

> <Gold.PLP.Chemscore.Metal>
0.0000

> <Gold.Chemscore.Hbonds>
donor molecule, donor type, donor heavy atom, donor atom, acceptor molecule, acceptor atom, score
      L1  H     8    26       P1  8028  1.00
      L1  H    11    27       P1  8028  0.83
      P1  H  7989  7998       L1     6  0.94

> <Gold.PLP.Chemscore.Internal.Correction>
0.0810

> <Gold.Rescore>
     Score         DG    S(hbond)    S(metal)    S(lipo)     H(rot)  DE(clash)    DE(int)     intcor
     14.85     -20.11       2.31        0.00      90.84       1.45       1.09       4.17       ----

> <Gold.Chemscore.Fitness>
14.8529

> <Gold.Chemscore.DG>
-20.1098

> <Gold.Chemscore.ZeroCoef>
-5.4800

> <Gold.Chemscore.Hbond>
2.3065

> <Gold.Chemscore.Metal>
0.0000

> <Gold.Chemscore.Lipo>
90.8393

> <Gold.Chemscore.Internal_Hbond>
0.0000

> <Gold.Chemscore.DEClash>
1.0855

> <Gold.Chemscore.DEInternal>
4.1714

> <Gold.Chemscore.Rot>
1.4461

> <Gold.Chemscore.Internal.Correction>
   9.000000E+99

> <Gold.Chemscore.Hbonds>
donor molecule, donor type, donor heavy atom, donor atom, acceptor molecule, acceptor atom, score
      L1  H     8    26       P1  8028  0.96
      L1  H    11    27       P1  8028  0.82
      P1  H  7989  7998       L1     6  0.18

> <Gold.Chemscore.Hbond.Weighted>
-7.7035

> <Gold.Chemscore.Metal.Weighted>
-0.0000

> <Gold.Chemscore.Lipo.Weighted>
-10.6282

> <Gold.Chemscore.Internal_Hbond.Weighted>
0.0000

> <Gold.Chemscore.DEClash.Weighted>
1.0855

> <Gold.Chemscore.DEInternal.Weighted>
4.1714

> <Gold.Chemscore.Rot.Weighted>
3.7019

> <Gold.Chemscore.Internal.Correction.Weighted>
   9.000000E+99

> <Gold.Protein.RotatedTorsions>
[ 6907 6896 6895 6894 ] final -141.46 input  -60.11 | X-H torsion
[ 7974 7965 7964 7962 ] final  139.57 input  175.53 | X-H torsion
[ 8008 7997 7996 7995 ] final  -32.25 input   59.86 | X-H torsion
[ 10167 10162 10161 10158 ] final -132.53 input  -65.29 | X-H torsion
[ 10718 10713 10712 10709 ] final -103.97 input   66.30 | X-H torsion
[ 10763 10752 10751 10750 ] final -128.22 input  -60.55 | X-H torsion
[ 11005 11000 10999 10996 ] final    5.69 input  -57.11 | X-H torsion

> <Gold.Protein.ActiveResidues>
 VAL166  LYS551  ARG553  GLY616  TRP617  ASP618  TYR619  PRO620  LYS621  CYS622 
 ASP623  PHE694  ASN695  SER759  ASP760  ASP761  ALA762  ILE779  LEU786  VAL792 
 PHE793  MET794  SER795  GLU796  ALA797  LYS798  CYS799  TRP800  GLU811  SER814 

> <Gold.Protein.RotatedAtoms>
  151.0741  133.5442  159.2624 H   0  0  0  0  0  0  0  0  0  0  0  0  # atno 6907 bound_to 6896
  151.2371  135.0575  159.9020 H   0  0  0  0  0  0  0  0  0  0  0  0  # atno 6908 bound_to 6896
  152.5415  134.0521  159.8168 H   0  0  0  0  0  0  0  0  0  0  0  0  # atno 6909 bound_to 6896
  144.9266  139.5099  143.5637 H   0  0  0  0  0  0  0  0  0  0  0  0  # atno 7974 bound_to 7965
  154.4186  140.1742  156.1697 H   0  0  0  0  0  0  0  0  0  0  0  0  # atno 8008 bound_to 7997
  155.9770  140.3381  155.6604 H   0  0  0  0  0  0  0  0  0  0  0  0  # atno 8009 bound_to 7997
  155.6550  140.0694  157.2564 H   0  0  0  0  0  0  0  0  0  0  0  0  # atno 8010 bound_to 7997
  139.9076  143.6532  152.2582 H   0  0  0  0  0  0  0  0  0  0  0  0  # atno 10167 bound_to 10162
  156.0286  130.5493  150.7329 H   0  0  0  0  0  0  0  0  0  0  0  0  # atno 10718 bound_to 10713
  154.8755  135.3936  154.3721 H   0  0  0  0  0  0  0  0  0  0  0  0  # atno 10763 bound_to 10752
  153.4479  135.7028  153.6132 H   0  0  0  0  0  0  0  0  0  0  0  0  # atno 10764 bound_to 10752
  153.4685  135.3796  155.2346 H   0  0  0  0  0  0  0  0  0  0  0  0  # atno 10765 bound_to 10752
  140.5679  134.0130  155.7997 H   0  0  0  0  0  0  0  0  0  0  0  0  # atno 11005 bound_to 11000
  146.3229  139.8186  142.8931 LP  0  0  0  0  0  0  0  0  0  0  0  0  # atno 17320 bound_to 7965
  145.3209  141.0243  143.3501 LP  0  0  0  0  0  0  0  0  0  0  0  0  # atno 17321 bound_to 7965
  139.6970  144.7640  151.1339 LP  0  0  0  0  0  0  0  0  0  0  0  0  # atno 17342 bound_to 10162
  140.7693  143.5510  150.9205 LP  0  0  0  0  0  0  0  0  0  0  0  0  # atno 17343 bound_to 10162
  157.4917  131.0911  151.0419 LP  0  0  0  0  0  0  0  0  0  0  0  0  # atno 17370 bound_to 10713
  157.0824  130.5908  149.5423 LP  0  0  0  0  0  0  0  0  0  0  0  0  # atno 17371 bound_to 10713
  141.1074  133.9671  157.2972 LP  0  0  0  0  0  0  0  0  0  0  0  0  # atno 17394 bound_to 11000
  139.9376  135.0195  156.8605 LP  0  0  0  0  0  0  0  0  0  0  0  0  # atno 17395 bound_to 11000

$$$$
