AV-unprocessed.smi:3115|AV-procd|sdf|11861|dock2
  -GOLD-   2272017243D 1   1.00000     0.00000
 Structure written by MMmdl.
 32 33  0  0  0  0  0  0  0  0  1 V2000
  151.7663  145.0253  159.2797 C   0  0  0  0  0  0  0  0  0  0  0  0
  151.8505  143.5077  159.4740 C   0  0  1  0  0  0  0  0  0  0  0  0
  151.7577  142.7469  158.1369 C   0  0  0  0  0  0  0  0  0  0  0  0
  151.9380  141.3179  158.3594 N   0  0  0  0  0  0  0  0  0  0  0  0
  151.7437  140.5493  157.2031 C   0  0  0  0  0  0  0  0  0  0  0  0
  150.5828  140.7602  156.4299 C   0  0  0  0  0  0  0  0  0  0  0  0
  150.3951  139.9925  155.2622 C   0  0  0  0  0  0  0  0  0  0  0  0
  149.1640  140.1863  154.4004 C   0  0  0  0  0  0  0  0  0  0  0  0
  149.2064  141.4183  153.6380 N   0  0  0  0  0  0  0  0  0  0  0  0
  151.3760  139.0427  154.9135 C   0  0  0  0  0  0  0  0  0  0  0  0
  152.5007  138.9042  155.7501 C   0  0  0  0  0  0  0  0  0  0  0  0
  152.6871  139.6356  156.8694 N   0  0  0  0  0  0  0  0  0  0  0  0
  153.1777  141.0171  159.0639 C   0  0  0  0  0  0  0  0  0  0  0  0
  153.2386  141.8138  160.3778 C   0  0  0  0  0  0  0  0  0  0  0  0
  153.0959  143.2039  160.0989 O   0  0  0  0  0  0  0  0  0  0  0  0
  150.8230  145.3091  158.8125 H   0  0  0  0  0  0  0  0  0  0  0  0
  152.5763  145.3871  158.6458 H   0  0  0  0  0  0  0  0  0  0  0  0
  151.8335  145.5450  160.2358 H   0  0  0  0  0  0  0  0  0  0  0  0
  151.0367  143.1952  160.1309 H   0  0  0  0  0  0  0  0  0  0  0  0
  150.7888  142.9255  157.6689 H   0  0  0  0  0  0  0  0  0  0  0  0
  152.5213  143.1100  157.4471 H   0  0  0  0  0  0  0  0  0  0  0  0
  149.8510  141.4987  156.7243 H   0  0  0  0  0  0  0  0  0  0  0  0
  149.0525  139.3476  153.7125 H   0  0  0  0  0  0  0  0  0  0  0  0
  148.2802  140.1943  155.0387 H   0  0  0  0  0  0  0  0  0  0  0  0
  150.0027  141.9656  153.9320 H   0  0  0  0  0  0  0  0  0  0  0  0
  149.3604  141.2028  152.6632 H   0  0  0  0  0  0  0  0  0  0  0  0
  151.2736  138.4342  154.0270 H   0  0  0  0  0  0  0  0  0  0  0  0
  153.2722  138.1866  155.5132 H   0  0  0  0  0  0  0  0  0  0  0  0
  153.2363  139.9476  159.2693 H   0  0  0  0  0  0  0  0  0  0  0  0
  154.0326  141.2737  158.4366 H   0  0  0  0  0  0  0  0  0  0  0  0
  152.4580  141.4880  161.0673 H   0  0  0  0  0  0  0  0  0  0  0  0
  154.1940  141.6465  160.8751 H   0  0  0  0  0  0  0  0  0  0  0  0
  1  2  1  0  0  0  0
  1 16  1  0  0  0  0
  1 17  1  0  0  0  0
  1 18  1  0  0  0  0
  2 15  1  0  0  0  0
  2  3  1  0  0  0  0
  2 19  1  0  0  0  0
  3  4  1  0  0  0  0
  3 20  1  0  0  0  0
  3 21  1  0  0  0  0
  4  5  1  0  0  0  0
  4 13  1  0  0  0  0
  5 12  1  0  0  0  0
  5  6  2  0  0  0  0
  6  7  1  0  0  0  0
  6 22  1  0  0  0  0
  7  8  1  0  0  0  0
  7 10  2  0  0  0  0
  8  9  1  0  0  0  0
  8 23  1  0  0  0  0
  8 24  1  0  0  0  0
  9 25  1  0  0  0  0
  9 26  1  0  0  0  0
 10 11  1  0  0  0  0
 10 27  1  0  0  0  0
 11 12  2  0  0  0  0
 11 28  1  0  0  0  0
 13 14  1  0  0  0  0
 13 29  1  0  0  0  0
 13 30  1  0  0  0  0
 14 15  1  0  0  0  0
 14 31  1  0  0  0  0
 14 32  1  0  0  0  0
M  END
> <s_m_source_file>
AV-unprocessed.smi

> <i_m_source_file_index>
3115

> <i_lp_mmshare_version>
43012

> <i_f3d_flags>
0

> <s_epik_input>
W0NIM11bQ0BASF0xW0NIMl1OKFtDSDJdW0NIMl1PMSljMltjSF1jKFtDSDJdW05IMl0pW2NIXVtjSF1uMg==

> <s_epik_cmdline>
J2VwaWtfcHl0aG9uJywgJy1waCcsICc3LjAnLCAnLXRuJywgJzgnLCAnLW1hJywgJzIwMCcsICctbWV0YWxfYmluZGluZycsICctaW1hZScsICc8aW5maWxlLm1hZT4nLCAnLW9tYWUnLCAnPG91dGZpbGUubWFlPic=

> <r_lp_tautomer_probability>
1

> <r_epik_Ionization_Penalty>
1.27341

> <r_epik_Ionization_Penalty_Charging>
0

> <r_epik_Ionization_Penalty_Neutral>
1.27341

> <r_epik_State_Penalty>
2.46834

> <r_epik_Charging_Adjusted_Penalty>
2.46834

> <i_epik_Tot_Q>
0

> <i_epik_Tot_abs_Q>
0

> <r_epik_Metal_State_Penalty>
2.44319

> <b_epik_Metal_Only>
0

> <s_lp_Force_Field>
OPLS_2005

> <r_lp_Energy>
15.6545

> <b_lp_Chiralities_Consistent>
1

> <s_lp_Variant>
AV-unprocessed.smi:3115-4

> <Gold.Version>
5.8.1

> <Gold.Id.Protein>
6NUR|6NUR_protein|mol2

> <Gold.PLP.Fitness>
41.9437

> <Gold.PLP.PLP>
-36.3524

> <Gold.PLP.part.hbond>
-4.0000

> <Gold.PLP.part.metal>
0.0000

> <Gold.PLP.part.buried>
-4.3273

> <Gold.PLP.part.nonpolar>
-28.4278

> <Gold.PLP.part.repulsive>
0.0000

> <Gold.PLP.ligand.clash>
0.0000

> <Gold.PLP.ligand.torsion>
0.2548

> <Gold.PLP.Chemscore.Hbond>
2.0000

> <Gold.PLP.Chemscore.CHOScore>
0.0000

> <Gold.PLP.Chemscore.Metal>
0.0000

> <Gold.Chemscore.Hbonds>
donor molecule, donor type, donor heavy atom, donor atom, acceptor molecule, acceptor atom, score
      L1  H     9    26       P1  7957  1.00
      P1  H  7997  8010       L1    12  0.95

> <Gold.PLP.Chemscore.Internal.Correction>
0.1009

> <Gold.Rescore>
     Score         DG    S(hbond)    S(metal)    S(lipo)     H(rot)  DE(clash)    DE(int)     intcor
     17.95     -18.33       1.75        0.00      87.90       1.28       0.13       0.25       ----

> <Gold.Chemscore.Fitness>
17.9526

> <Gold.Chemscore.DG>
-18.3285

> <Gold.Chemscore.ZeroCoef>
-5.4800

> <Gold.Chemscore.Hbond>
1.7460

> <Gold.Chemscore.Metal>
0.0000

> <Gold.Chemscore.Lipo>
87.8972

> <Gold.Chemscore.Internal_Hbond>
0.0000

> <Gold.Chemscore.DEClash>
0.1252

> <Gold.Chemscore.DEInternal>
0.2508

> <Gold.Chemscore.Rot>
1.2762

> <Gold.Chemscore.Internal.Correction>
   9.000000E+99

> <Gold.Chemscore.Hbonds>
donor molecule, donor type, donor heavy atom, donor atom, acceptor molecule, acceptor atom, score
      L1  H     9    26       P1  7957  0.98
      P1  H  7997  8010       L1    12  0.21

> <Gold.Chemscore.Hbond.Weighted>
-5.8316

> <Gold.Chemscore.Metal.Weighted>
-0.0000

> <Gold.Chemscore.Lipo.Weighted>
-10.2840

> <Gold.Chemscore.Internal_Hbond.Weighted>
0.0000

> <Gold.Chemscore.DEClash.Weighted>
0.1252

> <Gold.Chemscore.DEInternal.Weighted>
0.2508

> <Gold.Chemscore.Rot.Weighted>
3.2671

> <Gold.Chemscore.Internal.Correction.Weighted>
   9.000000E+99

> <Gold.Protein.RotatedTorsions>
[ 6907 6896 6895 6894 ] final   85.04 input  -60.11 | X-H torsion
[ 7974 7965 7964 7962 ] final  -23.46 input  175.53 | X-H torsion
[ 8008 7997 7996 7995 ] final   59.62 input   59.86 | X-H torsion
[ 10167 10162 10161 10158 ] final -116.85 input  -65.29 | X-H torsion
[ 10718 10713 10712 10709 ] final -172.18 input   66.30 | X-H torsion
[ 10763 10752 10751 10750 ] final -168.57 input  -60.55 | X-H torsion
[ 11005 11000 10999 10996 ] final   -5.88 input  -57.11 | X-H torsion

> <Gold.Protein.ActiveResidues>
 VAL166  LYS551  ARG553  GLY616  TRP617  ASP618  TYR619  PRO620  LYS621  CYS622 
 ASP623  PHE694  ASN695  SER759  ASP760  ASP761  ALA762  ILE779  LEU786  VAL792 
 PHE793  MET794  SER795  GLU796  ALA797  LYS798  CYS799  TRP800  GLU811  SER814 

> <Gold.Protein.RotatedAtoms>
  152.5366  134.2647  159.8948 H   0  0  0  0  0  0  0  0  0  0  0  0  # atno 6907 bound_to 6896
  151.2606  133.4297  159.2623 H   0  0  0  0  0  0  0  0  0  0  0  0  # atno 6908 bound_to 6896
  151.0456  134.9652  159.8241 H   0  0  0  0  0  0  0  0  0  0  0  0  # atno 6909 bound_to 6896
  146.1615  140.4619  142.8569 H   0  0  0  0  0  0  0  0  0  0  0  0  # atno 7974 bound_to 7965
  155.5692  140.3489  155.4511 H   0  0  0  0  0  0  0  0  0  0  0  0  # atno 8008 bound_to 7997
  156.0457  140.1306  157.0132 H   0  0  0  0  0  0  0  0  0  0  0  0  # atno 8009 bound_to 7997
  154.4411  140.1015  156.6287 H   0  0  0  0  0  0  0  0  0  0  0  0  # atno 8010 bound_to 7997
  140.0748  143.4843  152.1959 H   0  0  0  0  0  0  0  0  0  0  0  0  # atno 10167 bound_to 10162
  156.7517  130.9380  151.3115 H   0  0  0  0  0  0  0  0  0  0  0  0  # atno 10718 bound_to 10713
  154.6614  135.2925  154.9861 H   0  0  0  0  0  0  0  0  0  0  0  0  # atno 10763 bound_to 10752
  154.0920  135.6589  153.4858 H   0  0  0  0  0  0  0  0  0  0  0  0  # atno 10764 bound_to 10752
  153.0432  135.5222  154.7567 H   0  0  0  0  0  0  0  0  0  0  0  0  # atno 10765 bound_to 10752
  140.6960  133.9030  155.8650 H   0  0  0  0  0  0  0  0  0  0  0  0  # atno 11005 bound_to 11000
  144.8033  140.6253  143.6464 LP  0  0  0  0  0  0  0  0  0  0  0  0  # atno 17320 bound_to 7965
  145.4577  139.1516  143.3883 LP  0  0  0  0  0  0  0  0  0  0  0  0  # atno 17321 bound_to 7965
  139.5814  144.7512  151.3629 LP  0  0  0  0  0  0  0  0  0  0  0  0  # atno 17342 bound_to 10162
  140.7108  143.7396  150.7563 LP  0  0  0  0  0  0  0  0  0  0  0  0  # atno 17343 bound_to 10162
  157.6774  130.9107  150.0183 LP  0  0  0  0  0  0  0  0  0  0  0  0  # atno 17370 bound_to 10713
  156.1397  130.3642  149.9602 LP  0  0  0  0  0  0  0  0  0  0  0  0  # atno 17371 bound_to 10713
  141.0203  134.0899  157.4128 LP  0  0  0  0  0  0  0  0  0  0  0  0  # atno 17394 bound_to 11000
  139.8910  135.0115  156.6767 LP  0  0  0  0  0  0  0  0  0  0  0  0  # atno 17395 bound_to 11000

$$$$
