AV-unprocessed.smi:2949|AV-procd|sdf|11287|dock10
  -GOLD-   2272016183D 1   1.00000     0.00000
 Structure written by MMmdl.
 34 35  0  0  0  0  0  0  0  0  1 V2000
  153.2068  141.0388  159.5904 N   0  0  0  0  0  0  0  0  0  0  0  0
  152.7809  142.1105  160.1608 C   0  0  0  0  0  0  0  0  0  0  0  0
  152.9403  142.5377  161.9303 S   0  0  0  0  0  0  0  0  0  0  0  0
  152.1240  144.0566  161.6284 C   0  0  0  0  0  0  0  0  0  0  0  0
  151.7809  144.1968  160.3491 C   0  0  0  0  0  0  0  0  0  0  0  0
  152.1139  143.1519  159.5113 N   0  0  0  0  0  0  0  0  0  0  0  0
  151.8693  143.1981  158.0697 C   0  0  0  0  0  0  0  0  0  0  0  0
  151.0669  142.0243  157.4938 C   0  0  0  0  0  0  0  0  0  0  0  0
  151.3109  140.8736  157.8654 O   0  0  0  0  0  0  0  0  0  0  0  0
  150.1259  142.3763  156.5874 N   0  0  0  0  0  0  0  0  0  0  0  0
  149.2457  141.6273  155.8813 C   0  0  0  0  0  0  0  0  0  0  0  0
  149.2898  140.3991  155.9293 O   0  0  0  0  0  0  0  0  0  0  0  0
  148.3376  142.2852  155.1363 N   0  0  0  0  0  0  0  0  0  0  0  0
  147.2196  141.6712  154.4260 C   0  0  0  0  0  0  0  0  0  0  0  0
  146.3630  140.7885  155.3583 C   0  0  0  0  0  0  0  0  0  0  0  0
  146.2253  139.4360  154.6569 C   0  0  0  0  0  0  0  0  0  0  0  0
  147.4896  139.3171  153.8123 C   0  0  0  0  0  0  0  0  0  0  0  0
  147.7381  140.7408  153.3148 C   0  0  0  0  0  0  0  0  0  0  0  0
  152.9914  141.0545  158.6044 H   0  0  0  0  0  0  0  0  0  0  0  0
  151.9480  144.7656  162.4236 H   0  0  0  0  0  0  0  0  0  0  0  0
  151.2730  145.0439  159.9113 H   0  0  0  0  0  0  0  0  0  0  0  0
  151.3664  144.1310  157.8093 H   0  0  0  0  0  0  0  0  0  0  0  0
  152.8304  143.2330  157.5547 H   0  0  0  0  0  0  0  0  0  0  0  0
  150.0697  143.3671  156.4020 H   0  0  0  0  0  0  0  0  0  0  0  0
  148.4289  143.2886  155.0599 H   0  0  0  0  0  0  0  0  0  0  0  0
  146.6066  142.4538  153.9747 H   0  0  0  0  0  0  0  0  0  0  0  0
  146.8624  140.6410  156.3173 H   0  0  0  0  0  0  0  0  0  0  0  0
  145.3917  141.2369  155.5689 H   0  0  0  0  0  0  0  0  0  0  0  0
  146.1091  138.6094  155.3583 H   0  0  0  0  0  0  0  0  0  0  0  0
  145.3504  139.4462  154.0056 H   0  0  0  0  0  0  0  0  0  0  0  0
  148.3221  138.9951  154.4392 H   0  0  0  0  0  0  0  0  0  0  0  0
  147.3861  138.5995  152.9980 H   0  0  0  0  0  0  0  0  0  0  0  0
  147.1571  140.9079  152.4070 H   0  0  0  0  0  0  0  0  0  0  0  0
  148.7853  140.9102  153.0596 H   0  0  0  0  0  0  0  0  0  0  0  0
  1  2  2  0  0  0  0
  1 19  1  0  0  0  0
  2  6  1  0  0  0  0
  2  3  1  0  0  0  0
  3  4  1  0  0  0  0
  4  5  2  0  0  0  0
  4 20  1  0  0  0  0
  5  6  1  0  0  0  0
  5 21  1  0  0  0  0
  6  7  1  0  0  0  0
  7  8  1  0  0  0  0
  7 22  1  0  0  0  0
  7 23  1  0  0  0  0
  8  9  2  0  0  0  0
  8 10  1  0  0  0  0
 10 11  1  0  0  0  0
 10 24  1  0  0  0  0
 11 12  2  0  0  0  0
 11 13  1  0  0  0  0
 13 14  1  0  0  0  0
 13 25  1  0  0  0  0
 14 18  1  0  0  0  0
 14 15  1  0  0  0  0
 14 26  1  0  0  0  0
 15 16  1  0  0  0  0
 15 27  1  0  0  0  0
 15 28  1  0  0  0  0
 16 17  1  0  0  0  0
 16 29  1  0  0  0  0
 16 30  1  0  0  0  0
 17 18  1  0  0  0  0
 17 31  1  0  0  0  0
 17 32  1  0  0  0  0
 18 33  1  0  0  0  0
 18 34  1  0  0  0  0
M  END
> <s_m_source_file>
AV-unprocessed.smi

> <i_m_source_file_index>
2949

> <i_lp_mmshare_version>
43012

> <i_f3d_flags>
0

> <s_epik_input>
W0hdL049YzFcc1tjSF1bY0hdbjFbQ0gyXUMoPU8pW05IXUMoPU8pW05IXVtDSF0yW0NIMl1bQ0gyXVtDSDJdW0NIMl0y

> <s_epik_cmdline>
J2VwaWtfcHl0aG9uJywgJy1waCcsICc3LjAnLCAnLXRuJywgJzgnLCAnLW1hJywgJzIwMCcsICctbWV0YWxfYmluZGluZycsICctaW1hZScsICc8aW5maWxlLm1hZT4nLCAnLW9tYWUnLCAnPG91dGZpbGUubWFlPic=

> <r_epik_Ionization_Penalty>
2.0346

> <r_epik_Ionization_Penalty_Charging>
2.03458

> <r_epik_Ionization_Penalty_Neutral>
2.61125e-05

> <r_epik_State_Penalty>
2.18096

> <r_epik_Charging_Adjusted_Penalty>
4.21554

> <i_epik_Tot_Q>
0

> <i_epik_Tot_abs_Q>
0

> <r_epik_Metal_State_Penalty>
2.18096

> <b_epik_Metal_Only>
0

> <s_lp_Force_Field>
OPLS_2005

> <r_lp_Energy>
19.3427

> <b_lp_Chiralities_Consistent>
1

> <s_lp_Variant>
AV-unprocessed.smi:2949-3

> <Gold.Version>
5.8.1

> <Gold.Id.Protein>
6NUR|6NUR_protein|mol2

> <Gold.PLP.Fitness>
41.7289

> <Gold.PLP.PLP>
-36.7390

> <Gold.PLP.part.hbond>
-1.9444

> <Gold.PLP.part.metal>
0.0000

> <Gold.PLP.part.buried>
-3.3599

> <Gold.PLP.part.nonpolar>
-31.4315

> <Gold.PLP.part.repulsive>
0.2708

> <Gold.PLP.ligand.clash>
0.0000

> <Gold.PLP.ligand.torsion>
0.3105

> <Gold.PLP.Chemscore.Hbond>
1.8640

> <Gold.PLP.Chemscore.CHOScore>
0.0000

> <Gold.PLP.Chemscore.Metal>
0.0000

> <Gold.Chemscore.Hbonds>
donor molecule, donor type, donor heavy atom, donor atom, acceptor molecule, acceptor atom, score
      L1  H    10    24       P1  8028  0.85
      L1  H    13    25       P1  8028  1.00

> <Gold.PLP.Chemscore.Internal.Correction>
0.0190

> <Gold.Rescore>
     Score         DG    S(hbond)    S(metal)    S(lipo)     H(rot)  DE(clash)    DE(int)     intcor
     11.09     -15.50       1.86        0.00      69.51       1.69       0.04       4.37       ----

> <Gold.Chemscore.Fitness>
11.0871

> <Gold.Chemscore.DG>
-15.4979

> <Gold.Chemscore.ZeroCoef>
-5.4800

> <Gold.Chemscore.Hbond>
1.8575

> <Gold.Chemscore.Metal>
0.0000

> <Gold.Chemscore.Lipo>
69.5114

> <Gold.Chemscore.Internal_Hbond>
0.0000

> <Gold.Chemscore.DEClash>
0.0411

> <Gold.Chemscore.DEInternal>
4.3697

> <Gold.Chemscore.Rot>
1.6871

> <Gold.Chemscore.Internal.Correction>
   9.000000E+99

> <Gold.Chemscore.Hbonds>
donor molecule, donor type, donor heavy atom, donor atom, acceptor molecule, acceptor atom, score
      L1  H    10    24       P1  8028  0.84
      L1  H    13    25       P1  8028  0.95

> <Gold.Chemscore.Hbond.Weighted>
-6.2041

> <Gold.Chemscore.Metal.Weighted>
-0.0000

> <Gold.Chemscore.Lipo.Weighted>
-8.1328

> <Gold.Chemscore.Internal_Hbond.Weighted>
0.0000

> <Gold.Chemscore.DEClash.Weighted>
0.0411

> <Gold.Chemscore.DEInternal.Weighted>
4.3697

> <Gold.Chemscore.Rot.Weighted>
4.3191

> <Gold.Chemscore.Internal.Correction.Weighted>
   9.000000E+99

> <Gold.Protein.RotatedTorsions>
[ 6907 6896 6895 6894 ] final  129.55 input  -60.11 | X-H torsion
[ 7974 7965 7964 7962 ] final  -53.19 input  175.53 | X-H torsion
[ 8008 7997 7996 7995 ] final  -45.31 input   59.86 | X-H torsion
[ 10167 10162 10161 10158 ] final   80.07 input  -65.29 | X-H torsion
[ 10718 10713 10712 10709 ] final -150.74 input   66.30 | X-H torsion
[ 10763 10752 10751 10750 ] final   67.34 input  -60.55 | X-H torsion
[ 11005 11000 10999 10996 ] final   31.02 input  -57.11 | X-H torsion

> <Gold.Protein.ActiveResidues>
 VAL166  LYS551  ARG553  GLY616  TRP617  ASP618  TYR619  PRO620  LYS621  CYS622 
 ASP623  PHE694  ASN695  SER759  ASP760  ASP761  ALA762  ILE779  LEU786  VAL792 
 PHE793  MET794  SER795  GLU796  ALA797  LYS798  CYS799  TRP800  GLU811  SER814 

> <Gold.Protein.RotatedAtoms>
  152.3612  133.6300  159.6016 H   0  0  0  0  0  0  0  0  0  0  0  0  # atno 6907 bound_to 6896
  150.7603  133.9420  159.3468 H   0  0  0  0  0  0  0  0  0  0  0  0  # atno 6908 bound_to 6896
  151.7257  135.0886  160.0343 H   0  0  0  0  0  0  0  0  0  0  0  0  # atno 6909 bound_to 6896
  145.8996  140.8005  142.9750 H   0  0  0  0  0  0  0  0  0  0  0  0  # atno 7974 bound_to 7965
  154.4000  140.1400  156.3826 H   0  0  0  0  0  0  0  0  0  0  0  0  # atno 8008 bound_to 7997
  155.7989  140.3476  155.5371 H   0  0  0  0  0  0  0  0  0  0  0  0  # atno 8009 bound_to 7997
  155.8503  140.0940  157.1669 H   0  0  0  0  0  0  0  0  0  0  0  0  # atno 8010 bound_to 7997
  139.9536  144.6009  150.8137 H   0  0  0  0  0  0  0  0  0  0  0  0  # atno 10167 bound_to 10162
  156.4501  130.8164  151.2394 H   0  0  0  0  0  0  0  0  0  0  0  0  # atno 10718 bound_to 10713
  153.0182  135.5287  154.6964 H   0  0  0  0  0  0  0  0  0  0  0  0  # atno 10763 bound_to 10752
  154.6085  135.2875  155.0461 H   0  0  0  0  0  0  0  0  0  0  0  0  # atno 10764 bound_to 10752
  154.1491  135.6566  153.5012 H   0  0  0  0  0  0  0  0  0  0  0  0  # atno 10765 bound_to 10752
  140.2883  134.2894  155.7782 H   0  0  0  0  0  0  0  0  0  0  0  0  # atno 11005 bound_to 11000
  144.6735  140.1656  143.7419 LP  0  0  0  0  0  0  0  0  0  0  0  0  # atno 17320 bound_to 7965
  145.8808  139.2322  143.1606 LP  0  0  0  0  0  0  0  0  0  0  0  0  # atno 17321 bound_to 7965
  140.7575  143.3088  151.2896 LP  0  0  0  0  0  0  0  0  0  0  0  0  # atno 17342 bound_to 10162
  139.6609  144.0192  152.2691 LP  0  0  0  0  0  0  0  0  0  0  0  0  # atno 17343 bound_to 10162
  157.7503  131.0140  150.3448 LP  0  0  0  0  0  0  0  0  0  0  0  0  # atno 17370 bound_to 10713
  156.3825  130.3883  149.7091 LP  0  0  0  0  0  0  0  0  0  0  0  0  # atno 17371 bound_to 10713
  141.2151  133.7569  156.9586 LP  0  0  0  0  0  0  0  0  0  0  0  0  # atno 17394 bound_to 11000
  140.1219  134.9411  157.2215 LP  0  0  0  0  0  0  0  0  0  0  0  0  # atno 17395 bound_to 11000

$$$$
