AV-unprocessed.smi:893|AV-procd|sdf|4070|dock5
  -GOLD-   22720 1553D 1   1.00000     0.00000
 Structure written by MMmdl.
 26 27  0  0  0  0  0  0  0  0  2 V2000
  152.8230  137.4497  158.5804 C   0  0  0  0  0  0  0  0  0  0  0  0
  152.8748  138.9252  159.0217 C   0  0  0  0  0  0  0  0  0  0  0  0
  152.0970  139.9396  158.1385 C   0  0  1  0  0  0  0  0  0  0  0  0
  152.1255  141.3235  158.7686 C   0  0  0  0  0  0  0  0  0  0  0  0
  152.8093  141.7300  159.9536 C   0  0  0  0  0  0  0  0  0  0  0  0
  152.6393  143.0096  160.2435 N   0  0  0  0  0  0  0  0  0  0  0  0
  151.8458  143.4711  159.2568 N   0  0  0  0  0  0  0  0  0  0  0  0
  151.4471  144.8621  159.2522 C   0  0  0  0  0  0  0  0  0  0  0  0
  151.5230  142.4815  158.3546 C   0  0  0  0  0  0  0  0  0  0  0  0
  152.6289  139.9476  156.7813 N   0  5  0  0  0  0  0  0  0  0  0  0
  151.6293  139.6434  155.9195 C   0  0  0  0  0  0  0  0  0  0  0  0
  151.6894  139.5694  154.6944 O   0  0  0  0  0  0  0  0  0  0  0  0
  150.4905  139.4112  156.5798 N   0  0  0  0  0  0  0  0  0  0  0  0
  150.6480  139.5357  157.8942 C   0  0  0  0  0  0  0  0  0  0  0  0
  149.7972  139.3563  158.7654 O   0  0  0  0  0  0  0  0  0  0  0  0
  153.4186  136.8294  159.2502 H   0  0  0  0  0  0  0  0  0  0  0  0
  153.2213  137.3186  157.5743 H   0  0  0  0  0  0  0  0  0  0  0  0
  151.8061  137.0579  158.5940 H   0  0  0  0  0  0  0  0  0  0  0  0
  152.5000  138.9786  160.0446 H   0  0  0  0  0  0  0  0  0  0  0  0
  153.9198  139.2332  159.0780 H   0  0  0  0  0  0  0  0  0  0  0  0
  153.4211  141.1294  160.6106 H   0  0  0  0  0  0  0  0  0  0  0  0
  150.8018  145.0630  158.3964 H   0  0  0  0  0  0  0  0  0  0  0  0
  152.3299  145.4989  159.1876 H   0  0  0  0  0  0  0  0  0  0  0  0
  150.9029  145.0936  160.1682 H   0  0  0  0  0  0  0  0  0  0  0  0
  150.8946  142.6779  157.4982 H   0  0  0  0  0  0  0  0  0  0  0  0
  149.6213  139.1570  156.1348 H   0  0  0  0  0  0  0  0  0  0  0  0
  1  2  1  0  0  0  0
  1 16  1  0  0  0  0
  1 17  1  0  0  0  0
  1 18  1  0  0  0  0
  2  3  1  0  0  0  0
  2 19  1  0  0  0  0
  2 20  1  0  0  0  0
  3 14  1  0  0  0  0
  3  4  1  0  0  0  0
  3 10  1  0  0  0  0
  4  9  2  0  0  0  0
  4  5  1  0  0  0  0
  5  6  2  0  0  0  0
  5 21  1  0  0  0  0
  6  7  1  0  0  0  0
  7  8  1  0  0  0  0
  7  9  1  0  0  0  0
  8 22  1  0  0  0  0
  8 23  1  0  0  0  0
  8 24  1  0  0  0  0
  9 25  1  0  0  0  0
 10 11  1  0  0  0  0
 11 12  2  0  0  0  0
 11 13  1  0  0  0  0
 13 14  1  0  0  0  0
 13 26  1  0  0  0  0
 14 15  2  0  0  0  0
M  CHG  1  10  -1
M  END
> <s_m_source_file>
AV-unprocessed.smi

> <i_m_source_file_index>
893

> <i_lp_mmshare_version>
43012

> <i_f3d_flags>
0

> <s_epik_input>
Tz1DMVtOSF1DKD1PKVtOSF1bQ0BAXTEoW0NIMl1bQ0gzXSljMltjSF1ubihbQ0gzXSlbY0hdMg==

> <s_epik_cmdline>
J2VwaWtfcHl0aG9uJywgJy1waCcsICc3LjAnLCAnLXRuJywgJzgnLCAnLW1hJywgJzIwMCcsICctbWV0YWxfYmluZGluZycsICctaW1hZScsICc8aW5maWxlLm1hZT4nLCAnLW9tYWUnLCAnPG91dGZpbGUubWFlPic=

> <r_lp_tautomer_probability>
1

> <r_epik_Ionization_Penalty>
4.97057

> <r_epik_Ionization_Penalty_Charging>
4.97009

> <r_epik_Ionization_Penalty_Neutral>
0.000472554

> <r_epik_State_Penalty>
4.98892

> <r_epik_Charging_Adjusted_Penalty>
9.95901

> <i_epik_Tot_Q>
-1

> <i_epik_Tot_abs_Q>
1

> <r_epik_Metal_State_Penalty>
1.41037

> <b_epik_Metal_Only>
1

> <s_lp_Force_Field>
OPLS_2005

> <r_lp_Energy>
9.72866

> <b_lp_Chiralities_Consistent>
1

> <s_lp_Variant>
AV-unprocessed.smi:893-5

> <Gold.Version>
5.8.1

> <Gold.Id.Protein>
6NUR|6NUR_protein|mol2

> <Gold.PLP.Fitness>
37.0250

> <Gold.PLP.PLP>
-28.1346

> <Gold.PLP.part.hbond>
-2.8332

> <Gold.PLP.part.metal>
0.0000

> <Gold.PLP.part.buried>
-2.8630

> <Gold.PLP.part.nonpolar>
-22.3713

> <Gold.PLP.part.repulsive>
0.0931

> <Gold.PLP.ligand.clash>
0.0000

> <Gold.PLP.ligand.torsion>
0.0987

> <Gold.PLP.Chemscore.Hbond>
3.0000

> <Gold.PLP.Chemscore.CHOScore>
0.0000

> <Gold.PLP.Chemscore.Metal>
0.0000

> <Gold.Chemscore.Hbonds>
donor molecule, donor type, donor heavy atom, donor atom, acceptor molecule, acceptor atom, score
      P1  H  7989  7998       L1    12  1.00
      P1  H  7997  8008       L1    10  2.00

> <Gold.PLP.Chemscore.Internal.Correction>
0.0877

> <Gold.Rescore>
     Score         DG    S(hbond)    S(metal)    S(lipo)     H(rot)  DE(clash)    DE(int)     intcor
     15.07     -15.24       1.96        0.00      55.50       1.28       0.04       0.13       ----

> <Gold.Chemscore.Fitness>
15.0727

> <Gold.Chemscore.DG>
-15.2375

> <Gold.Chemscore.ZeroCoef>
-5.4800

> <Gold.Chemscore.Hbond>
1.9587

> <Gold.Chemscore.Metal>
0.0000

> <Gold.Chemscore.Lipo>
55.5006

> <Gold.Chemscore.Internal_Hbond>
0.0000

> <Gold.Chemscore.DEClash>
0.0361

> <Gold.Chemscore.DEInternal>
0.1288

> <Gold.Chemscore.Rot>
1.2805

> <Gold.Chemscore.Internal.Correction>
   9.000000E+99

> <Gold.Chemscore.Hbonds>
donor molecule, donor type, donor heavy atom, donor atom, acceptor molecule, acceptor atom, score
      P1  H  7989  7998       L1    12  0.98
      P1  H  7997  8008       L1    10  0.94

> <Gold.Chemscore.Hbond.Weighted>
-6.5422

> <Gold.Chemscore.Metal.Weighted>
-0.0000

> <Gold.Chemscore.Lipo.Weighted>
-6.4936

> <Gold.Chemscore.Internal_Hbond.Weighted>
0.0000

> <Gold.Chemscore.DEClash.Weighted>
0.0361

> <Gold.Chemscore.DEInternal.Weighted>
0.1288

> <Gold.Chemscore.Rot.Weighted>
3.2782

> <Gold.Chemscore.Internal.Correction.Weighted>
   9.000000E+99

> <Gold.Protein.RotatedTorsions>
[ 6907 6896 6895 6894 ] final -144.96 input  -60.11 | X-H torsion
[ 7974 7965 7964 7962 ] final  177.16 input  175.53 | X-H torsion
[ 8008 7997 7996 7995 ] final  -37.02 input   59.86 | X-H torsion
[ 10167 10162 10161 10158 ] final  168.48 input  -65.29 | X-H torsion
[ 10718 10713 10712 10709 ] final -121.75 input   66.30 | X-H torsion
[ 10763 10752 10751 10750 ] final  105.63 input  -60.55 | X-H torsion
[ 11005 11000 10999 10996 ] final -143.71 input  -57.11 | X-H torsion

> <Gold.Protein.ActiveResidues>
 VAL166  LYS551  ARG553  GLY616  TRP617  ASP618  TYR619  PRO620  LYS621  CYS622 
 ASP623  PHE694  ASN695  SER759  ASP760  ASP761  ALA762  ILE779  LEU786  VAL792 
 PHE793  MET794  SER795  GLU796  ALA797  LYS798  CYS799  TRP800  GLU811  SER814 

> <Gold.Protein.RotatedAtoms>
  151.1212  133.5102  159.2601 H   0  0  0  0  0  0  0  0  0  0  0  0  # atno 6907 bound_to 6896
  151.1859  135.0381  159.8822 H   0  0  0  0  0  0  0  0  0  0  0  0  # atno 6908 bound_to 6896
  152.5456  134.1059  159.8391 H   0  0  0  0  0  0  0  0  0  0  0  0  # atno 6909 bound_to 6896
  144.7173  140.0205  143.6440 H   0  0  0  0  0  0  0  0  0  0  0  0  # atno 7974 bound_to 7965
  154.4061  140.1615  156.2469 H   0  0  0  0  0  0  0  0  0  0  0  0  # atno 8008 bound_to 7997
  155.9153  140.3425  155.6107 H   0  0  0  0  0  0  0  0  0  0  0  0  # atno 8009 bound_to 7997
  155.7287  140.0777  157.2289 H   0  0  0  0  0  0  0  0  0  0  0  0  # atno 8010 bound_to 7997
  139.4969  144.3810  151.9622 H   0  0  0  0  0  0  0  0  0  0  0  0  # atno 10167 bound_to 10162
  156.1363  130.6433  150.9701 H   0  0  0  0  0  0  0  0  0  0  0  0  # atno 10718 bound_to 10713
  153.3819  135.3903  155.1863 H   0  0  0  0  0  0  0  0  0  0  0  0  # atno 10763 bound_to 10752
  154.8709  135.3727  154.4846 H   0  0  0  0  0  0  0  0  0  0  0  0  # atno 10764 bound_to 10752
  153.5324  135.7085  153.5738 H   0  0  0  0  0  0  0  0  0  0  0  0  # atno 10765 bound_to 10752
  140.8098  134.2758  157.4945 H   0  0  0  0  0  0  0  0  0  0  0  0  # atno 11005 bound_to 11000
  146.0184  139.3230  143.0828 LP  0  0  0  0  0  0  0  0  0  0  0  0  # atno 17320 bound_to 7965
  145.8598  140.9482  143.0706 LP  0  0  0  0  0  0  0  0  0  0  0  0  # atno 17321 bound_to 7965
  140.3246  144.3387  150.6001 LP  0  0  0  0  0  0  0  0  0  0  0  0  # atno 17342 bound_to 10162
  140.5694  143.2182  151.7625 LP  0  0  0  0  0  0  0  0  0  0  0  0  # atno 17343 bound_to 10162
  157.6535  131.0893  150.7999 LP  0  0  0  0  0  0  0  0  0  0  0  0  # atno 17370 bound_to 10713
  156.8079  130.4942  149.5360 LP  0  0  0  0  0  0  0  0  0  0  0  0  # atno 17371 bound_to 10713
  139.8715  134.9476  156.3973 LP  0  0  0  0  0  0  0  0  0  0  0  0  # atno 17394 bound_to 11000
  140.9210  133.7645  155.9906 LP  0  0  0  0  0  0  0  0  0  0  0  0  # atno 17395 bound_to 11000

$$$$
