AV-unprocessed.smi:2057|AV-procd|sdf|8341|dock7
  -GOLD-   2272011 13D 1   1.00000     0.00000
 Structure written by MMmdl.
 44 46  0  0  0  0  0  0  0  0  1 V2000
  151.2825  144.4827  158.5577 C   0  0  0  0  0  0  0  0  0  0  0  0
  151.5100  143.1143  158.8624 O   0  0  0  0  0  0  0  0  0  0  0  0
  152.2639  142.8131  159.9763 C   0  0  0  0  0  0  0  0  0  0  0  0
  152.2162  143.7241  161.0472 C   0  0  0  0  0  0  0  0  0  0  0  0
  152.9620  143.5012  162.2187 C   0  0  0  0  0  0  0  0  0  0  0  0
  153.7755  142.3485  162.3492 C   0  0  0  0  0  0  0  0  0  0  0  0
  154.5421  142.0842  163.4665 O   0  0  0  0  0  0  0  0  0  0  0  0
  154.6703  143.0949  164.4556 C   0  0  0  0  0  0  0  0  0  0  0  0
  153.8166  141.4180  161.2817 C   0  0  0  0  0  0  0  0  0  0  0  0
  154.6866  140.1688  161.3871 C   0  0  1  0  0  0  0  0  0  0  0  0
  155.9970  140.4475  161.8437 O   0  0  0  0  0  0  0  0  0  0  0  0
  154.0284  139.1123  162.2957 C   0  0  0  0  0  0  0  0  0  0  0  0
  154.1474  137.7639  161.7584 N   0  0  0  0  0  0  0  0  0  0  0  0
  153.8400  137.3168  160.5146 C   0  0  0  0  0  0  0  0  0  0  0  0
  153.2983  138.2400  159.4603 C   0  0  0  0  0  0  0  0  0  0  0  0
  154.1609  138.4143  158.3544 O   0  0  0  0  0  0  0  0  0  0  0  0
  154.0514  136.0150  160.3028 N   0  0  0  0  0  0  0  0  0  0  0  0
  154.5450  135.5822  161.5179 C   0  0  0  0  0  0  0  0  0  0  0  0
  154.9620  134.2984  161.9370 C   0  0  0  0  0  0  0  0  0  0  0  0
  155.4381  134.0956  163.2492 C   0  0  0  0  0  0  0  0  0  0  0  0
  155.5037  135.1706  164.1595 C   0  0  0  0  0  0  0  0  0  0  0  0
  155.0926  136.4574  163.7622 C   0  0  0  0  0  0  0  0  0  0  0  0
  154.6186  136.6539  162.4511 C   0  0  0  0  0  0  0  0  0  0  0  0
  153.0734  141.6588  160.1036 C   0  0  0  0  0  0  0  0  0  0  0  0
  150.6710  144.5539  157.6581 H   0  0  0  0  0  0  0  0  0  0  0  0
  152.2175  145.0095  158.3627 H   0  0  0  0  0  0  0  0  0  0  0  0
  150.7448  144.9859  159.3624 H   0  0  0  0  0  0  0  0  0  0  0  0
  151.6036  144.6104  160.9682 H   0  0  0  0  0  0  0  0  0  0  0  0
  152.8933  144.2373  163.0048 H   0  0  0  0  0  0  0  0  0  0  0  0
  155.3050  142.7280  165.2623 H   0  0  0  0  0  0  0  0  0  0  0  0
  153.7035  143.3541  164.8894 H   0  0  0  0  0  0  0  0  0  0  0  0
  155.1390  143.9924  164.0503 H   0  0  0  0  0  0  0  0  0  0  0  0
  154.8147  139.7470  160.3900 H   0  0  0  0  0  0  0  0  0  0  0  0
  156.3955  139.6363  162.1199 H   0  0  0  0  0  0  0  0  0  0  0  0
  154.4469  139.1527  163.3014 H   0  0  0  0  0  0  0  0  0  0  0  0
  152.9651  139.3309  162.4031 H   0  0  0  0  0  0  0  0  0  0  0  0
  152.3458  137.8543  159.0975 H   0  0  0  0  0  0  0  0  0  0  0  0
  153.1088  139.2169  159.9056 H   0  0  0  0  0  0  0  0  0  0  0  0
  154.5026  137.5677  158.1093 H   0  0  0  0  0  0  0  0  0  0  0  0
  154.9159  133.4685  161.2477 H   0  0  0  0  0  0  0  0  0  0  0  0
  155.7548  133.1103  163.5587 H   0  0  0  0  0  0  0  0  0  0  0  0
  155.8698  135.0070  165.1625 H   0  0  0  0  0  0  0  0  0  0  0  0
  155.1404  137.2835  164.4563 H   0  0  0  0  0  0  0  0  0  0  0  0
  153.1400  140.9429  159.2987 H   0  0  0  0  0  0  0  0  0  0  0  0
  1  2  1  0  0  0  0
  1 25  1  0  0  0  0
  1 26  1  0  0  0  0
  1 27  1  0  0  0  0
  2  3  1  0  0  0  0
  3 24  1  0  0  0  0
  3  4  2  0  0  0  0
  4  5  1  0  0  0  0
  4 28  1  0  0  0  0
  5  6  2  0  0  0  0
  5 29  1  0  0  0  0
  6  7  1  0  0  0  0
  6  9  1  0  0  0  0
  7  8  1  0  0  0  0
  8 30  1  0  0  0  0
  8 31  1  0  0  0  0
  8 32  1  0  0  0  0
  9 10  1  0  0  0  0
  9 24  2  0  0  0  0
 10 11  1  0  0  0  0
 10 12  1  0  0  0  0
 10 33  1  0  0  0  0
 11 34  1  0  0  0  0
 12 13  1  0  0  0  0
 12 35  1  0  0  0  0
 12 36  1  0  0  0  0
 13 23  1  0  0  0  0
 13 14  1  0  0  0  0
 14 15  1  0  0  0  0
 14 17  2  0  0  0  0
 15 16  1  0  0  0  0
 15 37  1  0  0  0  0
 15 38  1  0  0  0  0
 16 39  1  0  0  0  0
 17 18  1  0  0  0  0
 18 23  2  0  0  0  0
 18 19  1  0  0  0  0
 19 20  2  0  0  0  0
 19 40  1  0  0  0  0
 20 21  1  0  0  0  0
 20 41  1  0  0  0  0
 21 22  2  0  0  0  0
 21 42  1  0  0  0  0
 22 23  1  0  0  0  0
 22 43  1  0  0  0  0
 24 44  1  0  0  0  0
M  END
> <s_m_source_file>
AV-unprocessed.smi

> <i_m_source_file_index>
2057

> <i_lp_mmshare_version>
43012

> <i_f3d_flags>
0

> <s_epik_input>
W0NIM11PYzFbY0hdW2NIXWMoT1tDSDNdKWMoW2NIXTEpW0NASF0oW09IXSlbQ0gyXW4oYyhuMilbQ0gyXVtPSF0pYyhjMjMpW2NIXVtjSF1bY0hdW2NIXTM=

> <s_epik_cmdline>
J2VwaWtfcHl0aG9uJywgJy1waCcsICc3LjAnLCAnLXRuJywgJzgnLCAnLW1hJywgJzIwMCcsICctbWV0YWxfYmluZGluZycsICctaW1hZScsICc8aW5maWxlLm1hZT4nLCAnLW9tYWUnLCAnPG91dGZpbGUubWFlPic=

> <r_lp_tautomer_probability>
1

> <r_epik_Ionization_Penalty>
0.0634722

> <r_epik_Ionization_Penalty_Charging>
0

> <r_epik_Ionization_Penalty_Neutral>
0.0634722

> <r_epik_State_Penalty>
0.0551572

> <r_epik_Charging_Adjusted_Penalty>
0.0551572

> <i_epik_Tot_Q>
0

> <i_epik_Tot_abs_Q>
0

> <r_epik_Metal_State_Penalty>
5.78034e-05

> <b_epik_Metal_Only>
0

> <s_lp_Force_Field>
OPLS_2005

> <r_lp_Energy>
19.4747

> <b_lp_Chiralities_Consistent>
1

> <s_lp_Variant>
AV-unprocessed.smi:2057-2

> <Gold.Version>
5.8.1

> <Gold.Id.Protein>
6NUR|6NUR_protein|mol2

> <Gold.PLP.Fitness>
51.4240

> <Gold.PLP.PLP>
-48.5066

> <Gold.PLP.part.hbond>
-3.9089

> <Gold.PLP.part.metal>
0.0000

> <Gold.PLP.part.buried>
-5.7544

> <Gold.PLP.part.nonpolar>
-39.5266

> <Gold.PLP.part.repulsive>
0.0481

> <Gold.PLP.ligand.clash>
0.0000

> <Gold.PLP.ligand.torsion>
1.4464

> <Gold.PLP.Chemscore.Hbond>
1.9108

> <Gold.PLP.Chemscore.CHOScore>
0.0000

> <Gold.PLP.Chemscore.Metal>
0.0000

> <Gold.Chemscore.Hbonds>
donor molecule, donor type, donor heavy atom, donor atom, acceptor molecule, acceptor atom, score
      P1  H  6896  6909       L1    17  0.83
      P1  H  7997  8008       L1    16  0.91

> <Gold.PLP.Chemscore.Internal.Correction>
0.0777

> <Gold.Rescore>
     Score         DG    S(hbond)    S(metal)    S(lipo)     H(rot)  DE(clash)    DE(int)     intcor
     14.73     -17.50       1.02        0.00     142.94       3.17       1.52       1.25       ----

> <Gold.Chemscore.Fitness>
14.7291

> <Gold.Chemscore.DG>
-17.5001

> <Gold.Chemscore.ZeroCoef>
-5.4800

> <Gold.Chemscore.Hbond>
1.0186

> <Gold.Chemscore.Metal>
0.0000

> <Gold.Chemscore.Lipo>
142.9411

> <Gold.Chemscore.Internal_Hbond>
0.0000

> <Gold.Chemscore.DEClash>
1.5173

> <Gold.Chemscore.DEInternal>
1.2537

> <Gold.Chemscore.Rot>
3.1665

> <Gold.Chemscore.Internal.Correction>
   9.000000E+99

> <Gold.Chemscore.Hbonds>
donor molecule, donor type, donor heavy atom, donor atom, acceptor molecule, acceptor atom, score
      P1  H  6896  6909       L1    17  0.26
      P1  H  7997  8008       L1    16  0.76

> <Gold.Chemscore.Hbond.Weighted>
-3.4023

> <Gold.Chemscore.Metal.Weighted>
-0.0000

> <Gold.Chemscore.Lipo.Weighted>
-16.7241

> <Gold.Chemscore.Internal_Hbond.Weighted>
0.0000

> <Gold.Chemscore.DEClash.Weighted>
1.5173

> <Gold.Chemscore.DEInternal.Weighted>
1.2537

> <Gold.Chemscore.Rot.Weighted>
8.1062

> <Gold.Chemscore.Internal.Correction.Weighted>
   9.000000E+99

> <Gold.Protein.RotatedTorsions>
[ 6907 6896 6895 6894 ] final  170.20 input  -60.11 | X-H torsion
[ 7974 7965 7964 7962 ] final  104.95 input  175.53 | X-H torsion
[ 8008 7997 7996 7995 ] final -107.58 input   59.86 | X-H torsion
[ 10167 10162 10161 10158 ] final   14.46 input  -65.29 | X-H torsion
[ 10718 10713 10712 10709 ] final -170.97 input   66.30 | X-H torsion
[ 10763 10752 10751 10750 ] final  178.53 input  -60.55 | X-H torsion
[ 11005 11000 10999 10996 ] final  -59.87 input  -57.11 | X-H torsion

> <Gold.Protein.ActiveResidues>
 VAL166  LYS551  ARG553  GLY616  TRP617  ASP618  TYR619  PRO620  LYS621  CYS622 
 ASP623  PHE694  ASN695  SER759  ASP760  ASP761  ALA762  ILE779  LEU786  VAL792 
 PHE793  MET794  SER795  GLU796  ALA797  LYS798  CYS799  TRP800  GLU811  SER814 

> <Gold.Protein.RotatedAtoms>
  151.8199  133.3393  159.3580 H   0  0  0  0  0  0  0  0  0  0  0  0  # atno 6907 bound_to 6896
  150.7298  134.5584  159.5839 H   0  0  0  0  0  0  0  0  0  0  0  0  # atno 6908 bound_to 6896
  152.3014  134.7608  160.0408 H   0  0  0  0  0  0  0  0  0  0  0  0  # atno 6909 bound_to 6896
  145.3261  139.2499  143.3686 H   0  0  0  0  0  0  0  0  0  0  0  0  # atno 7974 bound_to 7965
  154.9314  140.0405  157.2050 H   0  0  0  0  0  0  0  0  0  0  0  0  # atno 8008 bound_to 7997
  154.8157  140.2875  155.5800 H   0  0  0  0  0  0  0  0  0  0  0  0  # atno 8009 bound_to 7997
  156.2975  140.2528  156.3054 H   0  0  0  0  0  0  0  0  0  0  0  0  # atno 8010 bound_to 7997
  140.5934  143.8750  150.6895 H   0  0  0  0  0  0  0  0  0  0  0  0  # atno 10167 bound_to 10162
  156.7341  130.9317  151.3106 H   0  0  0  0  0  0  0  0  0  0  0  0  # atno 10718 bound_to 10713
  154.5088  135.2787  155.1360 H   0  0  0  0  0  0  0  0  0  0  0  0  # atno 10763 bound_to 10752
  154.2963  135.6257  153.5410 H   0  0  0  0  0  0  0  0  0  0  0  0  # atno 10764 bound_to 10752
  152.9915  135.5686  154.5549 H   0  0  0  0  0  0  0  0  0  0  0  0  # atno 10765 bound_to 10752
  141.1265  133.6618  156.5137 H   0  0  0  0  0  0  0  0  0  0  0  0  # atno 11005 bound_to 11000
  146.3064  140.3828  142.8686 LP  0  0  0  0  0  0  0  0  0  0  0  0  # atno 17320 bound_to 7965
  144.8901  140.7513  143.5932 LP  0  0  0  0  0  0  0  0  0  0  0  0  # atno 17321 bound_to 7965
  140.2278  143.3759  152.1590 LP  0  0  0  0  0  0  0  0  0  0  0  0  # atno 17342 bound_to 10162
  139.5242  144.7081  151.5291 LP  0  0  0  0  0  0  0  0  0  0  0  0  # atno 17343 bound_to 10162
  157.6846  130.9173  150.0355 LP  0  0  0  0  0  0  0  0  0  0  0  0  # atno 17370 bound_to 10713
  156.1509  130.3642  149.9440 LP  0  0  0  0  0  0  0  0  0  0  0  0  # atno 17371 bound_to 10713
  140.4348  134.7069  157.4961 LP  0  0  0  0  0  0  0  0  0  0  0  0  # atno 17394 bound_to 11000
  140.0269  134.6464  155.9160 LP  0  0  0  0  0  0  0  0  0  0  0  0  # atno 17395 bound_to 11000

$$$$
