AV-unprocessed.smi:698|AV-procd|sdf|3397|dock4
  -GOLD-   22720 0373D 1   1.00000     0.00000
 Structure written by MMmdl.
 33 34  0  0  0  0  0  0  0  0  1 V2000
  154.5220  140.3742  161.3938 C   0  0  0  0  0  0  0  0  0  0  0  0
  153.5085  141.0147  160.4426 C   0  0  0  0  0  0  0  0  0  0  0  0
  153.2882  142.3629  160.8470 O   0  0  0  0  0  0  0  0  0  0  0  0
  152.5262  143.1766  160.0337 C   0  0  0  0  0  0  0  0  0  0  0  0
  152.3952  144.5374  160.3698 C   0  0  0  0  0  0  0  0  0  0  0  0
  151.6177  145.3622  159.5377 C   0  0  0  0  0  0  0  0  0  0  0  0
  151.0013  144.7975  158.4049 C   0  0  0  0  0  0  0  0  0  0  0  0
  151.1778  143.4230  158.1325 C   0  0  0  0  0  0  0  0  0  0  0  0
  150.5158  142.9468  156.9704 N   0  0  0  0  0  0  0  0  0  0  0  0
  150.6773  141.7672  156.3400 C   0  0  0  0  0  0  0  0  0  0  0  0
  151.4498  140.8815  156.7080 O   0  0  0  0  0  0  0  0  0  0  0  0
  149.8106  141.5369  155.0947 C   0  0  2  0  0  0  0  0  0  0  0  0
  148.3175  141.3951  155.3926 C   0  0  0  0  0  0  0  0  0  0  0  0
  147.8363  140.6498  154.1670 C   0  0  0  0  0  0  0  0  0  0  0  0
  149.0095  139.7208  153.8575 C   0  0  0  0  0  0  0  0  0  0  0  0
  150.1609  140.3090  154.4584 O   0  0  0  0  0  0  0  0  0  0  0  0
  151.9307  142.6381  158.9417 N   0  0  0  0  0  0  0  0  0  0  0  0
  154.7125  139.3368  161.1181 H   0  0  0  0  0  0  0  0  0  0  0  0
  154.1557  140.3855  162.4206 H   0  0  0  0  0  0  0  0  0  0  0  0
  155.4727  140.9071  161.3698 H   0  0  0  0  0  0  0  0  0  0  0  0
  153.8928  140.9814  159.4219 H   0  0  0  0  0  0  0  0  0  0  0  0
  152.5749  140.4503  160.4705 H   0  0  0  0  0  0  0  0  0  0  0  0
  152.8813  144.9389  161.2465 H   0  0  0  0  0  0  0  0  0  0  0  0
  151.4955  146.4111  159.7640 H   0  0  0  0  0  0  0  0  0  0  0  0
  150.4004  145.4170  157.7549 H   0  0  0  0  0  0  0  0  0  0  0  0
  149.8461  143.5800  156.5579 H   0  0  0  0  0  0  0  0  0  0  0  0
  149.9727  142.3507  154.3861 H   0  0  0  0  0  0  0  0  0  0  0  0
  148.1496  140.7956  156.2891 H   0  0  0  0  0  0  0  0  0  0  0  0
  147.8171  142.3553  155.5217 H   0  0  0  0  0  0  0  0  0  0  0  0
  146.9001  140.1150  154.3301 H   0  0  0  0  0  0  0  0  0  0  0  0
  147.6882  141.3501  153.3438 H   0  0  0  0  0  0  0  0  0  0  0  0
  148.8521  138.7382  154.3031 H   0  0  0  0  0  0  0  0  0  0  0  0
  149.1502  139.5867  152.7848 H   0  0  0  0  0  0  0  0  0  0  0  0
  1  2  1  0  0  0  0
  1 18  1  0  0  0  0
  1 19  1  0  0  0  0
  1 20  1  0  0  0  0
  2  3  1  0  0  0  0
  2 21  1  0  0  0  0
  2 22  1  0  0  0  0
  3  4  1  0  0  0  0
  4 17  1  0  0  0  0
  4  5  2  0  0  0  0
  5  6  1  0  0  0  0
  5 23  1  0  0  0  0
  6  7  2  0  0  0  0
  6 24  1  0  0  0  0
  7  8  1  0  0  0  0
  7 25  1  0  0  0  0
  8  9  1  0  0  0  0
  8 17  2  0  0  0  0
  9 10  1  0  0  0  0
  9 26  1  0  0  0  0
 10 11  2  0  0  0  0
 10 12  1  0  0  0  0
 12 16  1  0  0  0  0
 12 13  1  0  0  0  0
 12 27  1  0  0  0  0
 13 14  1  0  0  0  0
 13 28  1  0  0  0  0
 13 29  1  0  0  0  0
 14 15  1  0  0  0  0
 14 30  1  0  0  0  0
 14 31  1  0  0  0  0
 15 16  1  0  0  0  0
 15 32  1  0  0  0  0
 15 33  1  0  0  0  0
M  END
> <s_m_source_file>
AV-unprocessed.smi

> <i_m_source_file_index>
698

> <i_lp_mmshare_version>
43012

> <i_f3d_flags>
0

> <s_epik_input>
W0NIM11bQ0gyXU9jMVtjSF1bY0hdW2NIXWMobjEpW05IXUMoPU8pW0NAQEhdMltDSDJdW0NIMl1bQ0gyXU8y

> <s_epik_cmdline>
J2VwaWtfcHl0aG9uJywgJy1waCcsICc3LjAnLCAnLXRuJywgJzgnLCAnLW1hJywgJzIwMCcsICctbWV0YWxfYmluZGluZycsICctaW1hZScsICc8aW5maWxlLm1hZT4nLCAnLW9tYWUnLCAnPG91dGZpbGUubWFlPic=

> <r_lp_tautomer_probability>
1

> <r_epik_Ionization_Penalty>
3.42089e-05

> <r_epik_Ionization_Penalty_Charging>
0

> <r_epik_Ionization_Penalty_Neutral>
3.42089e-05

> <r_epik_State_Penalty>
-0

> <r_epik_Charging_Adjusted_Penalty>
0

> <i_epik_Tot_Q>
0

> <i_epik_Tot_abs_Q>
0

> <r_epik_Metal_State_Penalty>
-0

> <b_epik_Metal_Only>
0

> <s_lp_Force_Field>
OPLS_2005

> <r_lp_Energy>
21.1038

> <b_lp_Chiralities_Consistent>
1

> <s_lp_Variant>
AV-unprocessed.smi:698-1

> <Gold.Version>
5.8.1

> <Gold.Id.Protein>
6NUR|6NUR_protein|mol2

> <Gold.PLP.Fitness>
42.9065

> <Gold.PLP.PLP>
-37.2515

> <Gold.PLP.part.hbond>
-2.0000

> <Gold.PLP.part.metal>
0.0000

> <Gold.PLP.part.buried>
-4.2072

> <Gold.PLP.part.nonpolar>
-31.3272

> <Gold.PLP.part.repulsive>
0.1394

> <Gold.PLP.ligand.clash>
0.0000

> <Gold.PLP.ligand.torsion>
0.1745

> <Gold.PLP.Chemscore.Hbond>
1.9920

> <Gold.PLP.Chemscore.CHOScore>
0.0000

> <Gold.PLP.Chemscore.Metal>
0.0000

> <Gold.Chemscore.Hbonds>
donor molecule, donor type, donor heavy atom, donor atom, acceptor molecule, acceptor atom, score
      L1  H     9    26       P1  8028  1.00
      P1  H  7989  7998       L1    16  0.94

> <Gold.PLP.Chemscore.Internal.Correction>
0.0279

> <Gold.Rescore>
     Score         DG    S(hbond)    S(metal)    S(lipo)     H(rot)  DE(clash)    DE(int)     intcor
     13.73     -16.88       1.67        0.00      80.74       1.42       1.66       1.49       ----

> <Gold.Chemscore.Fitness>
13.7283

> <Gold.Chemscore.DG>
-16.8804

> <Gold.Chemscore.ZeroCoef>
-5.4800

> <Gold.Chemscore.Hbond>
1.6721

> <Gold.Chemscore.Metal>
0.0000

> <Gold.Chemscore.Lipo>
80.7439

> <Gold.Chemscore.Internal_Hbond>
0.0000

> <Gold.Chemscore.DEClash>
1.6600

> <Gold.Chemscore.DEInternal>
1.4920

> <Gold.Chemscore.Rot>
1.4185

> <Gold.Chemscore.Internal.Correction>
   9.000000E+99

> <Gold.Chemscore.Hbonds>
donor molecule, donor type, donor heavy atom, donor atom, acceptor molecule, acceptor atom, score
      L1  H     9    26       P1  8028  1.00
      P1  H  7989  7998       L1    16  0.20

> <Gold.Chemscore.Hbond.Weighted>
-5.5847

> <Gold.Chemscore.Metal.Weighted>
-0.0000

> <Gold.Chemscore.Lipo.Weighted>
-9.4470

> <Gold.Chemscore.Internal_Hbond.Weighted>
0.0000

> <Gold.Chemscore.DEClash.Weighted>
1.6600

> <Gold.Chemscore.DEInternal.Weighted>
1.4920

> <Gold.Chemscore.Rot.Weighted>
3.6313

> <Gold.Chemscore.Internal.Correction.Weighted>
   9.000000E+99

> <Gold.Protein.RotatedTorsions>
[ 6907 6896 6895 6894 ] final  128.45 input  -60.11 | X-H torsion
[ 7974 7965 7964 7962 ] final  -58.39 input  175.53 | X-H torsion
[ 8008 7997 7996 7995 ] final  -47.31 input   59.86 | X-H torsion
[ 10167 10162 10161 10158 ] final  163.75 input  -65.29 | X-H torsion
[ 10718 10713 10712 10709 ] final   59.63 input   66.30 | X-H torsion
[ 10763 10752 10751 10750 ] final  -42.03 input  -60.55 | X-H torsion
[ 11005 11000 10999 10996 ] final  -24.86 input  -57.11 | X-H torsion

> <Gold.Protein.ActiveResidues>
 VAL166  LYS551  ARG553  GLY616  TRP617  ASP618  TYR619  PRO620  LYS621  CYS622 
 ASP623  PHE694  ASN695  SER759  ASP760  ASP761  ALA762  ILE779  LEU786  VAL792 
 PHE793  MET794  SER795  GLU796  ALA797  LYS798  CYS799  TRP800  GLU811  SER814 

> <Gold.Protein.RotatedAtoms>
  152.3718  133.6428  159.6092 H   0  0  0  0  0  0  0  0  0  0  0  0  # atno 6907 bound_to 6896
  150.7674  133.9258  159.3421 H   0  0  0  0  0  0  0  0  0  0  0  0  # atno 6908 bound_to 6896
  151.7080  135.0919  160.0314 H   0  0  0  0  0  0  0  0  0  0  0  0  # atno 6909 bound_to 6896
  145.8398  140.8424  143.0040 H   0  0  0  0  0  0  0  0  0  0  0  0  # atno 7974 bound_to 7965
  154.4015  140.1349  156.4155 H   0  0  0  0  0  0  0  0  0  0  0  0  # atno 8008 bound_to 7997
  155.7693  140.3484  155.5218 H   0  0  0  0  0  0  0  0  0  0  0  0  # atno 8009 bound_to 7997
  155.8783  140.0983  157.1493 H   0  0  0  0  0  0  0  0  0  0  0  0  # atno 8010 bound_to 7997
  139.4878  144.4305  151.9076 H   0  0  0  0  0  0  0  0  0  0  0  0  # atno 10167 bound_to 10162
  157.5691  130.8893  149.9236 H   0  0  0  0  0  0  0  0  0  0  0  0  # atno 10718 bound_to 10713
  153.9723  135.6727  153.4747 H   0  0  0  0  0  0  0  0  0  0  0  0  # atno 10763 bound_to 10752
  153.0787  135.4935  154.8455 H   0  0  0  0  0  0  0  0  0  0  0  0  # atno 10764 bound_to 10752
  154.7212  135.3117  154.9005 H   0  0  0  0  0  0  0  0  0  0  0  0  # atno 10765 bound_to 10752
  140.8885  133.7605  156.0390 H   0  0  0  0  0  0  0  0  0  0  0  0  # atno 11005 bound_to 11000
  144.6734  140.0796  143.7470 LP  0  0  0  0  0  0  0  0  0  0  0  0  # atno 17320 bound_to 7965
  145.9477  139.2712  143.1231 LP  0  0  0  0  0  0  0  0  0  0  0  0  # atno 17321 bound_to 7965
  140.3752  144.2805  150.5915 LP  0  0  0  0  0  0  0  0  0  0  0  0  # atno 17342 bound_to 10162
  140.5283  143.2249  151.8280 LP  0  0  0  0  0  0  0  0  0  0  0  0  # atno 17343 bound_to 10162
  156.0737  130.3681  150.0722 LP  0  0  0  0  0  0  0  0  0  0  0  0  # atno 17370 bound_to 10713
  156.8877  130.9578  151.3592 LP  0  0  0  0  0  0  0  0  0  0  0  0  # atno 17371 bound_to 10713
  140.8376  134.3105  157.5326 LP  0  0  0  0  0  0  0  0  0  0  0  0  # atno 17394 bound_to 11000
  139.8727  134.9398  156.3752 LP  0  0  0  0  0  0  0  0  0  0  0  0  # atno 17395 bound_to 11000

$$$$
