#       Name:                AV-unprocessed.smi:2621
#       Creating user name   scv26
#       Creation time:       Fri Mar 27 14:23:18 2020


#       File generated by GOLD software.
#

@<TRIPOS>MOLECULE
AV-unprocessed.smi:2621
    29    30     1
SMALL
NO_CHARGES


@<TRIPOS>ATOM
      1 ****        -3.7529   0.3390   0.5272 C.3            1 S1                 0.0000
      2 ****        -2.2383   0.3375   0.5102 C.2            1 S1                 0.0000
      3 ****        -1.5184   1.4799   0.4593 C.2            1 S1                 0.0000
      4 ****        -0.0572   1.4425   0.4448 C.2            1 S1                 0.0000
      5 ****         0.6208   2.4683   0.3714 O.2            1 S1                 0.0000
      6 ****         0.4973   0.1933   0.5208 N.am           1 S1                 0.0000
      7 ****         1.9731   0.0680   0.5666 C.3            1 S1                 0.0000
      8 ****         2.6956   0.0668  -0.7732 C.3            1 S1                 0.0000
      9 ****         2.0190  -0.0451  -2.1202 C.3            1 S1                 0.0000
     10 ****         2.6234  -1.1768  -1.4880 O.3            1 S1                 0.0000
     11 ****        -0.3119  -0.9789   0.5332 C.2            1 S1                 0.0000
     12 ****         0.3610  -2.1882   0.5228 N.pl3          1 S1                 0.0000
     13 ****        -1.6050  -0.9059   0.5369 N.2            1 S1                 0.0000
     14 ****        -4.1502   1.3534   0.5755 H              1 S1                 0.0000
     15 ****        -4.1230  -0.2118   1.3924 H              1 S1                 0.0000
     16 ****        -4.1406  -0.1363  -0.3742 H              1 S1                 0.0000
     17 ****        -2.0205   2.4362   0.4324 H              1 S1                 0.0000
     18 ****         2.3812   0.8978   1.1464 H              1 S1                 0.0000
     19 ****         2.3051  -0.7970   1.1414 H              1 S1                 0.0000
     20 ****         3.7019   0.4800  -0.7492 H              1 S1                 0.0000
     21 ****         0.9337  -0.0886  -2.1820 H              1 S1                 0.0000
     22 ****         2.5452   0.3151  -3.0017 H              1 S1                 0.0000
     23 ****         1.3678  -2.2631   0.5073 H              1 S1                 0.0000
     24 ****        -0.1020  -3.0849   0.5603 H              1 S1                 0.0000
     25 ****         0.1730   3.3610   0.3195 LP             1 S1                 0.0000
     26 ****         1.6190   2.4085   0.3637 LP             1 S1                 0.0000
     27 ****         2.0423  -1.9112  -1.1373 LP             1 S1                 0.0000
     28 ****         3.4574  -1.5684  -1.8766 LP             1 S1                 0.0000
     29 ****        -2.1514  -1.7431   0.5590 LP             1 S1                 0.0000
@<TRIPOS>BOND
    1    1    2 1     
    2    1   14 1     
    3    1   15 1     
    4    1   16 1     
    5    2   13 1     
    6    2    3 2     
    7    3    4 1     
    8    3   17 1     
    9    4    5 2     
   10    4    6 am    
   11    6    7 1     
   12    6   11 1     
   13    7    8 1     
   14    7   18 1     
   15    7   19 1     
   16    8   10 1     
   17    8    9 1     
   18    8   20 1     
   19    9   10 1     
   20    9   21 1     
   21    9   22 1     
   22   11   12 1     
   23   11   13 2     
   24   12   23 1     
   25   12   24 1     
   26    5   25 1     
   27    5   26 1     
   28   10   27 1     
   29   10   28 1     
   30   13   29 1     
@<TRIPOS>SUBSTRUCTURE
      1 S1             1
@<TRIPOS>SET
LONE_PAIRS      STATIC     ATOMS    <user>   **** ""
5 25 26 27 28 29
DONOR_HYDROGENS      STATIC     ATOMS    <user>   **** ""
2 23 24
ATOM$BLUE        STATIC     ATOMS    COLORGROUP SYSTEM
5 25 26 27 28 29
ATOM$RED        STATIC     ATOMS    COLORGROUP SYSTEM
2 23 24
