AV-unprocessed.smi:258|AV-procd|sdf|1972|dock2
  -GOLD-   2262021133D 1   1.00000     0.00000
 Structure written by MMmdl.
 57 60  0  0  0  0  0  0  0  0  1 V2000
  151.7285  136.9511  154.4904 O   0  0  0  0  0  0  0  0  0  0  0  0
  152.4620  138.1031  154.8487 C   0  0  0  0  0  0  0  0  0  0  0  0
  151.5449  139.1262  155.5309 C   0  0  0  0  0  0  0  0  0  0  0  0
  150.6897  139.7062  154.5560 O   0  0  0  0  0  0  0  0  0  0  0  0
  149.4135  140.0971  155.0465 C   0  0  1  0  0  0  0  0  0  0  0  0
  148.9539  141.4176  154.3957 C   0  0  0  0  0  0  0  0  0  0  0  0
  147.5102  141.7425  154.8070 C   0  0  0  0  0  0  0  0  0  0  0  0
  146.5679  140.5730  154.4819 C   0  0  0  0  0  0  0  0  0  0  0  0
  147.0576  139.3296  155.0791 N   0  0  0  0  0  0  0  0  0  0  0  0
  146.1961  138.2829  155.1445 C   0  0  0  0  0  0  0  0  0  0  0  0
  145.8792  137.7367  156.3496 N   0  0  0  0  0  0  0  0  0  0  0  0
  145.0215  136.7145  156.4239 C   0  0  0  0  0  0  0  0  0  0  0  0
  144.3781  136.0914  155.4350 N   0  0  0  0  0  0  0  0  0  0  0  0
  144.7000  136.6277  154.2232 C   0  0  0  0  0  0  0  0  0  0  0  0
  145.5895  137.7140  153.9890 C   0  0  0  0  0  0  0  0  0  0  0  0
  145.6714  137.9711  152.6248 N   0  0  0  0  0  0  0  0  0  0  0  0
  144.8697  137.0933  152.0854 C   0  0  0  0  0  0  0  0  0  0  0  0
  144.2460  136.2475  152.9738 N   0  0  0  0  0  0  0  0  0  0  0  0
  143.3064  135.1880  152.6591 C   0  0  0  0  0  0  0  0  0  0  0  0
  143.9500  134.0846  151.7810 C   0  0  1  0  0  0  0  0  0  0  0  0
  144.4018  134.6424  150.4108 C   0  0  0  0  0  0  0  0  0  0  0  0
  144.3243  133.6407  149.4184 O   0  0  0  0  0  0  0  0  0  0  0  0
  145.0689  133.3403  152.5540 C   0  0  1  0  0  0  0  0  0  0  0  0
  145.8500  132.2993  151.7510 C   0  0  0  0  0  0  0  0  0  0  0  0
  147.3125  132.5639  152.1150 C   0  0  0  0  0  0  0  0  0  0  0  0
  147.2503  133.3171  153.3158 O   0  0  0  0  0  0  0  0  0  0  0  0
  146.1633  134.2156  153.1754 C   0  0  0  0  0  0  0  0  0  0  0  0
  148.4258  138.9642  154.7125 C   0  0  0  0  0  0  0  0  0  0  0  0
  151.6512  136.9246  153.5490 H   0  0  0  0  0  0  0  0  0  0  0  0
  153.3055  137.8372  155.4869 H   0  0  0  0  0  0  0  0  0  0  0  0
  152.8717  138.5291  153.9327 H   0  0  0  0  0  0  0  0  0  0  0  0
  150.9276  138.6111  156.2681 H   0  0  0  0  0  0  0  0  0  0  0  0
  152.1296  139.8746  156.0666 H   0  0  0  0  0  0  0  0  0  0  0  0
  149.4479  140.2103  156.1320 H   0  0  0  0  0  0  0  0  0  0  0  0
  149.6066  142.2420  154.6814 H   0  0  0  0  0  0  0  0  0  0  0  0
  149.0141  141.3331  153.3099 H   0  0  0  0  0  0  0  0  0  0  0  0
  147.4748  141.9518  155.8770 H   0  0  0  0  0  0  0  0  0  0  0  0
  147.1701  142.6470  154.3020 H   0  0  0  0  0  0  0  0  0  0  0  0
  145.5675  140.7994  154.8538 H   0  0  0  0  0  0  0  0  0  0  0  0
  146.4904  140.4483  153.4007 H   0  0  0  0  0  0  0  0  0  0  0  0
  144.8226  136.3427  157.4183 H   0  0  0  0  0  0  0  0  0  0  0  0
  144.7087  137.0394  151.0186 H   0  0  0  0  0  0  0  0  0  0  0  0
  142.9217  134.7789  153.5943 H   0  0  0  0  0  0  0  0  0  0  0  0
  142.4469  135.6419  152.1642 H   0  0  0  0  0  0  0  0  0  0  0  0
  143.1918  133.3256  151.5773 H   0  0  0  0  0  0  0  0  0  0  0  0
  143.7843  135.4862  150.1027 H   0  0  0  0  0  0  0  0  0  0  0  0
  145.4310  134.9973  150.4432 H   0  0  0  0  0  0  0  0  0  0  0  0
  144.7921  133.9388  148.6531 H   0  0  0  0  0  0  0  0  0  0  0  0
  144.5975  132.7926  153.3723 H   0  0  0  0  0  0  0  0  0  0  0  0
  145.5525  131.2954  152.0567 H   0  0  0  0  0  0  0  0  0  0  0  0
  145.6949  132.3654  150.6744 H   0  0  0  0  0  0  0  0  0  0  0  0
  147.8868  131.6466  152.2466 H   0  0  0  0  0  0  0  0  0  0  0  0
  147.7975  133.1624  151.3424 H   0  0  0  0  0  0  0  0  0  0  0  0
  146.4667  135.0326  152.5207 H   0  0  0  0  0  0  0  0  0  0  0  0
  145.8692  134.6387  154.1361 H   0  0  0  0  0  0  0  0  0  0  0  0
  148.4528  138.7524  153.6427 H   0  0  0  0  0  0  0  0  0  0  0  0
  148.7417  138.0517  155.2175 H   0  0  0  0  0  0  0  0  0  0  0  0
  1  2  1  0  0  0  0
  1 29  1  0  0  0  0
  2  3  1  0  0  0  0
  2 30  1  0  0  0  0
  2 31  1  0  0  0  0
  3  4  1  0  0  0  0
  3 32  1  0  0  0  0
  3 33  1  0  0  0  0
  4  5  1  0  0  0  0
  5 28  1  0  0  0  0
  5  6  1  0  0  0  0
  5 34  1  0  0  0  0
  6  7  1  0  0  0  0
  6 35  1  0  0  0  0
  6 36  1  0  0  0  0
  7  8  1  0  0  0  0
  7 37  1  0  0  0  0
  7 38  1  0  0  0  0
  8  9  1  0  0  0  0
  8 39  1  0  0  0  0
  8 40  1  0  0  0  0
  9 10  1  0  0  0  0
  9 28  1  0  0  0  0
 10 15  1  0  0  0  0
 10 11  2  0  0  0  0
 11 12  1  0  0  0  0
 12 13  2  0  0  0  0
 12 41  1  0  0  0  0
 13 14  1  0  0  0  0
 14 18  1  0  0  0  0
 14 15  2  0  0  0  0
 15 16  1  0  0  0  0
 16 17  2  0  0  0  0
 17 18  1  0  0  0  0
 17 42  1  0  0  0  0
 18 19  1  0  0  0  0
 19 20  1  0  0  0  0
 19 43  1  0  0  0  0
 19 44  1  0  0  0  0
 20 21  1  0  0  0  0
 20 23  1  0  0  0  0
 20 45  1  0  0  0  0
 21 22  1  0  0  0  0
 21 46  1  0  0  0  0
 21 47  1  0  0  0  0
 22 48  1  0  0  0  0
 23 27  1  0  0  0  0
 23 24  1  0  0  0  0
 23 49  1  0  0  0  0
 24 25  1  0  0  0  0
 24 50  1  0  0  0  0
 24 51  1  0  0  0  0
 25 26  1  0  0  0  0
 25 52  1  0  0  0  0
 25 53  1  0  0  0  0
 26 27  1  0  0  0  0
 27 54  1  0  0  0  0
 27 55  1  0  0  0  0
 28 56  1  0  0  0  0
 28 57  1  0  0  0  0
M  END
> <s_m_source_file>
AV-unprocessed.smi

> <i_m_source_file_index>
258

> <i_lp_mmshare_version>
43012

> <i_f3d_flags>
0

> <s_epik_input>
W09IXVtDSDJdW0NIMl1PW0NAQEhdMVtDSDJdW0NIMl1bQ0gyXU4oW0NIMl0xKWMobltjSF1uMiljKGMyMyluW2NIXW4zW0NIMl1bQ0BIXShbQ0gyXVtPSF0pW0NAQEhdNFtDSDJdW0NIMl1PW0NIMl00

> <s_epik_cmdline>
J2VwaWtfcHl0aG9uJywgJy1waCcsICc3LjAnLCAnLXRuJywgJzgnLCAnLW1hJywgJzIwMCcsICctbWV0YWxfYmluZGluZycsICctaW1hZScsICc8aW5maWxlLm1hZT4nLCAnLW9tYWUnLCAnPG91dGZpbGUubWFlPic=

> <r_lp_tautomer_probability>
1

> <r_epik_Ionization_Penalty>
0.00349036

> <r_epik_Ionization_Penalty_Charging>
0

> <r_epik_Ionization_Penalty_Neutral>
0.00349036

> <r_epik_State_Penalty>
0.00229798

> <r_epik_Charging_Adjusted_Penalty>
0.00229798

> <i_epik_Tot_Q>
0

> <i_epik_Tot_abs_Q>
0

> <r_epik_Metal_State_Penalty>
-0

> <b_epik_Metal_Only>
0

> <s_lp_Force_Field>
OPLS_2005

> <r_lp_Energy>
51.0481

> <b_lp_Chiralities_Consistent>
1

> <s_lp_Variant>
AV-unprocessed.smi:258-8

> <Gold.Version>
5.8.1

> <Gold.Id.Protein>
6NUR|6NUR_protein|mol2

> <Gold.PLP.Fitness>
48.2518

> <Gold.PLP.PLP>
-35.8869

> <Gold.PLP.part.hbond>
-4.4257

> <Gold.PLP.part.metal>
0.0000

> <Gold.PLP.part.buried>
-3.1718

> <Gold.PLP.part.nonpolar>
-30.0720

> <Gold.PLP.part.repulsive>
0.6766

> <Gold.PLP.ligand.clash>
0.0000

> <Gold.PLP.ligand.torsion>
1.4652

> <Gold.PLP.Chemscore.Hbond>
3.8960

> <Gold.PLP.Chemscore.CHOScore>
1.0000

> <Gold.PLP.Chemscore.Metal>
0.0000

> <Gold.Chemscore.Hbonds>
donor molecule, donor type, donor heavy atom, donor atom, acceptor molecule, acceptor atom, score
      L1  H     1    29       P1  7949  0.31
      L1  H    22    48       P1  7921  1.00
      P1  H  7989  7998       L1     4  1.00
      P1  H 10752 10765       L1     1  0.10
      L1  C    17    42       P1 10171  0.92

> <Gold.PLP.Chemscore.Internal.Correction>
0.6074

> <Gold.Rescore>
     Score         DG    S(hbond)    S(metal)    S(lipo)     H(rot)  DE(clash)    DE(int)     intcor
      7.36     -12.91       2.63        0.00      80.84       4.22       0.85       4.70       ----

> <Gold.Chemscore.Fitness>
7.3585

> <Gold.Chemscore.DG>
-12.9088

> <Gold.Chemscore.ZeroCoef>
-5.4800

> <Gold.Chemscore.Hbond>
2.6302

> <Gold.Chemscore.Metal>
0.0000

> <Gold.Chemscore.Lipo>
80.8435

> <Gold.Chemscore.Internal_Hbond>
0.0000

> <Gold.Chemscore.DEClash>
0.8544

> <Gold.Chemscore.DEInternal>
4.6958

> <Gold.Chemscore.Rot>
4.2246

> <Gold.Chemscore.Internal.Correction>
   9.000000E+99

> <Gold.Chemscore.Hbonds>
donor molecule, donor type, donor heavy atom, donor atom, acceptor molecule, acceptor atom, score
      L1  H     1    29       P1  7949  0.29
      L1  H    22    48       P1  7921  0.99
      P1  H  7989  7998       L1     4  0.72

> <Gold.Chemscore.Hbond.Weighted>
-8.7850

> <Gold.Chemscore.Metal.Weighted>
-0.0000

> <Gold.Chemscore.Lipo.Weighted>
-9.4587

> <Gold.Chemscore.Internal_Hbond.Weighted>
0.0000

> <Gold.Chemscore.DEClash.Weighted>
0.8544

> <Gold.Chemscore.DEInternal.Weighted>
4.6958

> <Gold.Chemscore.Rot.Weighted>
10.8149

> <Gold.Chemscore.Internal.Correction.Weighted>
   9.000000E+99

> <Gold.Protein.RotatedTorsions>
[ 6907 6896 6895 6894 ] final  125.24 input  -60.11 | X-H torsion
[ 7974 7965 7964 7962 ] final  163.04 input  175.53 | X-H torsion
[ 8008 7997 7996 7995 ] final -145.06 input   59.86 | X-H torsion
[ 10167 10162 10161 10158 ] final  108.44 input  -65.29 | X-H torsion
[ 10718 10713 10712 10709 ] final -174.06 input   66.30 | X-H torsion
[ 10763 10752 10751 10750 ] final  153.01 input  -60.55 | X-H torsion
[ 11005 11000 10999 10996 ] final   36.20 input  -57.11 | X-H torsion

> <Gold.Protein.ActiveResidues>
 VAL166  LYS551  ARG553  GLY616  TRP617  ASP618  TYR619  PRO620  LYS621  CYS622 
 ASP623  PHE694  ASN695  SER759  ASP760  ASP761  ALA762  ILE779  LEU786  VAL792 
 PHE793  MET794  SER795  GLU796  ALA797  LYS798  CYS799  TRP800  GLU811  SER814 

> <Gold.Protein.RotatedAtoms>
  152.4009  133.6816  159.6314 H   0  0  0  0  0  0  0  0  0  0  0  0  # atno 6907 bound_to 6896
  150.7900  133.8793  159.3290 H   0  0  0  0  0  0  0  0  0  0  0  0  # atno 6908 bound_to 6896
  151.6559  135.0997  160.0221 H   0  0  0  0  0  0  0  0  0  0  0  0  # atno 6909 bound_to 6896
  144.7608  139.8125  143.6333 H   0  0  0  0  0  0  0  0  0  0  0  0  # atno 7974 bound_to 7965
  155.5370  140.0604  157.2877 H   0  0  0  0  0  0  0  0  0  0  0  0  # atno 8008 bound_to 7997
  154.4465  140.1926  156.0597 H   0  0  0  0  0  0  0  0  0  0  0  0  # atno 8009 bound_to 7997
  156.0612  140.3272  155.7467 H   0  0  0  0  0  0  0  0  0  0  0  0  # atno 8010 bound_to 7997
  139.6846  144.7115  151.1455 H   0  0  0  0  0  0  0  0  0  0  0  0  # atno 10167 bound_to 10162
  156.7795  130.9478  151.3120 H   0  0  0  0  0  0  0  0  0  0  0  0  # atno 10718 bound_to 10713
  154.1293  135.2827  155.3189 H   0  0  0  0  0  0  0  0  0  0  0  0  # atno 10763 bound_to 10752
  154.6367  135.5416  153.7745 H   0  0  0  0  0  0  0  0  0  0  0  0  # atno 10764 bound_to 10752
  153.0286  135.6476  154.1444 H   0  0  0  0  0  0  0  0  0  0  0  0  # atno 10765 bound_to 10752
  140.2349  134.3483  155.7948 H   0  0  0  0  0  0  0  0  0  0  0  0  # atno 11005 bound_to 11000
  146.1669  139.4804  142.9952 LP  0  0  0  0  0  0  0  0  0  0  0  0  # atno 17320 bound_to 7965
  145.6625  141.0237  143.1701 LP  0  0  0  0  0  0  0  0  0  0  0  0  # atno 17321 bound_to 7965
  140.7663  143.5649  150.9059 LP  0  0  0  0  0  0  0  0  0  0  0  0  # atno 17342 bound_to 10162
  139.9323  143.6479  152.3073 LP  0  0  0  0  0  0  0  0  0  0  0  0  # atno 17343 bound_to 10162
  157.6653  130.9002  149.9918 LP  0  0  0  0  0  0  0  0  0  0  0  0  # atno 17370 bound_to 10713
  156.1227  130.3645  149.9861 LP  0  0  0  0  0  0  0  0  0  0  0  0  # atno 17371 bound_to 10713
  141.2215  133.7266  156.8792 LP  0  0  0  0  0  0  0  0  0  0  0  0  # atno 17394 bound_to 11000
  140.1712  134.9098  157.2835 LP  0  0  0  0  0  0  0  0  0  0  0  0  # atno 17395 bound_to 11000

$$$$
