#       Name:                AV-unprocessed.smi:2004
#       Creating user name   scv26
#       Creation time:       Fri Mar 27 10:35:39 2020


#       File generated by GOLD software.
#

@<TRIPOS>MOLECULE
AV-unprocessed.smi:2004
    44    46     1
SMALL
NO_CHARGES


@<TRIPOS>ATOM
      1 ****        -0.8535   0.4449  -2.0292 O.3            1 S1                 0.0000
      2 ****        -0.2992   0.9149  -0.8157 C.3            1 S1                 0.0000
      3 ****         1.2309   0.8154  -0.9105 C.3            1 S1                 0.0000
      4 ****         1.6196  -0.5245  -0.6572 O.3            1 S1                 0.0000
      5 ****         3.0232  -0.7154  -0.7276 C.3            1 S1                 0.0000
      6 ****         3.4092  -2.1524  -0.4346 C.ar           1 S1                 0.0000
      7 ****         2.8325  -2.8311   0.6599 C.ar           1 S1                 0.0000
      8 ****         3.2003  -4.1612   0.9424 C.ar           1 S1                 0.0000
      9 ****         4.1500  -4.8164   0.1348 C.ar           1 S1                 0.0000
     10 ****         4.7342  -4.1397  -0.9535 C.ar           1 S1                 0.0000
     11 ****         4.3668  -2.8094  -1.2362 C.ar           1 S1                 0.0000
     12 ****        -0.7692   2.3634  -0.5796 C.3            1 S1                 0.0000
     13 ****        -2.2131   2.4663  -0.4662 N.pl3          1 S1                 0.0000
     14 ****        -3.0770   2.8833  -1.4122 C.2            1 S1                 0.0000
     15 ****        -4.3684   2.8981  -1.0940 N.2            1 S1                 0.0000
     16 ****        -4.3396   2.4367   0.2111 C.ar           1 S1                 0.0000
     17 ****        -5.3910   2.2162   1.1295 C.ar           1 S1                 0.0000
     18 ****        -5.1171   1.7343   2.4268 C.ar           1 S1                 0.0000
     19 ****        -3.7913   1.4657   2.8252 C.ar           1 S1                 0.0000
     20 ****        -2.7272   1.6777   1.9277 C.ar           1 S1                 0.0000
     21 ****        -3.0047   2.1586   0.6344 C.ar           1 S1                 0.0000
     22 ****        -0.5811  -0.4518  -2.1530 H              1 S1                 0.0000
     23 ****        -0.6555   0.2878   0.0027 H              1 S1                 0.0000
     24 ****         1.5899   1.1600  -1.8822 H              1 S1                 0.0000
     25 ****         1.6884   1.4525  -0.1518 H              1 S1                 0.0000
     26 ****         3.3821  -0.4332  -1.7188 H              1 S1                 0.0000
     27 ****         3.5249  -0.0713  -0.0039 H              1 S1                 0.0000
     28 ****         2.1057  -2.3333   1.2854 H              1 S1                 0.0000
     29 ****         2.7544  -4.6782   1.7793 H              1 S1                 0.0000
     30 ****         4.4325  -5.8362   0.3512 H              1 S1                 0.0000
     31 ****         5.4652  -4.6405  -1.5711 H              1 S1                 0.0000
     32 ****         4.8219  -2.2972  -2.0713 H              1 S1                 0.0000
     33 ****        -0.3301   2.7582   0.3373 H              1 S1                 0.0000
     34 ****        -0.4334   3.0117  -1.3907 H              1 S1                 0.0000
     35 ****        -2.7385   3.1906  -2.3910 H              1 S1                 0.0000
     36 ****        -6.4102   2.4181   0.8349 H              1 S1                 0.0000
     37 ****        -5.9289   1.5693   3.1199 H              1 S1                 0.0000
     38 ****        -3.5919   1.0963   3.8206 H              1 S1                 0.0000
     39 ****        -1.7105   1.4727   2.2284 H              1 S1                 0.0000
     40 ****        -0.5263   1.0056  -2.7898 LP             1 S1                 0.0000
     41 ****        -1.8514   0.4920  -1.9856 LP             1 S1                 0.0000
     42 ****         1.1828  -1.1168  -1.3343 LP             1 S1                 0.0000
     43 ****         1.3086  -0.7792   0.2584 LP             1 S1                 0.0000
     44 ****        -5.1532   3.1706  -1.6507 LP             1 S1                 0.0000
@<TRIPOS>BOND
    1    1    2 1     
    2    1   22 1     
    3    2    3 1     
    4    2   12 1     
    5    2   23 1     
    6    3    4 1     
    7    3   24 1     
    8    3   25 1     
    9    4    5 1     
   10    5    6 1     
   11    5   26 1     
   12    5   27 1     
   13    6   11 ar    
   14    6    7 ar    
   15    7    8 ar    
   16    7   28 1     
   17    8    9 ar    
   18    8   29 1     
   19    9   10 ar    
   20    9   30 1     
   21   10   11 ar    
   22   10   31 1     
   23   11   32 1     
   24   12   13 1     
   25   12   33 1     
   26   12   34 1     
   27   13   21 1     
   28   13   14 1     
   29   14   15 2     
   30   14   35 1     
   31   15   16 1     
   32   16   21 ar    
   33   16   17 ar    
   34   17   18 ar    
   35   17   36 1     
   36   18   19 ar    
   37   18   37 1     
   38   19   20 ar    
   39   19   38 1     
   40   20   21 ar    
   41   20   39 1     
   42    1   40 1     
   43    1   41 1     
   44    4   42 1     
   45    4   43 1     
   46   15   44 1     
@<TRIPOS>SUBSTRUCTURE
      1 S1             1
@<TRIPOS>SET
LONE_PAIRS      STATIC     ATOMS    <user>   **** ""
5 40 41 42 43 44
DONOR_HYDROGENS      STATIC     ATOMS    <user>   **** ""
1 22
ATOM$BLUE        STATIC     ATOMS    COLORGROUP SYSTEM
5 40 41 42 43 44
ATOM$RED        STATIC     ATOMS    COLORGROUP SYSTEM
1 22
