#       Name:                AV-unprocessed.smi:3112
#       Creating user name   scv26
#       Creation time:       Fri Mar 27 17:21:40 2020


#       File generated by GOLD software.
#

@<TRIPOS>MOLECULE
AV-unprocessed.smi:3112
    40    40     1
SMALL
NO_CHARGES


@<TRIPOS>ATOM
      1 ****        -4.1635   2.8323  -0.4714 C.3            1 S1                 0.0000
      2 ****        -3.6039   1.4124  -0.3080 C.3            1 S1                 0.0000
      3 ****        -2.0705   1.3409  -0.4265 C.3            1 S1                 0.0000
      4 ****        -1.4938   2.0262   0.6682 O.3            1 S1                 0.0000
      5 ****        -1.5603  -0.1094  -0.4100 C.3            1 S1                 0.0000
      6 ****        -0.1141  -0.1691  -0.7088 N.4            1 S1                 1.0000
      7 ****         0.4975  -1.5156  -0.6209 C.3            1 S1                 0.0000
      8 ****         1.3500  -1.7631  -1.8765 C.3            1 S1                 0.0000
      9 ****         1.3125  -1.7011   0.6891 C.3            1 S1                 0.0000
     10 ****         0.4663  -1.5820   1.9701 C.3            1 S1                 0.0000
     11 ****         2.5002  -0.8546   0.7493 N.pl3          1 S1                 0.0000
     12 ****         3.8206  -1.2310   0.6074 C.2            1 S1                 0.0000
     13 ****         4.5830  -0.1043   0.7222 C.2            1 S1                 0.0000
     14 ****         3.6291   0.9293   0.9336 C.2            1 S1                 0.0000
     15 ****         2.3851   0.4789   0.9456 N.2            1 S1                 0.0000
     16 ****        -5.2523   2.8267  -0.4160 H              1 S1                 0.0000
     17 ****        -3.8835   3.2574  -1.4356 H              1 S1                 0.0000
     18 ****        -3.7978   3.4995   0.3094 H              1 S1                 0.0000
     19 ****        -3.9251   0.9994   0.6493 H              1 S1                 0.0000
     20 ****        -4.0517   0.7800  -1.0755 H              1 S1                 0.0000
     21 ****        -1.7578   1.8279  -1.3514 H              1 S1                 0.0000
     22 ****        -1.8064   2.9185   0.6642 H              1 S1                 0.0000
     23 ****        -1.7711  -0.5733   0.5541 H              1 S1                 0.0000
     24 ****        -2.0863  -0.6958  -1.1646 H              1 S1                 0.0000
     25 ****         0.0195   0.1779  -1.6475 H              1 S1                 0.0000
     26 ****        -0.2993  -2.2614  -0.6310 H              1 S1                 0.0000
     27 ****         1.8177  -2.7475  -1.8463 H              1 S1                 0.0000
     28 ****         2.1423  -1.0212  -1.9819 H              1 S1                 0.0000
     29 ****         0.7384  -1.7194  -2.7782 H              1 S1                 0.0000
     30 ****         1.6789  -2.7289   0.6750 H              1 S1                 0.0000
     31 ****        -0.3808  -2.2680   1.9451 H              1 S1                 0.0000
     32 ****         0.0751  -0.5741   2.1107 H              1 S1                 0.0000
     33 ****         1.0597  -1.8274   2.8516 H              1 S1                 0.0000
     34 ****         4.1059  -2.2589   0.4376 H              1 S1                 0.0000
     35 ****         5.6589  -0.0301   0.6642 H              1 S1                 0.0000
     36 ****         3.8018   1.9860   1.0754 H              1 S1                 0.0000
     37 ****         0.3771   0.4432  -0.0715 H              1 S1                 0.0000
     38 ****        -0.4974   2.0179   0.5837 LP             1 S1                 0.0000
     39 ****        -1.7596   1.5800   1.5228 LP             1 S1                 0.0000
     40 ****         1.5455   1.0073   1.0718 LP             1 S1                 0.0000
@<TRIPOS>BOND
    1    1    2 1     
    2    1   16 1     
    3    1   17 1     
    4    1   18 1     
    5    2    3 1     
    6    2   19 1     
    7    2   20 1     
    8    3    4 1     
    9    3    5 1     
   10    3   21 1     
   11    4   22 1     
   12    5    6 1     
   13    5   23 1     
   14    5   24 1     
   15    6    7 1     
   16    6   25 1     
   17    6   37 1     
   18    7    8 1     
   19    7    9 1     
   20    7   26 1     
   21    8   27 1     
   22    8   28 1     
   23    8   29 1     
   24    9   10 1     
   25    9   11 1     
   26    9   30 1     
   27   10   31 1     
   28   10   32 1     
   29   10   33 1     
   30   11   15 1     
   31   11   12 1     
   32   12   13 2     
   33   12   34 1     
   34   13   14 1     
   35   13   35 1     
   36   14   15 2     
   37   14   36 1     
   38    4   38 1     
   39    4   39 1     
   40   15   40 1     
@<TRIPOS>SUBSTRUCTURE
      1 S1             1
@<TRIPOS>SET
LONE_PAIRS      STATIC     ATOMS    <user>   **** ""
3 38 39 40
DONOR_HYDROGENS      STATIC     ATOMS    <user>   **** ""
3 22 25 37
ATOM$BLUE        STATIC     ATOMS    COLORGROUP SYSTEM
3 38 39 40
ATOM$RED        STATIC     ATOMS    COLORGROUP SYSTEM
3 22 25 37
