#       Name:                AV-unprocessed.smi:3078
#       Creating user name   scv26
#       Creation time:       Fri Mar 27 17:13:27 2020


#       File generated by GOLD software.
#

@<TRIPOS>MOLECULE
AV-unprocessed.smi:3078
    25    25     1
SMALL
NO_CHARGES


@<TRIPOS>ATOM
      1 ****        -3.5260  -0.8828   0.3089 C.3            1 S1                 0.0000
      2 ****        -2.2754  -0.1590   0.3933 N.pl3          1 S1                 0.0000
      3 ****        -0.9923  -0.6343   0.2315 C.2            1 S1                 0.0000
      4 ****        -0.1370   0.4207   0.4006 C.2            1 S1                 0.0000
      5 ****         1.3691   0.4545   0.3302 C.3            1 S1                 0.0000
      6 ****         1.9317  -0.0921   1.5783 N.4            1 S1                 1.0000
      7 ****         1.9224  -0.2983  -0.8961 C.3            1 S1                 0.0000
      8 ****         1.4736   0.3073  -2.1641 N.4            1 S1                 1.0000
      9 ****        -1.0135   1.5112   0.6703 C.2            1 S1                 0.0000
     10 ****        -2.2885   1.1622   0.6611 N.2            1 S1                 0.0000
     11 ****        -3.3354  -1.9546   0.2440 H              1 S1                 0.0000
     12 ****        -4.0758  -0.5654  -0.5775 H              1 S1                 0.0000
     13 ****        -4.1301  -0.6847   1.1951 H              1 S1                 0.0000
     14 ****        -0.7979  -1.6740   0.0118 H              1 S1                 0.0000
     15 ****         1.7127   1.4885   0.2741 H              1 S1                 0.0000
     16 ****         1.5857   0.4405   2.3643 H              1 S1                 0.0000
     17 ****         2.9398  -0.0327   1.5537 H              1 S1                 0.0000
     18 ****         3.0128  -0.2833  -0.8849 H              1 S1                 0.0000
     19 ****         1.6204  -1.3462  -0.8782 H              1 S1                 0.0000
     20 ****         1.8560  -0.2124  -2.9416 H              1 S1                 0.0000
     21 ****         1.7896   1.2655  -2.2162 H              1 S1                 0.0000
     22 ****        -0.7613   2.5426   0.8688 H              1 S1                 0.0000
     23 ****         0.4645   0.2853  -2.2120 H              1 S1                 0.0000
     24 ****         1.6542  -1.0576   1.6842 H              1 S1                 0.0000
     25 ****        -3.0843   1.7471   0.8177 LP             1 S1                 0.0000
@<TRIPOS>BOND
    1    1    2 1     
    2    1   11 1     
    3    1   12 1     
    4    1   13 1     
    5    2   10 1     
    6    2    3 1     
    7    3    4 2     
    8    3   14 1     
    9    4    5 1     
   10    4    9 1     
   11    5    6 1     
   12    5    7 1     
   13    5   15 1     
   14    6   16 1     
   15    6   17 1     
   16    6   24 1     
   17    7    8 1     
   18    7   18 1     
   19    7   19 1     
   20    8   20 1     
   21    8   21 1     
   22    8   23 1     
   23    9   10 2     
   24    9   22 1     
   25   10   25 1     
@<TRIPOS>SUBSTRUCTURE
      1 S1             1
@<TRIPOS>SET
LONE_PAIRS      STATIC     ATOMS    <user>   **** ""
1 25
DONOR_HYDROGENS      STATIC     ATOMS    <user>   **** ""
6 16 17 24 20 21 23
ATOM$BLUE        STATIC     ATOMS    COLORGROUP SYSTEM
1 25
ATOM$RED        STATIC     ATOMS    COLORGROUP SYSTEM
6 16 17 24 20 21 23
