AV-unprocessed.smi:1760|AV-procd|sdf|7090|dock4
  -GOLD-   22720 8303D 1   1.00000     0.00000
 Structure written by MMmdl.
 44 46  0  0  0  0  0  0  0  0  2 V2000
  149.4505  137.3523  156.3028 O   0  0  0  0  0  0  0  0  0  0  0  0
  149.5692  137.0219  155.1232 C   0  0  0  0  0  0  0  0  0  0  0  0
  149.5436  135.7616  154.6519 N   0  0  0  0  0  0  0  0  0  0  0  0
  149.4046  134.5517  155.3530 C   0  0  0  0  0  0  0  0  0  0  0  0
  150.0957  133.4130  155.0847 C   0  0  0  0  0  0  0  0  0  0  0  0
  149.8961  132.1917  155.8472 C   0  0  0  0  0  0  0  0  0  0  0  0
  150.7371  130.9498  155.5956 C   0  0  0  0  0  0  0  0  0  0  0  0
  150.4721  129.9964  156.4898 F   0  0  0  0  0  0  0  0  0  0  0  0
  150.4759  130.4649  154.3825 F   0  0  0  0  0  0  0  0  0  0  0  0
  152.0384  131.2323  155.6584 F   0  0  0  0  0  0  0  0  0  0  0  0
  148.9907  132.2462  156.8415 C   0  0  0  0  0  0  0  0  0  0  0  0
  148.2583  133.4052  157.1075 N   0  0  0  0  0  0  0  0  0  0  0  0
  148.4012  134.5665  156.4303 C   0  0  0  0  0  0  0  0  0  0  0  0
  147.7186  135.5466  156.7269 O   0  0  0  0  0  0  0  0  0  0  0  0
  149.7199  137.9012  154.1217 N   0  0  0  0  0  0  0  0  0  0  0  0
  149.7531  139.3553  154.2571 C   0  0  2  0  0  0  0  0  0  0  0  0
  150.6509  139.7509  155.4412 C   0  0  0  0  0  0  0  0  0  0  0  0
  150.6208  141.2727  155.6783 C   0  0  0  0  0  0  0  0  0  0  0  0
  149.2377  141.7819  155.8657 N   0  3  2  0  0  0  0  0  0  0  0  0
  148.6641  141.4479  157.1907 C   0  0  0  0  0  0  0  0  0  0  0  0
  147.4943  142.3202  157.5823 C   0  0  0  0  0  0  0  0  0  0  0  0
  148.8476  142.5368  158.2219 C   0  0  0  0  0  0  0  0  0  0  0  0
  148.3498  141.4182  154.7312 C   0  0  0  0  0  0  0  0  0  0  0  0
  148.3310  139.8995  154.4723 C   0  0  0  0  0  0  0  0  0  0  0  0
  147.5843  133.3602  157.8582 H   0  0  0  0  0  0  0  0  0  0  0  0
  149.5861  135.6580  153.6485 H   0  0  0  0  0  0  0  0  0  0  0  0
  150.8073  133.3720  154.2766 H   0  0  0  0  0  0  0  0  0  0  0  0
  148.7645  131.4238  157.5041 H   0  0  0  0  0  0  0  0  0  0  0  0
  149.8066  137.5331  153.1855 H   0  0  0  0  0  0  0  0  0  0  0  0
  150.1610  139.8149  153.3548 H   0  0  0  0  0  0  0  0  0  0  0  0
  150.3299  139.2301  156.3443 H   0  0  0  0  0  0  0  0  0  0  0  0
  151.6764  139.4306  155.2532 H   0  0  0  0  0  0  0  0  0  0  0  0
  151.2353  141.5364  156.5397 H   0  0  0  0  0  0  0  0  0  0  0  0
  151.0611  141.7821  154.8201 H   0  0  0  0  0  0  0  0  0  0  0  0
  148.6904  140.4018  157.4890 H   0  0  0  0  0  0  0  0  0  0  0  0
  147.1485  143.0697  156.8726 H   0  0  0  0  0  0  0  0  0  0  0  0
  146.7180  141.8714  158.1988 H   0  0  0  0  0  0  0  0  0  0  0  0
  148.9631  142.2306  159.2598 H   0  0  0  0  0  0  0  0  0  0  0  0
  149.4003  143.4303  157.9371 H   0  0  0  0  0  0  0  0  0  0  0  0
  147.3399  141.7859  154.9155 H   0  0  0  0  0  0  0  0  0  0  0  0
  148.7054  141.9339  153.8381 H   0  0  0  0  0  0  0  0  0  0  0  0
  147.7151  139.6855  153.5981 H   0  0  0  0  0  0  0  0  0  0  0  0
  147.8575  139.3879  155.3112 H   0  0  0  0  0  0  0  0  0  0  0  0
  149.3070  142.7896  155.8544 H   0  0  0  0  0  0  0  0  0  0  0  0
  1  2  2  0  0  0  0
  2  3  1  0  0  0  0
  2 15  1  0  0  0  0
  3  4  1  0  0  0  0
  3 26  1  0  0  0  0
  4 13  1  0  0  0  0
  4  5  2  0  0  0  0
  5  6  1  0  0  0  0
  5 27  1  0  0  0  0
  6  7  1  0  0  0  0
  6 11  2  0  0  0  0
  7  8  1  0  0  0  0
  7  9  1  0  0  0  0
  7 10  1  0  0  0  0
 11 12  1  0  0  0  0
 11 28  1  0  0  0  0
 12 25  1  0  0  0  0
 12 13  1  0  0  0  0
 13 14  2  0  0  0  0
 15 16  1  0  0  0  0
 15 29  1  0  0  0  0
 16 24  1  0  0  0  0
 16 17  1  0  0  0  0
 16 30  1  0  0  0  0
 17 18  1  0  0  0  0
 17 31  1  0  0  0  0
 17 32  1  0  0  0  0
 18 19  1  0  0  0  0
 18 33  1  0  0  0  0
 18 34  1  0  0  0  0
 19 20  1  0  0  0  0
 19 23  1  0  0  0  0
 19 44  1  0  0  0  0
 20 22  1  0  0  0  0
 20 21  1  0  0  0  0
 20 35  1  0  0  0  0
 21 22  1  0  0  0  0
 21 36  1  0  0  0  0
 21 37  1  0  0  0  0
 22 38  1  0  0  0  0
 22 39  1  0  0  0  0
 23 24  1  0  0  0  0
 23 40  1  0  0  0  0
 23 41  1  0  0  0  0
 24 42  1  0  0  0  0
 24 43  1  0  0  0  0
M  CHG  1  19   1
M  END
> <s_m_source_file>
AV-unprocessed.smi

> <i_m_source_file_index>
1760

> <i_lp_mmshare_version>
43012

> <i_f3d_flags>
0

> <s_epik_input>
W0NIMl0xW0NIMl1bQ0hdMU4oW0NIMl1bQ0gyXTIpW0NIMl1bQ0gyXVtDSF0yW05IXUMoPU8pW05IXWMzW2NIXWMoQyhGKShGKUYpW2NIXVtuSF1jMz1P

> <s_epik_cmdline>
J2VwaWtfcHl0aG9uJywgJy1waCcsICc3LjAnLCAnLXRuJywgJzgnLCAnLW1hJywgJzIwMCcsICctbWV0YWxfYmluZGluZycsICctaW1hZScsICc8aW5maWxlLm1hZT4nLCAnLW9tYWUnLCAnPG91dGZpbGUubWFlPic=

> <r_lp_tautomer_probability>
0.999

> <r_epik_Ionization_Penalty>
0.131122

> <r_epik_Ionization_Penalty_Charging>
0.131104

> <r_epik_Ionization_Penalty_Neutral>
1.84439e-05

> <r_epik_State_Penalty>
0.116042

> <r_epik_Charging_Adjusted_Penalty>
0.247146

> <i_epik_Tot_Q>
1

> <i_epik_Tot_abs_Q>
1

> <r_epik_Metal_State_Penalty>
0.492282

> <b_epik_Metal_Only>
0

> <s_lp_Force_Field>
OPLS_2005

> <r_lp_Energy>
39.2626

> <b_lp_Chiralities_Consistent>
1

> <s_lp_Variant>
AV-unprocessed.smi:1760-2

> <Gold.Version>
5.8.1

> <Gold.Id.Protein>
6NUR|6NUR_protein|mol2

> <Gold.PLP.Fitness>
39.6718

> <Gold.PLP.PLP>
-30.4320

> <Gold.PLP.part.hbond>
-3.0000

> <Gold.PLP.part.metal>
0.0000

> <Gold.PLP.part.buried>
-4.1785

> <Gold.PLP.part.nonpolar>
-23.8982

> <Gold.PLP.part.repulsive>
0.1937

> <Gold.PLP.ligand.clash>
1.2082

> <Gold.PLP.ligand.torsion>
1.2491

> <Gold.PLP.Chemscore.Hbond>
3.8800

> <Gold.PLP.Chemscore.CHOScore>
0.0000

> <Gold.PLP.Chemscore.Metal>
0.0000

> <Gold.Chemscore.Hbonds>
donor molecule, donor type, donor heavy atom, donor atom, acceptor molecule, acceptor atom, score
      L1  H     3    26       P1  7948  0.90
      L1  H    15    29       P1  7948  0.90
      L1  H    19    44       P1  8028  2.00

> <Gold.PLP.Chemscore.Internal.Correction>
1.3061

> <Gold.Rescore>
     Score         DG    S(hbond)    S(metal)    S(lipo)     H(rot)  DE(clash)    DE(int)     intcor
     13.72     -18.66       2.83        0.00      59.97       1.29       0.55       4.38       ----

> <Gold.Chemscore.Fitness>
13.7248

> <Gold.Chemscore.DG>
-18.6584

> <Gold.Chemscore.ZeroCoef>
-5.4800

> <Gold.Chemscore.Hbond>
2.8317

> <Gold.Chemscore.Metal>
0.0000

> <Gold.Chemscore.Lipo>
59.9711

> <Gold.Chemscore.Internal_Hbond>
0.0000

> <Gold.Chemscore.DEClash>
0.5493

> <Gold.Chemscore.DEInternal>
4.3843

> <Gold.Chemscore.Rot>
1.2875

> <Gold.Chemscore.Internal.Correction>
   9.000000E+99

> <Gold.Chemscore.Hbonds>
donor molecule, donor type, donor heavy atom, donor atom, acceptor molecule, acceptor atom, score
      L1  H     3    26       P1  7948  0.17
      L1  H    15    29       P1  7948  0.47
      L1  H    19    44       P1  8028  0.97

> <Gold.Chemscore.Hbond.Weighted>
-9.4578

> <Gold.Chemscore.Metal.Weighted>
-0.0000

> <Gold.Chemscore.Lipo.Weighted>
-7.0166

> <Gold.Chemscore.Internal_Hbond.Weighted>
0.0000

> <Gold.Chemscore.DEClash.Weighted>
0.5493

> <Gold.Chemscore.DEInternal.Weighted>
4.3843

> <Gold.Chemscore.Rot.Weighted>
3.2960

> <Gold.Chemscore.Internal.Correction.Weighted>
   9.000000E+99

> <Gold.Protein.RotatedTorsions>
[ 6907 6896 6895 6894 ] final  -84.33 input  -60.11 | X-H torsion
[ 7974 7965 7964 7962 ] final -163.48 input  175.53 | X-H torsion
[ 8008 7997 7996 7995 ] final   25.85 input   59.86 | X-H torsion
[ 10167 10162 10161 10158 ] final -106.59 input  -65.29 | X-H torsion
[ 10718 10713 10712 10709 ] final -102.34 input   66.30 | X-H torsion
[ 10763 10752 10751 10750 ] final  -39.49 input  -60.55 | X-H torsion
[ 11005 11000 10999 10996 ] final  -54.91 input  -57.11 | X-H torsion

> <Gold.Protein.ActiveResidues>
 VAL166  LYS551  ARG553  GLY616  TRP617  ASP618  TYR619  PRO620  LYS621  CYS622 
 ASP623  PHE694  ASN695  SER759  ASP760  ASP761  ALA762  ILE779  LEU786  VAL792 
 PHE793  MET794  SER795  GLU796  ALA797  LYS798  CYS799  TRP800  GLU811  SER814 

> <Gold.Protein.RotatedAtoms>
  150.6877  134.3374  159.4853 H   0  0  0  0  0  0  0  0  0  0  0  0  # atno 6907 bound_to 6896
  152.1232  134.9188  160.0571 H   0  0  0  0  0  0  0  0  0  0  0  0  # atno 6908 bound_to 6896
  152.0386  133.3933  159.4364 H   0  0  0  0  0  0  0  0  0  0  0  0  # atno 6909 bound_to 6896
  144.7325  140.3101  143.6189 H   0  0  0  0  0  0  0  0  0  0  0  0  # atno 7974 bound_to 7965
  155.0182  140.3144  155.4803 H   0  0  0  0  0  0  0  0  0  0  0  0  # atno 8008 bound_to 7997
  156.2897  140.2202  156.5241 H   0  0  0  0  0  0  0  0  0  0  0  0  # atno 8009 bound_to 7997
  154.7475  140.0469  157.0853 H   0  0  0  0  0  0  0  0  0  0  0  0  # atno 8010 bound_to 7997
  140.1862  143.3928  152.1243 H   0  0  0  0  0  0  0  0  0  0  0  0  # atno 10167 bound_to 10162
  156.0225  130.5415  150.7094 H   0  0  0  0  0  0  0  0  0  0  0  0  # atno 10718 bound_to 10713
  153.9303  135.6772  153.4745 H   0  0  0  0  0  0  0  0  0  0  0  0  # atno 10763 bound_to 10752
  153.0983  135.4840  154.8817 H   0  0  0  0  0  0  0  0  0  0  0  0  # atno 10764 bound_to 10752
  154.7431  135.3166  154.8650 H   0  0  0  0  0  0  0  0  0  0  0  0  # atno 10765 bound_to 10752
  141.1049  133.6614  156.4391 H   0  0  0  0  0  0  0  0  0  0  0  0  # atno 11005 bound_to 11000
  145.7673  139.1845  143.2232 LP  0  0  0  0  0  0  0  0  0  0  0  0  # atno 17320 bound_to 7965
  146.0939  140.7624  142.9582 LP  0  0  0  0  0  0  0  0  0  0  0  0  # atno 17321 bound_to 7965
  139.5275  144.7120  151.5175 LP  0  0  0  0  0  0  0  0  0  0  0  0  # atno 17342 bound_to 10162
  140.6487  143.8742  150.6763 LP  0  0  0  0  0  0  0  0  0  0  0  0  # atno 17343 bound_to 10162
  157.4736  131.0895  151.0615 LP  0  0  0  0  0  0  0  0  0  0  0  0  # atno 17370 bound_to 10713
  157.1068  130.6005  149.5473 LP  0  0  0  0  0  0  0  0  0  0  0  0  # atno 17371 bound_to 10713
  140.4928  134.6559  157.5218 LP  0  0  0  0  0  0  0  0  0  0  0  0  # atno 17394 bound_to 11000
  139.9915  134.6978  155.9682 LP  0  0  0  0  0  0  0  0  0  0  0  0  # atno 17395 bound_to 11000

$$$$
