AV-unprocessed.smi:188|AV-procd|sdf|1473|dock10
  -GOLD-   2262019293D 1   1.00000     0.00000
 Structure written by MMmdl.
 48 52  0  0  0  0  0  0  0  0  2 V2000
  143.6401  132.9630  150.9573 O   0  0  0  0  0  0  0  0  0  0  0  0
  143.9555  134.0510  151.4338 C   0  0  0  0  0  0  0  0  0  0  0  0
  143.1481  135.0012  151.9428 N   0  5  0  0  0  0  0  0  0  0  0  0
  143.8648  136.0621  152.3731 C   0  0  0  0  0  0  0  0  0  0  0  0
  143.4825  137.1087  152.8948 O   0  0  0  0  0  0  0  0  0  0  0  0
  145.3477  135.7569  152.0997 C   0  0  0  0  0  0  0  0  0  0  0  0
  145.9924  136.7387  151.0931 C   0  0  0  0  0  0  0  0  0  0  0  0
  146.3088  138.1063  151.7258 C   0  0  0  0  0  0  0  0  0  0  0  0
  147.1040  137.9498  152.9453 N   0  0  0  0  0  0  0  0  0  0  0  0
  147.7155  139.0565  153.4394 C   0  0  0  0  0  0  0  0  0  0  0  0
  147.1796  140.2866  153.2155 N   0  0  0  0  0  0  0  0  0  0  0  0
  147.7654  141.3798  153.7116 C   0  0  0  0  0  0  0  0  0  0  0  0
  148.8777  141.4711  154.4423 N   0  0  0  0  0  0  0  0  0  0  0  0
  149.4296  140.2436  154.6597 C   0  0  0  0  0  0  0  0  0  0  0  0
  148.9171  138.9966  154.2009 C   0  0  0  0  0  0  0  0  0  0  0  0
  149.7514  137.9637  154.6126 N   0  0  0  0  0  0  0  0  0  0  0  0
  150.6945  138.5639  155.2856 C   0  0  0  0  0  0  0  0  0  0  0  0
  150.5859  139.9348  155.3553 N   0  0  0  0  0  0  0  0  0  0  0  0
  151.4982  140.8425  156.0350 C   0  0  0  0  0  0  0  0  0  0  0  0
  151.4695  140.7378  157.5746 C   0  0  0  0  0  0  0  0  0  0  0  0
  151.9330  139.3462  158.0405 C   0  0  0  0  0  0  0  0  0  0  0  0
  153.2560  139.0752  157.6230 O   0  0  0  0  0  0  0  0  0  0  0  0
  152.1091  141.9049  158.3413 C   0  0  0  0  0  0  0  0  0  0  0  0
  150.9410  142.0713  159.1717 O   0  0  0  0  0  0  0  0  0  0  0  0
  150.1909  141.2497  158.2525 C   0  0  0  0  0  0  0  0  0  0  0  0
  146.5158  137.0802  153.9642 C   0  0  0  0  0  0  0  0  0  0  0  0
  146.2007  135.6868  153.3885 C   0  0  0  0  0  0  0  0  0  0  0  0
  145.2263  134.4417  151.5063 N   0  0  0  0  0  0  0  0  0  0  0  0
  146.9182  136.3061  150.7111 H   0  0  0  0  0  0  0  0  0  0  0  0
  145.3453  136.8800  150.2261 H   0  0  0  0  0  0  0  0  0  0  0  0
  146.8526  138.7162  151.0033 H   0  0  0  0  0  0  0  0  0  0  0  0
  145.3867  138.6391  151.9598 H   0  0  0  0  0  0  0  0  0  0  0  0
  147.2714  142.3147  153.4910 H   0  0  0  0  0  0  0  0  0  0  0  0
  151.5069  138.0198  155.7451 H   0  0  0  0  0  0  0  0  0  0  0  0
  152.5027  140.6494  155.6564 H   0  0  0  0  0  0  0  0  0  0  0  0
  151.2616  141.8597  155.7205 H   0  0  0  0  0  0  0  0  0  0  0  0
  151.8689  139.2410  159.1236 H   0  0  0  0  0  0  0  0  0  0  0  0
  151.2882  138.5704  157.6261 H   0  0  0  0  0  0  0  0  0  0  0  0
  153.2402  138.3293  157.0427 H   0  0  0  0  0  0  0  0  0  0  0  0
  152.9979  141.6306  158.9106 H   0  0  0  0  0  0  0  0  0  0  0  0
  152.2940  142.7926  157.7354 H   0  0  0  0  0  0  0  0  0  0  0  0
  149.5538  141.8496  157.6004 H   0  0  0  0  0  0  0  0  0  0  0  0
  149.6118  140.4753  158.7569 H   0  0  0  0  0  0  0  0  0  0  0  0
  147.1799  136.9672  154.8204 H   0  0  0  0  0  0  0  0  0  0  0  0
  145.6078  137.5493  154.3439 H   0  0  0  0  0  0  0  0  0  0  0  0
  145.6995  135.0841  154.1475 H   0  0  0  0  0  0  0  0  0  0  0  0
  147.1402  135.1763  153.1716 H   0  0  0  0  0  0  0  0  0  0  0  0
  146.0157  133.8991  151.1888 H   0  0  0  0  0  0  0  0  0  0  0  0
  1  2  2  0  0  0  0
  2 28  1  0  0  0  0
  2  3  1  0  0  0  0
  3  4  1  0  0  0  0
  4  5  2  0  0  0  0
  4  6  1  0  0  0  0
  6 27  1  0  0  0  0
  6  7  1  0  0  0  0
  6 28  1  0  0  0  0
  7  8  1  0  0  0  0
  7 29  1  0  0  0  0
  7 30  1  0  0  0  0
  8  9  1  0  0  0  0
  8 31  1  0  0  0  0
  8 32  1  0  0  0  0
  9 10  1  0  0  0  0
  9 26  1  0  0  0  0
 10 15  1  0  0  0  0
 10 11  2  0  0  0  0
 11 12  1  0  0  0  0
 12 13  2  0  0  0  0
 12 33  1  0  0  0  0
 13 14  1  0  0  0  0
 14 18  1  0  0  0  0
 14 15  2  0  0  0  0
 15 16  1  0  0  0  0
 16 17  2  0  0  0  0
 17 18  1  0  0  0  0
 17 34  1  0  0  0  0
 18 19  1  0  0  0  0
 19 20  1  0  0  0  0
 19 35  1  0  0  0  0
 19 36  1  0  0  0  0
 20 25  1  0  0  0  0
 20 21  1  0  0  0  0
 20 23  1  0  0  0  0
 21 22  1  0  0  0  0
 21 37  1  0  0  0  0
 21 38  1  0  0  0  0
 22 39  1  0  0  0  0
 23 24  1  0  0  0  0
 23 40  1  0  0  0  0
 23 41  1  0  0  0  0
 24 25  1  0  0  0  0
 25 42  1  0  0  0  0
 25 43  1  0  0  0  0
 26 27  1  0  0  0  0
 26 44  1  0  0  0  0
 26 45  1  0  0  0  0
 27 46  1  0  0  0  0
 27 47  1  0  0  0  0
 28 48  1  0  0  0  0
M  CHG  1   3  -1
M  END
> <s_m_source_file>
AV-unprocessed.smi

> <i_m_source_file_index>
188

> <i_lp_mmshare_version>
43012

> <i_f3d_flags>
0

> <s_epik_input>
Tz1DKFtOSF0xKVtOSF1DKD1PKUMxMltDSDJdW0NIMl1OKFtDSDJdW0NIMl0yKWMobltjSF1uMyljKGMzNCluW2NIXW40W0NIMl1DNShbQ0gyXVtPSF0pW0NIMl1PW0NIMl01

> <s_epik_cmdline>
J2VwaWtfcHl0aG9uJywgJy1waCcsICc3LjAnLCAnLXRuJywgJzgnLCAnLW1hJywgJzIwMCcsICctbWV0YWxfYmluZGluZycsICctaW1hZScsICc8aW5maWxlLm1hZT4nLCAnLW9tYWUnLCAnPG91dGZpbGUubWFlPic=

> <r_lp_tautomer_probability>
1

> <r_epik_Ionization_Penalty>
2.63631

> <r_epik_Ionization_Penalty_Charging>
2.63472

> <r_epik_Ionization_Penalty_Neutral>
0.0015918

> <r_epik_State_Penalty>
2.63293

> <r_epik_Charging_Adjusted_Penalty>
5.26764

> <i_epik_Tot_Q>
-1

> <i_epik_Tot_abs_Q>
1

> <r_epik_Metal_State_Penalty>
0.446503

> <b_epik_Metal_Only>
1

> <s_lp_Force_Field>
OPLS_2005

> <r_lp_Energy>
37.7824

> <b_lp_Chiralities_Consistent>
1

> <s_lp_Variant>
AV-unprocessed.smi:188-2

> <Gold.Version>
5.8.1

> <Gold.Id.Protein>
6NUR|6NUR_protein|mol2

> <Gold.PLP.Fitness>
38.0682

> <Gold.PLP.PLP>
-35.7723

> <Gold.PLP.part.hbond>
-1.5843

> <Gold.PLP.part.metal>
0.0000

> <Gold.PLP.part.buried>
-4.1651

> <Gold.PLP.part.nonpolar>
-32.9070

> <Gold.PLP.part.repulsive>
3.4289

> <Gold.PLP.ligand.clash>
0.0000

> <Gold.PLP.ligand.torsion>
0.7050

> <Gold.PLP.Chemscore.Hbond>
1.0000

> <Gold.PLP.Chemscore.CHOScore>
0.0000

> <Gold.PLP.Chemscore.Metal>
0.0000

> <Gold.Chemscore.Hbonds>
donor molecule, donor type, donor heavy atom, donor atom, acceptor molecule, acceptor atom, score
      P1  H  7997  8009       L1    22  1.00

> <Gold.PLP.Chemscore.Internal.Correction>
0.7059

> <Gold.Rescore>
     Score         DG    S(hbond)    S(metal)    S(lipo)     H(rot)  DE(clash)    DE(int)     intcor
      5.68      -8.53       0.98        0.00      60.42       2.84       2.18       0.67       ----

> <Gold.Chemscore.Fitness>
5.6844

> <Gold.Chemscore.DG>
-8.5346

> <Gold.Chemscore.ZeroCoef>
-5.4800

> <Gold.Chemscore.Hbond>
0.9785

> <Gold.Chemscore.Metal>
0.0000

> <Gold.Chemscore.Lipo>
60.4231

> <Gold.Chemscore.Internal_Hbond>
0.0000

> <Gold.Chemscore.DEClash>
2.1810

> <Gold.Chemscore.DEInternal>
0.6691

> <Gold.Chemscore.Rot>
2.8450

> <Gold.Chemscore.Internal.Correction>
   9.000000E+99

> <Gold.Chemscore.Hbonds>
donor molecule, donor type, donor heavy atom, donor atom, acceptor molecule, acceptor atom, score
      P1  H  7997  8009       L1    22  0.35

> <Gold.Chemscore.Hbond.Weighted>
-3.2681

> <Gold.Chemscore.Metal.Weighted>
-0.0000

> <Gold.Chemscore.Lipo.Weighted>
-7.0695

> <Gold.Chemscore.Internal_Hbond.Weighted>
0.0000

> <Gold.Chemscore.DEClash.Weighted>
2.1810

> <Gold.Chemscore.DEInternal.Weighted>
0.6691

> <Gold.Chemscore.Rot.Weighted>
7.2831

> <Gold.Chemscore.Internal.Correction.Weighted>
   9.000000E+99

> <Gold.Protein.RotatedTorsions>
[ 6907 6896 6895 6894 ] final  102.59 input  -60.11 | X-H torsion
[ 7974 7965 7964 7962 ] final  114.09 input  175.53 | X-H torsion
[ 8008 7997 7996 7995 ] final  161.31 input   59.86 | X-H torsion
[ 10167 10162 10161 10158 ] final  144.10 input  -65.29 | X-H torsion
[ 10718 10713 10712 10709 ] final  167.74 input   66.30 | X-H torsion
[ 10763 10752 10751 10750 ] final  -63.85 input  -60.55 | X-H torsion
[ 11005 11000 10999 10996 ] final  146.20 input  -57.11 | X-H torsion

> <Gold.Protein.ActiveResidues>
 VAL166  LYS551  ARG553  GLY616  TRP617  ASP618  TYR619  PRO620  LYS621  CYS622 
 ASP623  PHE694  ASN695  SER759  ASP760  ASP761  ALA762  ILE779  LEU786  VAL792 
 PHE793  MET794  SER795  GLU796  ALA797  LYS798  CYS799  TRP800  GLU811  SER814 

> <Gold.Protein.RotatedAtoms>
  152.5319  133.9953  159.7869 H   0  0  0  0  0  0  0  0  0  0  0  0  # atno 6907 bound_to 6896
  151.0181  133.5894  159.2681 H   0  0  0  0  0  0  0  0  0  0  0  0  # atno 6908 bound_to 6896
  151.2943  135.0757  159.9269 H   0  0  0  0  0  0  0  0  0  0  0  0  # atno 6909 bound_to 6896
  145.2087  139.2916  143.4279 H   0  0  0  0  0  0  0  0  0  0  0  0  # atno 7974 bound_to 7965
  156.2112  140.1780  156.7691 H   0  0  0  0  0  0  0  0  0  0  0  0  # atno 8008 bound_to 7997
  154.5725  140.0680  156.9015 H   0  0  0  0  0  0  0  0  0  0  0  0  # atno 8009 bound_to 7997
  155.2647  140.3338  155.4272 H   0  0  0  0  0  0  0  0  0  0  0  0  # atno 8010 bound_to 7997
  139.4954  144.5995  151.6511 H   0  0  0  0  0  0  0  0  0  0  0  0  # atno 10167 bound_to 10162
  157.0472  131.0303  151.2693 H   0  0  0  0  0  0  0  0  0  0  0  0  # atno 10718 bound_to 10713
  154.3212  135.6196  153.5509 H   0  0  0  0  0  0  0  0  0  0  0  0  # atno 10763 bound_to 10752
  152.9820  135.5724  154.5067 H   0  0  0  0  0  0  0  0  0  0  0  0  # atno 10764 bound_to 10752
  154.4736  135.2860  155.1601 H   0  0  0  0  0  0  0  0  0  0  0  0  # atno 10765 bound_to 10752
  140.0774  134.9117  157.1444 H   0  0  0  0  0  0  0  0  0  0  0  0  # atno 11005 bound_to 11000
  146.3402  140.2356  142.8594 LP  0  0  0  0  0  0  0  0  0  0  0  0  # atno 17320 bound_to 7965
  144.9876  140.8518  143.5359 LP  0  0  0  0  0  0  0  0  0  0  0  0  # atno 17321 bound_to 7965
  140.5641  144.0219  150.6184 LP  0  0  0  0  0  0  0  0  0  0  0  0  # atno 17342 bound_to 10162
  140.3315  143.3075  152.0683 LP  0  0  0  0  0  0  0  0  0  0  0  0  # atno 17343 bound_to 10162
  157.5059  130.7908  149.7653 LP  0  0  0  0  0  0  0  0  0  0  0  0  # atno 17370 bound_to 10713
  156.0019  130.3875  150.2573 LP  0  0  0  0  0  0  0  0  0  0  0  0  # atno 17371 bound_to 10713
  140.3538  134.2569  155.7195 LP  0  0  0  0  0  0  0  0  0  0  0  0  # atno 17394 bound_to 11000
  141.2034  133.7912  157.0340 LP  0  0  0  0  0  0  0  0  0  0  0  0  # atno 17395 bound_to 11000

$$$$
