AV-unprocessed.smi:158|AV-procd|sdf|1338|dock3
  -GOLD-   2262019 33D 1   1.00000     0.00000
 Structure written by MMmdl.
 31 33  0  0  0  0  0  0  0  0  1 V2000
  152.0857  138.3395  154.5541 N   0  0  0  0  0  0  0  0  0  0  0  0
  151.3454  139.3705  154.9861 C   0  0  0  0  0  0  0  0  0  0  0  0
  150.2828  139.7570  154.2422 N   0  0  0  0  0  0  0  0  0  0  0  0
  149.5187  140.7825  154.6376 C   0  0  0  0  0  0  0  0  0  0  0  0
  148.1924  141.1938  153.6153 Cl  0  0  0  0  0  0  0  0  0  0  0  0
  149.6679  141.5272  155.7376 N   0  0  0  0  0  0  0  0  0  0  0  0
  150.7371  141.1414  156.4919 C   0  0  0  0  0  0  0  0  0  0  0  0
  151.6234  140.0747  156.1834 C   0  0  0  0  0  0  0  0  0  0  0  0
  152.5962  139.9670  157.1678 N   0  0  0  0  0  0  0  0  0  0  0  0
  152.2966  140.9200  158.0095 C   0  0  0  0  0  0  0  0  0  0  0  0
  151.1911  141.6749  157.6821 N   0  0  0  0  0  0  0  0  0  0  0  0
  150.6133  142.8240  158.4505 C   0  0  1  0  0  0  0  0  0  0  0  0
  150.9422  142.6493  159.7954 O   0  0  0  0  0  0  0  0  0  0  0  0
  151.4732  143.8562  160.3321 C   0  0  1  0  0  0  0  0  0  0  0  0
  152.4239  143.5258  161.4941 C   0  0  0  0  0  0  0  0  0  0  0  0
  151.7212  142.8974  162.5453 O   0  0  0  0  0  0  0  0  0  0  0  0
  152.1340  144.5431  159.1325 C   0  0  2  0  0  0  0  0  0  0  0  0
  152.1959  145.9461  159.2956 O   0  0  0  0  0  0  0  0  0  0  0  0
  151.1940  144.1755  157.9981 C   0  0  1  0  0  0  0  0  0  0  0  0
  151.8224  144.0841  156.8236 F   0  0  0  0  0  0  0  0  0  0  0  0
  149.5365  142.7463  158.2963 H   0  0  0  0  0  0  0  0  0  0  0  0
  150.6247  144.4448  160.6870 H   0  0  0  0  0  0  0  0  0  0  0  0
  153.1306  144.1406  158.9505 H   0  0  0  0  0  0  0  0  0  0  0  0
  150.3745  144.8888  157.8995 H   0  0  0  0  0  0  0  0  0  0  0  0
  152.8838  138.0340  155.0925 H   0  0  0  0  0  0  0  0  0  0  0  0
  151.8444  137.8697  153.6935 H   0  0  0  0  0  0  0  0  0  0  0  0
  152.8782  141.0979  158.9025 H   0  0  0  0  0  0  0  0  0  0  0  0
  153.2030  142.8425  161.1554 H   0  0  0  0  0  0  0  0  0  0  0  0
  152.9217  144.4221  161.8651 H   0  0  0  0  0  0  0  0  0  0  0  0
  151.4613  143.5576  163.1695 H   0  0  0  0  0  0  0  0  0  0  0  0
  152.6797  146.3136  158.5721 H   0  0  0  0  0  0  0  0  0  0  0  0
  1  2  1  0  0  0  0
  1 25  1  0  0  0  0
  1 26  1  0  0  0  0
  2  8  1  0  0  0  0
  2  3  2  0  0  0  0
  3  4  1  0  0  0  0
  4  5  1  0  0  0  0
  4  6  2  0  0  0  0
  6  7  1  0  0  0  0
  7 11  1  0  0  0  0
  7  8  2  0  0  0  0
  8  9  1  0  0  0  0
  9 10  2  0  0  0  0
 10 11  1  0  0  0  0
 10 27  1  0  0  0  0
 11 12  1  0  0  0  0
 12 21  1  0  0  0  0
 12 19  1  0  0  0  0
 12 13  1  0  0  0  0
 13 14  1  0  0  0  0
 14 22  1  0  0  0  0
 14 15  1  0  0  0  0
 14 17  1  0  0  0  0
 15 16  1  0  0  0  0
 15 28  1  0  0  0  0
 15 29  1  0  0  0  0
 16 30  1  0  0  0  0
 17 23  1  0  0  0  0
 17 18  1  0  0  0  0
 17 19  1  0  0  0  0
 18 31  1  0  0  0  0
 19 24  1  0  0  0  0
 19 20  1  0  0  0  0
M  END
> <s_m_source_file>
AV-unprocessed.smi

> <i_m_source_file_index>
158

> <i_lp_mmshare_version>
43012

> <i_f3d_flags>
0

> <s_epik_input>
Q2xjKG4xKW5jKFtOSDJdKWMoYzEyKW5bY0hdbjJbQ0BASF0zT1tDQEhdKFtDSDJdW09IXSlbQ0BASF0oW09IXSlbQ0BASF0zRg==

> <s_epik_cmdline>
J2VwaWtfcHl0aG9uJywgJy1waCcsICc3LjAnLCAnLXRuJywgJzgnLCAnLW1hJywgJzIwMCcsICctbWV0YWxfYmluZGluZycsICctaW1hZScsICc8aW5maWxlLm1hZT4nLCAnLW9tYWUnLCAnPG91dGZpbGUubWFlPic=

> <r_lp_tautomer_probability>
1

> <r_epik_Ionization_Penalty>
6.51543e-05

> <r_epik_Ionization_Penalty_Charging>
0

> <r_epik_Ionization_Penalty_Neutral>
6.51543e-05

> <r_epik_State_Penalty>
-0

> <r_epik_Charging_Adjusted_Penalty>
0

> <i_epik_Tot_Q>
0

> <i_epik_Tot_abs_Q>
0

> <r_epik_Metal_State_Penalty>
-0

> <b_epik_Metal_Only>
0

> <s_epik_Chemistry_Notes>
This compound contains an acetal/aminal-like group ( X-CH(R)-Y where X, Y are N, S, or O) that may be acid/base labile, releasing an aldehyde.

> <s_lp_Force_Field>
OPLS_2005

> <r_lp_Energy>
35.9184

> <b_lp_Chiralities_Consistent>
1

> <s_lp_Variant>
AV-unprocessed.smi:158-16

> <Gold.Version>
5.8.1

> <Gold.Id.Protein>
6NUR|6NUR_protein|mol2

> <Gold.PLP.Fitness>
46.3752

> <Gold.PLP.PLP>
-41.7177

> <Gold.PLP.part.hbond>
-5.9383

> <Gold.PLP.part.metal>
0.0000

> <Gold.PLP.part.buried>
-2.1558

> <Gold.PLP.part.nonpolar>
-33.4808

> <Gold.PLP.part.repulsive>
0.4342

> <Gold.PLP.ligand.clash>
0.0000

> <Gold.PLP.ligand.torsion>
0.7403

> <Gold.PLP.Chemscore.Hbond>
2.0350

> <Gold.PLP.Chemscore.CHOScore>
0.0000

> <Gold.PLP.Chemscore.Metal>
0.0000

> <Gold.Chemscore.Hbonds>
donor molecule, donor type, donor heavy atom, donor atom, acceptor molecule, acceptor atom, score
      P1  H  6933  6945       L1    16  0.98
      P1  H  7989  7998       L1     3  0.04
      P1  H  7997  8009       L1     9  1.00

> <Gold.PLP.Chemscore.Internal.Correction>
0.0331

> <Gold.Rescore>
     Score         DG    S(hbond)    S(metal)    S(lipo)     H(rot)  DE(clash)    DE(int)     intcor
      6.48      -9.67       1.53        0.00      60.46       3.12       2.44       0.75       ----

> <Gold.Chemscore.Fitness>
6.4839

> <Gold.Chemscore.DG>
-9.6736

> <Gold.Chemscore.ZeroCoef>
-5.4800

> <Gold.Chemscore.Hbond>
1.5314

> <Gold.Chemscore.Metal>
0.0000

> <Gold.Chemscore.Lipo>
60.4596

> <Gold.Chemscore.Internal_Hbond>
0.0000

> <Gold.Chemscore.DEClash>
2.4422

> <Gold.Chemscore.DEInternal>
0.7474

> <Gold.Chemscore.Rot>
3.1230

> <Gold.Chemscore.Internal.Correction>
   9.000000E+99

> <Gold.Chemscore.Hbonds>
donor molecule, donor type, donor heavy atom, donor atom, acceptor molecule, acceptor atom, score
      P1  H  6933  6945       L1    16  0.40
      P1  H  7997  8009       L1     9  0.72

> <Gold.Chemscore.Hbond.Weighted>
-5.1147

> <Gold.Chemscore.Metal.Weighted>
-0.0000

> <Gold.Chemscore.Lipo.Weighted>
-7.0738

> <Gold.Chemscore.Internal_Hbond.Weighted>
0.0000

> <Gold.Chemscore.DEClash.Weighted>
2.4422

> <Gold.Chemscore.DEInternal.Weighted>
0.7474

> <Gold.Chemscore.Rot.Weighted>
7.9950

> <Gold.Chemscore.Internal.Correction.Weighted>
   9.000000E+99

> <Gold.Protein.RotatedTorsions>
[ 6907 6896 6895 6894 ] final  -26.28 input  -60.11 | X-H torsion
[ 7974 7965 7964 7962 ] final -127.27 input  175.53 | X-H torsion
[ 8008 7997 7996 7995 ] final -175.56 input   59.86 | X-H torsion
[ 10167 10162 10161 10158 ] final   24.65 input  -65.29 | X-H torsion
[ 10718 10713 10712 10709 ] final  -73.14 input   66.30 | X-H torsion
[ 10763 10752 10751 10750 ] final -178.33 input  -60.55 | X-H torsion
[ 11005 11000 10999 10996 ] final   12.14 input  -57.11 | X-H torsion

> <Gold.Protein.ActiveResidues>
 VAL166  LYS551  ARG553  GLY616  TRP617  ASP618  TYR619  PRO620  LYS621  CYS622 
 ASP623  PHE694  ASN695  SER759  ASP760  ASP761  ALA762  ILE779  LEU786  VAL792 
 PHE793  MET794  SER795  GLU796  ALA797  LYS798  CYS799  TRP800  GLU811  SER814 

> <Gold.Protein.RotatedAtoms>
  151.1633  135.0283  159.8719 H   0  0  0  0  0  0  0  0  0  0  0  0  # atno 6907 bound_to 6896
  152.5451  134.1254  159.8427 H   0  0  0  0  0  0  0  0  0  0  0  0  # atno 6908 bound_to 6896
  151.1352  133.4963  159.2630 H   0  0  0  0  0  0  0  0  0  0  0  0  # atno 6909 bound_to 6896
  144.9788  140.7620  143.4625 H   0  0  0  0  0  0  0  0  0  0  0  0  # atno 7974 bound_to 7965
  155.9840  140.1187  157.0700 H   0  0  0  0  0  0  0  0  0  0  0  0  # atno 8008 bound_to 7997
  154.4191  140.1139  156.5542 H   0  0  0  0  0  0  0  0  0  0  0  0  # atno 8009 bound_to 7997
  155.6432  140.3473  155.4724 H   0  0  0  0  0  0  0  0  0  0  0  0  # atno 8010 bound_to 7997
  140.5170  144.0065  150.6399 H   0  0  0  0  0  0  0  0  0  0  0  0  # atno 10167 bound_to 10162
  156.0292  130.4387  150.2698 H   0  0  0  0  0  0  0  0  0  0  0  0  # atno 10718 bound_to 10713
  154.5490  135.2811  155.1026 H   0  0  0  0  0  0  0  0  0  0  0  0  # atno 10763 bound_to 10752
  154.2479  135.6345  153.5233 H   0  0  0  0  0  0  0  0  0  0  0  0  # atno 10764 bound_to 10752
  152.9998  135.5575  154.6051 H   0  0  0  0  0  0  0  0  0  0  0  0  # atno 10765 bound_to 10752
  140.4953  134.0800  155.7781 H   0  0  0  0  0  0  0  0  0  0  0  0  # atno 11005 bound_to 11000
  145.2451  139.2056  143.4972 LP  0  0  0  0  0  0  0  0  0  0  0  0  # atno 17320 bound_to 7965
  146.3402  140.2353  142.8594 LP  0  0  0  0  0  0  0  0  0  0  0  0  # atno 17321 bound_to 7965
  140.3404  143.3023  152.0594 LP  0  0  0  0  0  0  0  0  0  0  0  0  # atno 17342 bound_to 10162
  139.4912  144.6447  151.6804 LP  0  0  0  0  0  0  0  0  0  0  0  0  # atno 17343 bound_to 10162
  157.0801  131.0141  151.3159 LP  0  0  0  0  0  0  0  0  0  0  0  0  # atno 17370 bound_to 10713
  157.4934  130.7836  149.7530 LP  0  0  0  0  0  0  0  0  0  0  0  0  # atno 17371 bound_to 10713
  141.1463  133.9049  157.2207 LP  0  0  0  0  0  0  0  0  0  0  0  0  # atno 17394 bound_to 11000
  139.9745  135.0118  156.9596 LP  0  0  0  0  0  0  0  0  0  0  0  0  # atno 17395 bound_to 11000

$$$$
