AV-unprocessed.smi:2886|AV-procd|sdf|11091|dock5
  -GOLD-   2272015563D 1   1.00000     0.00000
 Structure written by MMmdl.
 28 30  0  0  0  0  0  0  0  0  3 V2000
  153.3164  136.4258  160.5799 O   0  0  0  0  0  0  0  0  0  0  0  0
  153.6521  137.6084  160.5933 C   0  0  0  0  0  0  0  0  0  0  0  0
  154.7479  138.0679  161.2679 N   0  5  0  0  0  0  0  0  0  0  0  0
  155.0837  139.3388  161.2648 N   0  3  0  0  0  0  0  0  0  0  0  0
  154.4021  140.2787  160.6176 C   0  0  0  0  0  0  0  0  0  0  0  0
  153.2421  139.9326  159.8697 C   0  0  0  0  0  0  0  0  0  0  0  0
  152.4964  140.8804  159.1798 N   0  0  0  0  0  0  0  0  0  0  0  0
  152.7195  142.3161  159.0789 C   0  0  2  0  0  0  0  0  0  0  0  0
  152.7583  143.0044  160.4457 C   0  0  0  0  0  0  0  0  0  0  0  0
  151.6697  144.0736  160.2876 C   0  0  1  0  0  0  0  0  0  0  0  0
  152.0714  145.1719  159.2926 C   0  0  0  0  0  0  0  0  0  0  0  0
  151.9390  144.4457  157.9540 C   0  0  0  0  0  0  0  0  0  0  0  0
  151.5407  143.0325  158.3999 C   0  0  2  0  0  0  0  0  0  0  0  0
  150.7256  143.3521  159.5163 O   0  0  0  0  0  0  0  0  0  0  0  0
  152.8684  138.6205  159.8611 C   0  0  0  0  0  0  0  0  0  0  0  0
  151.4666  138.1025  158.9841 Cl  0  0  0  0  0  0  0  0  0  0  0  0
  155.9127  139.6638  161.7867 H   0  0  0  0  0  0  0  0  0  0  0  0
  154.7694  141.2940  160.6954 H   0  0  0  0  0  0  0  0  0  0  0  0
  151.7928  140.5240  158.5480 H   0  0  0  0  0  0  0  0  0  0  0  0
  153.6300  142.5112  158.5124 H   0  0  0  0  0  0  0  0  0  0  0  0
  152.4957  142.3143  161.2492 H   0  0  0  0  0  0  0  0  0  0  0  0
  153.7348  143.4329  160.6734 H   0  0  0  0  0  0  0  0  0  0  0  0
  151.2819  144.4522  161.2336 H   0  0  0  0  0  0  0  0  0  0  0  0
  151.3802  146.0144  159.3406 H   0  0  0  0  0  0  0  0  0  0  0  0
  153.0799  145.5452  159.4742 H   0  0  0  0  0  0  0  0  0  0  0  0
  151.1486  144.8959  157.3525 H   0  0  0  0  0  0  0  0  0  0  0  0
  152.8600  144.4572  157.3703 H   0  0  0  0  0  0  0  0  0  0  0  0
  151.0433  142.4516  157.6221 H   0  0  0  0  0  0  0  0  0  0  0  0
  1  2  2  0  0  0  0
  2  3  1  0  0  0  0
  2 15  1  0  0  0  0
  3  4  1  0  0  0  0
  4  5  2  0  0  0  0
  4 17  1  0  0  0  0
  5  6  1  0  0  0  0
  5 18  1  0  0  0  0
  6 15  2  0  0  0  0
  6  7  1  0  0  0  0
  7  8  1  0  0  0  0
  7 19  1  0  0  0  0
  8 13  1  0  0  0  0
  8  9  1  0  0  0  0
  8 20  1  0  0  0  0
  9 10  1  0  0  0  0
  9 21  1  0  0  0  0
  9 22  1  0  0  0  0
 10 14  1  0  0  0  0
 10 11  1  0  0  0  0
 10 23  1  0  0  0  0
 11 12  1  0  0  0  0
 11 24  1  0  0  0  0
 11 25  1  0  0  0  0
 12 13  1  0  0  0  0
 12 26  1  0  0  0  0
 12 27  1  0  0  0  0
 13 14  1  0  0  0  0
 13 28  1  0  0  0  0
 15 16  1  0  0  0  0
M  CHG  1   3  -1
M  CHG  1   4   1
M  END
> <s_m_source_file>
AV-unprocessed.smi

> <i_m_source_file_index>
2886

> <i_lp_mmshare_version>
43012

> <i_f3d_flags>
0

> <s_epik_input>
Tz1jMVtuSF1uW2NIXWMoYzFDbClbTkhdW0NASF0oW0NIMl1bQ0BASF0yMylbQ0BASF0oTzMpW0NIMl1bQ0gyXTI=

> <s_epik_cmdline>
J2VwaWtfcHl0aG9uJywgJy1waCcsICc3LjAnLCAnLXRuJywgJzgnLCAnLW1hJywgJzIwMCcsICctbWV0YWxfYmluZGluZycsICctaW1hZScsICc8aW5maWxlLm1hZT4nLCAnLW9tYWUnLCAnPG91dGZpbGUubWFlPic=

> <r_lp_tautomer_probability>
0.0138196

> <r_epik_Ionization_Penalty>
2.43027

> <r_epik_Ionization_Penalty_Charging>
2.43027

> <r_epik_Ionization_Penalty_Neutral>
1.33267e-06

> <r_epik_State_Penalty>
2.7044

> <r_epik_Charging_Adjusted_Penalty>
5.13467

> <i_epik_Tot_Q>
0

> <i_epik_Tot_abs_Q>
2

> <r_epik_Metal_State_Penalty>
2.98589

> <b_epik_Metal_Only>
0

> <s_lp_Force_Field>
OPLS_2005

> <r_lp_Energy>
57.4961

> <b_lp_Chiralities_Consistent>
1

> <s_lp_Variant>
AV-unprocessed.smi:2886-5

> <Gold.Version>
5.8.1

> <Gold.Id.Protein>
6NUR|6NUR_protein|mol2

> <Gold.PLP.Fitness>
37.3070

> <Gold.PLP.PLP>
-34.3989

> <Gold.PLP.part.hbond>
-1.3714

> <Gold.PLP.part.metal>
0.0000

> <Gold.PLP.part.buried>
-5.0512

> <Gold.PLP.part.nonpolar>
-28.4155

> <Gold.PLP.part.repulsive>
0.1709

> <Gold.PLP.ligand.clash>
0.0000

> <Gold.PLP.ligand.torsion>
0.0422

> <Gold.PLP.Chemscore.Hbond>
0.9913

> <Gold.PLP.Chemscore.CHOScore>
0.0000

> <Gold.PLP.Chemscore.Metal>
0.0000

> <Gold.Chemscore.Hbonds>
donor molecule, donor type, donor heavy atom, donor atom, acceptor molecule, acceptor atom, score
      P1  H  6896  6909       L1     1  1.00

> <Gold.PLP.Chemscore.Internal.Correction>
0.0187

> <Gold.Rescore>
     Score         DG    S(hbond)    S(metal)    S(lipo)     H(rot)  DE(clash)    DE(int)     intcor
     18.03     -18.08       1.00        0.00     101.04       1.00       0.02       0.02       ----

> <Gold.Chemscore.Fitness>
18.0341

> <Gold.Chemscore.DG>
-18.0764

> <Gold.Chemscore.ZeroCoef>
-5.4800

> <Gold.Chemscore.Hbond>
0.9983

> <Gold.Chemscore.Metal>
0.0000

> <Gold.Chemscore.Lipo>
101.0441

> <Gold.Chemscore.Internal_Hbond>
0.0000

> <Gold.Chemscore.DEClash>
0.0211

> <Gold.Chemscore.DEInternal>
0.0211

> <Gold.Chemscore.Rot>
1.0000

> <Gold.Chemscore.Internal.Correction>
   9.000000E+99

> <Gold.Chemscore.Hbonds>
donor molecule, donor type, donor heavy atom, donor atom, acceptor molecule, acceptor atom, score
      P1  H  6896  6909       L1     1  1.00

> <Gold.Chemscore.Hbond.Weighted>
-3.3342

> <Gold.Chemscore.Metal.Weighted>
-0.0000

> <Gold.Chemscore.Lipo.Weighted>
-11.8222

> <Gold.Chemscore.Internal_Hbond.Weighted>
0.0000

> <Gold.Chemscore.DEClash.Weighted>
0.0211

> <Gold.Chemscore.DEInternal.Weighted>
0.0211

> <Gold.Chemscore.Rot.Weighted>
2.5600

> <Gold.Chemscore.Internal.Correction.Weighted>
   9.000000E+99

> <Gold.Protein.RotatedTorsions>
[ 6907 6896 6895 6894 ] final  159.62 input  -60.11 | X-H torsion
[ 7974 7965 7964 7962 ] final  135.53 input  175.53 | X-H torsion
[ 8008 7997 7996 7995 ] final  140.91 input   59.86 | X-H torsion
[ 10167 10162 10161 10158 ] final   94.51 input  -65.29 | X-H torsion
[ 10718 10713 10712 10709 ] final -121.79 input   66.30 | X-H torsion
[ 10763 10752 10751 10750 ] final  -17.63 input  -60.55 | X-H torsion
[ 11005 11000 10999 10996 ] final -125.55 input  -57.11 | X-H torsion

> <Gold.Protein.ActiveResidues>
 VAL166  LYS551  ARG553  GLY616  TRP617  ASP618  TYR619  PRO620  LYS621  CYS622 
 ASP623  PHE694  ASN695  SER759  ASP760  ASP761  ALA762  ILE779  LEU786  VAL792 
 PHE793  MET794  SER795  GLU796  ALA797  LYS798  CYS799  TRP800  GLU811  SER814 

> <Gold.Protein.RotatedAtoms>
  151.9828  133.3763  159.4113 H   0  0  0  0  0  0  0  0  0  0  0  0  # atno 6907 bound_to 6896
  150.6932  134.4020  159.5132 H   0  0  0  0  0  0  0  0  0  0  0  0  # atno 6908 bound_to 6896
  152.1742  134.8808  160.0582 H   0  0  0  0  0  0  0  0  0  0  0  0  # atno 6909 bound_to 6896
  144.9654  139.4664  143.5459 H   0  0  0  0  0  0  0  0  0  0  0  0  # atno 7974 bound_to 7965
  156.2973  140.2329  156.4478 H   0  0  0  0  0  0  0  0  0  0  0  0  # atno 8008 bound_to 7997
  154.8128  140.0442  157.1376 H   0  0  0  0  0  0  0  0  0  0  0  0  # atno 8009 bound_to 7997
  154.9403  140.3028  155.5127 H   0  0  0  0  0  0  0  0  0  0  0  0  # atno 8010 bound_to 7997
  139.8077  144.6787  150.9681 H   0  0  0  0  0  0  0  0  0  0  0  0  # atno 10167 bound_to 10162
  156.1365  130.6434  150.9705 H   0  0  0  0  0  0  0  0  0  0  0  0  # atno 10718 bound_to 10713
  153.5768  135.7006  153.5480 H   0  0  0  0  0  0  0  0  0  0  0  0  # atno 10763 bound_to 10752
  153.3296  135.4051  155.1484 H   0  0  0  0  0  0  0  0  0  0  0  0  # atno 10764 bound_to 10752
  154.8624  135.3715  154.5294 H   0  0  0  0  0  0  0  0  0  0  0  0  # atno 10765 bound_to 10752
  140.9752  134.0749  157.3826 H   0  0  0  0  0  0  0  0  0  0  0  0  # atno 11005 bound_to 11000
  146.3366  139.8831  142.8821 LP  0  0  0  0  0  0  0  0  0  0  0  0  # atno 17320 bound_to 7965
  145.2638  141.0086  143.3811 LP  0  0  0  0  0  0  0  0  0  0  0  0  # atno 17321 bound_to 7965
  140.7819  143.4217  151.0831 LP  0  0  0  0  0  0  0  0  0  0  0  0  # atno 17342 bound_to 10162
  139.7885  143.8252  152.3148 LP  0  0  0  0  0  0  0  0  0  0  0  0  # atno 17343 bound_to 10162
  157.6537  131.0893  150.7994 LP  0  0  0  0  0  0  0  0  0  0  0  0  # atno 17370 bound_to 10713
  156.8074  130.4941  149.5361 LP  0  0  0  0  0  0  0  0  0  0  0  0  # atno 17371 bound_to 10713
  139.8928  135.0126  156.6864 LP  0  0  0  0  0  0  0  0  0  0  0  0  # atno 17394 bound_to 11000
  140.7269  133.9092  155.8184 LP  0  0  0  0  0  0  0  0  0  0  0  0  # atno 17395 bound_to 11000

$$$$
