AV-unprocessed.smi:798|AV-procd|sdf|3781|dock2
  -GOLD-   22720 1213D 1   1.00000     0.00000
 Structure written by MMmdl.
 33 35  0  0  0  0  0  0  0  0  2 V2000
  150.7598  136.9809  159.4306 O   0  0  0  0  0  0  0  0  0  0  0  0
  149.7297  137.0678  158.7585 C   0  0  0  0  0  0  0  0  0  0  0  0
  148.6003  136.3432  158.9259 N   0  5  0  0  0  0  0  0  0  0  0  0
  148.1009  136.1521  160.1581 C   0  0  0  0  0  0  0  0  0  0  0  0
  147.9421  137.1586  161.0324 N   0  0  0  0  0  0  0  0  0  0  0  0
  147.4048  136.7488  162.2452 N   0  0  0  0  0  0  0  0  0  0  0  0
  147.1636  135.4380  162.2516 C   0  0  0  0  0  0  0  0  0  0  0  0
  147.5679  134.5858  160.7762 S   0  0  0  0  0  0  0  0  0  0  0  0
  149.6642  137.9384  157.7412 N   0  0  0  0  0  0  0  0  0  0  0  0
  150.7244  138.8546  157.3138 C   0  0  2  0  0  0  0  0  0  0  0  0
  150.2270  140.3170  157.1968 C   0  0  2  0  0  0  0  0  0  0  0  0
  148.9384  140.4079  156.3517 C   0  0  0  0  0  0  0  0  0  0  0  0
  149.4456  140.0955  154.9327 C   0  0  0  0  0  0  0  0  0  0  0  0
  150.9617  139.8982  155.1428 C   0  0  1  0  0  0  0  0  0  0  0  0
  151.2445  140.9227  156.2352 C   0  0  0  0  0  0  0  0  0  0  0  0
  151.2800  138.5772  155.8860 C   0  0  2  0  0  0  0  0  0  0  0  0
  150.8232  137.2791  155.1820 C   0  0  0  0  0  0  0  0  0  0  0  0
  151.6773  136.9790  154.0982 O   0  0  0  0  0  0  0  0  0  0  0  0
  146.7418  134.9707  163.1288 H   0  0  0  0  0  0  0  0  0  0  0  0
  148.8012  137.9707  157.2184 H   0  0  0  0  0  0  0  0  0  0  0  0
  151.5470  138.8265  158.0311 H   0  0  0  0  0  0  0  0  0  0  0  0
  150.1495  140.8264  158.1579 H   0  0  0  0  0  0  0  0  0  0  0  0
  148.1496  139.7293  156.6755 H   0  0  0  0  0  0  0  0  0  0  0  0
  148.5291  141.4181  156.3915 H   0  0  0  0  0  0  0  0  0  0  0  0
  148.9541  139.2295  154.4917 H   0  0  0  0  0  0  0  0  0  0  0  0
  149.2589  140.9430  154.2721 H   0  0  0  0  0  0  0  0  0  0  0  0
  151.5475  140.0359  154.2337 H   0  0  0  0  0  0  0  0  0  0  0  0
  151.0082  141.9471  155.9414 H   0  0  0  0  0  0  0  0  0  0  0  0
  152.2689  140.8881  156.6106 H   0  0  0  0  0  0  0  0  0  0  0  0
  152.3660  138.5119  155.9754 H   0  0  0  0  0  0  0  0  0  0  0  0
  150.8615  136.4422  155.8798 H   0  0  0  0  0  0  0  0  0  0  0  0
  149.7963  137.3429  154.8245 H   0  0  0  0  0  0  0  0  0  0  0  0
  151.1459  136.6964  153.3697 H   0  0  0  0  0  0  0  0  0  0  0  0
  1  2  2  0  0  0  0
  2  3  1  0  0  0  0
  2  9  1  0  0  0  0
  3  4  1  0  0  0  0
  4  8  1  0  0  0  0
  4  5  2  0  0  0  0
  5  6  1  0  0  0  0
  6  7  2  0  0  0  0
  7  8  1  0  0  0  0
  7 19  1  0  0  0  0
  9 10  1  0  0  0  0
  9 20  1  0  0  0  0
 10 16  1  0  0  0  0
 10 11  1  0  0  0  0
 10 21  1  0  0  0  0
 11 15  1  0  0  0  0
 11 12  1  0  0  0  0
 11 22  1  0  0  0  0
 12 13  1  0  0  0  0
 12 23  1  0  0  0  0
 12 24  1  0  0  0  0
 13 14  1  0  0  0  0
 13 25  1  0  0  0  0
 13 26  1  0  0  0  0
 14 15  1  0  0  0  0
 14 16  1  0  0  0  0
 14 27  1  0  0  0  0
 15 28  1  0  0  0  0
 15 29  1  0  0  0  0
 16 17  1  0  0  0  0
 16 30  1  0  0  0  0
 17 18  1  0  0  0  0
 17 31  1  0  0  0  0
 17 32  1  0  0  0  0
 18 33  1  0  0  0  0
M  CHG  1   3  -1
M  END
> <s_m_source_file>
AV-unprocessed.smi

> <i_m_source_file_index>
798

> <i_lp_mmshare_version>
43012

> <i_f3d_flags>
0

> <s_epik_input>
W0NIMl0xW0NIMl1bQ0BASF0oW0NIMl0yKVtDQEBIXShbQ0gyXVtPSF0pW0NAQEhdKFtDQEhdMTIpW05IXUMoPU8pW05IXWMzbm5bY0hdczM=

> <s_epik_cmdline>
J2VwaWtfcHl0aG9uJywgJy1waCcsICc3LjAnLCAnLXRuJywgJzgnLCAnLW1hJywgJzIwMCcsICctbWV0YWxfYmluZGluZycsICctaW1hZScsICc8aW5maWxlLm1hZT4nLCAnLW9tYWUnLCAnPG91dGZpbGUubWFlPic=

> <r_lp_tautomer_probability>
1

> <r_epik_Ionization_Penalty>
4.53732

> <r_epik_Ionization_Penalty_Charging>
4.48632

> <r_epik_Ionization_Penalty_Neutral>
0.0510007

> <r_epik_State_Penalty>
4.48602

> <r_epik_Charging_Adjusted_Penalty>
8.97234

> <i_epik_Tot_Q>
-1

> <i_epik_Tot_abs_Q>
1

> <r_epik_Metal_State_Penalty>
0.812492

> <b_epik_Metal_Only>
1

> <s_lp_Force_Field>
OPLS_2005

> <r_lp_Energy>
48.4267

> <b_lp_Chiralities_Consistent>
1

> <s_lp_Variant>
AV-unprocessed.smi:798-13

> <Gold.Version>
5.8.1

> <Gold.Id.Protein>
6NUR|6NUR_protein|mol2

> <Gold.PLP.Fitness>
39.8380

> <Gold.PLP.PLP>
-29.1559

> <Gold.PLP.part.hbond>
-5.7265

> <Gold.PLP.part.metal>
0.0000

> <Gold.PLP.part.buried>
-4.0038

> <Gold.PLP.part.nonpolar>
-20.0900

> <Gold.PLP.part.repulsive>
0.0696

> <Gold.PLP.ligand.clash>
0.0000

> <Gold.PLP.ligand.torsion>
0.9370

> <Gold.PLP.Chemscore.Hbond>
4.1613

> <Gold.PLP.Chemscore.CHOScore>
0.0000

> <Gold.PLP.Chemscore.Metal>
0.0000

> <Gold.Chemscore.Hbonds>
donor molecule, donor type, donor heavy atom, donor atom, acceptor molecule, acceptor atom, score
      L1  H    18    33       P1  7949  0.90
      P1  H  6896  6908       L1     1  1.00
      P1  H  6931  6943       L1     5  0.48
      P1  H  6934  6947       L1     5  0.77
      P1  H 10752 10764       L1    18  1.00

> <Gold.PLP.Chemscore.Internal.Correction>
0.0721

> <Gold.Rescore>
     Score         DG    S(hbond)    S(metal)    S(lipo)     H(rot)  DE(clash)    DE(int)     intcor
     16.19     -17.24       3.04        0.00      55.61       1.92       0.01       1.04       ----

> <Gold.Chemscore.Fitness>
16.1903

> <Gold.Chemscore.DG>
-17.2357

> <Gold.Chemscore.ZeroCoef>
-5.4800

> <Gold.Chemscore.Hbond>
3.0438

> <Gold.Chemscore.Metal>
0.0000

> <Gold.Chemscore.Lipo>
55.6087

> <Gold.Chemscore.Internal_Hbond>
0.0000

> <Gold.Chemscore.DEClash>
0.0089

> <Gold.Chemscore.DEInternal>
1.0366

> <Gold.Chemscore.Rot>
1.9207

> <Gold.Chemscore.Internal.Correction>
   9.000000E+99

> <Gold.Chemscore.Hbonds>
donor molecule, donor type, donor heavy atom, donor atom, acceptor molecule, acceptor atom, score
      L1  H    18    33       P1  7949  0.38
      P1  H  6896  6908       L1     1  0.68
      P1  H  6931  6943       L1     5  0.02
      P1  H  6934  6947       L1     5  0.18
      P1  H 10752 10764       L1    18  0.51

> <Gold.Chemscore.Hbond.Weighted>
-10.1664

> <Gold.Chemscore.Metal.Weighted>
-0.0000

> <Gold.Chemscore.Lipo.Weighted>
-6.5062

> <Gold.Chemscore.Internal_Hbond.Weighted>
0.0000

> <Gold.Chemscore.DEClash.Weighted>
0.0089

> <Gold.Chemscore.DEInternal.Weighted>
1.0366

> <Gold.Chemscore.Rot.Weighted>
4.9169

> <Gold.Chemscore.Internal.Correction.Weighted>
   9.000000E+99

> <Gold.Protein.RotatedTorsions>
[ 6907 6896 6895 6894 ] final -149.55 input  -60.11 | X-H torsion
[ 7974 7965 7964 7962 ] final  -48.25 input  175.53 | X-H torsion
[ 8008 7997 7996 7995 ] final  104.38 input   59.86 | X-H torsion
[ 10167 10162 10161 10158 ] final   40.75 input  -65.29 | X-H torsion
[ 10718 10713 10712 10709 ] final   71.15 input   66.30 | X-H torsion
[ 10763 10752 10751 10750 ] final  -71.33 input  -60.55 | X-H torsion
[ 11005 11000 10999 10996 ] final   88.25 input  -57.11 | X-H torsion

> <Gold.Protein.ActiveResidues>
 VAL166  LYS551  ARG553  GLY616  TRP617  ASP618  TYR619  PRO620  LYS621  CYS622 
 ASP623  PHE694  ASN695  SER759  ASP760  ASP761  ALA762  ILE779  LEU786  VAL792 
 PHE793  MET794  SER795  GLU796  ALA797  LYS798  CYS799  TRP800  GLU811  SER814 

> <Gold.Protein.RotatedAtoms>
  151.1857  133.4698  159.2594 H   0  0  0  0  0  0  0  0  0  0  0  0  # atno 6907 bound_to 6896
  151.1214  135.0081  159.8550 H   0  0  0  0  0  0  0  0  0  0  0  0  # atno 6908 bound_to 6896
  152.5456  134.1768  159.8672 H   0  0  0  0  0  0  0  0  0  0  0  0  # atno 6909 bound_to 6896
  145.9531  140.7553  142.9495 H   0  0  0  0  0  0  0  0  0  0  0  0  # atno 7974 bound_to 7965
  156.1567  140.3149  155.8738 H   0  0  0  0  0  0  0  0  0  0  0  0  # atno 8008 bound_to 7997
  155.3863  140.0491  157.3059 H   0  0  0  0  0  0  0  0  0  0  0  0  # atno 8009 bound_to 7997
  154.5108  140.2164  155.9171 H   0  0  0  0  0  0  0  0  0  0  0  0  # atno 8010 bound_to 7997
  140.3711  144.2104  150.6133 H   0  0  0  0  0  0  0  0  0  0  0  0  # atno 10167 bound_to 10162
  157.6437  130.9514  150.0750 H   0  0  0  0  0  0  0  0  0  0  0  0  # atno 10718 bound_to 10713
  154.4302  135.5966  153.6064 H   0  0  0  0  0  0  0  0  0  0  0  0  # atno 10763 bound_to 10752
  152.9798  135.5973  154.3849 H   0  0  0  0  0  0  0  0  0  0  0  0  # atno 10764 bound_to 10752
  154.3686  135.2841  155.2258 H   0  0  0  0  0  0  0  0  0  0  0  0  # atno 10765 bound_to 10752
  139.8900  134.8476  156.2975 H   0  0  0  0  0  0  0  0  0  0  0  0  # atno 11005 bound_to 11000
  144.6799  140.2467  143.7337 LP  0  0  0  0  0  0  0  0  0  0  0  0  # atno 17320 bound_to 7965
  145.8144  139.2017  143.1974 LP  0  0  0  0  0  0  0  0  0  0  0  0  # atno 17321 bound_to 7965
  140.5032  143.2311  151.8647 LP  0  0  0  0  0  0  0  0  0  0  0  0  # atno 17342 bound_to 10162
  139.4804  144.5035  151.9029 LP  0  0  0  0  0  0  0  0  0  0  0  0  # atno 17343 bound_to 10162
  156.1743  130.3647  149.9122 LP  0  0  0  0  0  0  0  0  0  0  0  0  # atno 17370 bound_to 10713
  156.7090  130.8962  151.3607 LP  0  0  0  0  0  0  0  0  0  0  0  0  # atno 17371 bound_to 10713
  140.9935  133.7194  156.0851 LP  0  0  0  0  0  0  0  0  0  0  0  0  # atno 17394 bound_to 11000
  140.7593  134.3957  157.5528 LP  0  0  0  0  0  0  0  0  0  0  0  0  # atno 17395 bound_to 11000

$$$$
