AV-unprocessed.smi:2991|AV-procd|sdf|11399|dock9
  -GOLD-   2272016323D 1   1.00000     0.00000
 Structure written by MMmdl.
 38 39  0  0  0  0  0  0  0  0  2 V2000
  146.7096  130.2677  152.6534 C   0  0  0  0  0  0  0  0  0  0  0  0
  147.6285  131.0678  153.5566 C   0  0  0  0  0  0  0  0  0  0  0  0
  148.2754  130.4055  154.5408 N   0  3  0  0  0  0  0  0  0  0  0  0
  149.1120  131.0117  155.4085 C   0  0  0  0  0  0  0  0  0  0  0  0
  149.3475  132.3965  155.3062 C   0  0  0  0  0  0  0  0  0  0  0  0
  148.7083  133.1384  154.2805 C   0  0  0  0  0  0  0  0  0  0  0  0
  148.8779  134.5420  154.1196 N   0  0  0  0  0  0  0  0  0  0  0  0
  149.3385  135.4354  155.0114 C   0  0  0  0  0  0  0  0  0  0  0  0
  149.7003  135.1718  156.1581 O   0  0  0  0  0  0  0  0  0  0  0  0
  149.3741  136.6687  154.4871 N   0  0  0  0  0  0  0  0  0  0  0  0
  149.8603  137.8713  155.1633 C   0  0  2  0  0  0  0  0  0  0  0  0
  149.0812  139.1229  154.6829 C   0  0  0  0  0  0  0  0  0  0  0  0
  149.8137  140.4736  154.8246 C   0  0  0  0  0  0  0  0  0  0  0  0
  150.3572  140.7903  156.2327 C   0  0  0  0  0  0  0  0  0  0  0  0
  151.3035  139.7418  156.8655 C   0  0  0  0  0  0  0  0  0  0  0  0
  151.9907  138.8859  155.8990 N   0  0  0  0  0  0  0  0  0  0  0  0
  151.3958  137.9844  155.0989 C   0  0  0  0  0  0  0  0  0  0  0  0
  152.0467  137.2846  154.3238 O   0  0  0  0  0  0  0  0  0  0  0  0
  147.8249  132.4609  153.4037 C   0  0  0  0  0  0  0  0  0  0  0  0
  146.9971  133.3220  152.1495 Cl  0  0  0  0  0  0  0  0  0  0  0  0
  145.6902  130.6506  152.7132 H   0  0  0  0  0  0  0  0  0  0  0  0
  146.6927  129.2139  152.9343 H   0  0  0  0  0  0  0  0  0  0  0  0
  147.0429  130.3364  151.6176 H   0  0  0  0  0  0  0  0  0  0  0  0
  149.5605  130.3759  156.1580 H   0  0  0  0  0  0  0  0  0  0  0  0
  150.0039  132.8653  156.0234 H   0  0  0  0  0  0  0  0  0  0  0  0
  148.7064  134.8941  153.1888 H   0  0  0  0  0  0  0  0  0  0  0  0
  149.0652  136.7905  153.5333 H   0  0  0  0  0  0  0  0  0  0  0  0
  149.6321  137.7326  156.2210 H   0  0  0  0  0  0  0  0  0  0  0  0
  148.8192  139.0034  153.6306 H   0  0  0  0  0  0  0  0  0  0  0  0
  148.1314  139.1730  155.2169 H   0  0  0  0  0  0  0  0  0  0  0  0
  150.6321  140.5191  154.1048 H   0  0  0  0  0  0  0  0  0  0  0  0
  149.1329  141.2714  154.5263 H   0  0  0  0  0  0  0  0  0  0  0  0
  150.8902  141.7398  156.1718 H   0  0  0  0  0  0  0  0  0  0  0  0
  149.5239  140.9689  156.9133 H   0  0  0  0  0  0  0  0  0  0  0  0
  152.0558  140.2494  157.4697 H   0  0  0  0  0  0  0  0  0  0  0  0
  150.7508  139.1146  157.5659 H   0  0  0  0  0  0  0  0  0  0  0  0
  152.9956  138.9716  155.8468 H   0  0  0  0  0  0  0  0  0  0  0  0
  148.1205  129.4014  154.6353 H   0  0  0  0  0  0  0  0  0  0  0  0
  1  2  1  0  0  0  0
  1 21  1  0  0  0  0
  1 22  1  0  0  0  0
  1 23  1  0  0  0  0
  2 19  1  0  0  0  0
  2  3  2  0  0  0  0
  3  4  1  0  0  0  0
  3 38  1  0  0  0  0
  4  5  2  0  0  0  0
  4 24  1  0  0  0  0
  5  6  1  0  0  0  0
  5 25  1  0  0  0  0
  6  7  1  0  0  0  0
  6 19  2  0  0  0  0
  7  8  1  0  0  0  0
  7 26  1  0  0  0  0
  8  9  2  0  0  0  0
  8 10  1  0  0  0  0
 10 11  1  0  0  0  0
 10 27  1  0  0  0  0
 11 17  1  0  0  0  0
 11 12  1  0  0  0  0
 11 28  1  0  0  0  0
 12 13  1  0  0  0  0
 12 29  1  0  0  0  0
 12 30  1  0  0  0  0
 13 14  1  0  0  0  0
 13 31  1  0  0  0  0
 13 32  1  0  0  0  0
 14 15  1  0  0  0  0
 14 33  1  0  0  0  0
 14 34  1  0  0  0  0
 15 16  1  0  0  0  0
 15 35  1  0  0  0  0
 15 36  1  0  0  0  0
 16 17  1  0  0  0  0
 16 37  1  0  0  0  0
 17 18  2  0  0  0  0
 19 20  1  0  0  0  0
M  CHG  1   3   1
M  END
> <s_m_source_file>
AV-unprocessed.smi

> <i_m_source_file_index>
2991

> <i_lp_mmshare_version>
43012

> <i_f3d_flags>
0

> <s_epik_input>
W0NIM11jMW5bY0hdW2NIXWMoYzFDbClbTkhdQyg9TylbTkhdW0NAQEhdMltDSDJdW0NIMl1bQ0gyXVtDSDJdW05IXUMyPU8=

> <s_epik_cmdline>
J2VwaWtfcHl0aG9uJywgJy1waCcsICc3LjAnLCAnLXRuJywgJzgnLCAnLW1hJywgJzIwMCcsICctbWV0YWxfYmluZGluZycsICctaW1hZScsICc8aW5maWxlLm1hZT4nLCAnLW9tYWUnLCAnPG91dGZpbGUubWFlPic=

> <r_epik_Ionization_Penalty>
2.55031

> <r_epik_Ionization_Penalty_Charging>
2.55029

> <r_epik_Ionization_Penalty_Neutral>
1.86001e-05

> <r_epik_State_Penalty>
2.71882

> <r_epik_Charging_Adjusted_Penalty>
5.26911

> <i_epik_Tot_Q>
1

> <i_epik_Tot_abs_Q>
1

> <r_epik_Metal_State_Penalty>
2.7268

> <b_epik_Metal_Only>
0

> <s_lp_Force_Field>
OPLS_2005

> <r_lp_Energy>
25.1386

> <b_lp_Chiralities_Consistent>
1

> <s_lp_Variant>
AV-unprocessed.smi:2991-3

> <Gold.Version>
5.8.1

> <Gold.Id.Protein>
6NUR|6NUR_protein|mol2

> <Gold.PLP.Fitness>
39.9918

> <Gold.PLP.PLP>
-32.3390

> <Gold.PLP.part.hbond>
-3.0000

> <Gold.PLP.part.metal>
0.0000

> <Gold.PLP.part.buried>
-3.6404

> <Gold.PLP.part.nonpolar>
-27.3986

> <Gold.PLP.part.repulsive>
0.4928

> <Gold.PLP.ligand.clash>
0.0000

> <Gold.PLP.ligand.torsion>
0.4208

> <Gold.PLP.Chemscore.Hbond>
2.8140

> <Gold.PLP.Chemscore.CHOScore>
0.0000

> <Gold.PLP.Chemscore.Metal>
0.0000

> <Gold.Chemscore.Hbonds>
donor molecule, donor type, donor heavy atom, donor atom, acceptor molecule, acceptor atom, score
      L1  H     7    26       P1  7948  1.00
      L1  H    10    27       P1  7948  1.00
      P1  H 10752 10763       L1    18  0.88

> <Gold.PLP.Chemscore.Internal.Correction>
0.0525

> <Gold.Rescore>
     Score         DG    S(hbond)    S(metal)    S(lipo)     H(rot)  DE(clash)    DE(int)     intcor
     16.45     -18.13       2.39        0.00      61.84       1.00       0.03       1.65       ----

> <Gold.Chemscore.Fitness>
16.4494

> <Gold.Chemscore.DG>
-18.1262

> <Gold.Chemscore.ZeroCoef>
-5.4800

> <Gold.Chemscore.Hbond>
2.3866

> <Gold.Chemscore.Metal>
0.0000

> <Gold.Chemscore.Lipo>
61.8372

> <Gold.Chemscore.Internal_Hbond>
0.0000

> <Gold.Chemscore.DEClash>
0.0299

> <Gold.Chemscore.DEInternal>
1.6469

> <Gold.Chemscore.Rot>
1.0000

> <Gold.Chemscore.Internal.Correction>
   9.000000E+99

> <Gold.Chemscore.Hbonds>
donor molecule, donor type, donor heavy atom, donor atom, acceptor molecule, acceptor atom, score
      L1  H     7    26       P1  7948  0.43
      L1  H    10    27       P1  7948  0.94
      P1  H 10752 10763       L1    18  0.86

> <Gold.Chemscore.Hbond.Weighted>
-7.9713

> <Gold.Chemscore.Metal.Weighted>
-0.0000

> <Gold.Chemscore.Lipo.Weighted>
-7.2350

> <Gold.Chemscore.Internal_Hbond.Weighted>
0.0000

> <Gold.Chemscore.DEClash.Weighted>
0.0299

> <Gold.Chemscore.DEInternal.Weighted>
1.6469

> <Gold.Chemscore.Rot.Weighted>
2.5600

> <Gold.Chemscore.Internal.Correction.Weighted>
   9.000000E+99

> <Gold.Protein.RotatedTorsions>
[ 6907 6896 6895 6894 ] final  126.36 input  -60.11 | X-H torsion
[ 7974 7965 7964 7962 ] final  128.25 input  175.53 | X-H torsion
[ 8008 7997 7996 7995 ] final   70.01 input   59.86 | X-H torsion
[ 10167 10162 10161 10158 ] final  116.08 input  -65.29 | X-H torsion
[ 10718 10713 10712 10709 ] final   73.09 input   66.30 | X-H torsion
[ 10763 10752 10751 10750 ] final   28.90 input  -60.55 | X-H torsion
[ 11005 11000 10999 10996 ] final   98.38 input  -57.11 | X-H torsion

> <Gold.Protein.ActiveResidues>
 VAL166  LYS551  ARG553  GLY616  TRP617  ASP618  TYR619  PRO620  LYS621  CYS622 
 ASP623  PHE694  ASN695  SER759  ASP760  ASP761  ALA762  ILE779  LEU786  VAL792 
 PHE793  MET794  SER795  GLU796  ALA797  LYS798  CYS799  TRP800  GLU811  SER814 

> <Gold.Protein.RotatedAtoms>
  152.3910  133.6678  159.6237 H   0  0  0  0  0  0  0  0  0  0  0  0  # atno 6907 bound_to 6896
  150.7818  133.8955  159.3334 H   0  0  0  0  0  0  0  0  0  0  0  0  # atno 6908 bound_to 6896
  151.6741  135.0973  160.0255 H   0  0  0  0  0  0  0  0  0  0  0  0  # atno 6909 bound_to 6896
  145.0416  139.3958  143.5099 H   0  0  0  0  0  0  0  0  0  0  0  0  # atno 7974 bound_to 7965
  155.7324  140.3491  155.5065 H   0  0  0  0  0  0  0  0  0  0  0  0  # atno 8008 bound_to 7997
  155.9170  140.1060  157.1257 H   0  0  0  0  0  0  0  0  0  0  0  0  # atno 8009 bound_to 7997
  154.4064  140.1257  156.4618 H   0  0  0  0  0  0  0  0  0  0  0  0  # atno 8010 bound_to 7997
  139.6272  144.7110  151.2508 H   0  0  0  0  0  0  0  0  0  0  0  0  # atno 10167 bound_to 10162
  157.6531  130.9611  150.1020 H   0  0  0  0  0  0  0  0  0  0  0  0  # atno 10718 bound_to 10713
  153.0463  135.6502  154.0808 H   0  0  0  0  0  0  0  0  0  0  0  0  # atno 10763 bound_to 10752
  154.0505  135.2896  155.3342 H   0  0  0  0  0  0  0  0  0  0  0  0  # atno 10764 bound_to 10752
  154.6723  135.5351  153.8220 H   0  0  0  0  0  0  0  0  0  0  0  0  # atno 10765 bound_to 10752
  139.8772  134.9046  156.4448 H   0  0  0  0  0  0  0  0  0  0  0  0  # atno 11005 bound_to 11000
  146.3510  140.0020  142.8675 LP  0  0  0  0  0  0  0  0  0  0  0  0  # atno 17320 bound_to 7965
  145.1641  140.9687  143.4360 LP  0  0  0  0  0  0  0  0  0  0  0  0  # atno 17321 bound_to 7965
  140.7418  143.6546  150.8218 LP  0  0  0  0  0  0  0  0  0  0  0  0  # atno 17342 bound_to 10162
  140.0165  143.5587  152.2818 LP  0  0  0  0  0  0  0  0  0  0  0  0  # atno 17343 bound_to 10162
  156.1940  130.3656  149.8873 LP  0  0  0  0  0  0  0  0  0  0  0  0  # atno 17370 bound_to 10713
  156.6794  130.8852  151.3573 LP  0  0  0  0  0  0  0  0  0  0  0  0  # atno 17371 bound_to 10713
  140.8974  133.7804  155.9641 LP  0  0  0  0  0  0  0  0  0  0  0  0  # atno 17394 bound_to 11000
  140.8688  134.2751  157.5200 LP  0  0  0  0  0  0  0  0  0  0  0  0  # atno 17395 bound_to 11000

$$$$
