#       Name:                AV-unprocessed.smi:2248
#       Creating user name   scv26
#       Creation time:       Fri Mar 27 12:29:41 2020


#       File generated by GOLD software.
#

@<TRIPOS>MOLECULE
AV-unprocessed.smi:2248
    40    41     1
SMALL
NO_CHARGES


@<TRIPOS>ATOM
      1 ****        -3.7196   4.0760  -0.4635 C.3            1 S1                 0.0000
      2 ****        -3.8657   2.5755  -0.3206 C.ar           1 S1                 0.0000
      3 ****        -5.1256   1.9904  -0.0874 C.ar           1 S1                 0.0000
      4 ****        -5.1932   0.5914   0.0396 C.ar           1 S1                 0.0000
      5 ****        -4.0065  -0.1593  -0.0693 C.ar           1 S1                 0.0000
      6 ****        -2.7815   0.5063  -0.3011 C.ar           1 S1                 0.0000
      7 ****        -1.6436  -0.3391  -0.3910 N.am           1 S1                 0.0000
      8 ****        -0.3597   0.0134  -0.5807 C.2            1 S1                 0.0000
      9 ****         0.0501   1.1659  -0.7238 O.2            1 S1                 0.0000
     10 ****         0.4423  -1.0611  -0.5950 N.am           1 S1                 0.0000
     11 ****         1.8894  -1.0172  -0.7741 C.3            1 S1                 0.0000
     12 ****         2.4325  -2.3953  -1.0332 C.2            1 S1                 0.0000
     13 ****         3.3404  -2.7680  -0.1342 C.2            1 S1                 0.0000
     14 ****         3.5762  -1.7272   0.9288 C.3            1 S1                 0.0000
     15 ****         5.0593  -1.3334   1.0295 C.3            1 S1                 0.0000
     16 ****         5.2549  -0.4355   2.1014 O.3            1 S1                 0.0000
     17 ****         2.6424  -0.5629   0.5040 C.3            1 S1                 0.0000
     18 ****        -2.7276   1.8561  -0.4235 N.ar           1 S1                 0.0000
     19 ****         2.1450  -0.3800  -1.6224 H              1 S1                 0.0000
     20 ****         3.2410  -2.1471   1.8782 H              1 S1                 0.0000
     21 ****        -4.6748   4.5408  -0.7091 H              1 S1                 0.0000
     22 ****        -3.0108   4.3216  -1.2553 H              1 S1                 0.0000
     23 ****        -3.3570   4.5091   0.4688 H              1 S1                 0.0000
     24 ****        -6.0171   2.5950  -0.0064 H              1 S1                 0.0000
     25 ****        -6.1386   0.1013   0.2190 H              1 S1                 0.0000
     26 ****        -4.0411  -1.2347   0.0271 H              1 S1                 0.0000
     27 ****        -1.8277  -1.3263  -0.2908 H              1 S1                 0.0000
     28 ****         0.0258  -1.9719  -0.4688 H              1 S1                 0.0000
     29 ****         2.1111  -2.9913  -1.8747 H              1 S1                 0.0000
     30 ****         3.8576  -3.7162  -0.1332 H              1 S1                 0.0000
     31 ****         5.6765  -2.2154   1.2034 H              1 S1                 0.0000
     32 ****         5.4062  -0.8732   0.1033 H              1 S1                 0.0000
     33 ****         6.1732  -0.2168   2.1470 H              1 S1                 0.0000
     34 ****         3.2104   0.3440   0.2928 H              1 S1                 0.0000
     35 ****         1.9569  -0.3150   1.3158 H              1 S1                 0.0000
     36 ****        -0.5931   1.9314  -0.7036 LP             1 S1                 0.0000
     37 ****         1.0260   1.3362  -0.8603 LP             1 S1                 0.0000
     38 ****         4.9678  -0.8651   2.9576 LP             1 S1                 0.0000
     39 ****         4.7180   0.3942   1.9483 LP             1 S1                 0.0000
     40 ****        -1.8539   2.3138  -0.5883 LP             1 S1                 0.0000
@<TRIPOS>BOND
    1    1    2 1     
    2    1   21 1     
    3    1   22 1     
    4    1   23 1     
    5    2   18 ar    
    6    2    3 ar    
    7    3    4 ar    
    8    3   24 1     
    9    4    5 ar    
   10    4   25 1     
   11    5    6 ar    
   12    5   26 1     
   13    6    7 1     
   14    6   18 ar    
   15    7    8 am    
   16    7   27 1     
   17    8    9 2     
   18    8   10 am    
   19   10   11 1     
   20   10   28 1     
   21   11   19 1     
   22   11   17 1     
   23   11   12 1     
   24   12   13 2     
   25   12   29 1     
   26   13   14 1     
   27   13   30 1     
   28   14   20 1     
   29   14   15 1     
   30   14   17 1     
   31   15   16 1     
   32   15   31 1     
   33   15   32 1     
   34   16   33 1     
   35   17   34 1     
   36   17   35 1     
   37    9   36 1     
   38    9   37 1     
   39   16   38 1     
   40   16   39 1     
   41   18   40 1     
@<TRIPOS>SUBSTRUCTURE
      1 S1             1
@<TRIPOS>SET
LONE_PAIRS      STATIC     ATOMS    <user>   **** ""
5 36 37 38 39 40
DONOR_HYDROGENS      STATIC     ATOMS    <user>   **** ""
3 27 28 33
ATOM$BLUE        STATIC     ATOMS    COLORGROUP SYSTEM
5 36 37 38 39 40
ATOM$RED        STATIC     ATOMS    COLORGROUP SYSTEM
3 27 28 33
