AV-unprocessed.smi:2323|AV-procd|sdf|9290|dock3
  -GOLD-   2272012513D 1   1.00000     0.00000
 Structure written by MMmdl.
 30 31  0  0  0  0  0  0  0  0  1 V2000
  146.9025  138.6774  152.4678 C   0  0  0  0  0  0  0  0  0  0  0  0
  148.1774  138.7258  153.1667 N   0  0  0  0  0  0  0  0  0  0  0  0
  148.5664  139.7355  153.9601 C   0  0  0  0  0  0  0  0  0  0  0  0
  147.8657  140.7199  154.1976 O   0  0  0  0  0  0  0  0  0  0  0  0
  149.9081  139.5682  154.6144 C   0  0  0  0  0  0  0  0  0  0  0  0
  150.7322  138.4706  154.2836 C   0  0  0  0  0  0  0  0  0  0  0  0
  151.9730  138.3364  154.9348 C   0  0  0  0  0  0  0  0  0  0  0  0
  152.4170  139.2025  155.8689 N   0  0  0  0  0  0  0  0  0  0  0  0
  151.6253  140.2525  156.1984 C   0  0  0  0  0  0  0  0  0  0  0  0
  152.0587  141.1454  157.1585 O   0  0  0  0  0  0  0  0  0  0  0  0
  151.3749  141.2221  158.4111 C   0  0  1  0  0  0  0  0  0  0  0  0
  152.2834  141.7840  159.4976 C   0  0  0  0  0  0  0  0  0  0  0  0
  152.0640  143.2838  159.3679 C   0  0  0  0  0  0  0  0  0  0  0  0
  150.6707  143.3772  159.1266 O   0  0  0  0  0  0  0  0  0  0  0  0
  150.2800  142.2931  158.2893 C   0  0  0  0  0  0  0  0  0  0  0  0
  150.3668  140.4707  155.6017 C   0  0  0  0  0  0  0  0  0  0  0  0
  146.8218  137.7473  151.9055 H   0  0  0  0  0  0  0  0  0  0  0  0
  146.8128  139.5086  151.7674 H   0  0  0  0  0  0  0  0  0  0  0  0
  146.0708  138.7232  153.1721 H   0  0  0  0  0  0  0  0  0  0  0  0
  148.8049  137.9444  153.0430 H   0  0  0  0  0  0  0  0  0  0  0  0
  150.4268  137.7436  153.5448 H   0  0  0  0  0  0  0  0  0  0  0  0
  152.6264  137.5091  154.7002 H   0  0  0  0  0  0  0  0  0  0  0  0
  150.9360  140.2627  158.6903 H   0  0  0  0  0  0  0  0  0  0  0  0
  151.9390  141.4478  160.4765 H   0  0  0  0  0  0  0  0  0  0  0  0
  153.3303  141.4980  159.3933 H   0  0  0  0  0  0  0  0  0  0  0  0
  152.3570  143.8345  160.2620 H   0  0  0  0  0  0  0  0  0  0  0  0
  152.6126  143.6868  158.5151 H   0  0  0  0  0  0  0  0  0  0  0  0
  150.1716  142.6401  157.2606 H   0  0  0  0  0  0  0  0  0  0  0  0
  149.3104  141.9163  158.6163 H   0  0  0  0  0  0  0  0  0  0  0  0
  149.7710  141.3179  155.9089 H   0  0  0  0  0  0  0  0  0  0  0  0
  1  2  1  0  0  0  0
  1 17  1  0  0  0  0
  1 18  1  0  0  0  0
  1 19  1  0  0  0  0
  2  3  1  0  0  0  0
  2 20  1  0  0  0  0
  3  4  2  0  0  0  0
  3  5  1  0  0  0  0
  5 16  1  0  0  0  0
  5  6  2  0  0  0  0
  6  7  1  0  0  0  0
  6 21  1  0  0  0  0
  7  8  2  0  0  0  0
  7 22  1  0  0  0  0
  8  9  1  0  0  0  0
  9 10  1  0  0  0  0
  9 16  2  0  0  0  0
 10 11  1  0  0  0  0
 11 15  1  0  0  0  0
 11 12  1  0  0  0  0
 11 23  1  0  0  0  0
 12 13  1  0  0  0  0
 12 24  1  0  0  0  0
 12 25  1  0  0  0  0
 13 14  1  0  0  0  0
 13 26  1  0  0  0  0
 13 27  1  0  0  0  0
 14 15  1  0  0  0  0
 15 28  1  0  0  0  0
 15 29  1  0  0  0  0
 16 30  1  0  0  0  0
M  END
> <s_m_source_file>
AV-unprocessed.smi

> <i_m_source_file_index>
2323

> <i_lp_mmshare_version>
43012

> <i_f3d_flags>
0

> <s_epik_input>
W0NIM11bTkhdQyg9TyljMVtjSF1bY0hdbmMoW2NIXTEpT1tDQEBIXTJbQ0gyXVtDSDJdT1tDSDJdMg==

> <s_epik_cmdline>
J2VwaWtfcHl0aG9uJywgJy1waCcsICc3LjAnLCAnLXRuJywgJzgnLCAnLW1hJywgJzIwMCcsICctbWV0YWxfYmluZGluZycsICctaW1hZScsICc8aW5maWxlLm1hZT4nLCAnLW9tYWUnLCAnPG91dGZpbGUubWFlPic=

> <r_lp_tautomer_probability>
1

> <r_epik_Ionization_Penalty>
2.2633e-06

> <r_epik_Ionization_Penalty_Charging>
0

> <r_epik_Ionization_Penalty_Neutral>
2.2633e-06

> <r_epik_State_Penalty>
-0

> <r_epik_Charging_Adjusted_Penalty>
0

> <i_epik_Tot_Q>
0

> <i_epik_Tot_abs_Q>
0

> <r_epik_Metal_State_Penalty>
-0

> <b_epik_Metal_Only>
0

> <s_lp_Force_Field>
OPLS_2005

> <r_lp_Energy>
16.8838

> <b_lp_Chiralities_Consistent>
1

> <s_lp_Variant>
AV-unprocessed.smi:2323-2

> <Gold.Version>
5.8.1

> <Gold.Id.Protein>
6NUR|6NUR_protein|mol2

> <Gold.PLP.Fitness>
34.8049

> <Gold.PLP.PLP>
-30.5049

> <Gold.PLP.part.hbond>
-3.5571

> <Gold.PLP.part.metal>
0.0000

> <Gold.PLP.part.buried>
0.5404

> <Gold.PLP.part.nonpolar>
-26.6453

> <Gold.PLP.part.repulsive>
0.2270

> <Gold.PLP.ligand.clash>
0.0000

> <Gold.PLP.ligand.torsion>
0.3924

> <Gold.PLP.Chemscore.Hbond>
1.6880

> <Gold.PLP.Chemscore.CHOScore>
0.0000

> <Gold.PLP.Chemscore.Metal>
0.0000

> <Gold.Chemscore.Hbonds>
donor molecule, donor type, donor heavy atom, donor atom, acceptor molecule, acceptor atom, score
      L1  H     2    20       P1  7948  0.73
      P1  H  7997  8008       L1     8  0.60

> <Gold.PLP.Chemscore.Internal.Correction>
0.0209

> <Gold.Rescore>
     Score         DG    S(hbond)    S(metal)    S(lipo)     H(rot)  DE(clash)    DE(int)     intcor
     13.21     -14.72       1.21        0.00      71.65       1.24       1.26       0.25       ----

> <Gold.Chemscore.Fitness>
13.2130

> <Gold.Chemscore.DG>
-14.7241

> <Gold.Chemscore.ZeroCoef>
-5.4800

> <Gold.Chemscore.Hbond>
1.2118

> <Gold.Chemscore.Metal>
0.0000

> <Gold.Chemscore.Lipo>
71.6533

> <Gold.Chemscore.Internal_Hbond>
0.0000

> <Gold.Chemscore.DEClash>
1.2648

> <Gold.Chemscore.DEInternal>
0.2463

> <Gold.Chemscore.Rot>
1.2448

> <Gold.Chemscore.Internal.Correction>
   9.000000E+99

> <Gold.Chemscore.Hbonds>
donor molecule, donor type, donor heavy atom, donor atom, acceptor molecule, acceptor atom, score
      L1  H     2    20       P1  7948  0.69
      P1  H  7997  8008       L1     8  0.13

> <Gold.Chemscore.Hbond.Weighted>
-4.0473

> <Gold.Chemscore.Metal.Weighted>
-0.0000

> <Gold.Chemscore.Lipo.Weighted>
-8.3834

> <Gold.Chemscore.Internal_Hbond.Weighted>
0.0000

> <Gold.Chemscore.DEClash.Weighted>
1.2648

> <Gold.Chemscore.DEInternal.Weighted>
0.2463

> <Gold.Chemscore.Rot.Weighted>
3.1866

> <Gold.Chemscore.Internal.Correction.Weighted>
   9.000000E+99

> <Gold.Protein.RotatedTorsions>
[ 6907 6896 6895 6894 ] final   64.49 input  -60.11 | X-H torsion
[ 7974 7965 7964 7962 ] final  142.01 input  175.53 | X-H torsion
[ 8008 7997 7996 7995 ] final  -31.35 input   59.86 | X-H torsion
[ 10167 10162 10161 10158 ] final  165.51 input  -65.29 | X-H torsion
[ 10718 10713 10712 10709 ] final   45.06 input   66.30 | X-H torsion
[ 10763 10752 10751 10750 ] final  142.84 input  -60.55 | X-H torsion
[ 11005 11000 10999 10996 ] final  -82.73 input  -57.11 | X-H torsion

> <Gold.Protein.ActiveResidues>
 VAL166  LYS551  ARG553  GLY616  TRP617  ASP618  TYR619  PRO620  LYS621  CYS622 
 ASP623  PHE694  ASN695  SER759  ASP760  ASP761  ALA762  ILE779  LEU786  VAL792 
 PHE793  MET794  SER795  GLU796  ALA797  LYS798  CYS799  TRP800  GLU811  SER814 

> <Gold.Protein.RotatedAtoms>
  152.4335  134.5731  159.9926 H   0  0  0  0  0  0  0  0  0  0  0  0  # atno 6907 bound_to 6896
  151.5848  133.3368  159.3023 H   0  0  0  0  0  0  0  0  0  0  0  0  # atno 6908 bound_to 6896
  150.8231  134.7484  159.6854 H   0  0  0  0  0  0  0  0  0  0  0  0  # atno 6909 bound_to 6896
  144.9045  139.5377  143.5738 H   0  0  0  0  0  0  0  0  0  0  0  0  # atno 7974 bound_to 7965
  154.4217  140.1767  156.1552 H   0  0  0  0  0  0  0  0  0  0  0  0  # atno 8008 bound_to 7997
  155.9882  140.3371  155.6703 H   0  0  0  0  0  0  0  0  0  0  0  0  # atno 8009 bound_to 7997
  155.6408  140.0680  157.2610 H   0  0  0  0  0  0  0  0  0  0  0  0  # atno 8010 bound_to 7997
  139.4907  144.4124  151.9283 H   0  0  0  0  0  0  0  0  0  0  0  0  # atno 10167 bound_to 10162
  157.4335  130.8039  149.7625 H   0  0  0  0  0  0  0  0  0  0  0  0  # atno 10718 bound_to 10713
  153.9624  135.2959  155.3432 H   0  0  0  0  0  0  0  0  0  0  0  0  # atno 10763 bound_to 10752
  154.7367  135.5043  153.9057 H   0  0  0  0  0  0  0  0  0  0  0  0  # atno 10764 bound_to 10752
  153.0940  135.6716  153.9909 H   0  0  0  0  0  0  0  0  0  0  0  0  # atno 10765 bound_to 10752
  141.1662  133.7259  156.8614 H   0  0  0  0  0  0  0  0  0  0  0  0  # atno 11005 bound_to 11000
  146.3126  139.7802  142.9008 LP  0  0  0  0  0  0  0  0  0  0  0  0  # atno 17320 bound_to 7965
  145.3559  141.0316  143.3312 LP  0  0  0  0  0  0  0  0  0  0  0  0  # atno 17321 bound_to 7965
  140.3566  144.3024  150.5940 LP  0  0  0  0  0  0  0  0  0  0  0  0  # atno 17342 bound_to 10162
  140.5439  143.2218  151.8039 LP  0  0  0  0  0  0  0  0  0  0  0  0  # atno 17343 bound_to 10162
  155.9922  130.3932  150.2953 LP  0  0  0  0  0  0  0  0  0  0  0  0  # atno 17370 bound_to 10713
  157.1112  131.0222  151.3047 LP  0  0  0  0  0  0  0  0  0  0  0  0  # atno 17371 bound_to 10713
  140.1845  134.9009  157.2988 LP  0  0  0  0  0  0  0  0  0  0  0  0  # atno 17394 bound_to 11000
  140.2358  134.3855  155.7502 LP  0  0  0  0  0  0  0  0  0  0  0  0  # atno 17395 bound_to 11000

$$$$
