#       Name:                AV-unprocessed.smi:2834
#       Creating user name   scv26
#       Creation time:       Fri Mar 27 15:36:34 2020


#       File generated by GOLD software.
#

@<TRIPOS>MOLECULE
AV-unprocessed.smi:2834
    40    41     1
SMALL
NO_CHARGES


@<TRIPOS>ATOM
      1 ****        -2.7753   1.5241  -1.4639 C.3            1 S1                 0.0000
      2 ****        -2.8794   0.6103  -0.2234 C.3            1 S1                 0.0000
      3 ****        -1.7483  -0.3237  -0.1794 N.am           1 S1                 0.0000
      4 ****        -0.4535  -0.0240   0.0146 C.2            1 S1                 0.0000
      5 ****        -0.0341   1.1176   0.2050 O.2            1 S1                 0.0000
      6 ****         0.3108  -1.1276  -0.0259 N.am           1 S1                 0.0000
      7 ****         1.7203  -1.2032   0.1073 C.2            1 S1                 0.0000
      8 ****         2.4767  -2.4020   0.0408 C.2            1 S1                 0.0000
      9 ****         3.7701  -2.1615   0.1938 N.2            1 S1                 0.0000
     10 ****         3.8612  -0.8184   0.3587 N.pl3          1 S1                 0.0000
     11 ****         5.1626  -0.2039   0.5485 C.3            1 S1                 0.0000
     12 ****         5.7952   0.2494  -0.7775 C.3            1 S1                 0.0000
     13 ****         6.9786   0.8093  -0.5287 F              1 S1                 0.0000
     14 ****         5.9786  -0.7907  -1.5910 F              1 S1                 0.0000
     15 ****         5.0175   1.1481  -1.3817 F              1 S1                 0.0000
     16 ****         2.6267  -0.2018   0.3123 C.2            1 S1                 0.0000
     17 ****        -4.1934  -0.1847  -0.2471 C.3            1 S1                 0.0000
     18 ****        -4.8647   0.1349   1.0855 C.3            1 S1                 0.0000
     19 ****        -4.3877   1.4339   1.3804 O.3            1 S1                 0.0000
     20 ****        -3.0018   1.4250   1.0829 C.3            1 S1                 0.0000
     21 ****        -3.6314   2.1964  -1.5307 H              1 S1                 0.0000
     22 ****        -2.7421   0.9388  -2.3833 H              1 S1                 0.0000
     23 ****        -1.8815   2.1475  -1.4374 H              1 S1                 0.0000
     24 ****        -1.9780  -1.2963  -0.3209 H              1 S1                 0.0000
     25 ****        -0.1636  -2.0047  -0.1825 H              1 S1                 0.0000
     26 ****         2.1391  -3.4165  -0.1120 H              1 S1                 0.0000
     27 ****         5.0439   0.6482   1.2189 H              1 S1                 0.0000
     28 ****         5.8173  -0.9130   1.0577 H              1 S1                 0.0000
     29 ****         2.5156   0.8667   0.4236 H              1 S1                 0.0000
     30 ****        -4.8365   0.1544  -1.0605 H              1 S1                 0.0000
     31 ****        -4.0559  -1.2591  -0.3786 H              1 S1                 0.0000
     32 ****        -5.9531   0.1071   1.0272 H              1 S1                 0.0000
     33 ****        -4.5418  -0.5603   1.8625 H              1 S1                 0.0000
     34 ****        -2.4805   0.9418   1.9115 H              1 S1                 0.0000
     35 ****        -2.6110   2.4393   0.9935 H              1 S1                 0.0000
     36 ****        -0.6713   1.8881   0.2216 LP             1 S1                 0.0000
     37 ****         0.9438   1.2744   0.3430 LP             1 S1                 0.0000
     38 ****         4.5173  -2.8261   0.1888 LP             1 S1                 0.0000
     39 ****        -4.5332   1.6451   2.3469 LP             1 S1                 0.0000
     40 ****        -4.8587   2.1121   0.8164 LP             1 S1                 0.0000
@<TRIPOS>BOND
    1    1    2 1     
    2    1   21 1     
    3    1   22 1     
    4    1   23 1     
    5    2   20 1     
    6    2    3 1     
    7    2   17 1     
    8    3    4 am    
    9    3   24 1     
   10    4    5 2     
   11    4    6 am    
   12    6    7 1     
   13    6   25 1     
   14    7   16 2     
   15    7    8 1     
   16    8    9 2     
   17    8   26 1     
   18    9   10 1     
   19   10   11 1     
   20   10   16 1     
   21   11   12 1     
   22   11   27 1     
   23   11   28 1     
   24   12   13 1     
   25   12   14 1     
   26   12   15 1     
   27   16   29 1     
   28   17   18 1     
   29   17   30 1     
   30   17   31 1     
   31   18   19 1     
   32   18   32 1     
   33   18   33 1     
   34   19   20 1     
   35   20   34 1     
   36   20   35 1     
   37    5   36 1     
   38    5   37 1     
   39    9   38 1     
   40   19   39 1     
   41   19   40 1     
@<TRIPOS>SUBSTRUCTURE
      1 S1             1
@<TRIPOS>SET
LONE_PAIRS      STATIC     ATOMS    <user>   **** ""
5 36 37 38 39 40
DONOR_HYDROGENS      STATIC     ATOMS    <user>   **** ""
2 24 25
ATOM$BLUE        STATIC     ATOMS    COLORGROUP SYSTEM
5 36 37 38 39 40
ATOM$RED        STATIC     ATOMS    COLORGROUP SYSTEM
2 24 25
