AV-unprocessed.smi:40|AV-procd|sdf|369|dock5
  -GOLD-   2262016213D 1   1.00000     0.00000
 Structure written by MMmdl.
 47 48  0  0  0  0  0  0  0  0  1 V2000
  151.7672  144.8788  159.7336 C   0  0  0  0  0  0  0  0  0  0  0  0
  151.8477  143.4365  160.2451 C   0  0  0  0  0  0  0  0  0  0  0  0
  153.1743  142.7547  159.8806 C   0  0  0  0  0  0  0  0  0  0  0  0
  153.0440  141.2292  159.7796 C   0  0  0  0  0  0  0  0  0  0  0  0
  152.2665  140.7920  158.5286 C   0  0  0  0  0  0  0  0  0  0  0  0
  152.4449  139.4035  158.2848 O   0  0  0  0  0  0  0  0  0  0  0  0
  151.4861  138.6788  157.6655 C   0  0  0  0  0  0  0  0  0  0  0  0
  150.3311  139.0640  157.4860 O   0  0  0  0  0  0  0  0  0  0  0  0
  152.0105  137.4065  157.2129 N   0  0  0  0  0  0  0  0  0  0  0  0
  151.3275  136.4422  156.5592 C   0  0  0  0  0  0  0  0  0  0  0  0
  151.3695  135.2209  157.0590 N   0  0  0  0  0  0  0  0  0  0  0  0
  150.7148  134.1522  156.5070 C   0  0  0  0  0  0  0  0  0  0  0  0
  150.7617  133.0429  157.0368 O   0  0  0  0  0  0  0  0  0  0  0  0
  149.9780  134.3816  155.3215 N   0  0  0  0  0  0  0  0  0  0  0  0
  149.2216  133.2341  154.6963 C   0  0  2  0  0  0  0  0  0  0  0  0
  148.6632  133.6666  153.4869 O   0  0  0  0  0  0  0  0  0  0  0  0
  147.2755  133.3498  153.4314 C   0  0  1  0  0  0  0  0  0  0  0  0
  147.0990  132.0275  152.6626 C   0  0  0  0  0  0  0  0  0  0  0  0
  146.8570  133.3233  154.9051 C   0  0  1  0  0  0  0  0  0  0  0  0
  145.6668  132.6069  155.1727 O   0  0  0  0  0  0  0  0  0  0  0  0
  148.0840  132.7820  155.6280 C   0  0  1  0  0  0  0  0  0  0  0  0
  148.0659  131.3732  155.7689 O   0  0  0  0  0  0  0  0  0  0  0  0
  149.9256  135.6570  154.7790 C   0  0  0  0  0  0  0  0  0  0  0  0
  150.5729  136.6977  155.3448 C   0  0  0  0  0  0  0  0  0  0  0  0
  150.5194  137.9179  154.7824 F   0  0  0  0  0  0  0  0  0  0  0  0
  149.9566  132.4561  154.4829 H   0  0  0  0  0  0  0  0  0  0  0  0
  146.7437  134.1390  152.8988 H   0  0  0  0  0  0  0  0  0  0  0  0
  146.7006  134.3539  155.2269 H   0  0  0  0  0  0  0  0  0  0  0  0
  148.1890  133.2210  156.6213 H   0  0  0  0  0  0  0  0  0  0  0  0
  150.8139  145.3338  160.0033 H   0  0  0  0  0  0  0  0  0  0  0  0
  151.8589  144.9176  158.6478 H   0  0  0  0  0  0  0  0  0  0  0  0
  152.5610  145.4927  160.1600 H   0  0  0  0  0  0  0  0  0  0  0  0
  151.7196  143.4323  161.3282 H   0  0  0  0  0  0  0  0  0  0  0  0
  151.0163  142.8630  159.8338 H   0  0  0  0  0  0  0  0  0  0  0  0
  153.5372  143.1504  158.9311 H   0  0  0  0  0  0  0  0  0  0  0  0
  153.9282  143.0046  160.6283 H   0  0  0  0  0  0  0  0  0  0  0  0
  154.0373  140.7791  159.7622 H   0  0  0  0  0  0  0  0  0  0  0  0
  152.5475  140.8489  160.6730 H   0  0  0  0  0  0  0  0  0  0  0  0
  151.2078  141.0392  158.6205 H   0  0  0  0  0  0  0  0  0  0  0  0
  152.6385  141.3354  157.6598 H   0  0  0  0  0  0  0  0  0  0  0  0
  152.9702  137.2254  157.4685 H   0  0  0  0  0  0  0  0  0  0  0  0
  146.0485  131.7429  152.6002 H   0  0  0  0  0  0  0  0  0  0  0  0
  147.6412  131.2056  153.1290 H   0  0  0  0  0  0  0  0  0  0  0  0
  147.4710  132.1257  151.6425 H   0  0  0  0  0  0  0  0  0  0  0  0
  145.5292  132.6029  156.1080 H   0  0  0  0  0  0  0  0  0  0  0  0
  148.5252  130.9935  155.0350 H   0  0  0  0  0  0  0  0  0  0  0  0
  149.3564  135.8425  153.8798 H   0  0  0  0  0  0  0  0  0  0  0  0
  1  2  1  0  0  0  0
  1 30  1  0  0  0  0
  1 31  1  0  0  0  0
  1 32  1  0  0  0  0
  2  3  1  0  0  0  0
  2 33  1  0  0  0  0
  2 34  1  0  0  0  0
  3  4  1  0  0  0  0
  3 35  1  0  0  0  0
  3 36  1  0  0  0  0
  4  5  1  0  0  0  0
  4 37  1  0  0  0  0
  4 38  1  0  0  0  0
  5  6  1  0  0  0  0
  5 39  1  0  0  0  0
  5 40  1  0  0  0  0
  6  7  1  0  0  0  0
  7  8  2  0  0  0  0
  7  9  1  0  0  0  0
  9 10  1  0  0  0  0
  9 41  1  0  0  0  0
 10 24  1  0  0  0  0
 10 11  2  0  0  0  0
 11 12  1  0  0  0  0
 12 13  2  0  0  0  0
 12 14  1  0  0  0  0
 14 15  1  0  0  0  0
 14 23  1  0  0  0  0
 15 26  1  0  0  0  0
 15 21  1  0  0  0  0
 15 16  1  0  0  0  0
 16 17  1  0  0  0  0
 17 27  1  0  0  0  0
 17 18  1  0  0  0  0
 17 19  1  0  0  0  0
 18 42  1  0  0  0  0
 18 43  1  0  0  0  0
 18 44  1  0  0  0  0
 19 28  1  0  0  0  0
 19 20  1  0  0  0  0
 19 21  1  0  0  0  0
 20 45  1  0  0  0  0
 21 29  1  0  0  0  0
 21 22  1  0  0  0  0
 22 46  1  0  0  0  0
 23 24  2  0  0  0  0
 23 47  1  0  0  0  0
 24 25  1  0  0  0  0
M  END
> <s_m_source_file>
AV-unprocessed.smi

> <i_m_source_file_index>
40

> <i_lp_mmshare_version>
43012

> <i_f3d_flags>
0

> <s_epik_input>
W0NIM11bQ0gyXVtDSDJdW0NIMl1bQ0gyXU9DKD1PKVtOSF1jMW5jKD1PKW4oW2NIXWMxRilbQ0BASF0yT1tDQEhdKFtDSDNdKVtDQEBIXShbT0hdKVtDQEhdMltPSF0=

> <s_epik_cmdline>
J2VwaWtfcHl0aG9uJywgJy1waCcsICc3LjAnLCAnLXRuJywgJzgnLCAnLW1hJywgJzIwMCcsICctbWV0YWxfYmluZGluZycsICctaW1hZScsICc8aW5maWxlLm1hZT4nLCAnLW9tYWUnLCAnPG91dGZpbGUubWFlPic=

> <r_lp_tautomer_probability>
1

> <r_epik_Ionization_Penalty>
2.29506e-06

> <r_epik_Ionization_Penalty_Charging>
8.26867e-09

> <r_epik_Ionization_Penalty_Neutral>
2.2868e-06

> <r_epik_State_Penalty>
-0

> <r_epik_Charging_Adjusted_Penalty>
8.26867e-09

> <i_epik_Tot_Q>
0

> <i_epik_Tot_abs_Q>
0

> <r_epik_Metal_State_Penalty>
-0

> <b_epik_Metal_Only>
0

> <s_epik_Chemistry_Notes>
This compound has an ester and may undergo hydrolysis at high or low pH. This compound contains an acetal/aminal-like group ( X-CH(R)-Y where X, Y are N, S, or O) that may be acid/base labile, releasing an aldehyde.

> <s_lp_Force_Field>
OPLS_2005

> <r_lp_Energy>
36.9864

> <b_lp_Chiralities_Consistent>
1

> <s_lp_Variant>
AV-unprocessed.smi:40-3

> <Gold.Version>
5.8.1

> <Gold.Id.Protein>
6NUR|6NUR_protein|mol2

> <Gold.PLP.Fitness>
41.0442

> <Gold.PLP.PLP>
-37.3231

> <Gold.PLP.part.hbond>
-2.8756

> <Gold.PLP.part.metal>
0.0000

> <Gold.PLP.part.buried>
-4.3849

> <Gold.PLP.part.nonpolar>
-31.1760

> <Gold.PLP.part.repulsive>
0.7514

> <Gold.PLP.ligand.clash>
0.0000

> <Gold.PLP.ligand.torsion>
1.1521

> <Gold.PLP.Chemscore.Hbond>
0.9913

> <Gold.PLP.Chemscore.CHOScore>
1.0000

> <Gold.PLP.Chemscore.Metal>
0.0000

> <Gold.Chemscore.Hbonds>
donor molecule, donor type, donor heavy atom, donor atom, acceptor molecule, acceptor atom, score
      P1  H  6896  6907       L1    13  0.49
      L1  C    23    47       P1  7948  1.00

> <Gold.PLP.Chemscore.Internal.Correction>
0.0515

> <Gold.Rescore>
     Score         DG    S(hbond)    S(metal)    S(lipo)     H(rot)  DE(clash)    DE(int)     intcor
      7.05      -8.49       0.89        0.00      81.10       3.70       0.09       1.35       ----

> <Gold.Chemscore.Fitness>
7.0472

> <Gold.Chemscore.DG>
-8.4912

> <Gold.Chemscore.ZeroCoef>
-5.4800

> <Gold.Chemscore.Hbond>
0.8931

> <Gold.Chemscore.Metal>
0.0000

> <Gold.Chemscore.Lipo>
81.1043

> <Gold.Chemscore.Internal_Hbond>
0.0000

> <Gold.Chemscore.DEClash>
0.0919

> <Gold.Chemscore.DEInternal>
1.3522

> <Gold.Chemscore.Rot>
3.6957

> <Gold.Chemscore.Internal.Correction>
   9.000000E+99

> <Gold.Chemscore.Hbonds>
donor molecule, donor type, donor heavy atom, donor atom, acceptor molecule, acceptor atom, score
      P1  H  6896  6907       L1    13  0.21

> <Gold.Chemscore.Hbond.Weighted>
-2.9830

> <Gold.Chemscore.Metal.Weighted>
-0.0000

> <Gold.Chemscore.Lipo.Weighted>
-9.4892

> <Gold.Chemscore.Internal_Hbond.Weighted>
0.0000

> <Gold.Chemscore.DEClash.Weighted>
0.0919

> <Gold.Chemscore.DEInternal.Weighted>
1.3522

> <Gold.Chemscore.Rot.Weighted>
9.4610

> <Gold.Chemscore.Internal.Correction.Weighted>
   9.000000E+99

> <Gold.Protein.RotatedTorsions>
[ 6907 6896 6895 6894 ] final -144.03 input  -60.11 | X-H torsion
[ 7974 7965 7964 7962 ] final  -58.07 input  175.53 | X-H torsion
[ 8008 7997 7996 7995 ] final   -3.16 input   59.86 | X-H torsion
[ 10167 10162 10161 10158 ] final  149.91 input  -65.29 | X-H torsion
[ 10718 10713 10712 10709 ] final   40.35 input   66.30 | X-H torsion
[ 10763 10752 10751 10750 ] final   16.11 input  -60.55 | X-H torsion
[ 11005 11000 10999 10996 ] final  -88.54 input  -57.11 | X-H torsion

> <Gold.Protein.ActiveResidues>
 VAL166  LYS551  ARG553  GLY616  TRP617  ASP618  TYR619  PRO620  LYS621  CYS622 
 ASP623  PHE694  ASN695  SER759  ASP760  ASP761  ALA762  ILE779  LEU786  VAL792 
 PHE793  MET794  SER795  GLU796  ALA797  LYS798  CYS799  TRP800  GLU811  SER814 

> <Gold.Protein.RotatedAtoms>
  151.1085  133.5190  159.2606 H   0  0  0  0  0  0  0  0  0  0  0  0  # atno 6907 bound_to 6896
  151.1994  135.0435  159.8876 H   0  0  0  0  0  0  0  0  0  0  0  0  # atno 6908 bound_to 6896
  152.5448  134.0915  159.8332 H   0  0  0  0  0  0  0  0  0  0  0  0  # atno 6909 bound_to 6896
  145.8436  140.8400  143.0022 H   0  0  0  0  0  0  0  0  0  0  0  0  # atno 7974 bound_to 7965
  154.6279  140.2516  155.7469 H   0  0  0  0  0  0  0  0  0  0  0  0  # atno 8008 bound_to 7997
  156.2463  140.2913  156.0537 H   0  0  0  0  0  0  0  0  0  0  0  0  # atno 8009 bound_to 7997
  155.1792  140.0388  157.2869 H   0  0  0  0  0  0  0  0  0  0  0  0  # atno 8010 bound_to 7997
  139.4856  144.5565  151.7309 H   0  0  0  0  0  0  0  0  0  0  0  0  # atno 10167 bound_to 10162
  157.3812  130.7754  149.7194 H   0  0  0  0  0  0  0  0  0  0  0  0  # atno 10718 bound_to 10713
  153.1462  135.6769  153.8951 H   0  0  0  0  0  0  0  0  0  0  0  0  # atno 10763 bound_to 10752
  153.8392  135.3107  155.3426 H   0  0  0  0  0  0  0  0  0  0  0  0  # atno 10764 bound_to 10752
  154.7827  135.4879  153.9963 H   0  0  0  0  0  0  0  0  0  0  0  0  # atno 10765 bound_to 10752
  141.1600  133.7576  156.9465 H   0  0  0  0  0  0  0  0  0  0  0  0  # atno 11005 bound_to 11000
  144.6732  140.0849  143.7468 LP  0  0  0  0  0  0  0  0  0  0  0  0  # atno 17320 bound_to 7965
  145.9437  139.2686  143.1253 LP  0  0  0  0  0  0  0  0  0  0  0  0  # atno 17321 bound_to 7965
  140.5127  144.1000  150.5999 LP  0  0  0  0  0  0  0  0  0  0  0  0  # atno 17342 bound_to 10162
  140.3931  143.2742  152.0036 LP  0  0  0  0  0  0  0  0  0  0  0  0  # atno 17343 bound_to 10162
  155.9776  130.4061  150.3701 LP  0  0  0  0  0  0  0  0  0  0  0  0  # atno 17370 bound_to 10713
  157.1805  131.0391  151.2751 LP  0  0  0  0  0  0  0  0  0  0  0  0  # atno 17371 bound_to 10713
  140.1286  134.9371  157.2305 LP  0  0  0  0  0  0  0  0  0  0  0  0  # atno 17394 bound_to 11000
  140.2982  134.3162  155.7297 LP  0  0  0  0  0  0  0  0  0  0  0  0  # atno 17395 bound_to 11000

$$$$
