#       Name:                AV-unprocessed.smi:2745
#       Creating user name   scv26
#       Creation time:       Fri Mar 27 15:02:28 2020


#       File generated by GOLD software.
#

@<TRIPOS>MOLECULE
AV-unprocessed.smi:2745
    20    20     1
SMALL
NO_CHARGES


@<TRIPOS>ATOM
      1 ****        -1.8773   2.5230   0.2246 N.4            1 S1                 1.0000
      2 ****        -1.3691   1.1411   0.1998 C.3            1 S1                 0.0000
      3 ****         0.1569   1.1020   0.3636 C.3            1 S1                 0.0000
      4 ****         0.6937  -0.2970   0.3350 C.2            1 S1                 0.0000
      5 ****         1.0998  -1.0474   1.4118 C.2            1 S1                 0.0000
      6 ****         1.6534  -2.6297   0.9331 S.3            1 S1                 0.0000
      7 ****         1.3080  -2.2006  -0.7350 C.2            1 S1                 0.0000
      8 ****         1.5351  -3.0862  -1.7739 N.pl3          1 S1                 0.0000
      9 ****         0.8182  -0.9692  -0.8856 N.2            1 S1                 0.0000
     10 ****        -2.8809   2.5145   0.1114 H              1 S1                 0.0000
     11 ****        -1.4593   3.0497  -0.5292 H              1 S1                 0.0000
     12 ****        -1.8511   0.5759   0.9982 H              1 S1                 0.0000
     13 ****        -1.6620   0.6798  -0.7439 H              1 S1                 0.0000
     14 ****         0.6237   1.6917  -0.4267 H              1 S1                 0.0000
     15 ****         0.4345   1.5862   1.3009 H              1 S1                 0.0000
     16 ****         1.1077  -0.7680   2.4549 H              1 S1                 0.0000
     17 ****         1.9075  -4.0099  -1.6068 H              1 S1                 0.0000
     18 ****         1.2677  -2.8648  -2.7224 H              1 S1                 0.0000
     19 ****        -1.6423   2.9542   1.1072 H              1 S1                 0.0000
     20 ****         0.5687  -0.5723  -1.7689 LP             1 S1                 0.0000
@<TRIPOS>BOND
    1    1    2 1     
    2    1   10 1     
    3    1   11 1     
    4    1   19 1     
    5    2    3 1     
    6    2   12 1     
    7    2   13 1     
    8    3    4 1     
    9    3   14 1     
   10    3   15 1     
   11    4    9 1     
   12    4    5 2     
   13    5    6 1     
   14    5   16 1     
   15    6    7 1     
   16    7    8 1     
   17    7    9 2     
   18    8   17 1     
   19    8   18 1     
   20    9   20 1     
@<TRIPOS>SUBSTRUCTURE
      1 S1             1
@<TRIPOS>SET
LONE_PAIRS      STATIC     ATOMS    <user>   **** ""
1 20
DONOR_HYDROGENS      STATIC     ATOMS    <user>   **** ""
5 10 11 19 17 18
ATOM$BLUE        STATIC     ATOMS    COLORGROUP SYSTEM
1 20
ATOM$RED        STATIC     ATOMS    COLORGROUP SYSTEM
5 10 11 19 17 18
