#       Name:                AV-unprocessed.smi:3309
#       Creating user name   scv26
#       Creation time:       Fri Mar 27 19:05:29 2020


#       File generated by GOLD software.
#

@<TRIPOS>MOLECULE
AV-unprocessed.smi:3309
    44    45     1
SMALL
NO_CHARGES


@<TRIPOS>ATOM
      1 ****        -2.2557  -0.1206   0.9291 O.2            1 S1                 0.0000
      2 ****        -1.6362   0.7624   0.3357 C.2            1 S1                 0.0000
      3 ****        -0.1139   0.6808   0.1850 C.3            1 S1                 0.0000
      4 ****         0.4214  -0.7612   0.2266 C.3            1 S1                 0.0000
      5 ****         1.8853  -0.7876   0.0403 N.4            1 S1                 1.0000
      6 ****         2.4677  -2.1434   0.0552 C.3            1 S1                 0.0000
      7 ****         3.9957  -2.0883  -0.0883 C.3            1 S1                 0.0000
      8 ****         4.5879  -3.4118  -0.0658 N.pl3          1 S1                 0.0000
      9 ****         5.1638  -4.1138  -1.1039 C.2            1 S1                 0.0000
     10 ****         5.5873  -5.3099  -0.5992 C.2            1 S1                 0.0000
     11 ****         5.2248  -5.2448   0.7753 C.2            1 S1                 0.0000
     12 ****         4.6281  -4.1065   1.0916 N.2            1 S1                 0.0000
     13 ****        -2.2269   1.8396  -0.2037 N.am           1 S1                 0.0000
     14 ****        -3.6607   2.1182  -0.1703 C.3            1 S1                 0.0000
     15 ****        -4.0495   3.1202  -1.2746 C.3            1 S1                 0.0000
     16 ****        -4.9102   4.1875  -0.5962 C.3            1 S1                 0.0000
     17 ****        -4.3993   4.2275   0.8403 C.3            1 S1                 0.0000
     18 ****        -4.0799   2.7678   1.1640 C.3            1 S1                 0.0000
     19 ****         0.1744   1.1501  -0.7572 H              1 S1                 0.0000
     20 ****         0.3404   1.2705   0.9823 H              1 S1                 0.0000
     21 ****         0.1808  -1.2281   1.1831 H              1 S1                 0.0000
     22 ****        -0.0495  -1.3606  -0.5544 H              1 S1                 0.0000
     23 ****         2.1057  -0.3528  -0.8443 H              1 S1                 0.0000
     24 ****         2.1954  -2.6374   0.9890 H              1 S1                 0.0000
     25 ****         2.0366  -2.7289  -0.7581 H              1 S1                 0.0000
     26 ****         4.2726  -1.5995  -1.0233 H              1 S1                 0.0000
     27 ****         4.4350  -1.5006   0.7194 H              1 S1                 0.0000
     28 ****         5.2243  -3.7101  -2.1040 H              1 S1                 0.0000
     29 ****         6.0825  -6.1094  -1.1303 H              1 S1                 0.0000
     30 ****         5.3772  -5.9850   1.5470 H              1 S1                 0.0000
     31 ****        -1.6441   2.5200  -0.6696 H              1 S1                 0.0000
     32 ****        -4.2175   1.1900  -0.3125 H              1 S1                 0.0000
     33 ****        -3.1616   3.5966  -1.6935 H              1 S1                 0.0000
     34 ****        -4.5747   2.6393  -2.1005 H              1 S1                 0.0000
     35 ****        -4.8463   5.1563  -1.0923 H              1 S1                 0.0000
     36 ****        -5.9561   3.8771  -0.6047 H              1 S1                 0.0000
     37 ****        -3.4873   4.8239   0.8897 H              1 S1                 0.0000
     38 ****        -5.1211   4.6628   1.5321 H              1 S1                 0.0000
     39 ****        -4.9819   2.2772   1.5323 H              1 S1                 0.0000
     40 ****        -3.3269   2.6801   1.9486 H              1 S1                 0.0000
     41 ****         2.3111  -0.2491   0.7813 H              1 S1                 0.0000
     42 ****        -1.7652  -0.9004   1.3181 LP             1 S1                 0.0000
     43 ****        -3.2494  -0.0580   1.0221 LP             1 S1                 0.0000
     44 ****         4.2841  -3.8241   1.9871 LP             1 S1                 0.0000
@<TRIPOS>BOND
    1    1    2 2     
    2    2    3 1     
    3    2   13 am    
    4    3    4 1     
    5    3   19 1     
    6    3   20 1     
    7    4    5 1     
    8    4   21 1     
    9    4   22 1     
   10    5    6 1     
   11    5   23 1     
   12    5   41 1     
   13    6    7 1     
   14    6   24 1     
   15    6   25 1     
   16    7    8 1     
   17    7   26 1     
   18    7   27 1     
   19    8   12 1     
   20    8    9 1     
   21    9   10 2     
   22    9   28 1     
   23   10   11 1     
   24   10   29 1     
   25   11   12 2     
   26   11   30 1     
   27   13   14 1     
   28   13   31 1     
   29   14   18 1     
   30   14   15 1     
   31   14   32 1     
   32   15   16 1     
   33   15   33 1     
   34   15   34 1     
   35   16   17 1     
   36   16   35 1     
   37   16   36 1     
   38   17   18 1     
   39   17   37 1     
   40   17   38 1     
   41   18   39 1     
   42   18   40 1     
   43    1   42 1     
   44    1   43 1     
   45   12   44 1     
@<TRIPOS>SUBSTRUCTURE
      1 S1             1
@<TRIPOS>SET
LONE_PAIRS      STATIC     ATOMS    <user>   **** ""
3 42 43 44
DONOR_HYDROGENS      STATIC     ATOMS    <user>   **** ""
3 23 41 31
ATOM$BLUE        STATIC     ATOMS    COLORGROUP SYSTEM
3 42 43 44
ATOM$RED        STATIC     ATOMS    COLORGROUP SYSTEM
3 23 41 31
