AV-unprocessed.smi:1977|AV-procd|sdf|7991|dock3
  -GOLD-   2272010173D 1   1.00000     0.00000
 Structure written by MMmdl.
 45 46  0  0  0  0  0  0  0  0  1 V2000
  144.1733  133.3850  150.1465 C   0  0  0  0  0  0  0  0  0  0  0  0
  145.3680  134.2120  150.6525 C   0  0  0  0  0  0  0  0  0  0  0  0
  146.6012  133.3184  150.8492 C   0  0  0  0  0  0  0  0  0  0  0  0
  145.0418  134.9843  151.9486 C   0  0  0  0  0  0  0  0  0  0  0  0
  146.1922  135.7122  152.4745 N   0  0  0  0  0  0  0  0  0  0  0  0
  146.1976  136.4263  153.6086 C   0  0  0  0  0  0  0  0  0  0  0  0
  145.2218  136.5534  154.3481 O   0  0  0  0  0  0  0  0  0  0  0  0
  147.3934  136.9893  153.8339 N   0  0  0  0  0  0  0  0  0  0  0  0
  147.7378  137.8267  154.9803 C   0  0  0  0  0  0  0  0  0  0  0  0
  147.8883  139.3139  154.6498 C   0  0  0  0  0  0  0  0  0  0  0  0
  146.8511  140.0032  153.9791 C   0  0  0  0  0  0  0  0  0  0  0  0
  146.9890  141.3768  153.7130 C   0  0  0  0  0  0  0  0  0  0  0  0
  148.1638  142.0216  154.1357 C   0  0  0  0  0  0  0  0  0  0  0  0
  149.1599  141.3854  154.7836 N   0  0  0  0  0  0  0  0  0  0  0  0
  149.0332  140.0609  155.0434 C   0  0  0  0  0  0  0  0  0  0  0  0
  150.1061  139.4348  155.7030 N   0  0  0  0  0  0  0  0  0  0  0  0
  150.5017  140.0013  156.9886 C   0  0  0  0  0  0  0  0  0  0  0  0
  151.5545  139.0992  157.6551 C   0  0  0  0  0  0  0  0  0  0  0  0
  152.6627  138.9297  156.7751 O   0  0  0  0  0  0  0  0  0  0  0  0
  152.2827  138.3140  155.5472 C   0  0  0  0  0  0  0  0  0  0  0  0
  151.2451  139.1923  154.8267 C   0  0  0  0  0  0  0  0  0  0  0  0
  143.8592  132.6500  150.8882 H   0  0  0  0  0  0  0  0  0  0  0  0
  144.4288  132.8463  149.2336 H   0  0  0  0  0  0  0  0  0  0  0  0
  143.3149  134.0170  149.9183 H   0  0  0  0  0  0  0  0  0  0  0  0
  145.6180  134.9385  149.8781 H   0  0  0  0  0  0  0  0  0  0  0  0
  146.4237  132.5600  151.6123 H   0  0  0  0  0  0  0  0  0  0  0  0
  147.4668  133.9052  151.1579 H   0  0  0  0  0  0  0  0  0  0  0  0
  146.8664  132.8049  149.9245 H   0  0  0  0  0  0  0  0  0  0  0  0
  144.2457  135.7054  151.7605 H   0  0  0  0  0  0  0  0  0  0  0  0
  144.6617  134.3031  152.7119 H   0  0  0  0  0  0  0  0  0  0  0  0
  147.0439  135.6677  151.9342 H   0  0  0  0  0  0  0  0  0  0  0  0
  148.1273  136.8233  153.1610 H   0  0  0  0  0  0  0  0  0  0  0  0
  146.9967  137.7271  155.7747 H   0  0  0  0  0  0  0  0  0  0  0  0
  148.6614  137.4185  155.3867 H   0  0  0  0  0  0  0  0  0  0  0  0
  145.9485  139.4960  153.6734 H   0  0  0  0  0  0  0  0  0  0  0  0
  146.2102  141.9233  153.2019 H   0  0  0  0  0  0  0  0  0  0  0  0
  148.3071  143.0760  153.9513 H   0  0  0  0  0  0  0  0  0  0  0  0
  150.9168  140.9998  156.8432 H   0  0  0  0  0  0  0  0  0  0  0  0
  149.6282  140.1019  157.6337 H   0  0  0  0  0  0  0  0  0  0  0  0
  151.9036  139.5508  158.5837 H   0  0  0  0  0  0  0  0  0  0  0  0
  151.1291  138.1277  157.9120 H   0  0  0  0  0  0  0  0  0  0  0  0
  153.1674  138.1879  154.9232 H   0  0  0  0  0  0  0  0  0  0  0  0
  151.8812  137.3174  155.7378 H   0  0  0  0  0  0  0  0  0  0  0  0
  150.9225  138.7092  153.9040 H   0  0  0  0  0  0  0  0  0  0  0  0
  151.6931  140.1470  154.5466 H   0  0  0  0  0  0  0  0  0  0  0  0
  1  2  1  0  0  0  0
  1 22  1  0  0  0  0
  1 23  1  0  0  0  0
  1 24  1  0  0  0  0
  2  3  1  0  0  0  0
  2  4  1  0  0  0  0
  2 25  1  0  0  0  0
  3 26  1  0  0  0  0
  3 27  1  0  0  0  0
  3 28  1  0  0  0  0
  4  5  1  0  0  0  0
  4 29  1  0  0  0  0
  4 30  1  0  0  0  0
  5  6  1  0  0  0  0
  5 31  1  0  0  0  0
  6  7  2  0  0  0  0
  6  8  1  0  0  0  0
  8  9  1  0  0  0  0
  8 32  1  0  0  0  0
  9 10  1  0  0  0  0
  9 33  1  0  0  0  0
  9 34  1  0  0  0  0
 10 15  1  0  0  0  0
 10 11  2  0  0  0  0
 11 12  1  0  0  0  0
 11 35  1  0  0  0  0
 12 13  2  0  0  0  0
 12 36  1  0  0  0  0
 13 14  1  0  0  0  0
 13 37  1  0  0  0  0
 14 15  2  0  0  0  0
 15 16  1  0  0  0  0
 16 21  1  0  0  0  0
 16 17  1  0  0  0  0
 17 18  1  0  0  0  0
 17 38  1  0  0  0  0
 17 39  1  0  0  0  0
 18 19  1  0  0  0  0
 18 40  1  0  0  0  0
 18 41  1  0  0  0  0
 19 20  1  0  0  0  0
 20 21  1  0  0  0  0
 20 42  1  0  0  0  0
 20 43  1  0  0  0  0
 21 44  1  0  0  0  0
 21 45  1  0  0  0  0
M  END
> <s_m_source_file>
AV-unprocessed.smi

> <i_m_source_file_index>
1977

> <i_lp_mmshare_version>
43012

> <i_f3d_flags>
0

> <s_epik_input>
W0NIM11bQ0hdKFtDSDNdKVtDSDJdW05IXUMoPU8pW05IXVtDSDJdYzFbY0hdW2NIXVtjSF1uYzFOMltDSDJdW0NIMl1PW0NIMl1bQ0gyXTI=

> <s_epik_cmdline>
J2VwaWtfcHl0aG9uJywgJy1waCcsICc3LjAnLCAnLXRuJywgJzgnLCAnLW1hJywgJzIwMCcsICctbWV0YWxfYmluZGluZycsICctaW1hZScsICc8aW5maWxlLm1hZT4nLCAnLW9tYWUnLCAnPG91dGZpbGUubWFlPic=

> <r_lp_tautomer_probability>
1

> <r_epik_Ionization_Penalty>
0.00617532

> <r_epik_Ionization_Penalty_Charging>
0

> <r_epik_Ionization_Penalty_Neutral>
0.00617532

> <r_epik_State_Penalty>
0.00451205

> <r_epik_Charging_Adjusted_Penalty>
0.00451205

> <i_epik_Tot_Q>
0

> <i_epik_Tot_abs_Q>
0

> <r_epik_Metal_State_Penalty>
-0

> <b_epik_Metal_Only>
0

> <s_lp_Force_Field>
OPLS_2005

> <r_lp_Energy>
18.8779

> <b_lp_Chiralities_Consistent>
1

> <s_lp_Variant>
AV-unprocessed.smi:1977-1

> <Gold.Version>
5.8.1

> <Gold.Id.Protein>
6NUR|6NUR_protein|mol2

> <Gold.PLP.Fitness>
41.2720

> <Gold.PLP.PLP>
-30.5134

> <Gold.PLP.part.hbond>
-3.0000

> <Gold.PLP.part.metal>
0.0000

> <Gold.PLP.part.buried>
-2.8894

> <Gold.PLP.part.nonpolar>
-24.7315

> <Gold.PLP.part.repulsive>
0.2058

> <Gold.PLP.ligand.clash>
0.0000

> <Gold.PLP.ligand.torsion>
0.3883

> <Gold.PLP.Chemscore.Hbond>
2.8960

> <Gold.PLP.Chemscore.CHOScore>
0.8873

> <Gold.PLP.Chemscore.Metal>
0.0000

> <Gold.Chemscore.Hbonds>
donor molecule, donor type, donor heavy atom, donor atom, acceptor molecule, acceptor atom, score
      L1  H     5    31       P1  7948  0.93
      L1  H     8    32       P1  7948  1.00
      P1  H  7997  8010       L1    19  0.91
      L1  C    13    37       P1  8028  0.92

> <Gold.PLP.Chemscore.Internal.Correction>
0.1854

> <Gold.Rescore>
     Score         DG    S(hbond)    S(metal)    S(lipo)     H(rot)  DE(clash)    DE(int)     intcor
     17.50     -19.36       2.81        0.00      77.00       1.77       1.66       0.20       ----

> <Gold.Chemscore.Fitness>
17.5001

> <Gold.Chemscore.DG>
-19.3614

> <Gold.Chemscore.ZeroCoef>
-5.4800

> <Gold.Chemscore.Hbond>
2.8125

> <Gold.Chemscore.Metal>
0.0000

> <Gold.Chemscore.Lipo>
77.0013

> <Gold.Chemscore.Internal_Hbond>
0.0000

> <Gold.Chemscore.DEClash>
1.6646

> <Gold.Chemscore.DEInternal>
0.1967

> <Gold.Chemscore.Rot>
1.7662

> <Gold.Chemscore.Internal.Correction>
   9.000000E+99

> <Gold.Chemscore.Hbonds>
donor molecule, donor type, donor heavy atom, donor atom, acceptor molecule, acceptor atom, score
      L1  H     5    31       P1  7948  0.88
      L1  H     8    32       P1  7948  0.99
      P1  H  7997  8010       L1    19  0.76

> <Gold.Chemscore.Hbond.Weighted>
-9.3936

> <Gold.Chemscore.Metal.Weighted>
-0.0000

> <Gold.Chemscore.Lipo.Weighted>
-9.0092

> <Gold.Chemscore.Internal_Hbond.Weighted>
0.0000

> <Gold.Chemscore.DEClash.Weighted>
1.6646

> <Gold.Chemscore.DEInternal.Weighted>
0.1967

> <Gold.Chemscore.Rot.Weighted>
4.5214

> <Gold.Chemscore.Internal.Correction.Weighted>
   9.000000E+99

> <Gold.Protein.RotatedTorsions>
[ 6907 6896 6895 6894 ] final  143.64 input  -60.11 | X-H torsion
[ 7974 7965 7964 7962 ] final -123.66 input  175.53 | X-H torsion
[ 8008 7997 7996 7995 ] final   61.00 input   59.86 | X-H torsion
[ 10167 10162 10161 10158 ] final   48.46 input  -65.29 | X-H torsion
[ 10718 10713 10712 10709 ] final   72.26 input   66.30 | X-H torsion
[ 10763 10752 10751 10750 ] final   61.27 input  -60.55 | X-H torsion
[ 11005 11000 10999 10996 ] final -116.44 input  -57.11 | X-H torsion

> <Gold.Protein.ActiveResidues>
 VAL166  LYS551  ARG553  GLY616  TRP617  ASP618  TYR619  PRO620  LYS621  CYS622 
 ASP623  PHE694  ASN695  SER759  ASP760  ASP761  ALA762  ILE779  LEU786  VAL792 
 PHE793  MET794  SER795  GLU796  ALA797  LYS798  CYS799  TRP800  GLU811  SER814 

> <Gold.Protein.RotatedAtoms>
  152.2038  133.4860  159.5072 H   0  0  0  0  0  0  0  0  0  0  0  0  # atno 6907 bound_to 6896
  150.6975  134.1556  159.4166 H   0  0  0  0  0  0  0  0  0  0  0  0  # atno 6908 bound_to 6896
  151.9474  135.0185  160.0590 H   0  0  0  0  0  0  0  0  0  0  0  0  # atno 6909 bound_to 6896
  145.0163  140.7949  143.4408 H   0  0  0  0  0  0  0  0  0  0  0  0  # atno 7974 bound_to 7965
  155.5914  140.3493  155.4567 H   0  0  0  0  0  0  0  0  0  0  0  0  # atno 8008 bound_to 7997
  156.0298  140.1272  157.0295 H   0  0  0  0  0  0  0  0  0  0  0  0  # atno 8009 bound_to 7997
  154.4348  140.1045  156.6069 H   0  0  0  0  0  0  0  0  0  0  0  0  # atno 8010 bound_to 7997
  140.2931  144.3023  150.6236 H   0  0  0  0  0  0  0  0  0  0  0  0  # atno 10167 bound_to 10162
  157.6492  130.9570  150.0904 H   0  0  0  0  0  0  0  0  0  0  0  0  # atno 10718 bound_to 10713
  152.9945  135.5507  154.6006 H   0  0  0  0  0  0  0  0  0  0  0  0  # atno 10763 bound_to 10752
  154.5348  135.2816  155.1150 H   0  0  0  0  0  0  0  0  0  0  0  0  # atno 10764 bound_to 10752
  154.2451  135.6409  153.5273 H   0  0  0  0  0  0  0  0  0  0  0  0  # atno 10765 bound_to 10752
  141.0421  133.9819  157.2977 H   0  0  0  0  0  0  0  0  0  0  0  0  # atno 11005 bound_to 11000
  145.1956  139.2278  143.5220 LP  0  0  0  0  0  0  0  0  0  0  0  0  # atno 17320 bound_to 7965
  146.3478  140.1761  142.8589 LP  0  0  0  0  0  0  0  0  0  0  0  0  # atno 17321 bound_to 7965
  140.5715  143.2180  151.7590 LP  0  0  0  0  0  0  0  0  0  0  0  0  # atno 17342 bound_to 10162
  139.4933  144.4209  151.9978 LP  0  0  0  0  0  0  0  0  0  0  0  0  # atno 17343 bound_to 10162
  156.1854  130.3652  149.8979 LP  0  0  0  0  0  0  0  0  0  0  0  0  # atno 17370 bound_to 10713
  156.6921  130.8900  151.3589 LP  0  0  0  0  0  0  0  0  0  0  0  0  # atno 17371 bound_to 10713
  139.9284  135.0201  156.8315 LP  0  0  0  0  0  0  0  0  0  0  0  0  # atno 17394 bound_to 11000
  140.6214  133.9990  155.7620 LP  0  0  0  0  0  0  0  0  0  0  0  0  # atno 17395 bound_to 11000

$$$$
