AV-unprocessed.smi:1042|AV-procd|sdf|4537|dock2
  -GOLD-   22720 2563D 1   1.00000     0.00000
 Structure written by MMmdl.
 40 42  0  0  0  0  0  0  0  0  2 V2000
  146.5380  139.4532  153.3208 O   0  0  0  0  0  0  0  0  0  0  0  0
  147.2696  138.5407  152.9363 C   0  0  0  0  0  0  0  0  0  0  0  0
  146.8344  137.5095  152.1973 N   0  0  0  0  0  0  0  0  0  0  0  0
  145.4597  137.3239  151.7425 C   0  0  0  0  0  0  0  0  0  0  0  0
  144.9553  135.8837  151.9630 C   0  0  1  0  0  0  0  0  0  0  0  0
  143.7038  135.7873  152.8296 C   0  0  0  0  0  0  0  0  0  0  0  0
  143.1833  134.3905  152.4998 C   0  0  0  0  0  0  0  0  0  0  0  0
  143.4825  134.1832  151.0659 N   0  3  2  0  0  0  0  0  0  0  0  0
  143.7750  132.7773  150.7134 C   0  0  0  0  0  0  0  0  0  0  0  0
  144.3869  131.9862  151.8448 C   0  0  0  0  0  0  0  0  0  0  0  0
  145.2496  132.4531  150.6925 C   0  0  0  0  0  0  0  0  0  0  0  0
  144.5511  135.1364  150.6839 C   0  0  0  0  0  0  0  0  0  0  0  0
  148.5858  138.4372  153.1920 N   0  0  0  0  0  0  0  0  0  0  0  0
  149.3981  139.3021  153.9733 C   0  0  0  0  0  0  0  0  0  0  0  0
  148.9067  140.6196  154.1150 C   0  0  0  0  0  0  0  0  0  0  0  0
  149.6420  141.5559  154.8677 C   0  0  0  0  0  0  0  0  0  0  0  0
  150.8517  141.1503  155.4592 C   0  0  0  0  0  0  0  0  0  0  0  0
  151.2697  139.8206  155.2684 C   0  0  0  0  0  0  0  0  0  0  0  0
  150.5670  138.9217  154.5469 N   0  0  0  0  0  0  0  0  0  0  0  0
  147.5053  136.8085  151.9183 H   0  0  0  0  0  0  0  0  0  0  0  0
  144.8065  138.0344  152.2517 H   0  0  0  0  0  0  0  0  0  0  0  0
  145.4205  137.5758  150.6823 H   0  0  0  0  0  0  0  0  0  0  0  0
  145.7361  135.3033  152.4573 H   0  0  0  0  0  0  0  0  0  0  0  0
  143.9118  135.9210  153.8917 H   0  0  0  0  0  0  0  0  0  0  0  0
  142.9723  136.5394  152.5299 H   0  0  0  0  0  0  0  0  0  0  0  0
  143.7195  133.6542  153.1011 H   0  0  0  0  0  0  0  0  0  0  0  0
  142.1183  134.2794  152.7068 H   0  0  0  0  0  0  0  0  0  0  0  0
  143.0921  132.2999  150.0125 H   0  0  0  0  0  0  0  0  0  0  0  0
  144.5215  132.4798  152.8057 H   0  0  0  0  0  0  0  0  0  0  0  0
  144.1573  130.9237  151.8963 H   0  0  0  0  0  0  0  0  0  0  0  0
  145.5882  131.6979  149.9861 H   0  0  0  0  0  0  0  0  0  0  0  0
  145.9567  133.2574  150.8875 H   0  0  0  0  0  0  0  0  0  0  0  0
  144.1353  135.8251  149.9475 H   0  0  0  0  0  0  0  0  0  0  0  0
  145.4089  134.6434  150.2234 H   0  0  0  0  0  0  0  0  0  0  0  0
  149.0612  137.6429  152.7899 H   0  0  0  0  0  0  0  0  0  0  0  0
  147.9751  140.9151  153.6542 H   0  0  0  0  0  0  0  0  0  0  0  0
  149.2834  142.5675  154.9884 H   0  0  0  0  0  0  0  0  0  0  0  0
  151.4434  141.8394  156.0437 H   0  0  0  0  0  0  0  0  0  0  0  0
  152.1924  139.4689  155.7058 H   0  0  0  0  0  0  0  0  0  0  0  0
  142.6589  134.4587  150.5503 H   0  0  0  0  0  0  0  0  0  0  0  0
  1  2  2  0  0  0  0
  2  3  1  0  0  0  0
  2 13  1  0  0  0  0
  3  4  1  0  0  0  0
  3 20  1  0  0  0  0
  4  5  1  0  0  0  0
  4 21  1  0  0  0  0
  4 22  1  0  0  0  0
  5 12  1  0  0  0  0
  5  6  1  0  0  0  0
  5 23  1  0  0  0  0
  6  7  1  0  0  0  0
  6 24  1  0  0  0  0
  6 25  1  0  0  0  0
  7  8  1  0  0  0  0
  7 26  1  0  0  0  0
  7 27  1  0  0  0  0
  8  9  1  0  0  0  0
  8 12  1  0  0  0  0
  8 40  1  0  0  0  0
  9 11  1  0  0  0  0
  9 10  1  0  0  0  0
  9 28  1  0  0  0  0
 10 11  1  0  0  0  0
 10 29  1  0  0  0  0
 10 30  1  0  0  0  0
 11 31  1  0  0  0  0
 11 32  1  0  0  0  0
 12 33  1  0  0  0  0
 12 34  1  0  0  0  0
 13 14  1  0  0  0  0
 13 35  1  0  0  0  0
 14 19  1  0  0  0  0
 14 15  2  0  0  0  0
 15 16  1  0  0  0  0
 15 36  1  0  0  0  0
 16 17  2  0  0  0  0
 16 37  1  0  0  0  0
 17 18  1  0  0  0  0
 17 38  1  0  0  0  0
 18 19  2  0  0  0  0
 18 39  1  0  0  0  0
M  CHG  1   8   1
M  END
> <s_m_source_file>
AV-unprocessed.smi

> <i_m_source_file_index>
1042

> <i_lp_mmshare_version>
43012

> <i_f3d_flags>
0

> <s_epik_input>
bjFbY0hdW2NIXVtjSF1bY0hdYzFbTkhdQyg9TylbTkhdW0NIMl1bQ0BASF0yW0NIMl1bQ0gyXU4oW0NIMl0yKVtDSF0zW0NIMl1bQ0gyXTM=

> <s_epik_cmdline>
J2VwaWtfcHl0aG9uJywgJy1waCcsICc3LjAnLCAnLXRuJywgJzgnLCAnLW1hJywgJzIwMCcsICctbWV0YWxfYmluZGluZycsICctaW1hZScsICc8aW5maWxlLm1hZT4nLCAnLW9tYWUnLCAnPG91dGZpbGUubWFlPic=

> <r_lp_tautomer_probability>
1

> <r_epik_Ionization_Penalty>
0.000244736

> <r_epik_Ionization_Penalty_Charging>
0.000203384

> <r_epik_Ionization_Penalty_Neutral>
4.13519e-05

> <r_epik_State_Penalty>
-0

> <r_epik_Charging_Adjusted_Penalty>
0.000203384

> <i_epik_Tot_Q>
1

> <i_epik_Tot_abs_Q>
1

> <r_epik_Metal_State_Penalty>
-0

> <b_epik_Metal_Only>
0

> <s_lp_Force_Field>
OPLS_2005

> <r_lp_Energy>
38.5501

> <b_lp_Chiralities_Consistent>
1

> <s_lp_Variant>
AV-unprocessed.smi:1042-2

> <Gold.Version>
5.8.1

> <Gold.Id.Protein>
6NUR|6NUR_protein|mol2

> <Gold.PLP.Fitness>
46.7754

> <Gold.PLP.PLP>
-37.2097

> <Gold.PLP.part.hbond>
-3.8244

> <Gold.PLP.part.metal>
0.0000

> <Gold.PLP.part.buried>
-1.0870

> <Gold.PLP.part.nonpolar>
-33.5450

> <Gold.PLP.part.repulsive>
0.4817

> <Gold.PLP.ligand.clash>
0.0000

> <Gold.PLP.ligand.torsion>
1.8205

> <Gold.PLP.Chemscore.Hbond>
3.9760

> <Gold.PLP.Chemscore.CHOScore>
0.0000

> <Gold.PLP.Chemscore.Metal>
0.0000

> <Gold.Chemscore.Hbonds>
donor molecule, donor type, donor heavy atom, donor atom, acceptor molecule, acceptor atom, score
      L1  H     3    20       P1  7948  1.00
      L1  H     8    40       P1 10186  2.00
      L1  H    13    35       P1  7948  0.98

> <Gold.PLP.Chemscore.Internal.Correction>
1.2788

> <Gold.Rescore>
     Score         DG    S(hbond)    S(metal)    S(lipo)     H(rot)  DE(clash)    DE(int)     intcor
     15.66     -20.40       2.61        0.00      85.13       1.47       1.45       3.30       ----

> <Gold.Chemscore.Fitness>
15.6557

> <Gold.Chemscore.DG>
-20.4014

> <Gold.Chemscore.ZeroCoef>
-5.4800

> <Gold.Chemscore.Hbond>
2.6128

> <Gold.Chemscore.Metal>
0.0000

> <Gold.Chemscore.Lipo>
85.1254

> <Gold.Chemscore.Internal_Hbond>
0.0000

> <Gold.Chemscore.DEClash>
1.4458

> <Gold.Chemscore.DEInternal>
3.2999

> <Gold.Chemscore.Rot>
1.4707

> <Gold.Chemscore.Internal.Correction>
   9.000000E+99

> <Gold.Chemscore.Hbonds>
donor molecule, donor type, donor heavy atom, donor atom, acceptor molecule, acceptor atom, score
      L1  H     3    20       P1  7948  0.92
      L1  H     8    40       P1 10186  0.39
      L1  H    13    35       P1  7948  0.93

> <Gold.Chemscore.Hbond.Weighted>
-8.7267

> <Gold.Chemscore.Metal.Weighted>
-0.0000

> <Gold.Chemscore.Lipo.Weighted>
-9.9597

> <Gold.Chemscore.Internal_Hbond.Weighted>
0.0000

> <Gold.Chemscore.DEClash.Weighted>
1.4458

> <Gold.Chemscore.DEInternal.Weighted>
3.2999

> <Gold.Chemscore.Rot.Weighted>
3.7650

> <Gold.Chemscore.Internal.Correction.Weighted>
   9.000000E+99

> <Gold.Protein.RotatedTorsions>
[ 6907 6896 6895 6894 ] final  126.81 input  -60.11 | X-H torsion
[ 7974 7965 7964 7962 ] final -161.70 input  175.53 | X-H torsion
[ 8008 7997 7996 7995 ] final  157.35 input   59.86 | X-H torsion
[ 10167 10162 10161 10158 ] final  -82.85 input  -65.29 | X-H torsion
[ 10718 10713 10712 10709 ] final -132.54 input   66.30 | X-H torsion
[ 10763 10752 10751 10750 ] final   47.34 input  -60.55 | X-H torsion
[ 11005 11000 10999 10996 ] final   26.06 input  -57.11 | X-H torsion

> <Gold.Protein.ActiveResidues>
 VAL166  LYS551  ARG553  GLY616  TRP617  ASP618  TYR619  PRO620  LYS621  CYS622 
 ASP623  PHE694  ASN695  SER759  ASP760  ASP761  ALA762  ILE779  LEU786  VAL792 
 PHE793  MET794  SER795  GLU796  ALA797  LYS798  CYS799  TRP800  GLU811  SER814 

> <Gold.Protein.RotatedAtoms>
  152.3870  133.6625  159.6206 H   0  0  0  0  0  0  0  0  0  0  0  0  # atno 6907 bound_to 6896
  150.7787  133.9018  159.3352 H   0  0  0  0  0  0  0  0  0  0  0  0  # atno 6908 bound_to 6896
  151.6813  135.0963  160.0268 H   0  0  0  0  0  0  0  0  0  0  0  0  # atno 6909 bound_to 6896
  144.7382  140.3360  143.6144 H   0  0  0  0  0  0  0  0  0  0  0  0  # atno 7974 bound_to 7965
  156.2369  140.1887  156.7096 H   0  0  0  0  0  0  0  0  0  0  0  0  # atno 8008 bound_to 7997
  154.6123  140.0620  156.9536 H   0  0  0  0  0  0  0  0  0  0  0  0  # atno 8009 bound_to 7997
  155.1997  140.3291  155.4348 H   0  0  0  0  0  0  0  0  0  0  0  0  # atno 8010 bound_to 7997
  140.4281  143.2559  151.8798 H   0  0  0  0  0  0  0  0  0  0  0  0  # atno 10167 bound_to 10162
  156.2357  130.7065  151.0905 H   0  0  0  0  0  0  0  0  0  0  0  0  # atno 10718 bound_to 10713
  152.9801  135.5979  154.3747 H   0  0  0  0  0  0  0  0  0  0  0  0  # atno 10763 bound_to 10752
  154.3417  135.2767  155.2421 H   0  0  0  0  0  0  0  0  0  0  0  0  # atno 10764 bound_to 10752
  154.4499  135.5992  153.6240 H   0  0  0  0  0  0  0  0  0  0  0  0  # atno 10765 bound_to 10752
  140.3411  134.2332  155.7690 H   0  0  0  0  0  0  0  0  0  0  0  0  # atno 11005 bound_to 11000
  145.7423  139.1768  143.2368 LP  0  0  0  0  0  0  0  0  0  0  0  0  # atno 17320 bound_to 7965
  146.1124  140.7411  142.9497 LP  0  0  0  0  0  0  0  0  0  0  0  0  # atno 17321 bound_to 7965
  139.4784  144.5365  151.8591 LP  0  0  0  0  0  0  0  0  0  0  0  0  # atno 17342 bound_to 10162
  140.4458  144.1923  150.5894 LP  0  0  0  0  0  0  0  0  0  0  0  0  # atno 17343 bound_to 10162
  157.7153  131.0713  150.6350 LP  0  0  0  0  0  0  0  0  0  0  0  0  # atno 17370 bound_to 10713
  156.6420  130.4461  149.5749 LP  0  0  0  0  0  0  0  0  0  0  0  0  # atno 17371 bound_to 10713
  141.2038  133.7903  157.0320 LP  0  0  0  0  0  0  0  0  0  0  0  0  # atno 17394 bound_to 11000
  140.0780  134.9664  157.1577 LP  0  0  0  0  0  0  0  0  0  0  0  0  # atno 17395 bound_to 11000

$$$$
