#       Name:                AV-unprocessed.smi:2237
#       Creating user name   scv26
#       Creation time:       Fri Mar 27 12:25:28 2020


#       File generated by GOLD software.
#

@<TRIPOS>MOLECULE
AV-unprocessed.smi:2237
    58    60     1
SMALL
NO_CHARGES


@<TRIPOS>ATOM
      1 ****        -4.9035   6.3026   1.5671 C.3            1 S1                 0.0000
      2 ****        -5.1227   5.0623   0.7266 C.ar           1 S1                 0.0000
      3 ****        -6.4002   4.7405   0.2276 C.ar           1 S1                 0.0000
      4 ****        -6.5351   3.5736  -0.5454 C.ar           1 S1                 0.0000
      5 ****        -5.3954   2.7823  -0.7868 C.ar           1 S1                 0.0000
      6 ****        -4.1491   3.1766  -0.2499 C.ar           1 S1                 0.0000
      7 ****        -3.0616   2.3147  -0.5539 N.am           1 S1                 0.0000
      8 ****        -1.7742   2.4414  -0.1860 C.2            1 S1                 0.0000
      9 ****        -1.3182   3.3449   0.5154 O.2            1 S1                 0.0000
     10 ****        -1.0245   1.4455  -0.6819 N.am           1 S1                 0.0000
     11 ****         0.4163   1.3075  -0.4881 C.3            1 S1                 0.0000
     12 ****         1.0171   0.4421  -1.6087 C.3            1 S1                 0.0000
     13 ****         2.5206   0.2114  -1.3689 C.3            1 S1                 0.0000
     14 ****         2.7764  -0.4483  -0.0559 N.4            1 S1                 1.0000
     15 ****         2.3979  -1.8996   0.0449 C.3            1 S1                 0.0000
     16 ****         3.0718  -2.5711   1.2676 C.3            1 S1                 0.0000
     17 ****         2.7413  -4.0699   1.3706 C.3            1 S1                 0.0000
     18 ****         3.1285  -4.7882   0.1345 N.4            1 S1                 1.0000
     19 ****         2.9341  -6.2501   0.2460 C.3            1 S1                 0.0000
     20 ****         2.4567  -4.2176  -1.0556 C.3            1 S1                 0.0000
     21 ****         2.7790  -2.7217  -1.2128 C.3            1 S1                 0.0000
     22 ****         2.2444   0.4107   1.0423 C.3            1 S1                 0.0000
     23 ****         0.7354   0.6902   0.8880 C.3            1 S1                 0.0000
     24 ****        -4.0297   4.3035   0.4957 N.ar           1 S1                 0.0000
     25 ****        -5.8120   6.9019   1.6326 H              1 S1                 0.0000
     26 ****        -4.1188   6.9227   1.1327 H              1 S1                 0.0000
     27 ****        -4.6035   6.0263   2.5783 H              1 S1                 0.0000
     28 ****        -7.2551   5.3689   0.4300 H              1 S1                 0.0000
     29 ****        -7.4962   3.2895  -0.9477 H              1 S1                 0.0000
     30 ****        -5.4823   1.8834  -1.3796 H              1 S1                 0.0000
     31 ****        -3.2901   1.5163  -1.1271 H              1 S1                 0.0000
     32 ****        -1.4801   0.7458  -1.2494 H              1 S1                 0.0000
     33 ****         0.8764   2.2963  -0.5446 H              1 S1                 0.0000
     34 ****         0.4964  -0.5144  -1.6703 H              1 S1                 0.0000
     35 ****         0.8720   0.9331  -2.5718 H              1 S1                 0.0000
     36 ****         2.9769  -0.3270  -2.1975 H              1 S1                 0.0000
     37 ****         3.0266   1.1781  -1.3635 H              1 S1                 0.0000
     38 ****         1.3166  -1.9717   0.1626 H              1 S1                 0.0000
     39 ****         4.1537  -2.4424   1.2083 H              1 S1                 0.0000
     40 ****         2.7581  -2.1054   2.2000 H              1 S1                 0.0000
     41 ****         3.2699  -4.5008   2.2222 H              1 S1                 0.0000
     42 ****         1.6749  -4.2081   1.5568 H              1 S1                 0.0000
     43 ****         1.8807  -6.4969   0.3849 H              1 S1                 0.0000
     44 ****         3.4937  -6.6497   1.0925 H              1 S1                 0.0000
     45 ****         3.2883  -6.7554  -0.6533 H              1 S1                 0.0000
     46 ****         2.7802  -4.7540  -1.9486 H              1 S1                 0.0000
     47 ****         1.3781  -4.3626  -0.9722 H              1 S1                 0.0000
     48 ****         2.2335  -2.3689  -2.0876 H              1 S1                 0.0000
     49 ****         3.8410  -2.5991  -1.4307 H              1 S1                 0.0000
     50 ****         2.4533  -0.0048   2.0255 H              1 S1                 0.0000
     51 ****         2.7819   1.3596   1.0179 H              1 S1                 0.0000
     52 ****         0.4121   1.3650   1.6818 H              1 S1                 0.0000
     53 ****         0.1666  -0.2291   1.0281 H              1 S1                 0.0000
     54 ****         3.7812  -0.4367   0.0493 H              1 S1                 0.0000
     55 ****         4.1204  -4.6423   0.0094 H              1 S1                 0.0000
     56 ****        -1.9222   4.0634   0.8602 LP             1 S1                 0.0000
     57 ****        -0.3439   3.3601   0.7401 LP             1 S1                 0.0000
     58 ****        -3.1416   4.5696   0.8704 LP             1 S1                 0.0000
@<TRIPOS>BOND
    1    1    2 1     
    2    1   25 1     
    3    1   26 1     
    4    1   27 1     
    5    2   24 ar    
    6    2    3 ar    
    7    3    4 ar    
    8    3   28 1     
    9    4    5 ar    
   10    4   29 1     
   11    5    6 ar    
   12    5   30 1     
   13    6    7 1     
   14    6   24 ar    
   15    7    8 am    
   16    7   31 1     
   17    8    9 2     
   18    8   10 am    
   19   10   11 1     
   20   10   32 1     
   21   11   23 1     
   22   11   12 1     
   23   11   33 1     
   24   12   13 1     
   25   12   34 1     
   26   12   35 1     
   27   13   14 1     
   28   13   36 1     
   29   13   37 1     
   30   14   15 1     
   31   14   22 1     
   32   14   54 1     
   33   15   21 1     
   34   15   16 1     
   35   15   38 1     
   36   16   17 1     
   37   16   39 1     
   38   16   40 1     
   39   17   18 1     
   40   17   41 1     
   41   17   42 1     
   42   18   19 1     
   43   18   20 1     
   44   18   55 1     
   45   19   43 1     
   46   19   44 1     
   47   19   45 1     
   48   20   21 1     
   49   20   46 1     
   50   20   47 1     
   51   21   48 1     
   52   21   49 1     
   53   22   23 1     
   54   22   50 1     
   55   22   51 1     
   56   23   52 1     
   57   23   53 1     
   58    9   56 1     
   59    9   57 1     
   60   24   58 1     
@<TRIPOS>SUBSTRUCTURE
      1 S1             1
@<TRIPOS>SET
LONE_PAIRS      STATIC     ATOMS    <user>   **** ""
3 56 57 58
DONOR_HYDROGENS      STATIC     ATOMS    <user>   **** ""
4 31 32 54 55
ATOM$BLUE        STATIC     ATOMS    COLORGROUP SYSTEM
3 56 57 58
ATOM$RED        STATIC     ATOMS    COLORGROUP SYSTEM
4 31 32 54 55
