AV-unprocessed.smi:2366|AV-procd|sdf|9423|dock3
  -GOLD-   2272013 63D 1   1.00000     0.00000
 Structure written by MMmdl.
 31 32  0  0  0  0  0  0  0  0  1 V2000
  151.7713  141.7025  157.0900 O   0  0  0  0  0  0  0  0  0  0  0  0
  151.0948  142.6388  156.6623 C   0  0  0  0  0  0  0  0  0  0  0  0
  150.1215  142.5364  155.7396 N   0  0  0  0  0  0  0  0  0  0  0  0
  149.6656  141.3688  155.0715 C   0  0  0  0  0  0  0  0  0  0  0  0
  148.2883  141.3533  154.7593 C   0  0  0  0  0  0  0  0  0  0  0  0
  147.7427  140.2385  154.0948 C   0  0  0  0  0  0  0  0  0  0  0  0
  148.5888  139.1667  153.7591 C   0  0  0  0  0  0  0  0  0  0  0  0
  149.9507  139.2526  154.1043 C   0  0  0  0  0  0  0  0  0  0  0  0
  150.7849  138.2030  153.7778 O   0  0  0  0  0  0  0  0  0  0  0  0
  151.9159  137.9520  154.6073 C   0  0  0  0  0  0  0  0  0  0  0  0
  151.5141  136.9621  155.7051 C   0  0  0  0  0  0  0  0  0  0  0  0
  151.0513  135.8378  155.1601 F   0  0  0  0  0  0  0  0  0  0  0  0
  152.5603  136.6742  156.4789 F   0  0  0  0  0  0  0  0  0  0  0  0
  150.4709  140.3285  154.7443 N   0  0  0  0  0  0  0  0  0  0  0  0
  151.2441  143.9076  157.0685 N   0  0  0  0  0  0  0  0  0  0  0  0
  152.1921  144.3621  158.0341 C   0  0  0  0  0  0  0  0  0  0  0  0
  152.1699  143.7138  159.4016 C   0  0  0  0  0  0  0  0  0  0  0  0
  151.6643  145.1201  159.2330 C   0  0  0  0  0  0  0  0  0  0  0  0
  149.6535  143.3931  155.4840 H   0  0  0  0  0  0  0  0  0  0  0  0
  147.6520  142.1855  155.0238 H   0  0  0  0  0  0  0  0  0  0  0  0
  146.6921  140.2064  153.8470 H   0  0  0  0  0  0  0  0  0  0  0  0
  148.2018  138.2970  153.2489 H   0  0  0  0  0  0  0  0  0  0  0  0
  152.7199  137.5200  154.0089 H   0  0  0  0  0  0  0  0  0  0  0  0
  152.2880  138.8760  155.0535 H   0  0  0  0  0  0  0  0  0  0  0  0
  150.7250  137.3638  156.3410 H   0  0  0  0  0  0  0  0  0  0  0  0
  150.6433  144.6089  156.6614 H   0  0  0  0  0  0  0  0  0  0  0  0
  153.1696  144.6729  157.6676 H   0  0  0  0  0  0  0  0  0  0  0  0
  151.4324  142.9347  159.5854 H   0  0  0  0  0  0  0  0  0  0  0  0
  153.1237  143.5799  159.9082 H   0  0  0  0  0  0  0  0  0  0  0  0
  152.2800  145.9262  159.6269 H   0  0  0  0  0  0  0  0  0  0  0  0
  150.5897  145.2787  159.3032 H   0  0  0  0  0  0  0  0  0  0  0  0
  1  2  2  0  0  0  0
  2  3  1  0  0  0  0
  2 15  1  0  0  0  0
  3  4  1  0  0  0  0
  3 19  1  0  0  0  0
  4 14  1  0  0  0  0
  4  5  2  0  0  0  0
  5  6  1  0  0  0  0
  5 20  1  0  0  0  0
  6  7  2  0  0  0  0
  6 21  1  0  0  0  0
  7  8  1  0  0  0  0
  7 22  1  0  0  0  0
  8  9  1  0  0  0  0
  8 14  2  0  0  0  0
  9 10  1  0  0  0  0
 10 11  1  0  0  0  0
 10 23  1  0  0  0  0
 10 24  1  0  0  0  0
 11 12  1  0  0  0  0
 11 13  1  0  0  0  0
 11 25  1  0  0  0  0
 15 16  1  0  0  0  0
 15 26  1  0  0  0  0
 16 18  1  0  0  0  0
 16 17  1  0  0  0  0
 16 27  1  0  0  0  0
 17 18  1  0  0  0  0
 17 28  1  0  0  0  0
 17 29  1  0  0  0  0
 18 30  1  0  0  0  0
 18 31  1  0  0  0  0
M  END
> <s_m_source_file>
AV-unprocessed.smi

> <i_m_source_file_index>
2366

> <i_lp_mmshare_version>
43012

> <i_f3d_flags>
0

> <s_epik_input>
W0NIMl0xW0NIMl1bQ0hdMVtOSF1DKD1PKVtOSF1jMltjSF1bY0hdW2NIXWMobjIpT1tDSDJdW0NIXShGKUY=

> <s_epik_cmdline>
J2VwaWtfcHl0aG9uJywgJy1waCcsICc3LjAnLCAnLXRuJywgJzgnLCAnLW1hJywgJzIwMCcsICctbWV0YWxfYmluZGluZycsICctaW1hZScsICc8aW5maWxlLm1hZT4nLCAnLW9tYWUnLCAnPG91dGZpbGUubWFlPic=

> <r_lp_tautomer_probability>
1

> <r_epik_Ionization_Penalty>
4.14306e-05

> <r_epik_Ionization_Penalty_Charging>
0

> <r_epik_Ionization_Penalty_Neutral>
4.14306e-05

> <r_epik_State_Penalty>
-0

> <r_epik_Charging_Adjusted_Penalty>
0

> <i_epik_Tot_Q>
0

> <i_epik_Tot_abs_Q>
0

> <r_epik_Metal_State_Penalty>
-0

> <b_epik_Metal_Only>
0

> <s_lp_Force_Field>
OPLS_2005

> <r_lp_Energy>
17.3665

> <b_lp_Chiralities_Consistent>
1

> <s_lp_Variant>
AV-unprocessed.smi:2366-1

> <Gold.Version>
5.8.1

> <Gold.Id.Protein>
6NUR|6NUR_protein|mol2

> <Gold.PLP.Fitness>
43.4534

> <Gold.PLP.PLP>
-36.6644

> <Gold.PLP.part.hbond>
-3.0000

> <Gold.PLP.part.metal>
0.0000

> <Gold.PLP.part.buried>
-4.0850

> <Gold.PLP.part.nonpolar>
-30.8119

> <Gold.PLP.part.repulsive>
0.5125

> <Gold.PLP.ligand.clash>
0.0000

> <Gold.PLP.ligand.torsion>
0.8125

> <Gold.PLP.Chemscore.Hbond>
2.7840

> <Gold.PLP.Chemscore.CHOScore>
0.0000

> <Gold.PLP.Chemscore.Metal>
0.0000

> <Gold.Chemscore.Hbonds>
donor molecule, donor type, donor heavy atom, donor atom, acceptor molecule, acceptor atom, score
      L1  H     3    19       P1  8028  1.00
      L1  H    15    26       P1  8028  0.82
      P1  H  7989  7998       L1    14  0.95

> <Gold.PLP.Chemscore.Internal.Correction>
0.0619

> <Gold.Rescore>
     Score         DG    S(hbond)    S(metal)    S(lipo)     H(rot)  DE(clash)    DE(int)     intcor
     13.60     -15.74       1.98        0.00      67.71       1.66       0.31       1.83       ----

> <Gold.Chemscore.Fitness>
13.6027

> <Gold.Chemscore.DG>
-15.7445

> <Gold.Chemscore.ZeroCoef>
-5.4800

> <Gold.Chemscore.Hbond>
1.9762

> <Gold.Chemscore.Metal>
0.0000

> <Gold.Chemscore.Lipo>
67.7131

> <Gold.Chemscore.Internal_Hbond>
0.0000

> <Gold.Chemscore.DEClash>
0.3113

> <Gold.Chemscore.DEInternal>
1.8305

> <Gold.Chemscore.Rot>
1.6635

> <Gold.Chemscore.Internal.Correction>
   9.000000E+99

> <Gold.Chemscore.Hbonds>
donor molecule, donor type, donor heavy atom, donor atom, acceptor molecule, acceptor atom, score
      L1  H     3    19       P1  8028  0.93
      L1  H    15    26       P1  8028  0.75
      P1  H  7989  7998       L1    14  0.14

> <Gold.Chemscore.Hbond.Weighted>
-6.6006

> <Gold.Chemscore.Metal.Weighted>
-0.0000

> <Gold.Chemscore.Lipo.Weighted>
-7.9224

> <Gold.Chemscore.Internal_Hbond.Weighted>
0.0000

> <Gold.Chemscore.DEClash.Weighted>
0.3113

> <Gold.Chemscore.DEInternal.Weighted>
1.8305

> <Gold.Chemscore.Rot.Weighted>
4.2585

> <Gold.Chemscore.Internal.Correction.Weighted>
   9.000000E+99

> <Gold.Protein.RotatedTorsions>
[ 6907 6896 6895 6894 ] final  -96.04 input  -60.11 | X-H torsion
[ 7974 7965 7964 7962 ] final   24.25 input  175.53 | X-H torsion
[ 8008 7997 7996 7995 ] final   99.39 input   59.86 | X-H torsion
[ 10167 10162 10161 10158 ] final  -43.78 input  -65.29 | X-H torsion
[ 10718 10713 10712 10709 ] final  141.19 input   66.30 | X-H torsion
[ 10763 10752 10751 10750 ] final  -74.71 input  -60.55 | X-H torsion
[ 11005 11000 10999 10996 ] final  -72.62 input  -57.11 | X-H torsion

> <Gold.Protein.ActiveResidues>
 VAL166  LYS551  ARG553  GLY616  TRP617  ASP618  TYR619  PRO620  LYS621  CYS622 
 ASP623  PHE694  ASN695  SER759  ASP760  ASP761  ALA762  ILE779  LEU786  VAL792 
 PHE793  MET794  SER795  GLU796  ALA797  LYS798  CYS799  TRP800  GLU811  SER814 

> <Gold.Protein.RotatedAtoms>
  150.6978  134.1565  159.4159 H   0  0  0  0  0  0  0  0  0  0  0  0  # atno 6907 bound_to 6896
  151.9546  135.0150  160.0553 H   0  0  0  0  0  0  0  0  0  0  0  0  # atno 6908 bound_to 6896
  152.1980  133.4785  159.5080 H   0  0  0  0  0  0  0  0  0  0  0  0  # atno 6909 bound_to 6896
  146.1946  139.7630  142.8807 H   0  0  0  0  0  0  0  0  0  0  0  0  # atno 7974 bound_to 7965
  156.1100  140.3229  155.8060 H   0  0  0  0  0  0  0  0  0  0  0  0  # atno 8008 bound_to 7997
  155.4689  140.0545  157.2999 H   0  0  0  0  0  0  0  0  0  0  0  0  # atno 8009 bound_to 7997
  154.4754  140.2030  155.9906 H   0  0  0  0  0  0  0  0  0  0  0  0  # atno 8010 bound_to 7997
  140.6921  143.2965  151.3400 H   0  0  0  0  0  0  0  0  0  0  0  0  # atno 10167 bound_to 10162
  157.3948  131.1009  151.0611 H   0  0  0  0  0  0  0  0  0  0  0  0  # atno 10718 bound_to 10713
  154.4767  135.5855  153.6360 H   0  0  0  0  0  0  0  0  0  0  0  0  # atno 10763 bound_to 10752
  152.9842  135.6080  154.3298 H   0  0  0  0  0  0  0  0  0  0  0  0  # atno 10764 bound_to 10752
  154.3185  135.2844  155.2510 H   0  0  0  0  0  0  0  0  0  0  0  0  # atno 10765 bound_to 10752
  141.1611  133.6852  156.7087 H   0  0  0  0  0  0  0  0  0  0  0  0  # atno 11005 bound_to 11000
  145.3684  141.0338  143.3245 LP  0  0  0  0  0  0  0  0  0  0  0  0  # atno 17320 bound_to 7965
  144.8554  139.5257  143.6837 LP  0  0  0  0  0  0  0  0  0  0  0  0  # atno 17321 bound_to 7965
  139.6336  144.0674  152.2497 LP  0  0  0  0  0  0  0  0  0  0  0  0  # atno 17342 bound_to 10162
  140.0156  144.6191  150.7610 LP  0  0  0  0  0  0  0  0  0  0  0  0  # atno 17343 bound_to 10162
  157.1631  130.6234  149.5617 LP  0  0  0  0  0  0  0  0  0  0  0  0  # atno 17370 bound_to 10713
  155.9807  130.4810  150.6790 LP  0  0  0  0  0  0  0  0  0  0  0  0  # atno 17371 bound_to 10713
  140.2903  134.8246  157.4011 LP  0  0  0  0  0  0  0  0  0  0  0  0  # atno 17394 bound_to 11000
  140.1352  134.5043  155.8074 LP  0  0  0  0  0  0  0  0  0  0  0  0  # atno 17395 bound_to 11000

$$$$
