AV-unprocessed.smi:1240|AV-procd|sdf|5213|dock9
  -GOLD-   22720 4303D 1   1.00000     0.00000
 Structure written by MMmdl.
 48 50  0  0  0  0  0  0  0  0  4 V2000
  152.3384  139.3928  156.6344 O   0  0  0  0  0  0  0  0  0  0  0  0
  151.4150  140.0947  156.2063 C   0  0  0  0  0  0  0  0  0  0  0  0
  150.6281  139.8614  155.1224 N   0  5  0  0  0  0  0  0  0  0  0  0
  150.4104  138.5473  154.5178 C   0  0  0  0  0  0  0  0  0  0  0  0
  149.0861  137.8919  155.0487 C   0  0  2  0  0  0  0  0  0  0  0  0
  149.3130  136.5181  155.7569 C   0  0  1  0  0  0  0  0  0  0  0  0
  150.1145  135.4762  154.9804 C   0  0  0  0  0  0  0  0  0  0  0  0
  150.5660  134.5168  156.0763 C   0  0  0  0  0  0  0  0  0  0  0  0
  150.6922  135.3050  157.2538 O   0  0  0  0  0  0  0  0  0  0  0  0
  150.1830  136.6119  157.0177 C   0  0  0  0  0  0  0  0  0  0  0  0
  147.9758  137.7466  154.0387 N   0  3  0  0  0  0  0  0  0  0  0  0
  146.8244  136.8953  154.4360 C   0  0  0  0  0  0  0  0  0  0  0  0
  145.9782  136.5561  153.1986 C   0  0  0  0  0  0  0  0  0  0  0  0
  145.5500  137.7570  152.5655 O   0  0  0  0  0  0  0  0  0  0  0  0
  146.6436  138.5475  152.1126 C   0  0  0  0  0  0  0  0  0  0  0  0
  147.5163  138.9612  153.3087 C   0  0  0  0  0  0  0  0  0  0  0  0
  151.1106  141.2565  156.8117 N   0  0  0  0  0  0  0  0  0  0  0  0
  151.6633  141.8166  157.9946 C   0  0  0  0  0  0  0  0  0  0  0  0
  151.5714  143.2155  158.1660 C   0  0  0  0  0  0  0  0  0  0  0  0
  152.0854  143.8063  159.3379 C   0  0  0  0  0  0  0  0  0  0  0  0
  152.6473  143.0319  160.2911 N   0  3  0  0  0  0  0  0  0  0  0  0
  152.7409  141.6891  160.1796 C   0  0  0  0  0  0  0  0  0  0  0  0
  152.2455  141.0422  159.0295 C   0  0  0  0  0  0  0  0  0  0  0  0
  150.3705  138.5877  153.4286 H   0  0  0  0  0  0  0  0  0  0  0  0
  151.2465  137.8875  154.7477 H   0  0  0  0  0  0  0  0  0  0  0  0
  148.7008  138.5529  155.8268 H   0  0  0  0  0  0  0  0  0  0  0  0
  148.3581  136.0715  156.0422 H   0  0  0  0  0  0  0  0  0  0  0  0
  149.5381  134.9689  154.2061 H   0  0  0  0  0  0  0  0  0  0  0  0
  150.9834  135.9381  154.5088 H   0  0  0  0  0  0  0  0  0  0  0  0
  149.8064  133.7540  156.2509 H   0  0  0  0  0  0  0  0  0  0  0  0
  151.5012  134.0141  155.8291 H   0  0  0  0  0  0  0  0  0  0  0  0
  151.0274  137.2835  156.8547 H   0  0  0  0  0  0  0  0  0  0  0  0
  149.6287  136.9743  157.8839 H   0  0  0  0  0  0  0  0  0  0  0  0
  147.1779  135.9753  154.9023 H   0  0  0  0  0  0  0  0  0  0  0  0
  146.2000  137.4101  155.1661 H   0  0  0  0  0  0  0  0  0  0  0  0
  146.5443  135.9424  152.4958 H   0  0  0  0  0  0  0  0  0  0  0  0
  145.1011  135.9786  153.4906 H   0  0  0  0  0  0  0  0  0  0  0  0
  147.2291  137.9925  151.3778 H   0  0  0  0  0  0  0  0  0  0  0  0
  146.2551  139.4317  151.6072 H   0  0  0  0  0  0  0  0  0  0  0  0
  146.9355  139.6070  153.9689 H   0  0  0  0  0  0  0  0  0  0  0  0
  148.3689  139.5406  152.9551 H   0  0  0  0  0  0  0  0  0  0  0  0
  150.4283  141.8276  156.3351 H   0  0  0  0  0  0  0  0  0  0  0  0
  151.1174  143.8325  157.4040 H   0  0  0  0  0  0  0  0  0  0  0  0
  152.0610  144.8668  159.5410 H   0  0  0  0  0  0  0  0  0  0  0  0
  153.1993  141.1741  161.0109 H   0  0  0  0  0  0  0  0  0  0  0  0
  152.3067  139.9662  158.9647 H   0  0  0  0  0  0  0  0  0  0  0  0
  148.4198  137.1942  153.3201 H   0  0  0  0  0  0  0  0  0  0  0  0
  153.0109  143.4789  161.1330 H   0  0  0  0  0  0  0  0  0  0  0  0
  1  2  2  0  0  0  0
  2  3  1  0  0  0  0
  2 17  1  0  0  0  0
  3  4  1  0  0  0  0
  4  5  1  0  0  0  0
  4 24  1  0  0  0  0
  4 25  1  0  0  0  0
  5  6  1  0  0  0  0
  5 11  1  0  0  0  0
  5 26  1  0  0  0  0
  6 10  1  0  0  0  0
  6  7  1  0  0  0  0
  6 27  1  0  0  0  0
  7  8  1  0  0  0  0
  7 28  1  0  0  0  0
  7 29  1  0  0  0  0
  8  9  1  0  0  0  0
  8 30  1  0  0  0  0
  8 31  1  0  0  0  0
  9 10  1  0  0  0  0
 10 32  1  0  0  0  0
 10 33  1  0  0  0  0
 11 16  1  0  0  0  0
 11 12  1  0  0  0  0
 11 47  1  0  0  0  0
 12 13  1  0  0  0  0
 12 34  1  0  0  0  0
 12 35  1  0  0  0  0
 13 14  1  0  0  0  0
 13 36  1  0  0  0  0
 13 37  1  0  0  0  0
 14 15  1  0  0  0  0
 15 16  1  0  0  0  0
 15 38  1  0  0  0  0
 15 39  1  0  0  0  0
 16 40  1  0  0  0  0
 16 41  1  0  0  0  0
 17 18  1  0  0  0  0
 17 42  1  0  0  0  0
 18 23  1  0  0  0  0
 18 19  2  0  0  0  0
 19 20  1  0  0  0  0
 19 43  1  0  0  0  0
 20 21  2  0  0  0  0
 20 44  1  0  0  0  0
 21 22  1  0  0  0  0
 21 48  1  0  0  0  0
 22 23  2  0  0  0  0
 22 45  1  0  0  0  0
 23 46  1  0  0  0  0
M  CHG  1   3  -1
M  CHG  1  11   1
M  CHG  1  21   1
M  END
> <s_m_source_file>
AV-unprocessed.smi

> <i_m_source_file_index>
1240

> <i_lp_mmshare_version>
43012

> <i_f3d_flags>
0

> <s_epik_input>
W2NIXTFbY0hdbltjSF1bY0hdYzFbTkhdQyg9TylbTkhdW0NIMl1bQ0BIXShbQ0BASF0yW0NIMl1bQ0gyXU9bQ0gyXTIpTjNbQ0gyXVtDSDJdT1tDSDJdW0NIMl0z

> <s_epik_cmdline>
J2VwaWtfcHl0aG9uJywgJy1waCcsICc3LjAnLCAnLXRuJywgJzgnLCAnLW1hJywgJzIwMCcsICctbWV0YWxfYmluZGluZycsICctaW1hZScsICc8aW5maWxlLm1hZT4nLCAnLW9tYWUnLCAnPG91dGZpbGUubWFlPic=

> <r_epik_Ionization_Penalty>
8.41087

> <r_epik_Ionization_Penalty_Charging>
8.41087

> <r_epik_Ionization_Penalty_Neutral>
3.12936e-06

> <r_epik_State_Penalty>
8.81894

> <r_epik_Charging_Adjusted_Penalty>
17.2298

> <i_epik_Tot_Q>
1

> <i_epik_Tot_abs_Q>
3

> <r_epik_Metal_State_Penalty>
4.82983

> <b_epik_Metal_Only>
1

> <s_lp_Force_Field>
OPLS_2005

> <r_lp_Energy>
48.3521

> <b_lp_Chiralities_Consistent>
1

> <s_lp_Variant>
AV-unprocessed.smi:1240-19

> <Gold.Version>
5.8.1

> <Gold.Id.Protein>
6NUR|6NUR_protein|mol2

> <Gold.PLP.Fitness>
47.9687

> <Gold.PLP.PLP>
-38.4779

> <Gold.PLP.part.hbond>
-3.6441

> <Gold.PLP.part.metal>
0.0000

> <Gold.PLP.part.buried>
-6.5883

> <Gold.PLP.part.nonpolar>
-30.1739

> <Gold.PLP.part.repulsive>
0.4329

> <Gold.PLP.ligand.clash>
0.0000

> <Gold.PLP.ligand.torsion>
1.4258

> <Gold.PLP.Chemscore.Hbond>
3.9500

> <Gold.PLP.Chemscore.CHOScore>
0.0000

> <Gold.PLP.Chemscore.Metal>
0.0000

> <Gold.Chemscore.Hbonds>
donor molecule, donor type, donor heavy atom, donor atom, acceptor molecule, acceptor atom, score
      L1  H    11    47       P1  7948  2.00
      P1  H  6896  6909       L1     9  0.05
      P1  H  7989  7998       L1     3  0.68
      P1  H  7997  8010       L1     1  0.71

> <Gold.PLP.Chemscore.Internal.Correction>
0.4923

> <Gold.Rescore>
     Score         DG    S(hbond)    S(metal)    S(lipo)     H(rot)  DE(clash)    DE(int)     intcor
     17.03     -19.71       2.03        0.00     100.91       1.70       0.08       2.60       ----

> <Gold.Chemscore.Fitness>
17.0311

> <Gold.Chemscore.DG>
-19.7081

> <Gold.Chemscore.ZeroCoef>
-5.4800

> <Gold.Chemscore.Hbond>
2.0298

> <Gold.Chemscore.Metal>
0.0000

> <Gold.Chemscore.Lipo>
100.9076

> <Gold.Chemscore.Internal_Hbond>
0.0000

> <Gold.Chemscore.DEClash>
0.0817

> <Gold.Chemscore.DEInternal>
2.5954

> <Gold.Chemscore.Rot>
1.7021

> <Gold.Chemscore.Internal.Correction>
   9.000000E+99

> <Gold.Chemscore.Hbonds>
donor molecule, donor type, donor heavy atom, donor atom, acceptor molecule, acceptor atom, score
      L1  H    11    47       P1  7948  1.00
      P1  H  6896  6909       L1     9  0.06
      P1  H  7989  7998       L1     3  0.08
      P1  H  7997  8010       L1     1  0.67

> <Gold.Chemscore.Hbond.Weighted>
-6.7794

> <Gold.Chemscore.Metal.Weighted>
-0.0000

> <Gold.Chemscore.Lipo.Weighted>
-11.8062

> <Gold.Chemscore.Internal_Hbond.Weighted>
0.0000

> <Gold.Chemscore.DEClash.Weighted>
0.0817

> <Gold.Chemscore.DEInternal.Weighted>
2.5954

> <Gold.Chemscore.Rot.Weighted>
4.3575

> <Gold.Chemscore.Internal.Correction.Weighted>
   9.000000E+99

> <Gold.Protein.RotatedTorsions>
[ 6907 6896 6895 6894 ] final   25.57 input  -60.11 | X-H torsion
[ 7974 7965 7964 7962 ] final  148.11 input  175.53 | X-H torsion
[ 8008 7997 7996 7995 ] final   78.06 input   59.86 | X-H torsion
[ 10167 10162 10161 10158 ] final  -30.89 input  -65.29 | X-H torsion
[ 10718 10713 10712 10709 ] final  157.35 input   66.30 | X-H torsion
[ 10763 10752 10751 10750 ] final  167.37 input  -60.55 | X-H torsion
[ 11005 11000 10999 10996 ] final  -77.46 input  -57.11 | X-H torsion

> <Gold.Protein.ActiveResidues>
 VAL166  LYS551  ARG553  GLY616  TRP617  ASP618  TYR619  PRO620  LYS621  CYS622 
 ASP623  PHE694  ASN695  SER759  ASP760  ASP761  ALA762  ILE779  LEU786  VAL792 
 PHE793  MET794  SER795  GLU796  ALA797  LYS798  CYS799  TRP800  GLU811  SER814 

> <Gold.Protein.RotatedAtoms>
  151.9745  135.0060  160.0554 H   0  0  0  0  0  0  0  0  0  0  0  0  # atno 6907 bound_to 6896
  152.1753  133.4666  159.4938 H   0  0  0  0  0  0  0  0  0  0  0  0  # atno 6908 bound_to 6896
  150.6908  134.1819  159.4295 H   0  0  0  0  0  0  0  0  0  0  0  0  # atno 6909 bound_to 6896
  144.8539  139.6113  143.5961 H   0  0  0  0  0  0  0  0  0  0  0  0  # atno 7974 bound_to 7965
  155.8505  140.3458  155.5690 H   0  0  0  0  0  0  0  0  0  0  0  0  # atno 8008 bound_to 7997
  155.8043  140.0889  157.1959 H   0  0  0  0  0  0  0  0  0  0  0  0  # atno 8009 bound_to 7997
  154.4007  140.1459  156.3299 H   0  0  0  0  0  0  0  0  0  0  0  0  # atno 8010 bound_to 7997
  140.7243  143.3813  151.1595 H   0  0  0  0  0  0  0  0  0  0  0  0  # atno 10167 bound_to 10162
  157.1927  131.0658  151.2070 H   0  0  0  0  0  0  0  0  0  0  0  0  # atno 10718 bound_to 10713
  154.3528  135.2753  155.2362 H   0  0  0  0  0  0  0  0  0  0  0  0  # atno 10763 bound_to 10752
  154.4584  135.5913  153.6242 H   0  0  0  0  0  0  0  0  0  0  0  0  # atno 10764 bound_to 10752
  152.9848  135.6059  154.3741 H   0  0  0  0  0  0  0  0  0  0  0  0  # atno 10765 bound_to 10752
  141.1660  133.7023  156.7824 H   0  0  0  0  0  0  0  0  0  0  0  0  # atno 11005 bound_to 11000
  146.2807  139.6870  142.9231 LP  0  0  0  0  0  0  0  0  0  0  0  0  # atno 17320 bound_to 7965
  145.4445  141.0424  143.2839 LP  0  0  0  0  0  0  0  0  0  0  0  0  # atno 17321 bound_to 7965
  139.7403  143.8935  152.3048 LP  0  0  0  0  0  0  0  0  0  0  0  0  # atno 17342 bound_to 10162
  139.8754  144.7046  150.8939 LP  0  0  0  0  0  0  0  0  0  0  0  0  # atno 17343 bound_to 10162
  157.3844  130.7249  149.6653 LP  0  0  0  0  0  0  0  0  0  0  0  0  # atno 17370 bound_to 10713
  155.9710  130.4163  150.4226 LP  0  0  0  0  0  0  0  0  0  0  0  0  # atno 17371 bound_to 10713
  140.2384  134.8632  157.3549 LP  0  0  0  0  0  0  0  0  0  0  0  0  # atno 17394 bound_to 11000
  140.1820  134.4478  155.7766 LP  0  0  0  0  0  0  0  0  0  0  0  0  # atno 17395 bound_to 11000

$$$$
