AV-unprocessed.smi:2975|AV-procd|sdf|11355|dock3
  -GOLD-   2272016273D 1   1.00000     0.00000
 Structure written by MMmdl.
 39 41  0  0  0  0  0  0  0  0  1 V2000
  154.5198  139.8039  161.5433 C   0  0  0  0  0  0  0  0  0  0  0  0
  153.6690  139.8296  160.2668 C   0  0  2  0  0  0  0  0  0  0  0  0
  154.4779  139.3992  159.1902 O   0  0  0  0  0  0  0  0  0  0  0  0
  153.0659  141.1866  160.0236 C   0  0  0  0  0  0  0  0  0  0  0  0
  153.1787  142.1837  160.9042 N   0  0  0  0  0  0  0  0  0  0  0  0
  152.4871  143.2120  160.2957 C   0  0  0  0  0  0  0  0  0  0  0  0
  152.2520  144.5389  160.7214 C   0  0  0  0  0  0  0  0  0  0  0  0
  151.5083  145.4255  159.9154 C   0  0  0  0  0  0  0  0  0  0  0  0
  150.9898  144.9987  158.6757 C   0  0  0  0  0  0  0  0  0  0  0  0
  151.2111  143.6802  158.2340 C   0  0  0  0  0  0  0  0  0  0  0  0
  151.9542  142.7993  159.0423 C   0  0  0  0  0  0  0  0  0  0  0  0
  152.3442  141.4706  158.9087 N   0  0  0  0  0  0  0  0  0  0  0  0
  152.0319  140.5985  157.7874 C   0  0  0  0  0  0  0  0  0  0  0  0
  150.5400  140.6459  157.4366 C   0  0  0  0  0  0  0  0  0  0  0  0
  150.1927  139.4372  156.7768 O   0  0  0  0  0  0  0  0  0  0  0  0
  149.1819  139.4719  155.8398 C   0  0  0  0  0  0  0  0  0  0  0  0
  148.5403  140.6603  155.4056 C   0  0  0  0  0  0  0  0  0  0  0  0
  147.5138  140.6059  154.4428 C   0  0  0  0  0  0  0  0  0  0  0  0
  147.1159  139.3692  153.9027 C   0  0  0  0  0  0  0  0  0  0  0  0
  147.7462  138.1851  154.3272 C   0  0  0  0  0  0  0  0  0  0  0  0
  148.7724  138.2379  155.2902 C   0  0  0  0  0  0  0  0  0  0  0  0
  149.3715  137.0906  155.6901 F   0  0  0  0  0  0  0  0  0  0  0  0
  153.9257  140.0793  162.4150 H   0  0  0  0  0  0  0  0  0  0  0  0
  155.3551  140.5021  161.4770 H   0  0  0  0  0  0  0  0  0  0  0  0
  154.9297  138.8099  161.7247 H   0  0  0  0  0  0  0  0  0  0  0  0
  152.8729  139.0915  160.3552 H   0  0  0  0  0  0  0  0  0  0  0  0
  154.7372  138.5049  159.3504 H   0  0  0  0  0  0  0  0  0  0  0  0
  152.6461  144.8754  161.6689 H   0  0  0  0  0  0  0  0  0  0  0  0
  151.3356  146.4379  160.2499 H   0  0  0  0  0  0  0  0  0  0  0  0
  150.4223  145.6846  158.0639 H   0  0  0  0  0  0  0  0  0  0  0  0
  150.8157  143.3507  157.2847 H   0  0  0  0  0  0  0  0  0  0  0  0
  152.6424  140.8779  156.9287 H   0  0  0  0  0  0  0  0  0  0  0  0
  152.3226  139.5797  158.0458 H   0  0  0  0  0  0  0  0  0  0  0  0
  149.9526  140.7627  158.3489 H   0  0  0  0  0  0  0  0  0  0  0  0
  150.3366  141.4992  156.7877 H   0  0  0  0  0  0  0  0  0  0  0  0
  148.8164  141.6275  155.7966 H   0  0  0  0  0  0  0  0  0  0  0  0
  147.0309  141.5162  154.1190 H   0  0  0  0  0  0  0  0  0  0  0  0
  146.3286  139.3289  153.1643 H   0  0  0  0  0  0  0  0  0  0  0  0
  147.4427  137.2342  153.9140 H   0  0  0  0  0  0  0  0  0  0  0  0
  1  2  1  0  0  0  0
  1 23  1  0  0  0  0
  1 24  1  0  0  0  0
  1 25  1  0  0  0  0
  2  3  1  0  0  0  0
  2  4  1  0  0  0  0
  2 26  1  0  0  0  0
  3 27  1  0  0  0  0
  4 12  1  0  0  0  0
  4  5  2  0  0  0  0
  5  6  1  0  0  0  0
  6 11  2  0  0  0  0
  6  7  1  0  0  0  0
  7  8  2  0  0  0  0
  7 28  1  0  0  0  0
  8  9  1  0  0  0  0
  8 29  1  0  0  0  0
  9 10  2  0  0  0  0
  9 30  1  0  0  0  0
 10 11  1  0  0  0  0
 10 31  1  0  0  0  0
 11 12  1  0  0  0  0
 12 13  1  0  0  0  0
 13 14  1  0  0  0  0
 13 32  1  0  0  0  0
 13 33  1  0  0  0  0
 14 15  1  0  0  0  0
 14 34  1  0  0  0  0
 14 35  1  0  0  0  0
 15 16  1  0  0  0  0
 16 21  1  0  0  0  0
 16 17  2  0  0  0  0
 17 18  1  0  0  0  0
 17 36  1  0  0  0  0
 18 19  2  0  0  0  0
 18 37  1  0  0  0  0
 19 20  1  0  0  0  0
 19 38  1  0  0  0  0
 20 21  2  0  0  0  0
 20 39  1  0  0  0  0
 21 22  1  0  0  0  0
M  END
> <s_m_source_file>
AV-unprocessed.smi

> <i_m_source_file_index>
2975

> <i_lp_mmshare_version>
43012

> <i_f3d_flags>
0

> <s_epik_input>
W2NIXTFbY0hdW2NIXVtjSF1jKGMxMiluKGMobjIpW0NASF0oW0NIM10pW09IXSlbQ0gyXVtDSDJdT2MzW2NIXVtjSF1bY0hdW2NIXWMzRg==

> <s_epik_cmdline>
J2VwaWtfcHl0aG9uJywgJy1waCcsICc3LjAnLCAnLXRuJywgJzgnLCAnLW1hJywgJzIwMCcsICctbWV0YWxfYmluZGluZycsICctaW1hZScsICc8aW5maWxlLm1hZT4nLCAnLW9tYWUnLCAnPG91dGZpbGUubWFlPic=

> <r_lp_tautomer_probability>
1

> <r_epik_Ionization_Penalty>
0.0404035

> <r_epik_Ionization_Penalty_Charging>
0

> <r_epik_Ionization_Penalty_Neutral>
0.0404035

> <r_epik_State_Penalty>
0.0340039

> <r_epik_Charging_Adjusted_Penalty>
0.0340039

> <i_epik_Tot_Q>
0

> <i_epik_Tot_abs_Q>
0

> <r_epik_Metal_State_Penalty>
3.49976e-05

> <b_epik_Metal_Only>
0

> <s_lp_Force_Field>
OPLS_2005

> <r_lp_Energy>
15.721

> <b_lp_Chiralities_Consistent>
1

> <s_lp_Variant>
AV-unprocessed.smi:2975-1

> <Gold.Version>
5.8.1

> <Gold.Id.Protein>
6NUR|6NUR_protein|mol2

> <Gold.PLP.Fitness>
50.0029

> <Gold.PLP.PLP>
-48.0078

> <Gold.PLP.part.hbond>
-1.0000

> <Gold.PLP.part.metal>
0.0000

> <Gold.PLP.part.buried>
-5.7014

> <Gold.PLP.part.nonpolar>
-40.8454

> <Gold.PLP.part.repulsive>
0.0118

> <Gold.PLP.ligand.clash>
0.0000

> <Gold.PLP.ligand.torsion>
0.5456

> <Gold.PLP.Chemscore.Hbond>
1.0000

> <Gold.PLP.Chemscore.CHOScore>
0.0000

> <Gold.PLP.Chemscore.Metal>
0.0000

> <Gold.Chemscore.Hbonds>
donor molecule, donor type, donor heavy atom, donor atom, acceptor molecule, acceptor atom, score
      P1  H  7997  8009       L1     3  0.54

> <Gold.PLP.Chemscore.Internal.Correction>
0.0863

> <Gold.Rescore>
     Score         DG    S(hbond)    S(metal)    S(lipo)     H(rot)  DE(clash)    DE(int)     intcor
     17.68     -18.35       0.96        0.00     130.77       2.21       0.12       0.54       ----

> <Gold.Chemscore.Fitness>
17.6842

> <Gold.Chemscore.DG>
-18.3454

> <Gold.Chemscore.ZeroCoef>
-5.4800

> <Gold.Chemscore.Hbond>
0.9620

> <Gold.Chemscore.Metal>
0.0000

> <Gold.Chemscore.Lipo>
130.7666

> <Gold.Chemscore.Internal_Hbond>
0.0000

> <Gold.Chemscore.DEClash>
0.1184

> <Gold.Chemscore.DEInternal>
0.5428

> <Gold.Chemscore.Rot>
2.2060

> <Gold.Chemscore.Internal.Correction>
   9.000000E+99

> <Gold.Chemscore.Hbonds>
donor molecule, donor type, donor heavy atom, donor atom, acceptor molecule, acceptor atom, score
      P1  H  7997  8009       L1     3  0.47

> <Gold.Chemscore.Hbond.Weighted>
-3.2130

> <Gold.Chemscore.Metal.Weighted>
-0.0000

> <Gold.Chemscore.Lipo.Weighted>
-15.2997

> <Gold.Chemscore.Internal_Hbond.Weighted>
0.0000

> <Gold.Chemscore.DEClash.Weighted>
0.1184

> <Gold.Chemscore.DEInternal.Weighted>
0.5428

> <Gold.Chemscore.Rot.Weighted>
5.6473

> <Gold.Chemscore.Internal.Correction.Weighted>
   9.000000E+99

> <Gold.Protein.RotatedTorsions>
[ 6907 6896 6895 6894 ] final   35.70 input  -60.11 | X-H torsion
[ 7974 7965 7964 7962 ] final   44.59 input  175.53 | X-H torsion
[ 8008 7997 7996 7995 ] final  149.32 input   59.86 | X-H torsion
[ 10167 10162 10161 10158 ] final  132.87 input  -65.29 | X-H torsion
[ 10718 10713 10712 10709 ] final  150.64 input   66.30 | X-H torsion
[ 10763 10752 10751 10750 ] final -134.89 input  -60.55 | X-H torsion
[ 11005 11000 10999 10996 ] final -147.01 input  -57.11 | X-H torsion

> <Gold.Protein.ActiveResidues>
 VAL166  LYS551  ARG553  GLY616  TRP617  ASP618  TYR619  PRO620  LYS621  CYS622 
 ASP623  PHE694  ASN695  SER759  ASP760  ASP761  ALA762  ILE779  LEU786  VAL792 
 PHE793  MET794  SER795  GLU796  ALA797  LYS798  CYS799  TRP800  GLU811  SER814 

> <Gold.Protein.RotatedAtoms>
  152.1197  134.9214  160.0563 H   0  0  0  0  0  0  0  0  0  0  0  0  # atno 6907 bound_to 6896
  152.0360  133.3952  159.4325 H   0  0  0  0  0  0  0  0  0  0  0  0  # atno 6908 bound_to 6896
  150.6848  134.3389  159.4903 H   0  0  0  0  0  0  0  0  0  0  0  0  # atno 6909 bound_to 6896
  146.0555  139.5058  142.9691 H   0  0  0  0  0  0  0  0  0  0  0  0  # atno 7974 bound_to 7965
  156.2759  140.2105  156.5839 H   0  0  0  0  0  0  0  0  0  0  0  0  # atno 8008 bound_to 7997
  154.7037  140.0518  157.0506 H   0  0  0  0  0  0  0  0  0  0  0  0  # atno 8009 bound_to 7997
  155.0700  140.3175  155.4636 H   0  0  0  0  0  0  0  0  0  0  0  0  # atno 8010 bound_to 7997
  139.5321  144.6642  151.4915 H   0  0  0  0  0  0  0  0  0  0  0  0  # atno 10167 bound_to 10162
  157.2809  131.0835  151.1532 H   0  0  0  0  0  0  0  0  0  0  0  0  # atno 10718 bound_to 10713
  154.8712  135.3720  154.4809 H   0  0  0  0  0  0  0  0  0  0  0  0  # atno 10763 bound_to 10752
  153.5462  135.7025  153.5618 H   0  0  0  0  0  0  0  0  0  0  0  0  # atno 10764 bound_to 10752
  153.3757  135.4009  155.1785 H   0  0  0  0  0  0  0  0  0  0  0  0  # atno 10765 bound_to 10752
  140.7761  134.3133  157.5060 H   0  0  0  0  0  0  0  0  0  0  0  0  # atno 11005 bound_to 11000
  145.6651  141.0231  143.1688 LP  0  0  0  0  0  0  0  0  0  0  0  0  # atno 17320 bound_to 7965
  144.7146  139.8245  143.7403 LP  0  0  0  0  0  0  0  0  0  0  0  0  # atno 17321 bound_to 7965
  140.6505  143.8706  150.6781 LP  0  0  0  0  0  0  0  0  0  0  0  0  # atno 17342 bound_to 10162
  140.2069  143.3914  152.1748 LP  0  0  0  0  0  0  0  0  0  0  0  0  # atno 17343 bound_to 10162
  157.2967  130.6822  149.6142 LP  0  0  0  0  0  0  0  0  0  0  0  0  # atno 17370 bound_to 10713
  155.9664  130.4404  150.5299 LP  0  0  0  0  0  0  0  0  0  0  0  0  # atno 17371 bound_to 10713
  139.8749  134.9290  156.3466 LP  0  0  0  0  0  0  0  0  0  0  0  0  # atno 17394 bound_to 11000
  140.9527  133.7440  156.0294 LP  0  0  0  0  0  0  0  0  0  0  0  0  # atno 17395 bound_to 11000

$$$$
