#       Name:                AV-unprocessed.smi:1956
#       Creating user name   scv26
#       Creation time:       Fri Mar 27 10:05:50 2020


#       File generated by GOLD software.
#

@<TRIPOS>MOLECULE
AV-unprocessed.smi:1956
    51    52     1
SMALL
NO_CHARGES


@<TRIPOS>ATOM
      1 ****        -4.9198   6.9287   0.0170 C.3            1 S1                 0.0000
      2 ****        -5.5829   5.6909  -0.2168 O.3            1 S1                 0.0000
      3 ****        -4.8775   4.5219  -0.0166 C.ar           1 S1                 0.0000
      4 ****        -5.5319   3.2936  -0.2358 C.ar           1 S1                 0.0000
      5 ****        -4.8163   2.0984  -0.0340 C.ar           1 S1                 0.0000
      6 ****        -3.4675   2.1635   0.3698 C.ar           1 S1                 0.0000
      7 ****        -2.7742   0.9414   0.5838 N.am           1 S1                 0.0000
      8 ****        -1.4475   0.7260   0.5959 C.2            1 S1                 0.0000
      9 ****        -0.5848   1.5752   0.3725 O.2            1 S1                 0.0000
     10 ****        -1.1648  -0.5572   0.8620 N.am           1 S1                 0.0000
     11 ****         0.1808  -1.1135   0.9466 C.3            1 S1                 0.0000
     12 ****         0.7632  -1.4003  -0.4510 C.3            1 S1                 0.0000
     13 ****         2.1537  -1.9173  -0.3905 N.4            1 S1                 1.0000
     14 ****         2.8913  -1.6945  -1.6611 C.3            1 S1                 0.0000
     15 ****         4.3695  -2.0919  -1.5229 C.3            1 S1                 0.0000
     16 ****         4.5082  -3.5463  -1.0517 C.3            1 S1                 0.0000
     17 ****         3.6955  -3.7980   0.2318 C.3            1 S1                 0.0000
     18 ****         4.3447  -3.1773   1.4812 C.3            1 S1                 0.0000
     19 ****         2.2348  -3.3381   0.0461 C.3            1 S1                 0.0000
     20 ****        -2.9033   3.4463   0.5763 C.ar           1 S1                 0.0000
     21 ****        -3.5851   4.5959   0.3868 N.ar           1 S1                 0.0000
     22 ****        -5.6054   7.7501  -0.1909 H              1 S1                 0.0000
     23 ****        -4.0539   7.0485  -0.6356 H              1 S1                 0.0000
     24 ****        -4.6006   7.0190   1.0561 H              1 S1                 0.0000
     25 ****        -6.5643   3.2687  -0.5518 H              1 S1                 0.0000
     26 ****        -5.2990   1.1450  -0.1930 H              1 S1                 0.0000
     27 ****        -3.3596   0.1267   0.6964 H              1 S1                 0.0000
     28 ****        -1.9336  -1.1905   1.0286 H              1 S1                 0.0000
     29 ****         0.8311  -0.4333   1.4997 H              1 S1                 0.0000
     30 ****         0.1146  -2.0264   1.5371 H              1 S1                 0.0000
     31 ****         0.1309  -2.1003  -0.9994 H              1 S1                 0.0000
     32 ****         0.7577  -0.4702  -1.0212 H              1 S1                 0.0000
     33 ****         2.4200  -2.2662  -2.4622 H              1 S1                 0.0000
     34 ****         2.8325  -0.6430  -1.9448 H              1 S1                 0.0000
     35 ****         4.8788  -1.9627  -2.4785 H              1 S1                 0.0000
     36 ****         4.8672  -1.4224  -0.8206 H              1 S1                 0.0000
     37 ****         4.1493  -4.2103  -1.8393 H              1 S1                 0.0000
     38 ****         5.5581  -3.7971  -0.8971 H              1 S1                 0.0000
     39 ****         3.6792  -4.8757   0.3989 H              1 S1                 0.0000
     40 ****         4.3921  -2.0901   1.4196 H              1 S1                 0.0000
     41 ****         5.3613  -3.5463   1.6187 H              1 S1                 0.0000
     42 ****         3.7814  -3.4300   2.3800 H              1 S1                 0.0000
     43 ****         1.6929  -3.4869   0.9793 H              1 S1                 0.0000
     44 ****         1.7430  -3.9662  -0.6984 H              1 S1                 0.0000
     45 ****        -1.8898   3.5767   0.9220 H              1 S1                 0.0000
     46 ****         2.6304  -1.3660   0.3089 H              1 S1                 0.0000
     47 ****        -5.8871   5.6935  -1.1694 LP             1 S1                 0.0000
     48 ****        -6.3793   5.6631   0.3873 LP             1 S1                 0.0000
     49 ****        -0.8517   2.5153   0.1604 LP             1 S1                 0.0000
     50 ****         0.3829   1.3250   0.4031 LP             1 S1                 0.0000
     51 ****        -3.1471   5.4817   0.5404 LP             1 S1                 0.0000
@<TRIPOS>BOND
    1    1    2 1     
    2    1   22 1     
    3    1   23 1     
    4    1   24 1     
    5    2    3 1     
    6    3   21 ar    
    7    3    4 ar    
    8    4    5 ar    
    9    4   25 1     
   10    5    6 ar    
   11    5   26 1     
   12    6    7 1     
   13    6   20 ar    
   14    7    8 am    
   15    7   27 1     
   16    8    9 2     
   17    8   10 am    
   18   10   11 1     
   19   10   28 1     
   20   11   12 1     
   21   11   29 1     
   22   11   30 1     
   23   12   13 1     
   24   12   31 1     
   25   12   32 1     
   26   13   19 1     
   27   13   14 1     
   28   13   46 1     
   29   14   15 1     
   30   14   33 1     
   31   14   34 1     
   32   15   16 1     
   33   15   35 1     
   34   15   36 1     
   35   16   17 1     
   36   16   37 1     
   37   16   38 1     
   38   17   18 1     
   39   17   19 1     
   40   17   39 1     
   41   18   40 1     
   42   18   41 1     
   43   18   42 1     
   44   19   43 1     
   45   19   44 1     
   46   20   21 ar    
   47   20   45 1     
   48    2   47 1     
   49    2   48 1     
   50    9   49 1     
   51    9   50 1     
   52   21   51 1     
@<TRIPOS>SUBSTRUCTURE
      1 S1             1
@<TRIPOS>SET
LONE_PAIRS      STATIC     ATOMS    <user>   **** ""
5 47 48 49 50 51
DONOR_HYDROGENS      STATIC     ATOMS    <user>   **** ""
3 27 28 46
ATOM$BLUE        STATIC     ATOMS    COLORGROUP SYSTEM
5 47 48 49 50 51
ATOM$RED        STATIC     ATOMS    COLORGROUP SYSTEM
3 27 28 46
