AV-unprocessed.smi:1464|AV-procd|sdf|5938|dock10
  -GOLD-   22720 6 23D 1   1.00000     0.00000
 Structure written by MMmdl.
 40 41  0  0  0  0  0  0  0  0  2 V2000
  153.6626  142.4230  160.5884 C   0  0  0  0  0  0  0  0  0  0  0  0
  152.1483  142.6830  160.4514 C   0  0  1  0  0  0  0  0  0  0  0  0
  151.8240  144.1897  160.4998 C   0  0  0  0  0  0  0  0  0  0  0  0
  152.2494  144.9145  159.2137 C   0  0  0  0  0  0  0  0  0  0  0  0
  151.6082  144.2692  157.9776 C   0  0  0  0  0  0  0  0  0  0  0  0
  151.9055  142.7574  157.8918 C   0  0  2  0  0  0  0  0  0  0  0  0
  151.1873  142.1882  156.7535 N   0  0  0  0  0  0  0  0  0  0  0  0
  149.8791  141.8913  156.7204 C   0  0  0  0  0  0  0  0  0  0  0  0
  149.1229  142.0741  157.6757 O   0  0  0  0  0  0  0  0  0  0  0  0
  149.3732  141.2941  155.3975 C   0  0  0  0  0  0  0  0  0  0  0  0
  149.7978  139.9077  155.1527 N   0  0  0  0  0  0  0  0  0  0  0  0
  151.2425  139.7525  155.0020 N   0  5  0  0  0  0  0  0  0  0  0  0
  151.7555  138.5149  154.7725 C   0  0  0  0  0  0  0  0  0  0  0  0
  152.9581  138.3085  154.6264 O   0  0  0  0  0  0  0  0  0  0  0  0
  150.8328  137.3940  154.7020 C   0  0  0  0  0  0  0  0  0  0  0  0
  149.5056  137.5640  154.8622 C   0  0  0  0  0  0  0  0  0  0  0  0
  148.9118  138.8717  155.1122 C   0  0  0  0  0  0  0  0  0  0  0  0
  147.7018  139.0317  155.2746 O   0  0  0  0  0  0  0  0  0  0  0  0
  151.5011  142.0298  159.2006 C   0  0  1  0  0  0  0  0  0  0  0  0
  151.7458  140.5087  159.1408 C   0  0  0  0  0  0  0  0  0  0  0  0
  154.2228  142.7823  159.7258 H   0  0  0  0  0  0  0  0  0  0  0  0
  153.8779  141.3608  160.7023 H   0  0  0  0  0  0  0  0  0  0  0  0
  154.0635  142.9230  161.4706 H   0  0  0  0  0  0  0  0  0  0  0  0
  151.6825  142.2337  161.3295 H   0  0  0  0  0  0  0  0  0  0  0  0
  150.7503  144.3207  160.6421 H   0  0  0  0  0  0  0  0  0  0  0  0
  152.3002  144.6526  161.3647 H   0  0  0  0  0  0  0  0  0  0  0  0
  151.9638  145.9652  159.2701 H   0  0  0  0  0  0  0  0  0  0  0  0
  153.3351  144.8994  159.1161 H   0  0  0  0  0  0  0  0  0  0  0  0
  150.5295  144.4293  158.0117 H   0  0  0  0  0  0  0  0  0  0  0  0
  151.9644  144.7734  157.0782 H   0  0  0  0  0  0  0  0  0  0  0  0
  152.9772  142.6182  157.7397 H   0  0  0  0  0  0  0  0  0  0  0  0
  151.7287  142.0067  155.9209 H   0  0  0  0  0  0  0  0  0  0  0  0
  148.2835  141.3598  155.3890 H   0  0  0  0  0  0  0  0  0  0  0  0
  149.7083  141.9306  154.5768 H   0  0  0  0  0  0  0  0  0  0  0  0
  151.2208  136.4029  154.5192 H   0  0  0  0  0  0  0  0  0  0  0  0
  148.8574  136.7025  154.8026 H   0  0  0  0  0  0  0  0  0  0  0  0
  150.4231  142.1578  159.3142 H   0  0  0  0  0  0  0  0  0  0  0  0
  152.7840  140.2784  158.9007 H   0  0  0  0  0  0  0  0  0  0  0  0
  151.1239  140.0328  158.3824 H   0  0  0  0  0  0  0  0  0  0  0  0
  151.5086  140.0352  160.0937 H   0  0  0  0  0  0  0  0  0  0  0  0
  1  2  1  0  0  0  0
  1 21  1  0  0  0  0
  1 22  1  0  0  0  0
  1 23  1  0  0  0  0
  2 19  1  0  0  0  0
  2  3  1  0  0  0  0
  2 24  1  0  0  0  0
  3  4  1  0  0  0  0
  3 25  1  0  0  0  0
  3 26  1  0  0  0  0
  4  5  1  0  0  0  0
  4 27  1  0  0  0  0
  4 28  1  0  0  0  0
  5  6  1  0  0  0  0
  5 29  1  0  0  0  0
  5 30  1  0  0  0  0
  6  7  1  0  0  0  0
  6 19  1  0  0  0  0
  6 31  1  0  0  0  0
  7  8  1  0  0  0  0
  7 32  1  0  0  0  0
  8  9  2  0  0  0  0
  8 10  1  0  0  0  0
 10 33  1  0  0  0  0
 10 34  1  0  0  0  0
 10 11  1  0  0  0  0
 11 12  1  0  0  0  0
 11 17  1  0  0  0  0
 12 13  1  0  0  0  0
 13 14  2  0  0  0  0
 13 15  1  0  0  0  0
 15 35  1  0  0  0  0
 15 16  2  0  0  0  0
 16 36  1  0  0  0  0
 16 17  1  0  0  0  0
 17 18  2  0  0  0  0
 19 20  1  0  0  0  0
 19 37  1  0  0  0  0
 20 38  1  0  0  0  0
 20 39  1  0  0  0  0
 20 40  1  0  0  0  0
M  CHG  1  12  -1
M  END
> <s_m_source_file>
AV-unprocessed.smi

> <i_m_source_file_index>
1464

> <i_lp_mmshare_version>
43012

> <i_f3d_flags>
0

> <s_epik_input>
W0NIM11bQ0BASF0xW0NIMl1bQ0gyXVtDSDJdW0NASF0oW0NASF0xW0NIM10pW05IXUMoPU8pW0NIMl1uMltuSF1jKD1PKVtjSF1bY0hdYzI9Tw==

> <s_epik_cmdline>
J2VwaWtfcHl0aG9uJywgJy1waCcsICc3LjAnLCAnLXRuJywgJzgnLCAnLW1hJywgJzIwMCcsICctbWV0YWxfYmluZGluZycsICctaW1hZScsICc8aW5maWxlLm1hZT4nLCAnLW9tYWUnLCAnPG91dGZpbGUubWFlPic=

> <r_lp_tautomer_probability>
1

> <r_epik_Ionization_Penalty>
0.101366

> <r_epik_Ionization_Penalty_Charging>
0.101366

> <r_epik_Ionization_Penalty_Neutral>
1.90469e-08

> <r_epik_State_Penalty>
0.035861

> <r_epik_Charging_Adjusted_Penalty>
0.137227

> <i_epik_Tot_Q>
-1

> <i_epik_Tot_abs_Q>
1

> <r_epik_Metal_State_Penalty>
0.035861

> <b_epik_Metal_Only>
0

> <s_lp_Force_Field>
OPLS_2005

> <r_lp_Energy>
30.3142

> <b_lp_Chiralities_Consistent>
1

> <s_lp_Variant>
AV-unprocessed.smi:1464-4

> <Gold.Version>
5.8.1

> <Gold.Id.Protein>
6NUR|6NUR_protein|mol2

> <Gold.PLP.Fitness>
42.7974

> <Gold.PLP.PLP>
-40.5557

> <Gold.PLP.part.hbond>
-1.0000

> <Gold.PLP.part.metal>
0.0000

> <Gold.PLP.part.buried>
-4.5098

> <Gold.PLP.part.nonpolar>
-34.8835

> <Gold.PLP.part.repulsive>
0.3590

> <Gold.PLP.ligand.clash>
0.0000

> <Gold.PLP.ligand.torsion>
0.3822

> <Gold.PLP.Chemscore.Hbond>
1.0000

> <Gold.PLP.Chemscore.CHOScore>
0.0000

> <Gold.PLP.Chemscore.Metal>
0.0000

> <Gold.Chemscore.Hbonds>
donor molecule, donor type, donor heavy atom, donor atom, acceptor molecule, acceptor atom, score
      P1  H  7989  7998       L1    12  1.00

> <Gold.PLP.Chemscore.Internal.Correction>
0.0061

> <Gold.Rescore>
     Score         DG    S(hbond)    S(metal)    S(lipo)     H(rot)  DE(clash)    DE(int)     intcor
     14.30     -16.98       1.21        0.00      99.57       1.64       0.34       2.34       ----

> <Gold.Chemscore.Fitness>
14.2963

> <Gold.Chemscore.DG>
-16.9794

> <Gold.Chemscore.ZeroCoef>
-5.4800

> <Gold.Chemscore.Hbond>
1.2148

> <Gold.Chemscore.Metal>
0.0000

> <Gold.Chemscore.Lipo>
99.5735

> <Gold.Chemscore.Internal_Hbond>
0.0000

> <Gold.Chemscore.DEClash>
0.3439

> <Gold.Chemscore.DEInternal>
2.3392

> <Gold.Chemscore.Rot>
1.6438

> <Gold.Chemscore.Internal.Correction>
   9.000000E+99

> <Gold.Chemscore.Hbonds>
donor molecule, donor type, donor heavy atom, donor atom, acceptor molecule, acceptor atom, score
      P1  H  7989  7998       L1    12  0.26

> <Gold.Chemscore.Hbond.Weighted>
-4.0573

> <Gold.Chemscore.Metal.Weighted>
-0.0000

> <Gold.Chemscore.Lipo.Weighted>
-11.6501

> <Gold.Chemscore.Internal_Hbond.Weighted>
0.0000

> <Gold.Chemscore.DEClash.Weighted>
0.3439

> <Gold.Chemscore.DEInternal.Weighted>
2.3392

> <Gold.Chemscore.Rot.Weighted>
4.2080

> <Gold.Chemscore.Internal.Correction.Weighted>
   9.000000E+99

> <Gold.Protein.RotatedTorsions>
[ 6907 6896 6895 6894 ] final -154.30 input  -60.11 | X-H torsion
[ 7974 7965 7964 7962 ] final   88.55 input  175.53 | X-H torsion
[ 8008 7997 7996 7995 ] final  -57.58 input   59.86 | X-H torsion
[ 10167 10162 10161 10158 ] final  -71.65 input  -65.29 | X-H torsion
[ 10718 10713 10712 10709 ] final  -94.64 input   66.30 | X-H torsion
[ 10763 10752 10751 10750 ] final  156.86 input  -60.55 | X-H torsion
[ 11005 11000 10999 10996 ] final -113.22 input  -57.11 | X-H torsion

> <Gold.Protein.ActiveResidues>
 VAL166  LYS551  ARG553  GLY616  TRP617  ASP618  TYR619  PRO620  LYS621  CYS622 
 ASP623  PHE694  ASN695  SER759  ASP760  ASP761  ALA762  ILE779  LEU786  VAL792 
 PHE793  MET794  SER795  GLU796  ALA797  LYS798  CYS799  TRP800  GLU811  SER814 

> <Gold.Protein.RotatedAtoms>
  151.2554  133.4329  159.2613 H   0  0  0  0  0  0  0  0  0  0  0  0  # atno 6907 bound_to 6896
  151.0579  134.9717  159.8255 H   0  0  0  0  0  0  0  0  0  0  0  0  # atno 6908 bound_to 6896
  152.5393  134.2505  159.8950 H   0  0  0  0  0  0  0  0  0  0  0  0  # atno 6909 bound_to 6896
  145.5442  139.2290  143.2549 H   0  0  0  0  0  0  0  0  0  0  0  0  # atno 7974 bound_to 7965
  154.4274  140.1103  156.5820 H   0  0  0  0  0  0  0  0  0  0  0  0  # atno 8008 bound_to 7997
  155.6102  140.3494  155.4601 H   0  0  0  0  0  0  0  0  0  0  0  0  # atno 8009 bound_to 7997
  156.0105  140.1218  157.0448 H   0  0  0  0  0  0  0  0  0  0  0  0  # atno 8010 bound_to 7997
  140.5256  143.2327  151.7354 H   0  0  0  0  0  0  0  0  0  0  0  0  # atno 10167 bound_to 10162
  156.0030  130.5076  150.5957 H   0  0  0  0  0  0  0  0  0  0  0  0  # atno 10718 bound_to 10713
  154.1911  135.2795  155.3021 H   0  0  0  0  0  0  0  0  0  0  0  0  # atno 10763 bound_to 10752
  154.5928  135.5554  153.7299 H   0  0  0  0  0  0  0  0  0  0  0  0  # atno 10764 bound_to 10752
  153.0112  135.6372  154.2050 H   0  0  0  0  0  0  0  0  0  0  0  0  # atno 10765 bound_to 10752
  141.0627  133.9509  157.2636 H   0  0  0  0  0  0  0  0  0  0  0  0  # atno 11005 bound_to 11000
  146.1961  140.6263  142.9124 LP  0  0  0  0  0  0  0  0  0  0  0  0  # atno 17320 bound_to 7965
  144.7562  140.5312  143.6767 LP  0  0  0  0  0  0  0  0  0  0  0  0  # atno 17321 bound_to 7965
  139.4937  144.4191  151.9997 LP  0  0  0  0  0  0  0  0  0  0  0  0  # atno 17342 bound_to 10162
  140.3290  144.3338  150.5991 LP  0  0  0  0  0  0  0  0  0  0  0  0  # atno 17343 bound_to 10162
  157.3814  131.0781  151.1473 LP  0  0  0  0  0  0  0  0  0  0  0  0  # atno 17370 bound_to 10713
  157.2195  130.6474  149.5805 LP  0  0  0  0  0  0  0  0  0  0  0  0  # atno 17371 bound_to 10713
  139.9448  135.0186  156.8817 LP  0  0  0  0  0  0  0  0  0  0  0  0  # atno 17394 bound_to 11000
  140.5836  134.0329  155.7473 LP  0  0  0  0  0  0  0  0  0  0  0  0  # atno 17395 bound_to 11000

$$$$
