AV-unprocessed.smi:2976|AV-procd|sdf|11363|dock5
  -GOLD-   2272016283D 1   1.00000     0.00000
 Structure written by MMmdl.
 40 41  0  0  0  0  0  0  0  0  1 V2000
  151.2860  144.5076  160.5773 C   0  0  0  0  0  0  0  0  0  0  0  0
  152.5066  143.9790  159.7961 C   0  0  2  0  0  0  0  0  0  0  0  0
  152.3751  144.2512  158.2841 C   0  0  0  0  0  0  0  0  0  0  0  0
  151.3350  143.3371  157.6191 C   0  0  0  0  0  0  0  0  0  0  0  0
  151.6582  141.8582  157.8715 C   0  0  0  0  0  0  0  0  0  0  0  0
  151.7926  141.5432  159.3743 C   0  0  1  0  0  0  0  0  0  0  0  0
  152.1831  140.1407  159.5172 N   0  0  0  0  0  0  0  0  0  0  0  0
  153.4366  139.6615  159.4868 C   0  0  0  0  0  0  0  0  0  0  0  0
  154.4293  140.3691  159.3102 O   0  0  0  0  0  0  0  0  0  0  0  0
  153.5706  138.1415  159.6605 C   0  0  0  0  0  0  0  0  0  0  0  0
  153.8834  137.7301  161.0371 N   0  0  0  0  0  0  0  0  0  0  0  0
  154.1469  138.7849  161.8934 N   0  0  0  0  0  0  0  0  0  0  0  0
  154.4220  138.5453  163.1291 C   0  0  0  0  0  0  0  0  0  0  0  0
  154.4703  137.2015  163.6609 C   0  0  0  0  0  0  0  0  0  0  0  0
  154.8462  136.9420  165.3279 Cl  0  0  0  0  0  0  0  0  0  0  0  0
  154.2136  136.1743  162.8124 C   0  0  0  0  0  0  0  0  0  0  0  0
  154.2516  134.5386  163.3758 Cl  0  0  0  0  0  0  0  0  0  0  0  0
  153.8962  136.4096  161.3967 C   0  0  0  0  0  0  0  0  0  0  0  0
  153.6599  135.5052  160.5947 O   0  0  0  0  0  0  0  0  0  0  0  0
  152.8264  142.4818  160.0545 C   0  0  2  0  0  0  0  0  0  0  0  0
  153.0281  142.1805  161.5532 C   0  0  0  0  0  0  0  0  0  0  0  0
  150.3792  143.9453  160.3563 H   0  0  0  0  0  0  0  0  0  0  0  0
  151.0908  145.5520  160.3323 H   0  0  0  0  0  0  0  0  0  0  0  0
  151.4496  144.4616  161.6538 H   0  0  0  0  0  0  0  0  0  0  0  0
  153.3629  144.5586  160.1439 H   0  0  0  0  0  0  0  0  0  0  0  0
  152.1200  145.2967  158.1081 H   0  0  0  0  0  0  0  0  0  0  0  0
  153.3428  144.0942  157.8059 H   0  0  0  0  0  0  0  0  0  0  0  0
  150.3381  143.5668  157.9960 H   0  0  0  0  0  0  0  0  0  0  0  0
  151.3066  143.5297  156.5465 H   0  0  0  0  0  0  0  0  0  0  0  0
  150.8815  141.2339  157.4275 H   0  0  0  0  0  0  0  0  0  0  0  0
  152.5866  141.6049  157.3577 H   0  0  0  0  0  0  0  0  0  0  0  0
  150.8168  141.7021  159.8360 H   0  0  0  0  0  0  0  0  0  0  0  0
  151.4336  139.4788  159.6583 H   0  0  0  0  0  0  0  0  0  0  0  0
  152.6507  137.6580  159.3258 H   0  0  0  0  0  0  0  0  0  0  0  0
  154.3481  137.7922  158.9787 H   0  0  0  0  0  0  0  0  0  0  0  0
  154.6336  139.3436  163.8403 H   0  0  0  0  0  0  0  0  0  0  0  0
  153.7890  142.2903  159.5773 H   0  0  0  0  0  0  0  0  0  0  0  0
  152.0854  142.2155  162.0996 H   0  0  0  0  0  0  0  0  0  0  0  0
  153.7077  142.8999  162.0104 H   0  0  0  0  0  0  0  0  0  0  0  0
  153.4582  141.1912  161.7080 H   0  0  0  0  0  0  0  0  0  0  0  0
  1  2  1  0  0  0  0
  1 22  1  0  0  0  0
  1 23  1  0  0  0  0
  1 24  1  0  0  0  0
  2 20  1  0  0  0  0
  2  3  1  0  0  0  0
  2 25  1  0  0  0  0
  3  4  1  0  0  0  0
  3 26  1  0  0  0  0
  3 27  1  0  0  0  0
  4  5  1  0  0  0  0
  4 28  1  0  0  0  0
  4 29  1  0  0  0  0
  5  6  1  0  0  0  0
  5 30  1  0  0  0  0
  5 31  1  0  0  0  0
  6  7  1  0  0  0  0
  6 20  1  0  0  0  0
  6 32  1  0  0  0  0
  7  8  1  0  0  0  0
  7 33  1  0  0  0  0
  8  9  2  0  0  0  0
  8 10  1  0  0  0  0
 10 11  1  0  0  0  0
 10 34  1  0  0  0  0
 10 35  1  0  0  0  0
 11 18  1  0  0  0  0
 11 12  1  0  0  0  0
 12 13  2  0  0  0  0
 13 14  1  0  0  0  0
 13 36  1  0  0  0  0
 14 15  1  0  0  0  0
 14 16  2  0  0  0  0
 16 17  1  0  0  0  0
 16 18  1  0  0  0  0
 18 19  2  0  0  0  0
 20 21  1  0  0  0  0
 20 37  1  0  0  0  0
 21 38  1  0  0  0  0
 21 39  1  0  0  0  0
 21 40  1  0  0  0  0
M  END
> <s_m_source_file>
AV-unprocessed.smi

> <i_m_source_file_index>
2976

> <i_lp_mmshare_version>
43012

> <i_f3d_flags>
0

> <s_epik_input>
W0NIM11bQ0BASF0xW0NIMl1bQ0gyXVtDSDJdW0NASF0oW0NASF0xW0NIM10pW05IXUMoPU8pW0NIMl1uMm5bY0hdYyhDbCljKENsKWMyPU8=

> <s_epik_cmdline>
J2VwaWtfcHl0aG9uJywgJy1waCcsICc3LjAnLCAnLXRuJywgJzgnLCAnLW1hJywgJzIwMCcsICctbWV0YWxfYmluZGluZycsICctaW1hZScsICc8aW5maWxlLm1hZT4nLCAnLW9tYWUnLCAnPG91dGZpbGUubWFlPic=

> <r_lp_tautomer_probability>
1

> <r_epik_Ionization_Penalty>
1.90777e-08

> <r_epik_Ionization_Penalty_Charging>
3.07942e-11

> <r_epik_Ionization_Penalty_Neutral>
1.90469e-08

> <r_epik_State_Penalty>
-0

> <r_epik_Charging_Adjusted_Penalty>
3.07942e-11

> <i_epik_Tot_Q>
0

> <i_epik_Tot_abs_Q>
0

> <r_epik_Metal_State_Penalty>
-0

> <b_epik_Metal_Only>
0

> <s_lp_Force_Field>
OPLS_2005

> <r_lp_Energy>
28.556

> <b_lp_Chiralities_Consistent>
1

> <s_lp_Variant>
AV-unprocessed.smi:2976-5

> <Gold.Version>
5.8.1

> <Gold.Id.Protein>
6NUR|6NUR_protein|mol2

> <Gold.PLP.Fitness>
44.7526

> <Gold.PLP.PLP>
-40.7002

> <Gold.PLP.part.hbond>
-2.0000

> <Gold.PLP.part.metal>
0.0000

> <Gold.PLP.part.buried>
-1.7011

> <Gold.PLP.part.nonpolar>
-37.5870

> <Gold.PLP.part.repulsive>
0.1392

> <Gold.PLP.ligand.clash>
0.0000

> <Gold.PLP.ligand.torsion>
0.7239

> <Gold.PLP.Chemscore.Hbond>
1.8320

> <Gold.PLP.Chemscore.CHOScore>
0.0000

> <Gold.PLP.Chemscore.Metal>
0.0000

> <Gold.Chemscore.Hbonds>
donor molecule, donor type, donor heavy atom, donor atom, acceptor molecule, acceptor atom, score
      P1  H  6896  6907       L1    19  1.00
      P1  H  7997  8008       L1     9  0.68

> <Gold.PLP.Chemscore.Internal.Correction>
0.0043

> <Gold.Rescore>
     Score         DG    S(hbond)    S(metal)    S(lipo)     H(rot)  DE(clash)    DE(int)     intcor
     19.30     -22.44       1.91        0.00     122.94       1.49       0.38       2.77       ----

> <Gold.Chemscore.Fitness>
19.2963

> <Gold.Chemscore.DG>
-22.4381

> <Gold.Chemscore.ZeroCoef>
-5.4800

> <Gold.Chemscore.Hbond>
1.9101

> <Gold.Chemscore.Metal>
0.0000

> <Gold.Chemscore.Lipo>
122.9409

> <Gold.Chemscore.Internal_Hbond>
0.0000

> <Gold.Chemscore.DEClash>
0.3761

> <Gold.Chemscore.DEInternal>
2.7658

> <Gold.Chemscore.Rot>
1.4866

> <Gold.Chemscore.Internal.Correction>
   9.000000E+99

> <Gold.Chemscore.Hbonds>
donor molecule, donor type, donor heavy atom, donor atom, acceptor molecule, acceptor atom, score
      P1  H  6896  6907       L1    19  0.97
      P1  H  7997  8008       L1     9  0.43

> <Gold.Chemscore.Hbond.Weighted>
-6.3797

> <Gold.Chemscore.Metal.Weighted>
-0.0000

> <Gold.Chemscore.Lipo.Weighted>
-14.3841

> <Gold.Chemscore.Internal_Hbond.Weighted>
0.0000

> <Gold.Chemscore.DEClash.Weighted>
0.3761

> <Gold.Chemscore.DEInternal.Weighted>
2.7658

> <Gold.Chemscore.Rot.Weighted>
3.8057

> <Gold.Chemscore.Internal.Correction.Weighted>
   9.000000E+99

> <Gold.Protein.RotatedTorsions>
[ 6907 6896 6895 6894 ] final   50.04 input  -60.11 | X-H torsion
[ 7974 7965 7964 7962 ] final  -54.01 input  175.53 | X-H torsion
[ 8008 7997 7996 7995 ] final -121.78 input   59.86 | X-H torsion
[ 10167 10162 10161 10158 ] final  -45.32 input  -65.29 | X-H torsion
[ 10718 10713 10712 10709 ] final  -93.63 input   66.30 | X-H torsion
[ 10763 10752 10751 10750 ] final  -48.76 input  -60.55 | X-H torsion
[ 11005 11000 10999 10996 ] final    4.97 input  -57.11 | X-H torsion

> <Gold.Protein.ActiveResidues>
 VAL166  LYS551  ARG553  GLY616  TRP617  ASP618  TYR619  PRO620  LYS621  CYS622 
 ASP623  PHE694  ASN695  SER759  ASP760  ASP761  ALA762  ILE779  LEU786  VAL792 
 PHE793  MET794  SER795  GLU796  ALA797  LYS798  CYS799  TRP800  GLU811  SER814 

> <Gold.Protein.RotatedAtoms>
  152.2974  134.7651  160.0364 H   0  0  0  0  0  0  0  0  0  0  0  0  # atno 6907 bound_to 6896
  151.8176  133.3385  159.3582 H   0  0  0  0  0  0  0  0  0  0  0  0  # atno 6908 bound_to 6896
  150.7258  134.5534  159.5850 H   0  0  0  0  0  0  0  0  0  0  0  0  # atno 6909 bound_to 6896
  145.8904  140.8075  142.9794 H   0  0  0  0  0  0  0  0  0  0  0  0  # atno 7974 bound_to 7965
  155.1536  140.0404  157.2827 H   0  0  0  0  0  0  0  0  0  0  0  0  # atno 8008 bound_to 7997
  154.6386  140.2541  155.7321 H   0  0  0  0  0  0  0  0  0  0  0  0  # atno 8009 bound_to 7997
  156.2521  140.2860  156.0770 H   0  0  0  0  0  0  0  0  0  0  0  0  # atno 8010 bound_to 7997
  140.6862  143.2885  151.3622 H   0  0  0  0  0  0  0  0  0  0  0  0  # atno 10167 bound_to 10162
  156.0016  130.5035  150.5805 H   0  0  0  0  0  0  0  0  0  0  0  0  # atno 10718 bound_to 10713
  154.0830  135.6588  153.4841 H   0  0  0  0  0  0  0  0  0  0  0  0  # atno 10763 bound_to 10752
  153.0349  135.5184  154.7455 H   0  0  0  0  0  0  0  0  0  0  0  0  # atno 10764 bound_to 10752
  154.6556  135.3007  154.9901 H   0  0  0  0  0  0  0  0  0  0  0  0  # atno 10765 bound_to 10752
  140.5759  134.0058  155.8028 H   0  0  0  0  0  0  0  0  0  0  0  0  # atno 11005 bound_to 11000
  144.6730  140.1520  143.7429 LP  0  0  0  0  0  0  0  0  0  0  0  0  # atno 17320 bound_to 7965
  145.8916  139.2379  143.1546 LP  0  0  0  0  0  0  0  0  0  0  0  0  # atno 17321 bound_to 7965
  139.6223  144.0882  152.2403 LP  0  0  0  0  0  0  0  0  0  0  0  0  # atno 17342 bound_to 10162
  140.0330  144.6066  150.7472 LP  0  0  0  0  0  0  0  0  0  0  0  0  # atno 17343 bound_to 10162
  157.3686  131.0762  151.1577 LP  0  0  0  0  0  0  0  0  0  0  0  0  # atno 17370 bound_to 10713
  157.2338  130.6537  149.5860 LP  0  0  0  0  0  0  0  0  0  0  0  0  # atno 17371 bound_to 10713
  141.1027  133.9743  157.3052 LP  0  0  0  0  0  0  0  0  0  0  0  0  # atno 17394 bound_to 11000
  139.9340  135.0198  156.8493 LP  0  0  0  0  0  0  0  0  0  0  0  0  # atno 17395 bound_to 11000

$$$$
