AV-unprocessed.smi:821|AV-procd|sdf|3839|dock3
  -GOLD-   22720 1283D 1   1.00000     0.00000
 Structure written by MMmdl.
 44 45  0  0  0  0  0  0  0  0  1 V2000
  147.4746  141.9074  155.8443 C   0  0  0  0  0  0  0  0  0  0  0  0
  148.8769  141.2833  155.9201 C   0  0  1  0  0  0  0  0  0  0  0  0
  149.4072  140.9060  154.5193 C   0  0  0  0  0  0  0  0  0  0  0  0
  150.2564  139.7140  154.4640 N   0  0  0  0  0  0  0  0  0  0  0  0
  151.3351  139.8013  155.4433 C   0  0  0  0  0  0  0  0  0  0  0  0
  152.2463  138.5623  155.4131 C   0  0  0  0  0  0  0  0  0  0  0  0
  151.4642  137.3934  155.6337 O   0  0  0  0  0  0  0  0  0  0  0  0
  150.4293  137.2382  154.6685 C   0  0  0  0  0  0  0  0  0  0  0  0
  149.5135  138.4742  154.6846 C   0  0  0  0  0  0  0  0  0  0  0  0
  149.7893  142.2361  156.5473 N   0  0  0  0  0  0  0  0  0  0  0  0
  150.5852  141.9791  157.5957 C   0  0  0  0  0  0  0  0  0  0  0  0
  150.5791  140.9096  158.2062 O   0  0  0  0  0  0  0  0  0  0  0  0
  151.5289  143.1130  158.0187 C   0  0  0  0  0  0  0  0  0  0  0  0
  152.2161  142.8335  159.2911 N   0  0  0  0  0  0  0  0  0  0  0  0
  152.0055  143.7411  160.3445 C   0  0  0  0  0  0  0  0  0  0  0  0
  152.5762  143.5730  161.5450 C   0  0  0  0  0  0  0  0  0  0  0  0
  153.4216  142.4211  161.7435 C   0  0  0  0  0  0  0  0  0  0  0  0
  153.6449  141.5315  160.7485 C   0  0  0  0  0  0  0  0  0  0  0  0
  154.5250  140.2994  160.9456 C   0  0  0  0  0  0  0  0  0  0  0  0
  155.5674  140.3325  160.1148 F   0  0  0  0  0  0  0  0  0  0  0  0
  154.9977  140.2227  162.1906 F   0  0  0  0  0  0  0  0  0  0  0  0
  153.8346  139.1842  160.7033 F   0  0  0  0  0  0  0  0  0  0  0  0
  153.0193  141.7320  159.4256 C   0  0  0  0  0  0  0  0  0  0  0  0
  153.2022  140.9560  158.4854 O   0  0  0  0  0  0  0  0  0  0  0  0
  146.7597  141.2124  155.4032 H   0  0  0  0  0  0  0  0  0  0  0  0
  147.4751  142.8144  155.2388 H   0  0  0  0  0  0  0  0  0  0  0  0
  147.1047  142.1681  156.8365 H   0  0  0  0  0  0  0  0  0  0  0  0
  148.8042  140.3752  156.5220 H   0  0  0  0  0  0  0  0  0  0  0  0
  148.5420  140.7200  153.8815 H   0  0  0  0  0  0  0  0  0  0  0  0
  149.9190  141.7570  154.0668 H   0  0  0  0  0  0  0  0  0  0  0  0
  151.9348  140.6929  155.2561 H   0  0  0  0  0  0  0  0  0  0  0  0
  150.9163  139.9126  156.4449 H   0  0  0  0  0  0  0  0  0  0  0  0
  152.7668  138.4866  154.4571 H   0  0  0  0  0  0  0  0  0  0  0  0
  153.0080  138.6325  156.1895 H   0  0  0  0  0  0  0  0  0  0  0  0
  150.8649  137.0937  153.6785 H   0  0  0  0  0  0  0  0  0  0  0  0
  149.8560  136.3403  154.9000 H   0  0  0  0  0  0  0  0  0  0  0  0
  148.9854  138.5219  155.6382 H   0  0  0  0  0  0  0  0  0  0  0  0
  148.7573  138.3464  153.9113 H   0  0  0  0  0  0  0  0  0  0  0  0
  149.8576  143.1467  156.1164 H   0  0  0  0  0  0  0  0  0  0  0  0
  152.2666  143.2955  157.2345 H   0  0  0  0  0  0  0  0  0  0  0  0
  150.9454  144.0323  158.0817 H   0  0  0  0  0  0  0  0  0  0  0  0
  151.3532  144.5718  160.1173 H   0  0  0  0  0  0  0  0  0  0  0  0
  152.4030  144.2783  162.3445 H   0  0  0  0  0  0  0  0  0  0  0  0
  153.8734  142.2784  162.7137 H   0  0  0  0  0  0  0  0  0  0  0  0
  1  2  1  0  0  0  0
  1 25  1  0  0  0  0
  1 26  1  0  0  0  0
  1 27  1  0  0  0  0
  2  3  1  0  0  0  0
  2 10  1  0  0  0  0
  2 28  1  0  0  0  0
  3  4  1  0  0  0  0
  3 29  1  0  0  0  0
  3 30  1  0  0  0  0
  4  9  1  0  0  0  0
  4  5  1  0  0  0  0
  5  6  1  0  0  0  0
  5 31  1  0  0  0  0
  5 32  1  0  0  0  0
  6  7  1  0  0  0  0
  6 33  1  0  0  0  0
  6 34  1  0  0  0  0
  7  8  1  0  0  0  0
  8  9  1  0  0  0  0
  8 35  1  0  0  0  0
  8 36  1  0  0  0  0
  9 37  1  0  0  0  0
  9 38  1  0  0  0  0
 10 11  1  0  0  0  0
 10 39  1  0  0  0  0
 11 12  2  0  0  0  0
 11 13  1  0  0  0  0
 13 14  1  0  0  0  0
 13 40  1  0  0  0  0
 13 41  1  0  0  0  0
 14 23  1  0  0  0  0
 14 15  1  0  0  0  0
 15 16  2  0  0  0  0
 15 42  1  0  0  0  0
 16 17  1  0  0  0  0
 16 43  1  0  0  0  0
 17 18  2  0  0  0  0
 17 44  1  0  0  0  0
 18 19  1  0  0  0  0
 18 23  1  0  0  0  0
 19 20  1  0  0  0  0
 19 21  1  0  0  0  0
 19 22  1  0  0  0  0
 23 24  2  0  0  0  0
M  END
> <s_m_source_file>
AV-unprocessed.smi

> <i_m_source_file_index>
821

> <i_lp_mmshare_version>
43012

> <i_f3d_flags>
0

> <s_epik_input>
W0NIMl0xW0NIMl1PW0NIMl1bQ0gyXU4xW0NIMl1bQ0BASF0oW0NIM10pW05IXUMoPU8pW0NIMl1uMltjSF1bY0hdW2NIXWMoQyhGKShGKUYpYzI9Tw==

> <s_epik_cmdline>
J2VwaWtfcHl0aG9uJywgJy1waCcsICc3LjAnLCAnLXRuJywgJzgnLCAnLW1hJywgJzIwMCcsICctbWV0YWxfYmluZGluZycsICctaW1hZScsICc8aW5maWxlLm1hZT4nLCAnLW9tYWUnLCAnPG91dGZpbGUubWFlPic=

> <r_lp_tautomer_probability>
1

> <r_epik_Ionization_Penalty>
0.237382

> <r_epik_Ionization_Penalty_Charging>
1.90699e-09

> <r_epik_Ionization_Penalty_Neutral>
0.237382

> <r_epik_State_Penalty>
0.228245

> <r_epik_Charging_Adjusted_Penalty>
0.228245

> <i_epik_Tot_Q>
0

> <i_epik_Tot_abs_Q>
0

> <r_epik_Metal_State_Penalty>
0.228219

> <b_epik_Metal_Only>
0

> <s_lp_Force_Field>
OPLS_2005

> <r_lp_Energy>
36.3574

> <b_lp_Chiralities_Consistent>
1

> <s_lp_Variant>
AV-unprocessed.smi:821-2

> <Gold.Version>
5.8.1

> <Gold.Id.Protein>
6NUR|6NUR_protein|mol2

> <Gold.PLP.Fitness>
54.0794

> <Gold.PLP.PLP>
-51.4203

> <Gold.PLP.part.hbond>
-3.5889

> <Gold.PLP.part.metal>
0.0000

> <Gold.PLP.part.buried>
0.5751

> <Gold.PLP.part.nonpolar>
-47.7838

> <Gold.PLP.part.repulsive>
0.2226

> <Gold.PLP.ligand.clash>
0.3005

> <Gold.PLP.ligand.torsion>
0.6306

> <Gold.PLP.Chemscore.Hbond>
1.2422

> <Gold.PLP.Chemscore.CHOScore>
0.0000

> <Gold.PLP.Chemscore.Metal>
0.0000

> <Gold.Chemscore.Hbonds>
donor molecule, donor type, donor heavy atom, donor atom, acceptor molecule, acceptor atom, score
      L1  H    10    39       P1  8028  0.90
      P1  H  7997  8010       L1    24  0.17

> <Gold.PLP.Chemscore.Internal.Correction>
0.4941

> <Gold.Rescore>
     Score         DG    S(hbond)    S(metal)    S(lipo)     H(rot)  DE(clash)    DE(int)     intcor
      8.20     -15.46       1.11        0.00      99.43       2.09       0.17       7.09       ----

> <Gold.Chemscore.Fitness>
8.1997

> <Gold.Chemscore.DG>
-15.4639

> <Gold.Chemscore.ZeroCoef>
-5.4800

> <Gold.Chemscore.Hbond>
1.1101

> <Gold.Chemscore.Metal>
0.0000

> <Gold.Chemscore.Lipo>
99.4260

> <Gold.Chemscore.Internal_Hbond>
0.0000

> <Gold.Chemscore.DEClash>
0.1742

> <Gold.Chemscore.DEInternal>
7.0900

> <Gold.Chemscore.Rot>
2.0924

> <Gold.Chemscore.Internal.Correction>
   9.000000E+99

> <Gold.Chemscore.Hbonds>
donor molecule, donor type, donor heavy atom, donor atom, acceptor molecule, acceptor atom, score
      L1  H    10    39       P1  8028  0.88
      P1  H  7997  8010       L1    24  0.17

> <Gold.Chemscore.Hbond.Weighted>
-3.7077

> <Gold.Chemscore.Metal.Weighted>
-0.0000

> <Gold.Chemscore.Lipo.Weighted>
-11.6328

> <Gold.Chemscore.Internal_Hbond.Weighted>
0.0000

> <Gold.Chemscore.DEClash.Weighted>
0.1742

> <Gold.Chemscore.DEInternal.Weighted>
7.0900

> <Gold.Chemscore.Rot.Weighted>
5.3566

> <Gold.Chemscore.Internal.Correction.Weighted>
   9.000000E+99

> <Gold.Protein.RotatedTorsions>
[ 6907 6896 6895 6894 ] final -133.67 input  -60.11 | X-H torsion
[ 7974 7965 7964 7962 ] final  -63.68 input  175.53 | X-H torsion
[ 8008 7997 7996 7995 ] final   11.82 input   59.86 | X-H torsion
[ 10167 10162 10161 10158 ] final   29.81 input  -65.29 | X-H torsion
[ 10718 10713 10712 10709 ] final  -37.42 input   66.30 | X-H torsion
[ 10763 10752 10751 10750 ] final   79.43 input  -60.55 | X-H torsion
[ 11005 11000 10999 10996 ] final -173.55 input  -57.11 | X-H torsion

> <Gold.Protein.ActiveResidues>
 VAL166  LYS551  ARG553  GLY616  TRP617  ASP618  TYR619  PRO620  LYS621  CYS622 
 ASP623  PHE694  ASN695  SER759  ASP760  ASP761  ALA762  ILE779  LEU786  VAL792 
 PHE793  MET794  SER795  GLU796  ALA797  LYS798  CYS799  TRP800  GLU811  SER814 

> <Gold.Protein.RotatedAtoms>
  150.9768  133.6287  159.2728 H   0  0  0  0  0  0  0  0  0  0  0  0  # atno 6907 bound_to 6896
  151.3556  135.0892  159.9427 H   0  0  0  0  0  0  0  0  0  0  0  0  # atno 6908 bound_to 6896
  152.5202  133.9352  159.7654 H   0  0  0  0  0  0  0  0  0  0  0  0  # atno 6909 bound_to 6896
  145.7761  140.8787  143.0355 H   0  0  0  0  0  0  0  0  0  0  0  0  # atno 7974 bound_to 7965
  154.8122  140.2870  155.5845 H   0  0  0  0  0  0  0  0  0  0  0  0  # atno 8008 bound_to 7997
  156.2989  140.2566  156.2942 H   0  0  0  0  0  0  0  0  0  0  0  0  # atno 8009 bound_to 7997
  154.9435  140.0381  157.2098 H   0  0  0  0  0  0  0  0  0  0  0  0  # atno 8010 bound_to 7997
  140.4733  144.0728  150.6243 H   0  0  0  0  0  0  0  0  0  0  0  0  # atno 10167 bound_to 10162
  156.3154  130.4258  149.8010 H   0  0  0  0  0  0  0  0  0  0  0  0  # atno 10718 bound_to 10713
  153.0952  135.4840  154.8765 H   0  0  0  0  0  0  0  0  0  0  0  0  # atno 10763 bound_to 10752
  154.7316  135.3061  154.8884 H   0  0  0  0  0  0  0  0  0  0  0  0  # atno 10764 bound_to 10752
  153.9518  135.6822  153.4797 H   0  0  0  0  0  0  0  0  0  0  0  0  # atno 10765 bound_to 10752
  140.4844  134.6044  157.4931 H   0  0  0  0  0  0  0  0  0  0  0  0  # atno 11005 bound_to 11000
  144.6804  139.9923  143.7484 LP  0  0  0  0  0  0  0  0  0  0  0  0  # atno 17320 bound_to 7965
  146.0121  139.3179  143.0864 LP  0  0  0  0  0  0  0  0  0  0  0  0  # atno 17321 bound_to 7965
  140.3949  143.2733  152.0016 LP  0  0  0  0  0  0  0  0  0  0  0  0  # atno 17342 bound_to 10162
  139.4822  144.6046  151.7544 LP  0  0  0  0  0  0  0  0  0  0  0  0  # atno 17343 bound_to 10162
  156.5338  130.8269  151.3246 LP  0  0  0  0  0  0  0  0  0  0  0  0  # atno 17370 bound_to 10713
  157.7400  130.9842  150.2351 LP  0  0  0  0  0  0  0  0  0  0  0  0  # atno 17371 bound_to 10713
  139.9807  134.7143  155.9866 LP  0  0  0  0  0  0  0  0  0  0  0  0  # atno 17394 bound_to 11000
  141.1515  133.6548  156.4028 LP  0  0  0  0  0  0  0  0  0  0  0  0  # atno 17395 bound_to 11000

$$$$
