AV-unprocessed.smi:2658|AV-procd|sdf|10309|dock9
  -GOLD-   2272014323D 1   1.00000     0.00000
 Structure written by MMmdl.
 46 48  0  0  0  0  0  0  0  0  1 V2000
  151.2548  144.3679  159.6700 C   0  0  0  0  0  0  0  0  0  0  0  0
  152.0364  143.0934  159.9359 C   0  0  0  0  0  0  0  0  0  0  0  0
  152.8672  143.0231  161.0766 C   0  0  0  0  0  0  0  0  0  0  0  0
  153.6063  141.8549  161.3635 C   0  0  0  0  0  0  0  0  0  0  0  0
  154.4662  141.5708  162.4105 N   0  0  0  0  0  0  0  0  0  0  0  0
  154.8338  140.3253  162.1239 C   0  0  0  0  0  0  0  0  0  0  0  0
  154.3134  139.7685  161.0132 N   0  0  0  0  0  0  0  0  0  0  0  0
  154.5597  138.4306  160.5061 C   0  0  0  0  0  0  0  0  0  0  0  0
  153.7043  137.3606  161.2126 C   0  0  1  0  0  0  0  0  0  0  0  0
  153.9244  136.0975  160.6160 O   0  0  0  0  0  0  0  0  0  0  0  0
  154.0276  137.2536  162.7099 C   0  0  0  0  0  0  0  0  0  0  0  0
  155.4043  136.9208  162.8663 O   0  0  0  0  0  0  0  0  0  0  0  0
  155.7377  135.8850  163.7144 C   0  0  0  0  0  0  0  0  0  0  0  0
  154.7320  134.9878  164.1212 C   0  0  0  0  0  0  0  0  0  0  0  0
  155.0964  133.9437  164.9919 C   0  0  0  0  0  0  0  0  0  0  0  0
  154.0667  132.9377  165.4713 C   0  0  0  0  0  0  0  0  0  0  0  0
  156.4501  133.8812  165.3917 C   0  0  0  0  0  0  0  0  0  0  0  0
  156.9558  132.8027  166.3319 C   0  0  0  0  0  0  0  0  0  0  0  0
  157.3734  134.7734  164.9638 N   0  0  0  0  0  0  0  0  0  0  0  0
  157.0234  135.7622  164.1349 N   0  0  0  0  0  0  0  0  0  0  0  0
  153.4906  140.7493  160.4709 C   0  0  0  0  0  0  0  0  0  0  0  0
  152.6706  140.8080  159.3302 C   0  0  0  0  0  0  0  0  0  0  0  0
  151.9390  141.9835  159.0583 C   0  0  0  0  0  0  0  0  0  0  0  0
  151.0559  142.0386  157.8244 C   0  0  0  0  0  0  0  0  0  0  0  0
  151.4412  145.1175  160.4396 H   0  0  0  0  0  0  0  0  0  0  0  0
  150.1841  144.1634  159.6564 H   0  0  0  0  0  0  0  0  0  0  0  0
  151.5383  144.7975  158.7089 H   0  0  0  0  0  0  0  0  0  0  0  0
  152.9424  143.8681  161.7450 H   0  0  0  0  0  0  0  0  0  0  0  0
  155.5216  139.7857  162.7584 H   0  0  0  0  0  0  0  0  0  0  0  0
  154.3670  138.4250  159.4322 H   0  0  0  0  0  0  0  0  0  0  0  0
  155.6203  138.2103  160.6323 H   0  0  0  0  0  0  0  0  0  0  0  0
  152.6467  137.5986  161.0919 H   0  0  0  0  0  0  0  0  0  0  0  0
  154.8205  135.8428  160.7737 H   0  0  0  0  0  0  0  0  0  0  0  0
  153.8338  138.2090  163.2011 H   0  0  0  0  0  0  0  0  0  0  0  0
  153.3855  136.5025  163.1743 H   0  0  0  0  0  0  0  0  0  0  0  0
  153.7157  135.1013  163.7734 H   0  0  0  0  0  0  0  0  0  0  0  0
  154.3678  131.9251  165.2013 H   0  0  0  0  0  0  0  0  0  0  0  0
  153.0907  133.1296  165.0243 H   0  0  0  0  0  0  0  0  0  0  0  0
  153.9593  132.9897  166.5550 H   0  0  0  0  0  0  0  0  0  0  0  0
  156.4077  132.8309  167.2736 H   0  0  0  0  0  0  0  0  0  0  0  0
  158.0154  132.9329  166.5566 H   0  0  0  0  0  0  0  0  0  0  0  0
  156.8249  131.8173  165.8845 H   0  0  0  0  0  0  0  0  0  0  0  0
  152.6055  139.9544  158.6716 H   0  0  0  0  0  0  0  0  0  0  0  0
  151.0870  141.1004  157.2697 H   0  0  0  0  0  0  0  0  0  0  0  0
  151.3844  142.8344  157.1555 H   0  0  0  0  0  0  0  0  0  0  0  0
  150.0191  142.2270  158.1045 H   0  0  0  0  0  0  0  0  0  0  0  0
  1  2  1  0  0  0  0
  1 25  1  0  0  0  0
  1 26  1  0  0  0  0
  1 27  1  0  0  0  0
  2 23  1  0  0  0  0
  2  3  2  0  0  0  0
  3  4  1  0  0  0  0
  3 28  1  0  0  0  0
  4 21  2  0  0  0  0
  4  5  1  0  0  0  0
  5  6  2  0  0  0  0
  6  7  1  0  0  0  0
  6 29  1  0  0  0  0
  7  8  1  0  0  0  0
  7 21  1  0  0  0  0
  8  9  1  0  0  0  0
  8 30  1  0  0  0  0
  8 31  1  0  0  0  0
  9 10  1  0  0  0  0
  9 11  1  0  0  0  0
  9 32  1  0  0  0  0
 10 33  1  0  0  0  0
 11 12  1  0  0  0  0
 11 34  1  0  0  0  0
 11 35  1  0  0  0  0
 12 13  1  0  0  0  0
 13 20  1  0  0  0  0
 13 14  2  0  0  0  0
 14 15  1  0  0  0  0
 14 36  1  0  0  0  0
 15 16  1  0  0  0  0
 15 17  2  0  0  0  0
 16 37  1  0  0  0  0
 16 38  1  0  0  0  0
 16 39  1  0  0  0  0
 17 18  1  0  0  0  0
 17 19  1  0  0  0  0
 18 40  1  0  0  0  0
 18 41  1  0  0  0  0
 18 42  1  0  0  0  0
 19 20  2  0  0  0  0
 21 22  1  0  0  0  0
 22 23  2  0  0  0  0
 22 43  1  0  0  0  0
 23 24  1  0  0  0  0
 24 44  1  0  0  0  0
 24 45  1  0  0  0  0
 24 46  1  0  0  0  0
M  END
> <s_m_source_file>
AV-unprocessed.smi

> <i_m_source_file_index>
2658

> <i_lp_mmshare_version>
43012

> <i_f3d_flags>
0

> <s_epik_input>
W0NIM11jKFtjSF0xKWMoW0NIM10pW2NIXWMoYzEyKW4oW2NIXW4yKVtDSDJdW0NASF0oW09IXSlbQ0gyXU9jM1tjSF1jKFtDSDNdKWMoW0NIM10pbm4z

> <s_epik_cmdline>
J2VwaWtfcHl0aG9uJywgJy1waCcsICc3LjAnLCAnLXRuJywgJzgnLCAnLW1hJywgJzIwMCcsICctbWV0YWxfYmluZGluZycsICctaW1hZScsICc8aW5maWxlLm1hZT4nLCAnLW9tYWUnLCAnPG91dGZpbGUubWFlPic=

> <r_lp_tautomer_probability>
1

> <r_epik_Ionization_Penalty>
0.110663

> <r_epik_Ionization_Penalty_Charging>
0

> <r_epik_Ionization_Penalty_Neutral>
0.110663

> <r_epik_State_Penalty>
0.100267

> <r_epik_Charging_Adjusted_Penalty>
0.100267

> <i_epik_Tot_Q>
0

> <i_epik_Tot_abs_Q>
0

> <r_epik_Metal_State_Penalty>
0.0843924

> <b_epik_Metal_Only>
0

> <s_lp_Force_Field>
OPLS_2005

> <r_lp_Energy>
13.1317

> <b_lp_Chiralities_Consistent>
1

> <s_lp_Variant>
AV-unprocessed.smi:2658-2

> <Gold.Version>
5.8.1

> <Gold.Id.Protein>
6NUR|6NUR_protein|mol2

> <Gold.PLP.Fitness>
51.9146

> <Gold.PLP.PLP>
-50.5623

> <Gold.PLP.part.hbond>
-2.0000

> <Gold.PLP.part.metal>
0.0000

> <Gold.PLP.part.buried>
-5.9698

> <Gold.PLP.part.nonpolar>
-42.6818

> <Gold.PLP.part.repulsive>
0.1045

> <Gold.PLP.ligand.clash>
0.0000

> <Gold.PLP.ligand.torsion>
0.8663

> <Gold.PLP.Chemscore.Hbond>
1.0000

> <Gold.PLP.Chemscore.CHOScore>
0.0000

> <Gold.PLP.Chemscore.Metal>
0.0000

> <Gold.Chemscore.Hbonds>
donor molecule, donor type, donor heavy atom, donor atom, acceptor molecule, acceptor atom, score
      P1  H  6896  6909       L1    10  0.75

> <Gold.PLP.Chemscore.Internal.Correction>
0.0849

> <Gold.Rescore>
     Score         DG    S(hbond)    S(metal)    S(lipo)     H(rot)  DE(clash)    DE(int)     intcor
     18.16     -19.23       0.96        0.00     142.57       2.40       0.21       0.86       ----

> <Gold.Chemscore.Fitness>
18.1552

> <Gold.Chemscore.DG>
-19.2311

> <Gold.Chemscore.ZeroCoef>
-5.4800

> <Gold.Chemscore.Hbond>
0.9612

> <Gold.Chemscore.Metal>
0.0000

> <Gold.Chemscore.Lipo>
142.5672

> <Gold.Chemscore.Internal_Hbond>
0.0000

> <Gold.Chemscore.DEClash>
0.2144

> <Gold.Chemscore.DEInternal>
0.8615

> <Gold.Chemscore.Rot>
2.3983

> <Gold.Chemscore.Internal.Correction>
   9.000000E+99

> <Gold.Chemscore.Hbonds>
donor molecule, donor type, donor heavy atom, donor atom, acceptor molecule, acceptor atom, score
      P1  H  6896  6909       L1    10  0.72

> <Gold.Chemscore.Hbond.Weighted>
-3.2104

> <Gold.Chemscore.Metal.Weighted>
-0.0000

> <Gold.Chemscore.Lipo.Weighted>
-16.6804

> <Gold.Chemscore.Internal_Hbond.Weighted>
0.0000

> <Gold.Chemscore.DEClash.Weighted>
0.2144

> <Gold.Chemscore.DEInternal.Weighted>
0.8615

> <Gold.Chemscore.Rot.Weighted>
6.1397

> <Gold.Chemscore.Internal.Correction.Weighted>
   9.000000E+99

> <Gold.Protein.RotatedTorsions>
[ 6907 6896 6895 6894 ] final  160.85 input  -60.11 | X-H torsion
[ 7974 7965 7964 7962 ] final  -64.70 input  175.53 | X-H torsion
[ 8008 7997 7996 7995 ] final -116.81 input   59.86 | X-H torsion
[ 10167 10162 10161 10158 ] final  164.96 input  -65.29 | X-H torsion
[ 10718 10713 10712 10709 ] final   82.15 input   66.30 | X-H torsion
[ 10763 10752 10751 10750 ] final  -20.33 input  -60.55 | X-H torsion
[ 11005 11000 10999 10996 ] final  -24.01 input  -57.11 | X-H torsion

> <Gold.Protein.ActiveResidues>
 VAL166  LYS551  ARG553  GLY616  TRP617  ASP618  TYR619  PRO620  LYS621  CYS622 
 ASP623  PHE694  ASN695  SER759  ASP760  ASP761  ALA762  ILE779  LEU786  VAL792 
 PHE793  MET794  SER795  GLU796  ALA797  LYS798  CYS799  TRP800  GLU811  SER814 

> <Gold.Protein.RotatedAtoms>
  151.9644  133.3705  159.4047 H   0  0  0  0  0  0  0  0  0  0  0  0  # atno 6907 bound_to 6896
  150.6959  134.4206  159.5212 H   0  0  0  0  0  0  0  0  0  0  0  0  # atno 6908 bound_to 6896
  152.1900  134.8680  160.0569 H   0  0  0  0  0  0  0  0  0  0  0  0  # atno 6909 bound_to 6896
  145.7634  140.8850  143.0418 H   0  0  0  0  0  0  0  0  0  0  0  0  # atno 7974 bound_to 7965
  155.0738  140.0393  157.2617 H   0  0  0  0  0  0  0  0  0  0  0  0  # atno 8008 bound_to 7997
  154.6961  140.2663  155.6740 H   0  0  0  0  0  0  0  0  0  0  0  0  # atno 8009 bound_to 7997
  156.2745  140.2750  156.1556 H   0  0  0  0  0  0  0  0  0  0  0  0  # atno 8010 bound_to 7997
  139.4897  144.4181  151.9219 H   0  0  0  0  0  0  0  0  0  0  0  0  # atno 10167 bound_to 10162
  157.6850  131.0035  150.2332 H   0  0  0  0  0  0  0  0  0  0  0  0  # atno 10718 bound_to 10713
  153.6187  135.6993  153.5319 H   0  0  0  0  0  0  0  0  0  0  0  0  # atno 10763 bound_to 10752
  153.2955  135.4144  155.1205 H   0  0  0  0  0  0  0  0  0  0  0  0  # atno 10764 bound_to 10752
  154.8548  135.3636  154.5727 H   0  0  0  0  0  0  0  0  0  0  0  0  # atno 10765 bound_to 10752
  140.8806  133.7657  156.0297 H   0  0  0  0  0  0  0  0  0  0  0  0  # atno 11005 bound_to 11000
  144.6826  139.9755  143.7483 LP  0  0  0  0  0  0  0  0  0  0  0  0  # atno 17320 bound_to 7965
  146.0241  139.3277  143.0795 LP  0  0  0  0  0  0  0  0  0  0  0  0  # atno 17321 bound_to 7965
  140.3625  144.2956  150.5931 LP  0  0  0  0  0  0  0  0  0  0  0  0  # atno 17342 bound_to 10162
  140.5390  143.2227  151.8115 LP  0  0  0  0  0  0  0  0  0  0  0  0  # atno 17343 bound_to 10162
  156.2961  130.3752  149.7795 LP  0  0  0  0  0  0  0  0  0  0  0  0  # atno 17370 bound_to 10713
  156.5439  130.8312  151.3278 LP  0  0  0  0  0  0  0  0  0  0  0  0  # atno 17371 bound_to 10713
  140.8466  134.3003  157.5292 LP  0  0  0  0  0  0  0  0  0  0  0  0  # atno 17394 bound_to 11000
  139.8719  134.9445  156.3883 LP  0  0  0  0  0  0  0  0  0  0  0  0  # atno 17395 bound_to 11000

$$$$
