AV-unprocessed.smi:264|AV-procd|sdf|2009|dock2
  -GOLD-   2262021203D 1   1.00000     0.00000
 Structure written by MMmdl.
 52 56  0  0  0  0  0  0  0  0  1 V2000
  152.9400  141.3068  160.2061 C   0  0  0  0  0  0  0  0  0  0  0  0
  152.9264  142.2028  158.9567 C   0  0  2  0  0  0  0  0  0  0  0  0
  153.4984  143.4782  159.2455 O   0  0  0  0  0  0  0  0  0  0  0  0
  152.5717  144.5103  158.9385 C   0  0  0  0  0  0  0  0  0  0  0  0
  151.6857  143.9100  157.8554 C   0  0  0  0  0  0  0  0  0  0  0  0
  151.5476  142.4629  158.3066 C   0  0  2  0  0  0  0  0  0  0  0  0
  150.5101  142.3935  159.2732 O   0  0  0  0  0  0  0  0  0  0  0  0
  151.2243  141.4724  157.1621 C   0  0  0  0  0  0  0  0  0  0  0  0
  150.5411  140.2699  157.6131 N   0  0  0  0  0  0  0  0  0  0  0  0
  149.1986  139.9928  157.4845 C   0  0  0  0  0  0  0  0  0  0  0  0
  148.8212  138.8364  157.9564 N   0  0  0  0  0  0  0  0  0  0  0  0
  149.9896  138.2781  158.4615 C   0  0  0  0  0  0  0  0  0  0  0  0
  150.3028  137.0444  159.0978 C   0  0  0  0  0  0  0  0  0  0  0  0
  149.3660  136.0979  159.3546 N   0  0  0  0  0  0  0  0  0  0  0  0
  148.7642  135.4913  158.1744 C   0  0  0  0  0  0  0  0  0  0  0  0
  148.0133  134.2125  158.5719 C   0  0  0  0  0  0  0  0  0  0  0  0
  147.0661  134.4956  159.6016 O   0  0  0  0  0  0  0  0  0  0  0  0
  147.6319  135.0659  160.7859 C   0  0  1  0  0  0  0  0  0  0  0  0
  146.4912  135.3644  161.7531 C   0  0  0  0  0  0  0  0  0  0  0  0
  147.1119  135.0948  163.1155 C   0  0  0  0  0  0  0  0  0  0  0  0
  147.8833  133.9335  162.8724 O   0  0  0  0  0  0  0  0  0  0  0  0
  148.4888  134.0597  161.5906 C   0  0  0  0  0  0  0  0  0  0  0  0
  148.3994  136.3570  160.4172 C   0  0  0  0  0  0  0  0  0  0  0  0
  151.6003  136.8315  159.4459 N   0  0  0  0  0  0  0  0  0  0  0  0
  152.5263  137.7631  159.2007 C   0  0  0  0  0  0  0  0  0  0  0  0
  152.3769  138.9556  158.6210 N   0  0  0  0  0  0  0  0  0  0  0  0
  151.0803  139.1700  158.2576 C   0  0  0  0  0  0  0  0  0  0  0  0
  152.4887  140.3364  159.9985 H   0  0  0  0  0  0  0  0  0  0  0  0
  152.3968  141.7629  161.0343 H   0  0  0  0  0  0  0  0  0  0  0  0
  153.9617  141.1317  160.5436 H   0  0  0  0  0  0  0  0  0  0  0  0
  153.5842  141.7534  158.2115 H   0  0  0  0  0  0  0  0  0  0  0  0
  151.9874  144.7432  159.8298 H   0  0  0  0  0  0  0  0  0  0  0  0
  153.0775  145.4200  158.6146 H   0  0  0  0  0  0  0  0  0  0  0  0
  150.7335  144.4298  157.7394 H   0  0  0  0  0  0  0  0  0  0  0  0
  152.2126  143.9593  156.9017 H   0  0  0  0  0  0  0  0  0  0  0  0
  150.2202  143.2723  159.4644 H   0  0  0  0  0  0  0  0  0  0  0  0
  150.6053  141.9544  156.4042 H   0  0  0  0  0  0  0  0  0  0  0  0
  152.1443  141.1726  156.6583 H   0  0  0  0  0  0  0  0  0  0  0  0
  148.5050  140.6765  157.0161 H   0  0  0  0  0  0  0  0  0  0  0  0
  148.0733  136.2053  157.7237 H   0  0  0  0  0  0  0  0  0  0  0  0
  149.5125  135.2548  157.4187 H   0  0  0  0  0  0  0  0  0  0  0  0
  147.4823  133.8090  157.7097 H   0  0  0  0  0  0  0  0  0  0  0  0
  148.7154  133.4429  158.8931 H   0  0  0  0  0  0  0  0  0  0  0  0
  146.0881  136.3734  161.6602 H   0  0  0  0  0  0  0  0  0  0  0  0
  145.6694  134.6644  161.5938 H   0  0  0  0  0  0  0  0  0  0  0  0
  147.7625  135.9150  163.4229 H   0  0  0  0  0  0  0  0  0  0  0  0
  146.3683  134.9290  163.8951 H   0  0  0  0  0  0  0  0  0  0  0  0
  148.5302  133.0735  161.1286 H   0  0  0  0  0  0  0  0  0  0  0  0
  149.5140  134.4122  161.7092 H   0  0  0  0  0  0  0  0  0  0  0  0
  148.9027  136.7593  161.2978 H   0  0  0  0  0  0  0  0  0  0  0  0
  147.6986  137.1185  160.0715 H   0  0  0  0  0  0  0  0  0  0  0  0
  153.5307  137.5174  159.5125 H   0  0  0  0  0  0  0  0  0  0  0  0
  1  2  1  0  0  0  0
  1 28  1  0  0  0  0
  1 29  1  0  0  0  0
  1 30  1  0  0  0  0
  2  6  1  0  0  0  0
  2  3  1  0  0  0  0
  2 31  1  0  0  0  0
  3  4  1  0  0  0  0
  4  5  1  0  0  0  0
  4 32  1  0  0  0  0
  4 33  1  0  0  0  0
  5  6  1  0  0  0  0
  5 34  1  0  0  0  0
  5 35  1  0  0  0  0
  6  7  1  0  0  0  0
  6  8  1  0  0  0  0
  7 36  1  0  0  0  0
  8  9  1  0  0  0  0
  8 37  1  0  0  0  0
  8 38  1  0  0  0  0
  9 27  1  0  0  0  0
  9 10  1  0  0  0  0
 10 11  2  0  0  0  0
 10 39  1  0  0  0  0
 11 12  1  0  0  0  0
 12 27  2  0  0  0  0
 12 13  1  0  0  0  0
 13 14  1  0  0  0  0
 13 24  2  0  0  0  0
 14 23  1  0  0  0  0
 14 15  1  0  0  0  0
 15 16  1  0  0  0  0
 15 40  1  0  0  0  0
 15 41  1  0  0  0  0
 16 17  1  0  0  0  0
 16 42  1  0  0  0  0
 16 43  1  0  0  0  0
 17 18  1  0  0  0  0
 18 22  1  0  0  0  0
 18 19  1  0  0  0  0
 18 23  1  0  0  0  0
 19 20  1  0  0  0  0
 19 44  1  0  0  0  0
 19 45  1  0  0  0  0
 20 21  1  0  0  0  0
 20 46  1  0  0  0  0
 20 47  1  0  0  0  0
 21 22  1  0  0  0  0
 22 48  1  0  0  0  0
 22 49  1  0  0  0  0
 23 50  1  0  0  0  0
 23 51  1  0  0  0  0
 24 25  1  0  0  0  0
 25 26  2  0  0  0  0
 25 52  1  0  0  0  0
 26 27  1  0  0  0  0
M  END
> <s_m_source_file>
AV-unprocessed.smi

> <i_m_source_file_index>
264

> <i_lp_mmshare_version>
43012

> <i_f3d_flags>
0

> <s_epik_input>
W0NIMl0xW0NIMl1PW0NAQEhdKFtDSDNdKVtDQEBdMShbT0hdKVtDSDJdbihbY0hdbjIpYyhjMjMpbltjSF1uYzNOKFtDSDJdNClbQ0gyXVtDSDJdT1tDQF00NVtDSDJdW0NIMl1PW0NIMl01

> <s_epik_cmdline>
J2VwaWtfcHl0aG9uJywgJy1waCcsICc3LjAnLCAnLXRuJywgJzgnLCAnLW1hJywgJzIwMCcsICctbWV0YWxfYmluZGluZycsICctaW1hZScsICc8aW5maWxlLm1hZT4nLCAnLW9tYWUnLCAnPG91dGZpbGUubWFlPic=

> <r_lp_tautomer_probability>
1

> <r_epik_Ionization_Penalty>
0.00539389

> <r_epik_Ionization_Penalty_Charging>
0

> <r_epik_Ionization_Penalty_Neutral>
0.00539389

> <r_epik_State_Penalty>
0.00375441

> <r_epik_Charging_Adjusted_Penalty>
0.00375441

> <i_epik_Tot_Q>
0

> <i_epik_Tot_abs_Q>
0

> <r_epik_Metal_State_Penalty>
-0

> <b_epik_Metal_Only>
0

> <s_lp_Force_Field>
OPLS_2005

> <r_lp_Energy>
53.6529

> <b_lp_Chiralities_Consistent>
1

> <s_lp_Variant>
AV-unprocessed.smi:264-3

> <Gold.Version>
5.8.1

> <Gold.Id.Protein>
6NUR|6NUR_protein|mol2

> <Gold.PLP.Fitness>
43.8626

> <Gold.PLP.PLP>
-42.2826

> <Gold.PLP.part.hbond>
-1.9520

> <Gold.PLP.part.metal>
0.0000

> <Gold.PLP.part.buried>
-7.8369

> <Gold.PLP.part.nonpolar>
-31.4243

> <Gold.PLP.part.repulsive>
0.0000

> <Gold.PLP.ligand.clash>
0.0000

> <Gold.PLP.ligand.torsion>
0.8603

> <Gold.PLP.Chemscore.Hbond>
1.0000

> <Gold.PLP.Chemscore.CHOScore>
0.0000

> <Gold.PLP.Chemscore.Metal>
0.0000

> <Gold.Chemscore.Hbonds>
donor molecule, donor type, donor heavy atom, donor atom, acceptor molecule, acceptor atom, score
      P1  H  6896  6907       L1    24  0.40

> <Gold.PLP.Chemscore.Internal.Correction>
0.3006

> <Gold.Rescore>
     Score         DG    S(hbond)    S(metal)    S(lipo)     H(rot)  DE(clash)    DE(int)     intcor
     14.29     -15.38       0.90        0.00     105.06       2.11       0.02       1.07       ----

> <Gold.Chemscore.Fitness>
14.2893

> <Gold.Chemscore.DG>
-15.3788

> <Gold.Chemscore.ZeroCoef>
-5.4800

> <Gold.Chemscore.Hbond>
0.8981

> <Gold.Chemscore.Metal>
0.0000

> <Gold.Chemscore.Lipo>
105.0552

> <Gold.Chemscore.Internal_Hbond>
0.0000

> <Gold.Chemscore.DEClash>
0.0242

> <Gold.Chemscore.DEInternal>
1.0653

> <Gold.Chemscore.Rot>
2.1063

> <Gold.Chemscore.Internal.Correction>
   9.000000E+99

> <Gold.Chemscore.Hbonds>
donor molecule, donor type, donor heavy atom, donor atom, acceptor molecule, acceptor atom, score
      P1  H  6896  6907       L1    24  0.01

> <Gold.Chemscore.Hbond.Weighted>
-2.9995

> <Gold.Chemscore.Metal.Weighted>
-0.0000

> <Gold.Chemscore.Lipo.Weighted>
-12.2915

> <Gold.Chemscore.Internal_Hbond.Weighted>
0.0000

> <Gold.Chemscore.DEClash.Weighted>
0.0242

> <Gold.Chemscore.DEInternal.Weighted>
1.0653

> <Gold.Chemscore.Rot.Weighted>
5.3921

> <Gold.Chemscore.Internal.Correction.Weighted>
   9.000000E+99

> <Gold.Protein.RotatedTorsions>
[ 6907 6896 6895 6894 ] final  -25.97 input  -60.11 | X-H torsion
[ 7974 7965 7964 7962 ] final  -39.02 input  175.53 | X-H torsion
[ 8008 7997 7996 7995 ] final -148.07 input   59.86 | X-H torsion
[ 10167 10162 10161 10158 ] final   37.65 input  -65.29 | X-H torsion
[ 10718 10713 10712 10709 ] final  144.89 input   66.30 | X-H torsion
[ 10763 10752 10751 10750 ] final  119.56 input  -60.55 | X-H torsion
[ 11005 11000 10999 10996 ] final   59.09 input  -57.11 | X-H torsion

> <Gold.Protein.ActiveResidues>
 VAL166  LYS551  ARG553  GLY616  TRP617  ASP618  TYR619  PRO620  LYS621  CYS622 
 ASP623  PHE694  ASN695  SER759  ASP760  ASP761  ALA762  ILE779  LEU786  VAL792 
 PHE793  MET794  SER795  GLU796  ALA797  LYS798  CYS799  TRP800  GLU811  SER814 

> <Gold.Protein.RotatedAtoms>
  151.1676  135.0303  159.8737 H   0  0  0  0  0  0  0  0  0  0  0  0  # atno 6907 bound_to 6896
  152.5450  134.1207  159.8408 H   0  0  0  0  0  0  0  0  0  0  0  0  # atno 6908 bound_to 6896
  151.1310  133.4991  159.2631 H   0  0  0  0  0  0  0  0  0  0  0  0  # atno 6909 bound_to 6896
  146.0434  140.6579  142.9076 H   0  0  0  0  0  0  0  0  0  0  0  0  # atno 7974 bound_to 7965
  155.5857  140.0647  157.2772 H   0  0  0  0  0  0  0  0  0  0  0  0  # atno 8008 bound_to 7997
  154.4320  140.1844  156.1069 H   0  0  0  0  0  0  0  0  0  0  0  0  # atno 8009 bound_to 7997
  156.0271  140.3310  155.7104 H   0  0  0  0  0  0  0  0  0  0  0  0  # atno 8010 bound_to 7997
  140.4012  144.1721  150.6134 H   0  0  0  0  0  0  0  0  0  0  0  0  # atno 10167 bound_to 10162
  157.3517  131.0952  151.0994 H   0  0  0  0  0  0  0  0  0  0  0  0  # atno 10718 bound_to 10713
  153.5849  135.3477  155.2889 H   0  0  0  0  0  0  0  0  0  0  0  0  # atno 10763 bound_to 10752
  154.8662  135.4191  154.2580 H   0  0  0  0  0  0  0  0  0  0  0  0  # atno 10764 bound_to 10752
  153.3374  135.7048  153.6966 H   0  0  0  0  0  0  0  0  0  0  0  0  # atno 10765 bound_to 10752
  140.0330  134.5985  155.9482 H   0  0  0  0  0  0  0  0  0  0  0  0  # atno 11005 bound_to 11000
  144.7085  140.3949  143.7099 LP  0  0  0  0  0  0  0  0  0  0  0  0  # atno 17320 bound_to 7965
  145.6847  139.1626  143.2681 LP  0  0  0  0  0  0  0  0  0  0  0  0  # atno 17321 bound_to 7965
  140.4738  143.2403  151.9052 LP  0  0  0  0  0  0  0  0  0  0  0  0  # atno 17342 bound_to 10162
  139.4785  144.5342  151.8623 LP  0  0  0  0  0  0  0  0  0  0  0  0  # atno 17343 bound_to 10162
  157.2167  130.6462  149.5795 LP  0  0  0  0  0  0  0  0  0  0  0  0  # atno 17370 bound_to 10713
  155.9722  130.4642  150.6211 LP  0  0  0  0  0  0  0  0  0  0  0  0  # atno 17371 bound_to 10713
  141.1841  133.6552  156.5145 LP  0  0  0  0  0  0  0  0  0  0  0  0  # atno 17394 bound_to 11000
  140.4195  134.7200  157.4882 LP  0  0  0  0  0  0  0  0  0  0  0  0  # atno 17395 bound_to 11000

$$$$
