#       Name:                AV-unprocessed.smi:876
#       Creating user name   scv26
#       Creation time:       Fri Mar 27 01:51:13 2020


#       File generated by GOLD software.
#

@<TRIPOS>MOLECULE
AV-unprocessed.smi:876
    45    46     1
SMALL
NO_CHARGES


@<TRIPOS>ATOM
      1 ****        -6.5669  -0.1664  -0.0156 C.3            1 S1                 0.0000
      2 ****        -5.6469   0.9326   0.2507 N.pl3          1 S1                 0.0000
      3 ****        -6.1549   2.2963   0.3603 C.3            1 S1                 0.0000
      4 ****        -4.2601   0.6860   0.3713 C.ar           1 S1                 0.0000
      5 ****        -3.7314  -0.6258   0.2846 C.ar           1 S1                 0.0000
      6 ****        -2.3426  -0.8215   0.4111 C.ar           1 S1                 0.0000
      7 ****        -1.5067   0.3004   0.6152 C.ar           1 S1                 0.0000
      8 ****        -0.0957   0.2370   0.7776 N.am           1 S1                 0.0000
      9 ****         0.7466  -0.7569   0.4468 C.2            1 S1                 0.0000
     10 ****         0.4287  -1.8079  -0.1091 O.2            1 S1                 0.0000
     11 ****         2.0079  -0.4543   0.7849 N.am           1 S1                 0.0000
     12 ****         3.1608  -1.3191   0.5590 C.3            1 S1                 0.0000
     13 ****         4.3596  -0.8104   1.3118 C.2            1 S1                 0.0000
     14 ****         5.4191  -0.6280   0.5271 C.2            1 S1                 0.0000
     15 ****         5.1447  -0.9708  -0.9150 C.3            1 S1                 0.0000
     16 ****         5.5070   0.1686  -1.8833 C.3            1 S1                 0.0000
     17 ****         6.9016   0.3929  -1.8877 O.3            1 S1                 0.0000
     18 ****         3.6344  -1.3199  -0.9185 C.3            1 S1                 0.0000
     19 ****        -2.1239   1.5635   0.6998 C.ar           1 S1                 0.0000
     20 ****        -3.4537   1.7556   0.5789 N.ar           1 S1                 0.0000
     21 ****         2.9477  -2.3332   0.9014 H              1 S1                 0.0000
     22 ****         5.7238  -1.8617  -1.1624 H              1 S1                 0.0000
     23 ****        -6.5394  -0.8935   0.7967 H              1 S1                 0.0000
     24 ****        -6.3038  -0.6706  -0.9460 H              1 S1                 0.0000
     25 ****        -7.5935   0.1881  -0.1093 H              1 S1                 0.0000
     26 ****        -5.7349   2.9257  -0.4251 H              1 S1                 0.0000
     27 ****        -5.8920   2.7268   1.3274 H              1 S1                 0.0000
     28 ****        -7.2406   2.3255   0.2674 H              1 S1                 0.0000
     29 ****        -4.3624  -1.4878   0.1297 H              1 S1                 0.0000
     30 ****        -1.9556  -1.8271   0.3631 H              1 S1                 0.0000
     31 ****         0.3308   1.0690   1.1583 H              1 S1                 0.0000
     32 ****         2.1842   0.4337   1.2316 H              1 S1                 0.0000
     33 ****         4.3399  -0.6377   2.3779 H              1 S1                 0.0000
     34 ****         6.3868  -0.2841   0.8619 H              1 S1                 0.0000
     35 ****         5.1952  -0.0840  -2.8971 H              1 S1                 0.0000
     36 ****         4.9951   1.0912  -1.6076 H              1 S1                 0.0000
     37 ****         7.0921   1.0894  -2.4974 H              1 S1                 0.0000
     38 ****         3.4560  -2.2893  -1.3854 H              1 S1                 0.0000
     39 ****         3.0768  -0.5865  -1.5035 H              1 S1                 0.0000
     40 ****        -1.5334   2.4525   0.8672 H              1 S1                 0.0000
     41 ****        -0.5267  -1.9758  -0.3522 LP             1 S1                 0.0000
     42 ****         1.1257  -2.4939  -0.3177 LP             1 S1                 0.0000
     43 ****         7.3763  -0.4409  -2.1693 LP             1 S1                 0.0000
     44 ****         7.2038   0.6551  -0.9712 LP             1 S1                 0.0000
     45 ****        -3.8399   2.6759   0.6417 LP             1 S1                 0.0000
@<TRIPOS>BOND
    1    1    2 1     
    2    1   23 1     
    3    1   24 1     
    4    1   25 1     
    5    2    3 1     
    6    2    4 1     
    7    3   26 1     
    8    3   27 1     
    9    3   28 1     
   10    4   20 ar    
   11    4    5 ar    
   12    5    6 ar    
   13    5   29 1     
   14    6    7 ar    
   15    6   30 1     
   16    7    8 1     
   17    7   19 ar    
   18    8    9 am    
   19    8   31 1     
   20    9   10 2     
   21    9   11 am    
   22   11   12 1     
   23   11   32 1     
   24   12   21 1     
   25   12   18 1     
   26   12   13 1     
   27   13   14 2     
   28   13   33 1     
   29   14   15 1     
   30   14   34 1     
   31   15   22 1     
   32   15   16 1     
   33   15   18 1     
   34   16   17 1     
   35   16   35 1     
   36   16   36 1     
   37   17   37 1     
   38   18   38 1     
   39   18   39 1     
   40   19   20 ar    
   41   19   40 1     
   42   10   41 1     
   43   10   42 1     
   44   17   43 1     
   45   17   44 1     
   46   20   45 1     
@<TRIPOS>SUBSTRUCTURE
      1 S1             1
@<TRIPOS>SET
LONE_PAIRS      STATIC     ATOMS    <user>   **** ""
5 41 42 43 44 45
DONOR_HYDROGENS      STATIC     ATOMS    <user>   **** ""
3 31 32 37
ATOM$BLUE        STATIC     ATOMS    COLORGROUP SYSTEM
5 41 42 43 44 45
ATOM$RED        STATIC     ATOMS    COLORGROUP SYSTEM
3 31 32 37
