AV-unprocessed.smi:54|AV-procd|sdf|550|dock4
  -GOLD-   2262016443D 1   1.00000     0.00000
 Structure written by MMmdl.
 43 45  0  0  0  0  0  0  0  0  2 V2000
  146.4809  133.9967  160.5818 C   0  0  0  0  0  0  0  0  0  0  0  0
  147.3847  134.7606  161.5639 C   0  0  0  0  0  0  0  0  0  0  0  0
  146.6242  135.1321  162.8476 C   0  0  0  0  0  0  0  0  0  0  0  0
  147.9742  136.0124  160.8986 C   0  0  0  0  0  0  0  0  0  0  0  0
  147.7049  137.1227  161.3635 O   0  0  0  0  0  0  0  0  0  0  0  0
  148.7596  135.7809  159.8227 N   0  0  0  0  0  0  0  0  0  0  0  0
  149.4277  136.6990  159.0038 C   0  0  0  0  0  0  0  0  0  0  0  0
  148.7849  137.3195  158.0393 N   0  0  0  0  0  0  0  0  0  0  0  0
  149.5998  138.1832  157.3349 C   0  0  0  0  0  0  0  0  0  0  0  0
  150.9277  138.4375  157.5374 C   0  0  0  0  0  0  0  0  0  0  0  0
  151.4109  139.3655  156.6227 N   0  0  0  0  0  0  0  0  0  0  0  0
  150.3263  139.6314  155.8951 C   0  0  0  0  0  0  0  0  0  0  0  0
  149.2098  138.9630  156.2534 N   0  0  0  0  0  0  0  0  0  0  0  0
  147.8372  139.0372  155.6516 C   0  0  1  0  0  0  0  0  0  0  0  0
  147.4767  140.3803  155.5219 O   0  0  0  0  0  0  0  0  0  0  0  0
  147.6410  140.7922  154.1698 C   0  0  2  0  0  0  0  0  0  0  0  0
  146.8421  142.0730  153.8723 C   0  0  0  0  0  0  0  0  0  0  0  0
  145.4841  141.8874  154.2106 O   0  0  0  0  0  0  0  0  0  0  0  0
  147.2005  139.5429  153.3971 C   0  0  2  0  0  0  0  0  0  0  0  0
  145.7881  139.4585  153.3411 O   0  0  0  0  0  0  0  0  0  0  0  0
  147.7683  138.4059  154.2386 C   0  0  1  0  0  0  0  0  0  0  0  0
  149.0244  138.0069  153.7170 O   0  0  0  0  0  0  0  0  0  0  0  0
  151.5855  137.7066  158.6467 C   0  0  0  0  0  0  0  0  0  0  0  0
  152.7786  137.9034  158.8695 O   0  0  0  0  0  0  0  0  0  0  0  0
  150.7805  136.8503  159.3463 N   0  5  0  0  0  0  0  0  0  0  0  0
  147.1948  138.5446  156.3825 H   0  0  0  0  0  0  0  0  0  0  0  0
  148.7016  140.9587  153.9718 H   0  0  0  0  0  0  0  0  0  0  0  0
  147.5797  139.5419  152.3741 H   0  0  0  0  0  0  0  0  0  0  0  0
  147.1114  137.5351  154.2568 H   0  0  0  0  0  0  0  0  0  0  0  0
  147.0137  133.7495  159.6626 H   0  0  0  0  0  0  0  0  0  0  0  0
  145.5999  134.5794  160.3099 H   0  0  0  0  0  0  0  0  0  0  0  0
  146.1345  133.0604  161.0201 H   0  0  0  0  0  0  0  0  0  0  0  0
  148.2070  134.0996  161.8432 H   0  0  0  0  0  0  0  0  0  0  0  0
  147.2625  135.6795  163.5423 H   0  0  0  0  0  0  0  0  0  0  0  0
  146.2728  134.2382  163.3633 H   0  0  0  0  0  0  0  0  0  0  0  0
  145.7533  135.7532  162.6340 H   0  0  0  0  0  0  0  0  0  0  0  0
  148.8609  134.8092  159.5691 H   0  0  0  0  0  0  0  0  0  0  0  0
  150.3497  140.3364  155.0775 H   0  0  0  0  0  0  0  0  0  0  0  0
  147.2190  142.8988  154.4766 H   0  0  0  0  0  0  0  0  0  0  0  0
  146.9330  142.3662  152.8260 H   0  0  0  0  0  0  0  0  0  0  0  0
  145.1082  141.2610  153.6113 H   0  0  0  0  0  0  0  0  0  0  0  0
  145.4975  139.8933  152.5537 H   0  0  0  0  0  0  0  0  0  0  0  0
  148.8782  137.5623  152.8951 H   0  0  0  0  0  0  0  0  0  0  0  0
  1  2  1  0  0  0  0
  1 30  1  0  0  0  0
  1 31  1  0  0  0  0
  1 32  1  0  0  0  0
  2  3  1  0  0  0  0
  2  4  1  0  0  0  0
  2 33  1  0  0  0  0
  3 34  1  0  0  0  0
  3 35  1  0  0  0  0
  3 36  1  0  0  0  0
  4  5  2  0  0  0  0
  4  6  1  0  0  0  0
  6 37  1  0  0  0  0
  6  7  1  0  0  0  0
  7 25  1  0  0  0  0
  7  8  2  0  0  0  0
  8  9  1  0  0  0  0
  9 13  1  0  0  0  0
  9 10  2  0  0  0  0
 10 11  1  0  0  0  0
 10 23  1  0  0  0  0
 11 12  2  0  0  0  0
 12 13  1  0  0  0  0
 12 38  1  0  0  0  0
 13 14  1  0  0  0  0
 14 26  1  0  0  0  0
 14 21  1  0  0  0  0
 14 15  1  0  0  0  0
 15 16  1  0  0  0  0
 16 27  1  0  0  0  0
 16 17  1  0  0  0  0
 16 19  1  0  0  0  0
 17 18  1  0  0  0  0
 17 39  1  0  0  0  0
 17 40  1  0  0  0  0
 18 41  1  0  0  0  0
 19 28  1  0  0  0  0
 19 20  1  0  0  0  0
 19 21  1  0  0  0  0
 20 42  1  0  0  0  0
 21 29  1  0  0  0  0
 21 22  1  0  0  0  0
 22 43  1  0  0  0  0
 23 24  2  0  0  0  0
 23 25  1  0  0  0  0
M  CHG  1  25  -1
M  END
> <s_m_source_file>
AV-unprocessed.smi

> <i_m_source_file_index>
54

> <i_lp_mmshare_version>
43012

> <i_f3d_flags>
0

> <s_epik_input>
W0NIM11bQ0hdKFtDSDNdKUMoPU8pW05IXWMobjEpW25IXWMoPU8pYyhjMTIpbltjSF1uMltDQEBIXTNPW0NASF0oW0NIMl1bT0hdKVtDQEBIXShbT0hdKVtDQEhdM1tPSF0=

> <s_epik_cmdline>
J2VwaWtfcHl0aG9uJywgJy1waCcsICc3LjAnLCAnLXRuJywgJzgnLCAnLW1hJywgJzIwMCcsICctbWV0YWxfYmluZGluZycsICctaW1hZScsICc8aW5maWxlLm1hZT4nLCAnLW9tYWUnLCAnPG91dGZpbGUubWFlPic=

> <r_lp_tautomer_probability>
0.85571

> <r_epik_Ionization_Penalty>
1.75936

> <r_epik_Ionization_Penalty_Charging>
4.55893e-11

> <r_epik_Ionization_Penalty_Neutral>
1.75936

> <r_epik_State_Penalty>
1.72072

> <r_epik_Charging_Adjusted_Penalty>
1.72072

> <i_epik_Tot_Q>
-1

> <i_epik_Tot_abs_Q>
1

> <r_epik_Metal_State_Penalty>
0.400338

> <b_epik_Metal_Only>
1

> <s_epik_Chemistry_Notes>
This compound contains an acetal/aminal-like group ( X-CH(R)-Y where X, Y are N, S, or O) that may be acid/base labile, releasing an aldehyde.

> <s_lp_Force_Field>
OPLS_2005

> <r_lp_Energy>
59.3573

> <b_lp_Chiralities_Consistent>
1

> <s_lp_Variant>
AV-unprocessed.smi:54-22

> <Gold.Version>
5.8.1

> <Gold.Id.Protein>
6NUR|6NUR_protein|mol2

> <Gold.PLP.Fitness>
47.3601

> <Gold.PLP.PLP>
-30.6043

> <Gold.PLP.part.hbond>
-5.9223

> <Gold.PLP.part.metal>
0.0000

> <Gold.PLP.part.buried>
-6.9323

> <Gold.PLP.part.nonpolar>
-19.8308

> <Gold.PLP.part.repulsive>
0.1895

> <Gold.PLP.ligand.clash>
0.0000

> <Gold.PLP.ligand.torsion>
0.9672

> <Gold.PLP.Chemscore.Hbond>
6.1910

> <Gold.PLP.Chemscore.CHOScore>
0.0000

> <Gold.PLP.Chemscore.Metal>
0.0000

> <Gold.Chemscore.Hbonds>
donor molecule, donor type, donor heavy atom, donor atom, acceptor molecule, acceptor atom, score
      L1  H    18    41       P1 10175  1.00
      L1  H    20    42       P1 10175  0.37
      L1  H    22    43       P1  7948  1.00
      P1  H  6896  6907       L1    25  1.60
      P1  H  6931  6943       L1     5  1.00
      P1  H  6934  6947       L1     5  0.82

> <Gold.PLP.Chemscore.Internal.Correction>
0.1171

> <Gold.Rescore>
     Score         DG    S(hbond)    S(metal)    S(lipo)     H(rot)  DE(clash)    DE(int)     intcor
     13.39     -14.88       4.29        0.00      45.79       4.02       0.19       1.29       ----

> <Gold.Chemscore.Fitness>
13.3888

> <Gold.Chemscore.DG>
-14.8770

> <Gold.Chemscore.ZeroCoef>
-5.4800

> <Gold.Chemscore.Hbond>
4.2902

> <Gold.Chemscore.Metal>
0.0000

> <Gold.Chemscore.Lipo>
45.7857

> <Gold.Chemscore.Internal_Hbond>
0.0000

> <Gold.Chemscore.DEClash>
0.1938

> <Gold.Chemscore.DEInternal>
1.2944

> <Gold.Chemscore.Rot>
4.0192

> <Gold.Chemscore.Internal.Correction>
   9.000000E+99

> <Gold.Chemscore.Hbonds>
donor molecule, donor type, donor heavy atom, donor atom, acceptor molecule, acceptor atom, score
      L1  H    18    41       P1 10175  0.38
      L1  H    20    42       P1 10175  0.37
      L1  H    22    43       P1  7948  0.97
      P1  H  6896  6907       L1    25  0.12
      P1  H  6931  6943       L1     5  0.94
      P1  H  6934  6947       L1     5  0.78

> <Gold.Chemscore.Hbond.Weighted>
-14.3293

> <Gold.Chemscore.Metal.Weighted>
-0.0000

> <Gold.Chemscore.Lipo.Weighted>
-5.3569

> <Gold.Chemscore.Internal_Hbond.Weighted>
0.0000

> <Gold.Chemscore.DEClash.Weighted>
0.1938

> <Gold.Chemscore.DEInternal.Weighted>
1.2944

> <Gold.Chemscore.Rot.Weighted>
10.2893

> <Gold.Chemscore.Internal.Correction.Weighted>
   9.000000E+99

> <Gold.Protein.RotatedTorsions>
[ 6907 6896 6895 6894 ] final  -31.47 input  -60.11 | X-H torsion
[ 7974 7965 7964 7962 ] final   82.43 input  175.53 | X-H torsion
[ 8008 7997 7996 7995 ] final    1.56 input   59.86 | X-H torsion
[ 10167 10162 10161 10158 ] final  125.30 input  -65.29 | X-H torsion
[ 10718 10713 10712 10709 ] final   36.13 input   66.30 | X-H torsion
[ 10763 10752 10751 10750 ] final  106.78 input  -60.55 | X-H torsion
[ 11005 11000 10999 10996 ] final  159.27 input  -57.11 | X-H torsion

> <Gold.Protein.ActiveResidues>
 VAL166  LYS551  ARG553  GLY616  TRP617  ASP618  TYR619  PRO620  LYS621  CYS622 
 ASP623  PHE694  ASN695  SER759  ASP760  ASP761  ALA762  ILE779  LEU786  VAL792 
 PHE793  MET794  SER795  GLU796  ALA797  LYS798  CYS799  TRP800  GLU811  SER814 

> <Gold.Protein.RotatedAtoms>
  151.0917  134.9920  159.8405 H   0  0  0  0  0  0  0  0  0  0  0  0  # atno 6907 bound_to 6896
  152.5429  134.2057  159.8740 H   0  0  0  0  0  0  0  0  0  0  0  0  # atno 6908 bound_to 6896
  151.2094  133.4521  159.2631 H   0  0  0  0  0  0  0  0  0  0  0  0  # atno 6909 bound_to 6896
  145.6252  139.2394  143.2116 H   0  0  0  0  0  0  0  0  0  0  0  0  # atno 7974 bound_to 7965
  154.6811  140.2633  155.6907 H   0  0  0  0  0  0  0  0  0  0  0  0  # atno 8008 bound_to 7997
  156.2697  140.2810  156.1279 H   0  0  0  0  0  0  0  0  0  0  0  0  # atno 8009 bound_to 7997
  155.1030  140.0374  157.2692 H   0  0  0  0  0  0  0  0  0  0  0  0  # atno 8010 bound_to 7997
  139.5693  144.6930  151.3823 H   0  0  0  0  0  0  0  0  0  0  0  0  # atno 10167 bound_to 10162
  157.3311  130.7498  149.6848 H   0  0  0  0  0  0  0  0  0  0  0  0  # atno 10718 bound_to 10713
  153.3977  135.3866  155.1966 H   0  0  0  0  0  0  0  0  0  0  0  0  # atno 10763 bound_to 10752
  154.8726  135.3764  154.4658 H   0  0  0  0  0  0  0  0  0  0  0  0  # atno 10764 bound_to 10752
  153.5151  135.7087  153.5822 H   0  0  0  0  0  0  0  0  0  0  0  0  # atno 10765 bound_to 10752
  140.1946  134.8382  157.2950 H   0  0  0  0  0  0  0  0  0  0  0  0  # atno 11005 bound_to 11000
  146.1400  140.7071  142.9371 LP  0  0  0  0  0  0  0  0  0  0  0  0  # atno 17320 bound_to 7965
  144.7215  140.4388  143.7004 LP  0  0  0  0  0  0  0  0  0  0  0  0  # atno 17321 bound_to 7965
  140.6977  143.7708  150.7353 LP  0  0  0  0  0  0  0  0  0  0  0  0  # atno 17342 bound_to 10162
  140.1209  143.4613  152.2313 LP  0  0  0  0  0  0  0  0  0  0  0  0  # atno 17343 bound_to 10162
  155.9696  130.4195  150.4377 LP  0  0  0  0  0  0  0  0  0  0  0  0  # atno 17370 bound_to 10713
  157.2409  131.0525  151.2437 LP  0  0  0  0  0  0  0  0  0  0  0  0  # atno 17371 bound_to 10713
  140.2122  134.4125  155.7607 LP  0  0  0  0  0  0  0  0  0  0  0  0  # atno 17394 bound_to 11000
  141.2227  133.7124  156.8356 LP  0  0  0  0  0  0  0  0  0  0  0  0  # atno 17395 bound_to 11000

$$$$
