#       Name:                AV-unprocessed.smi:2489
#       Creating user name   scv26
#       Creation time:       Fri Mar 27 13:43:33 2020


#       File generated by GOLD software.
#

@<TRIPOS>MOLECULE
AV-unprocessed.smi:2489
    40    41     1
SMALL
NO_CHARGES


@<TRIPOS>ATOM
      1 ****        -5.0217   3.9088  -0.1510 C.3            1 S1                 0.0000
      2 ****        -4.4488   2.6089  -0.1466 O.3            1 S1                 0.0000
      3 ****        -3.0756   2.5202  -0.1459 C.2            1 S1                 0.0000
      4 ****        -2.1941   3.6852  -0.1514 C.2            1 S1                 0.0000
      5 ****        -0.8687   3.4790  -0.1549 C.2            1 S1                 0.0000
      6 ****        -0.3174   2.2059  -0.1523 N.pl3          1 S1                 0.0000
      7 ****        -1.1059   1.0414  -0.1429 C.2            1 S1                 0.0000
      8 ****        -0.6519  -0.1782  -0.1373 N.2            1 S1                 0.0000
      9 ****         0.7083  -0.4748  -0.1492 C.2            1 S1                 0.0000
     10 ****         1.6761   0.2915  -0.1633 O.2            1 S1                 0.0000
     11 ****         0.9612  -1.9893  -0.1398 C.3            1 S1                 0.0000
     12 ****         1.2924  -2.5312   1.2616 C.3            1 S1                 0.0000
     13 ****         2.5174  -3.3921   1.0277 C.3            1 S1                 0.0000
     14 ****         3.1922  -2.6735  -0.1342 C.3            1 S1                 0.0000
     15 ****         4.1736  -3.5430  -0.9267 C.3            1 S1                 0.0000
     16 ****         2.0982  -2.2845  -0.9535 O.3            1 S1                 0.0000
     17 ****        -2.5434   1.2755  -0.1407 C.2            1 S1                 0.0000
     18 ****        -6.1081   3.8214  -0.1518 H              1 S1                 0.0000
     19 ****        -4.7379   4.4694  -1.0427 H              1 S1                 0.0000
     20 ****        -4.7395   4.4733   0.7388 H              1 S1                 0.0000
     21 ****        -2.5688   4.6975  -0.1522 H              1 S1                 0.0000
     22 ****        -0.1454   4.2810  -0.1591 H              1 S1                 0.0000
     23 ****         0.1087  -2.5230  -0.5637 H              1 S1                 0.0000
     24 ****         1.5360  -1.7270   1.9580 H              1 S1                 0.0000
     25 ****         0.4683  -3.1011   1.6914 H              1 S1                 0.0000
     26 ****         3.1560  -3.4761   1.9074 H              1 S1                 0.0000
     27 ****         2.2130  -4.3960   0.7285 H              1 S1                 0.0000
     28 ****         3.6935  -1.7747   0.2289 H              1 S1                 0.0000
     29 ****         5.0031  -3.8695  -0.2991 H              1 S1                 0.0000
     30 ****         4.5900  -2.9897  -1.7686 H              1 S1                 0.0000
     31 ****         3.6822  -4.4320  -1.3230 H              1 S1                 0.0000
     32 ****        -3.2336   0.4439  -0.1371 H              1 S1                 0.0000
     33 ****         0.6914   2.1521  -0.1562 H              1 S1                 0.0000
     34 ****        -4.7794   2.1331  -0.9616 LP             1 S1                 0.0000
     35 ****        -4.7799   2.1384   0.6714 LP             1 S1                 0.0000
     36 ****        -1.3071  -0.9335  -0.1239 LP             1 S1                 0.0000
     37 ****         1.5305   1.2809  -0.1675 LP             1 S1                 0.0000
     38 ****         2.6056  -0.0771  -0.1704 LP             1 S1                 0.0000
     39 ****         2.3500  -1.4716  -1.4787 LP             1 S1                 0.0000
     40 ****         1.8723  -3.0298  -1.5807 LP             1 S1                 0.0000
@<TRIPOS>BOND
    1    1    2 1     
    2    1   18 1     
    3    1   19 1     
    4    1   20 1     
    5    2    3 1     
    6    3   17 2     
    7    3    4 1     
    8    4    5 2     
    9    4   21 1     
   10    5    6 1     
   11    5   22 1     
   12    6    7 1     
   13    6   33 1     
   14    7    8 2     
   15    7   17 1     
   16    8    9 1     
   17    9   10 2     
   18    9   11 1     
   19   11   16 1     
   20   11   12 1     
   21   11   23 1     
   22   12   13 1     
   23   12   24 1     
   24   12   25 1     
   25   13   14 1     
   26   13   26 1     
   27   13   27 1     
   28   14   15 1     
   29   14   16 1     
   30   14   28 1     
   31   15   29 1     
   32   15   30 1     
   33   15   31 1     
   34   17   32 1     
   35    2   34 1     
   36    2   35 1     
   37    8   36 1     
   38   10   37 1     
   39   10   38 1     
   40   16   39 1     
   41   16   40 1     
@<TRIPOS>SUBSTRUCTURE
      1 S1             1
@<TRIPOS>SET
LONE_PAIRS      STATIC     ATOMS    <user>   **** ""
7 34 35 36 37 38 39 40
DONOR_HYDROGENS      STATIC     ATOMS    <user>   **** ""
1 33
ATOM$BLUE        STATIC     ATOMS    COLORGROUP SYSTEM
7 34 35 36 37 38 39 40
ATOM$RED        STATIC     ATOMS    COLORGROUP SYSTEM
1 33
