AV-unprocessed.smi:763|AV-procd|sdf|3635|dock8
  -GOLD-   22720 1 33D 1   1.00000     0.00000
 Structure written by MMmdl.
 44 45  0  0  0  0  0  0  0  0  1 V2000
  145.7665  132.0592  149.9370 C   0  0  0  0  0  0  0  0  0  0  0  0
  145.7393  132.3774  151.3194 O   0  0  0  0  0  0  0  0  0  0  0  0
  146.8118  133.2089  151.7405 C   0  0  0  0  0  0  0  0  0  0  0  0
  147.5367  132.6359  152.9665 C   0  0  0  0  0  0  0  0  0  0  0  0
  148.5100  133.5862  153.3832 O   0  0  0  0  0  0  0  0  0  0  0  0
  149.2512  133.3402  154.5207 C   0  0  0  0  0  0  0  0  0  0  0  0
  149.1795  132.0991  155.0663 N   0  0  0  0  0  0  0  0  0  0  0  0
  149.8730  131.8456  156.1946 C   0  0  0  0  0  0  0  0  0  0  0  0
  150.6672  132.8089  156.8419 C   0  0  0  0  0  0  0  0  0  0  0  0
  150.7451  134.0951  156.2781 C   0  0  0  0  0  0  0  0  0  0  0  0
  150.0364  134.3759  155.0919 C   0  0  0  0  0  0  0  0  0  0  0  0
  150.1418  135.6639  154.5505 N   0  0  0  0  0  0  0  0  0  0  0  0
  151.0495  137.0309  155.1196 S   0  0  0  0  0  0  0  0  0  0  0  0
  152.0128  136.4922  156.0931 O   0  0  0  0  0  0  0  0  0  0  0  0
  151.5103  137.7237  153.9067 O   0  0  0  0  0  0  0  0  0  0  0  0
  149.7379  138.0204  156.0085 C   0  0  1  0  0  0  0  0  0  0  0  0
  150.3546  139.2562  156.6955 C   0  0  0  0  0  0  0  0  0  0  0  0
  150.7744  140.3305  155.6768 C   0  0  0  0  0  0  0  0  0  0  0  0
  149.5811  140.7651  154.8104 C   0  0  0  0  0  0  0  0  0  0  0  0
  148.9298  139.5656  154.1026 C   0  0  0  0  0  0  0  0  0  0  0  0
  148.5541  138.4598  155.1109 C   0  0  1  0  0  0  0  0  0  0  0  0
  147.9785  137.3525  154.4493 O   0  0  0  0  0  0  0  0  0  0  0  0
  144.8856  131.4696  149.6837 H   0  0  0  0  0  0  0  0  0  0  0  0
  146.6446  131.4703  149.6732 H   0  0  0  0  0  0  0  0  0  0  0  0
  145.7521  132.9608  149.3236 H   0  0  0  0  0  0  0  0  0  0  0  0
  147.5094  133.3970  150.9228 H   0  0  0  0  0  0  0  0  0  0  0  0
  146.3828  134.1754  152.0068 H   0  0  0  0  0  0  0  0  0  0  0  0
  146.8180  132.4579  153.7681 H   0  0  0  0  0  0  0  0  0  0  0  0
  148.0173  131.6885  152.7199 H   0  0  0  0  0  0  0  0  0  0  0  0
  149.7890  130.8462  156.5952 H   0  0  0  0  0  0  0  0  0  0  0  0
  151.2042  132.5666  157.7470 H   0  0  0  0  0  0  0  0  0  0  0  0
  151.3497  134.8558  156.7502 H   0  0  0  0  0  0  0  0  0  0  0  0
  149.4481  135.8784  153.8494 H   0  0  0  0  0  0  0  0  0  0  0  0
  149.3566  137.3696  156.7957 H   0  0  0  0  0  0  0  0  0  0  0  0
  149.6241  139.6855  157.3822 H   0  0  0  0  0  0  0  0  0  0  0  0
  151.2057  138.9680  157.3124 H   0  0  0  0  0  0  0  0  0  0  0  0
  151.1840  141.1951  156.1998 H   0  0  0  0  0  0  0  0  0  0  0  0
  151.5738  139.9507  155.0396 H   0  0  0  0  0  0  0  0  0  0  0  0
  148.8400  141.2625  155.4374 H   0  0  0  0  0  0  0  0  0  0  0  0
  149.9042  141.5008  154.0733 H   0  0  0  0  0  0  0  0  0  0  0  0
  148.0379  139.8998  153.5717 H   0  0  0  0  0  0  0  0  0  0  0  0
  149.6066  139.1901  153.3373 H   0  0  0  0  0  0  0  0  0  0  0  0
  147.7764  138.8611  155.7622 H   0  0  0  0  0  0  0  0  0  0  0  0
  148.4193  137.2340  153.6219 H   0  0  0  0  0  0  0  0  0  0  0  0
  1  2  1  0  0  0  0
  1 23  1  0  0  0  0
  1 24  1  0  0  0  0
  1 25  1  0  0  0  0
  2  3  1  0  0  0  0
  3  4  1  0  0  0  0
  3 26  1  0  0  0  0
  3 27  1  0  0  0  0
  4  5  1  0  0  0  0
  4 28  1  0  0  0  0
  4 29  1  0  0  0  0
  5  6  1  0  0  0  0
  6 11  1  0  0  0  0
  6  7  2  0  0  0  0
  7  8  1  0  0  0  0
  8  9  2  0  0  0  0
  8 30  1  0  0  0  0
  9 10  1  0  0  0  0
  9 31  1  0  0  0  0
 10 11  2  0  0  0  0
 10 32  1  0  0  0  0
 11 12  1  0  0  0  0
 12 13  1  0  0  0  0
 12 33  1  0  0  0  0
 13 14  2  0  0  0  0
 13 15  2  0  0  0  0
 13 16  1  0  0  0  0
 16 21  1  0  0  0  0
 16 17  1  0  0  0  0
 16 34  1  0  0  0  0
 17 18  1  0  0  0  0
 17 35  1  0  0  0  0
 17 36  1  0  0  0  0
 18 19  1  0  0  0  0
 18 37  1  0  0  0  0
 18 38  1  0  0  0  0
 19 20  1  0  0  0  0
 19 39  1  0  0  0  0
 19 40  1  0  0  0  0
 20 21  1  0  0  0  0
 20 41  1  0  0  0  0
 20 42  1  0  0  0  0
 21 22  1  0  0  0  0
 21 43  1  0  0  0  0
 22 44  1  0  0  0  0
M  END
> <s_m_source_file>
AV-unprocessed.smi

> <i_m_source_file_index>
763

> <i_lp_mmshare_version>
43012

> <i_f3d_flags>
0

> <s_epik_input>
W0NIM11PW0NIMl1bQ0gyXU9jMW5bY0hdW2NIXVtjSF1jMVtOSF1TKD1PKSg9TylbQ0BASF0yW0NIMl1bQ0gyXVtDSDJdW0NIMl1bQ0BIXTJbT0hd

> <s_epik_cmdline>
J2VwaWtfcHl0aG9uJywgJy1waCcsICc3LjAnLCAnLXRuJywgJzgnLCAnLW1hJywgJzIwMCcsICctbWV0YWxfYmluZGluZycsICctaW1hZScsICc8aW5maWxlLm1hZT4nLCAnLW9tYWUnLCAnPG91dGZpbGUubWFlPic=

> <r_epik_Ionization_Penalty>
0.124685

> <r_epik_Ionization_Penalty_Charging>
0

> <r_epik_Ionization_Penalty_Neutral>
0.124685

> <r_epik_State_Penalty>
0.114154

> <r_epik_Charging_Adjusted_Penalty>
0.114154

> <i_epik_Tot_Q>
0

> <i_epik_Tot_abs_Q>
0

> <r_epik_Metal_State_Penalty>
0.443785

> <b_epik_Metal_Only>
0

> <s_lp_Force_Field>
OPLS_2005

> <r_lp_Energy>
7.3887

> <b_lp_Chiralities_Consistent>
1

> <s_lp_Variant>
AV-unprocessed.smi:763-2

> <Gold.Version>
5.8.1

> <Gold.Id.Protein>
6NUR|6NUR_protein|mol2

> <Gold.PLP.Fitness>
38.6221

> <Gold.PLP.PLP>
-31.7708

> <Gold.PLP.part.hbond>
-3.7824

> <Gold.PLP.part.metal>
0.0000

> <Gold.PLP.part.buried>
-2.6962

> <Gold.PLP.part.nonpolar>
-27.6071

> <Gold.PLP.part.repulsive>
2.9035

> <Gold.PLP.ligand.clash>
1.1607

> <Gold.PLP.ligand.torsion>
1.1544

> <Gold.PLP.Chemscore.Hbond>
2.9920

> <Gold.PLP.Chemscore.CHOScore>
0.0000

> <Gold.PLP.Chemscore.Metal>
0.0000

> <Gold.Chemscore.Hbonds>
donor molecule, donor type, donor heavy atom, donor atom, acceptor molecule, acceptor atom, score
      L1  H    12    33       P1  7948  0.92
      L1  H    22    44       P1  7948  0.86
      P1  H 10752 10763       L1    14  0.85

> <Gold.PLP.Chemscore.Internal.Correction>
1.3448

> <Gold.Rescore>
     Score         DG    S(hbond)    S(metal)    S(lipo)     H(rot)  DE(clash)    DE(int)     intcor
      8.23     -14.53       2.01        0.00      72.48       2.41       2.17       4.13       ----

> <Gold.Chemscore.Fitness>
8.2313

> <Gold.Chemscore.DG>
-14.5264

> <Gold.Chemscore.ZeroCoef>
-5.4800

> <Gold.Chemscore.Hbond>
2.0132

> <Gold.Chemscore.Metal>
0.0000

> <Gold.Chemscore.Lipo>
72.4774

> <Gold.Chemscore.Internal_Hbond>
0.0000

> <Gold.Chemscore.DEClash>
2.1675

> <Gold.Chemscore.DEInternal>
4.1276

> <Gold.Chemscore.Rot>
2.4052

> <Gold.Chemscore.Internal.Correction>
   9.000000E+99

> <Gold.Chemscore.Hbonds>
donor molecule, donor type, donor heavy atom, donor atom, acceptor molecule, acceptor atom, score
      L1  H    12    33       P1  7948  0.46
      L1  H    22    44       P1  7948  0.83
      P1  H 10752 10763       L1    14  0.15

> <Gold.Chemscore.Hbond.Weighted>
-6.7240

> <Gold.Chemscore.Metal.Weighted>
-0.0000

> <Gold.Chemscore.Lipo.Weighted>
-8.4799

> <Gold.Chemscore.Internal_Hbond.Weighted>
0.0000

> <Gold.Chemscore.DEClash.Weighted>
2.1675

> <Gold.Chemscore.DEInternal.Weighted>
4.1276

> <Gold.Chemscore.Rot.Weighted>
6.1574

> <Gold.Chemscore.Internal.Correction.Weighted>
   9.000000E+99

> <Gold.Protein.RotatedTorsions>
[ 6907 6896 6895 6894 ] final  -55.18 input  -60.11 | X-H torsion
[ 7974 7965 7964 7962 ] final -131.97 input  175.53 | X-H torsion
[ 8008 7997 7996 7995 ] final -121.49 input   59.86 | X-H torsion
[ 10167 10162 10161 10158 ] final  136.50 input  -65.29 | X-H torsion
[ 10718 10713 10712 10709 ] final  165.24 input   66.30 | X-H torsion
[ 10763 10752 10751 10750 ] final   77.23 input  -60.55 | X-H torsion
[ 11005 11000 10999 10996 ] final  -40.89 input  -57.11 | X-H torsion

> <Gold.Protein.ActiveResidues>
 VAL166  LYS551  ARG553  GLY616  TRP617  ASP618  TYR619  PRO620  LYS621  CYS622 
 ASP623  PHE694  ASN695  SER759  ASP760  ASP761  ALA762  ILE779  LEU786  VAL792 
 PHE793  MET794  SER795  GLU796  ALA797  LYS798  CYS799  TRP800  GLU811  SER814 

> <Gold.Protein.RotatedAtoms>
  150.8273  134.7510  159.6823 H   0  0  0  0  0  0  0  0  0  0  0  0  # atno 6907 bound_to 6896
  152.4382  134.5640  159.9912 H   0  0  0  0  0  0  0  0  0  0  0  0  # atno 6908 bound_to 6896
  151.5809  133.3340  159.3044 H   0  0  0  0  0  0  0  0  0  0  0  0  # atno 6909 bound_to 6896
  144.9329  140.7149  143.4894 H   0  0  0  0  0  0  0  0  0  0  0  0  # atno 7974 bound_to 7965
  155.1488  140.0403  157.2816 H   0  0  0  0  0  0  0  0  0  0  0  0  # atno 8008 bound_to 7997
  154.6419  140.2549  155.7286 H   0  0  0  0  0  0  0  0  0  0  0  0  # atno 8009 bound_to 7997
  156.2536  140.2854  156.0816 H   0  0  0  0  0  0  0  0  0  0  0  0  # atno 8010 bound_to 7997
  139.5178  144.6461  151.5435 H   0  0  0  0  0  0  0  0  0  0  0  0  # atno 10167 bound_to 10162
  157.0830  131.0397  151.2567 H   0  0  0  0  0  0  0  0  0  0  0  0  # atno 10718 bound_to 10713
  153.0783  135.4922  154.8450 H   0  0  0  0  0  0  0  0  0  0  0  0  # atno 10763 bound_to 10752
  154.7117  135.3021  154.9189 H   0  0  0  0  0  0  0  0  0  0  0  0  # atno 10764 bound_to 10752
  153.9881  135.6781  153.4806 H   0  0  0  0  0  0  0  0  0  0  0  0  # atno 10765 bound_to 10752
  141.0207  133.6864  156.2383 H   0  0  0  0  0  0  0  0  0  0  0  0  # atno 11005 bound_to 11000
  145.3113  139.1818  143.4637 LP  0  0  0  0  0  0  0  0  0  0  0  0  # atno 17320 bound_to 7965
  146.3254  140.3118  142.8627 LP  0  0  0  0  0  0  0  0  0  0  0  0  # atno 17321 bound_to 7965
  140.6247  143.9192  150.6554 LP  0  0  0  0  0  0  0  0  0  0  0  0  # atno 17342 bound_to 10162
  140.2476  143.3617  152.1433 LP  0  0  0  0  0  0  0  0  0  0  0  0  # atno 17343 bound_to 10162
  157.4784  130.7750  149.7390 LP  0  0  0  0  0  0  0  0  0  0  0  0  # atno 17370 bound_to 10713
  155.9918  130.3935  150.2968 LP  0  0  0  0  0  0  0  0  0  0  0  0  # atno 17371 bound_to 10713
  140.6577  134.5000  157.5581 LP  0  0  0  0  0  0  0  0  0  0  0  0  # atno 17394 bound_to 11000
  139.9144  134.8276  156.1415 LP  0  0  0  0  0  0  0  0  0  0  0  0  # atno 17395 bound_to 11000

$$$$
