AV-unprocessed.smi:3311|AV-procd|sdf|12719|dock2
  -GOLD-   2272019 53D 1   1.00000     0.00000
 Structure written by MMmdl.
 44 45  0  0  0  0  0  0  0  0  2 V2000
  153.0916  139.5301  159.5707 C   0  0  0  0  0  0  0  0  0  0  0  0
  152.2227  140.7746  159.3248 C   0  0  2  0  0  0  0  0  0  0  0  0
  151.8604  140.8240  157.8897 N   0  3  0  0  0  0  0  0  0  0  0  0
  150.9825  139.7280  157.4259 C   0  0  0  0  0  0  0  0  0  0  0  0
  150.5418  139.9168  155.9581 C   0  0  0  0  0  0  0  0  0  0  0  0
  151.7150  140.1433  155.1960 O   0  0  0  0  0  0  0  0  0  0  0  0
  149.8011  138.6702  155.4130 C   0  0  0  0  0  0  0  0  0  0  0  0
  149.2338  138.8809  153.9978 C   0  0  0  0  0  0  0  0  0  0  0  0
  148.3296  140.1195  153.9357 C   0  0  0  0  0  0  0  0  0  0  0  0
  149.0787  141.3700  154.4163 C   0  0  0  0  0  0  0  0  0  0  0  0
  149.6453  141.1718  155.8341 C   0  0  0  0  0  0  0  0  0  0  0  0
  152.9215  142.0960  159.7445 C   0  0  2  0  0  0  0  0  0  0  0  0
  153.2982  142.1399  161.2377 C   0  0  0  0  0  0  0  0  0  0  0  0
  152.1059  143.2572  159.4059 N   0  0  0  0  0  0  0  0  0  0  0  0
  151.7788  144.3332  160.2057 C   0  0  0  0  0  0  0  0  0  0  0  0
  151.0108  145.1794  159.4586 C   0  0  0  0  0  0  0  0  0  0  0  0
  150.9160  144.5271  158.1982 C   0  0  0  0  0  0  0  0  0  0  0  0
  151.5713  143.3784  158.1695 N   0  0  0  0  0  0  0  0  0  0  0  0
  153.2881  139.3794  160.6319 H   0  0  0  0  0  0  0  0  0  0  0  0
  154.0516  139.6054  159.0587 H   0  0  0  0  0  0  0  0  0  0  0  0
  152.5928  138.6292  159.2112 H   0  0  0  0  0  0  0  0  0  0  0  0
  151.3144  140.6594  159.9192 H   0  0  0  0  0  0  0  0  0  0  0  0
  151.3765  141.6938  157.7175 H   0  0  0  0  0  0  0  0  0  0  0  0
  151.5101  138.7801  157.5424 H   0  0  0  0  0  0  0  0  0  0  0  0
  150.1036  139.6811  158.0705 H   0  0  0  0  0  0  0  0  0  0  0  0
  152.2218  139.3451  155.1824 H   0  0  0  0  0  0  0  0  0  0  0  0
  150.4598  137.8013  155.4086 H   0  0  0  0  0  0  0  0  0  0  0  0
  148.9779  138.4215  156.0842 H   0  0  0  0  0  0  0  0  0  0  0  0
  150.0513  138.9879  153.2838 H   0  0  0  0  0  0  0  0  0  0  0  0
  148.6725  137.9982  153.6900 H   0  0  0  0  0  0  0  0  0  0  0  0
  147.9716  140.2687  152.9165 H   0  0  0  0  0  0  0  0  0  0  0  0
  147.4452  139.9604  154.5542 H   0  0  0  0  0  0  0  0  0  0  0  0
  149.8870  141.6029  153.7222 H   0  0  0  0  0  0  0  0  0  0  0  0
  148.4082  142.2298  154.4034 H   0  0  0  0  0  0  0  0  0  0  0  0
  148.8106  141.0879  156.5315 H   0  0  0  0  0  0  0  0  0  0  0  0
  150.1980  142.0632  156.1345 H   0  0  0  0  0  0  0  0  0  0  0  0
  153.8479  142.1846  159.1744 H   0  0  0  0  0  0  0  0  0  0  0  0
  154.0436  141.3857  161.4881 H   0  0  0  0  0  0  0  0  0  0  0  0
  152.4290  141.9754  161.8752 H   0  0  0  0  0  0  0  0  0  0  0  0
  153.7246  143.1077  161.5035 H   0  0  0  0  0  0  0  0  0  0  0  0
  152.1179  144.4093  161.2285 H   0  0  0  0  0  0  0  0  0  0  0  0
  150.5805  146.1210  159.7660 H   0  0  0  0  0  0  0  0  0  0  0  0
  150.3949  144.8517  157.3096 H   0  0  0  0  0  0  0  0  0  0  0  0
  152.7067  140.8161  157.3391 H   0  0  0  0  0  0  0  0  0  0  0  0
  1  2  1  0  0  0  0
  1 19  1  0  0  0  0
  1 20  1  0  0  0  0
  1 21  1  0  0  0  0
  2  3  1  0  0  0  0
  2 12  1  0  0  0  0
  2 22  1  0  0  0  0
  3  4  1  0  0  0  0
  3 23  1  0  0  0  0
  3 44  1  0  0  0  0
  4  5  1  0  0  0  0
  4 24  1  0  0  0  0
  4 25  1  0  0  0  0
  5 11  1  0  0  0  0
  5  6  1  0  0  0  0
  5  7  1  0  0  0  0
  6 26  1  0  0  0  0
  7  8  1  0  0  0  0
  7 27  1  0  0  0  0
  7 28  1  0  0  0  0
  8  9  1  0  0  0  0
  8 29  1  0  0  0  0
  8 30  1  0  0  0  0
  9 10  1  0  0  0  0
  9 31  1  0  0  0  0
  9 32  1  0  0  0  0
 10 11  1  0  0  0  0
 10 33  1  0  0  0  0
 10 34  1  0  0  0  0
 11 35  1  0  0  0  0
 11 36  1  0  0  0  0
 12 13  1  0  0  0  0
 12 14  1  0  0  0  0
 12 37  1  0  0  0  0
 13 38  1  0  0  0  0
 13 39  1  0  0  0  0
 13 40  1  0  0  0  0
 14 18  1  0  0  0  0
 14 15  1  0  0  0  0
 15 16  2  0  0  0  0
 15 41  1  0  0  0  0
 16 17  1  0  0  0  0
 16 42  1  0  0  0  0
 17 18  2  0  0  0  0
 17 43  1  0  0  0  0
M  CHG  1   3   1
M  END
> <s_m_source_file>
AV-unprocessed.smi

> <i_m_source_file_index>
3311

> <i_lp_mmshare_version>
43012

> <i_f3d_flags>
0

> <s_epik_input>
bjFbY0hdW2NIXVtjSF1uMVtDQEBIXShbQ0gzXSlbQ0BIXShbQ0gzXSlbTkhdW0NIMl1DMihbT0hdKVtDSDJdW0NIMl1bQ0gyXVtDSDJdW0NIMl0y

> <s_epik_cmdline>
J2VwaWtfcHl0aG9uJywgJy1waCcsICc3LjAnLCAnLXRuJywgJzgnLCAnLW1hJywgJzIwMCcsICctbWV0YWxfYmluZGluZycsICctaW1hZScsICc8aW5maWxlLm1hZT4nLCAnLW9tYWUnLCAnPG91dGZpbGUubWFlPic=

> <r_lp_tautomer_probability>
1

> <r_epik_Ionization_Penalty>
0.0141403

> <r_epik_Ionization_Penalty_Charging>
0.0141276

> <r_epik_Ionization_Penalty_Neutral>
1.27139e-05

> <r_epik_State_Penalty>
0.0110334

> <r_epik_Charging_Adjusted_Penalty>
0.025161

> <i_epik_Tot_Q>
1

> <i_epik_Tot_abs_Q>
1

> <r_epik_Metal_State_Penalty>
0.0110573

> <b_epik_Metal_Only>
0

> <s_lp_Force_Field>
OPLS_2005

> <r_lp_Energy>
21.8269

> <b_lp_Chiralities_Consistent>
1

> <s_lp_Variant>
AV-unprocessed.smi:3311-1

> <Gold.Version>
5.8.1

> <Gold.Id.Protein>
6NUR|6NUR_protein|mol2

> <Gold.PLP.Fitness>
47.8545

> <Gold.PLP.PLP>
-42.3611

> <Gold.PLP.part.hbond>
-1.0000

> <Gold.PLP.part.metal>
0.0000

> <Gold.PLP.part.buried>
-3.0321

> <Gold.PLP.part.nonpolar>
-37.5933

> <Gold.PLP.part.repulsive>
0.1345

> <Gold.PLP.ligand.clash>
0.0000

> <Gold.PLP.ligand.torsion>
0.2508

> <Gold.PLP.Chemscore.Hbond>
0.9760

> <Gold.PLP.Chemscore.CHOScore>
1.0000

> <Gold.PLP.Chemscore.Metal>
0.0000

> <Gold.Chemscore.Hbonds>
donor molecule, donor type, donor heavy atom, donor atom, acceptor molecule, acceptor atom, score
      P1  H  7989  7998       L1     6  0.93
      L1  C    17    43       P1  8028  1.00

> <Gold.PLP.Chemscore.Internal.Correction>
0.0671

> <Gold.Rescore>
     Score         DG    S(hbond)    S(metal)    S(lipo)     H(rot)  DE(clash)    DE(int)     intcor
     14.48     -16.22       0.97        0.00     111.10       2.14       0.13       1.61       ----

> <Gold.Chemscore.Fitness>
14.4836

> <Gold.Chemscore.DG>
-16.2188

> <Gold.Chemscore.ZeroCoef>
-5.4800

> <Gold.Chemscore.Hbond>
0.9656

> <Gold.Chemscore.Metal>
0.0000

> <Gold.Chemscore.Lipo>
111.0966

> <Gold.Chemscore.Internal_Hbond>
0.0000

> <Gold.Chemscore.DEClash>
0.1260

> <Gold.Chemscore.DEInternal>
1.6092

> <Gold.Chemscore.Rot>
2.1424

> <Gold.Chemscore.Internal.Correction>
   9.000000E+99

> <Gold.Chemscore.Hbonds>
donor molecule, donor type, donor heavy atom, donor atom, acceptor molecule, acceptor atom, score
      P1  H  7989  7998       L1     6  0.66

> <Gold.Chemscore.Hbond.Weighted>
-3.2252

> <Gold.Chemscore.Metal.Weighted>
-0.0000

> <Gold.Chemscore.Lipo.Weighted>
-12.9983

> <Gold.Chemscore.Internal_Hbond.Weighted>
0.0000

> <Gold.Chemscore.DEClash.Weighted>
0.1260

> <Gold.Chemscore.DEInternal.Weighted>
1.6092

> <Gold.Chemscore.Rot.Weighted>
5.4846

> <Gold.Chemscore.Internal.Correction.Weighted>
   9.000000E+99

> <Gold.Protein.RotatedTorsions>
[ 6907 6896 6895 6894 ] final   22.91 input  -60.11 | X-H torsion
[ 7974 7965 7964 7962 ] final  -73.44 input  175.53 | X-H torsion
[ 8008 7997 7996 7995 ] final   55.24 input   59.86 | X-H torsion
[ 10167 10162 10161 10158 ] final -176.84 input  -65.29 | X-H torsion
[ 10718 10713 10712 10709 ] final  149.84 input   66.30 | X-H torsion
[ 10763 10752 10751 10750 ] final   14.30 input  -60.55 | X-H torsion
[ 11005 11000 10999 10996 ] final  -16.44 input  -57.11 | X-H torsion

> <Gold.Protein.ActiveResidues>
 VAL166  LYS551  ARG553  GLY616  TRP617  ASP618  TYR619  PRO620  LYS621  CYS622 
 ASP623  PHE694  ASN695  SER759  ASP760  ASP761  ALA762  ILE779  LEU786  VAL792 
 PHE793  MET794  SER795  GLU796  ALA797  LYS798  CYS799  TRP800  GLU811  SER814 

> <Gold.Protein.RotatedAtoms>
  151.9343  135.0242  160.0531 H   0  0  0  0  0  0  0  0  0  0  0  0  # atno 6907 bound_to 6896
  152.2091  133.4893  159.5108 H   0  0  0  0  0  0  0  0  0  0  0  0  # atno 6908 bound_to 6896
  150.6972  134.1407  159.4147 H   0  0  0  0  0  0  0  0  0  0  0  0  # atno 6909 bound_to 6896
  145.6521  140.9279  143.0979 H   0  0  0  0  0  0  0  0  0  0  0  0  # atno 7974 bound_to 7965
  155.4979  140.3473  155.4366 H   0  0  0  0  0  0  0  0  0  0  0  0  # atno 8008 bound_to 7997
  156.0933  140.1416  156.9591 H   0  0  0  0  0  0  0  0  0  0  0  0  # atno 8009 bound_to 7997
  154.4648  140.0921  156.6969 H   0  0  0  0  0  0  0  0  0  0  0  0  # atno 8010 bound_to 7997
  139.5510  144.2111  152.1076 H   0  0  0  0  0  0  0  0  0  0  0  0  # atno 10167 bound_to 10162
  157.2911  131.0853  151.1461 H   0  0  0  0  0  0  0  0  0  0  0  0  # atno 10718 bound_to 10713
  153.1635  135.6800  153.8708 H   0  0  0  0  0  0  0  0  0  0  0  0  # atno 10763 bound_to 10752
  153.8096  135.3145  155.3400 H   0  0  0  0  0  0  0  0  0  0  0  0  # atno 10764 bound_to 10752
  154.7949  135.4813  154.0228 H   0  0  0  0  0  0  0  0  0  0  0  0  # atno 10765 bound_to 10752
  140.8068  133.8172  155.9523 H   0  0  0  0  0  0  0  0  0  0  0  0  # atno 11005 bound_to 11000
  144.7119  139.8340  143.7412 LP  0  0  0  0  0  0  0  0  0  0  0  0  # atno 17320 bound_to 7965
  146.1195  139.4211  143.0237 LP  0  0  0  0  0  0  0  0  0  0  0  0  # atno 17321 bound_to 7965
  140.1606  144.5029  150.6635 LP  0  0  0  0  0  0  0  0  0  0  0  0  # atno 17342 bound_to 10162
  140.6772  143.2310  151.5477 LP  0  0  0  0  0  0  0  0  0  0  0  0  # atno 17343 bound_to 10162
  157.2857  130.6772  149.6088 LP  0  0  0  0  0  0  0  0  0  0  0  0  # atno 17370 bound_to 10713
  155.9667  130.4436  150.5428 LP  0  0  0  0  0  0  0  0  0  0  0  0  # atno 17371 bound_to 10713
  140.9239  134.2107  157.4908 LP  0  0  0  0  0  0  0  0  0  0  0  0  # atno 17394 bound_to 11000
  139.8717  134.9804  156.5075 LP  0  0  0  0  0  0  0  0  0  0  0  0  # atno 17395 bound_to 11000

$$$$
