#       Name:                AV-unprocessed.smi:2432
#       Creating user name   scv26
#       Creation time:       Fri Mar 27 13:22:05 2020


#       File generated by GOLD software.
#

@<TRIPOS>MOLECULE
AV-unprocessed.smi:2432
    40    41     1
SMALL
NO_CHARGES


@<TRIPOS>ATOM
      1 ****        -4.5100  -3.3705  -0.1442 C.3            1 S1                 0.0000
      2 ****        -3.1114  -2.9759  -0.0809 N.am           1 S1                 0.0000
      3 ****        -2.6712  -1.7182  -0.2350 C.2            1 S1                 0.0000
      4 ****        -3.4254  -0.7685  -0.4504 O.2            1 S1                 0.0000
      5 ****        -1.1519  -1.5119  -0.1555 C.3            1 S1                 0.0000
      6 ****        -0.7620  -0.0364   0.0883 C.3            1 S1                 0.0000
      7 ****         0.6814   0.0907   0.2441 N.3            1 S1                 0.0000
      8 ****         1.2034   1.3694   0.1936 C.ar           1 S1                 0.0000
      9 ****         0.8837   2.2083   1.1864 N.ar           1 S1                 0.0000
     10 ****         1.4004   3.4547   1.1233 C.ar           1 S1                 0.0000
     11 ****         2.2378   3.8589   0.0640 C.ar           1 S1                 0.0000
     12 ****         2.5040   2.8875  -0.9238 C.ar           1 S1                 0.0000
     13 ****         3.3865   3.1904  -2.1161 C.3            1 S1                 0.0000
     14 ****         1.9855   1.6417  -0.8546 N.ar           1 S1                 0.0000
     15 ****         1.2110  -0.7912   1.2748 C.3            1 S1                 0.0000
     16 ****         0.7831  -2.2420   1.0022 C.3            1 S1                 0.0000
     17 ****        -0.6362  -2.3106   0.9105 O.3            1 S1                 0.0000
     18 ****        -4.5940  -4.4548  -0.0735 H              1 S1                 0.0000
     19 ****        -4.9621  -3.0547  -1.0853 H              1 S1                 0.0000
     20 ****        -5.0737  -2.9293   0.6786 H              1 S1                 0.0000
     21 ****        -2.4312  -3.7014   0.0946 H              1 S1                 0.0000
     22 ****        -0.7244  -1.8546  -1.0997 H              1 S1                 0.0000
     23 ****        -1.0883   0.5830  -0.7486 H              1 S1                 0.0000
     24 ****        -1.2555   0.3458   0.9834 H              1 S1                 0.0000
     25 ****         1.1445   4.1340   1.9229 H              1 S1                 0.0000
     26 ****         2.6486   4.8566   0.0160 H              1 S1                 0.0000
     27 ****         3.7243   4.2270  -2.1030 H              1 S1                 0.0000
     28 ****         2.8406   3.0221  -3.0449 H              1 S1                 0.0000
     29 ****         4.2653   2.5451  -2.1111 H              1 S1                 0.0000
     30 ****         2.2989  -0.7193   1.2991 H              1 S1                 0.0000
     31 ****         0.8444  -0.4687   2.2502 H              1 S1                 0.0000
     32 ****         1.2365  -2.6162   0.0827 H              1 S1                 0.0000
     33 ****         1.1185  -2.8915   1.8108 H              1 S1                 0.0000
     34 ****        -4.4119  -0.9185  -0.5171 LP             1 S1                 0.0000
     35 ****        -3.0513   0.1526  -0.5585 LP             1 S1                 0.0000
     36 ****         1.0592  -0.2618  -0.6120 LP             1 S1                 0.0000
     37 ****         0.2900   1.9255   1.9398 LP             1 S1                 0.0000
     38 ****         2.1783   0.9552  -1.5557 LP             1 S1                 0.0000
     39 ****        -0.9026  -3.2621   0.7568 LP             1 S1                 0.0000
     40 ****        -1.0297  -1.9893   1.7719 LP             1 S1                 0.0000
@<TRIPOS>BOND
    1    1    2 1     
    2    1   18 1     
    3    1   19 1     
    4    1   20 1     
    5    2    3 am    
    6    2   21 1     
    7    3    4 2     
    8    3    5 1     
    9    5   17 1     
   10    5    6 1     
   11    5   22 1     
   12    6    7 1     
   13    6   23 1     
   14    6   24 1     
   15    7    8 1     
   16    7   15 1     
   17    8   14 ar    
   18    8    9 ar    
   19    9   10 ar    
   20   10   11 ar    
   21   10   25 1     
   22   11   12 ar    
   23   11   26 1     
   24   12   13 1     
   25   12   14 ar    
   26   13   27 1     
   27   13   28 1     
   28   13   29 1     
   29   15   16 1     
   30   15   30 1     
   31   15   31 1     
   32   16   17 1     
   33   16   32 1     
   34   16   33 1     
   35    4   34 1     
   36    4   35 1     
   37    7   36 1     
   38    9   37 1     
   39   14   38 1     
   40   17   39 1     
   41   17   40 1     
@<TRIPOS>SUBSTRUCTURE
      1 S1             1
@<TRIPOS>SET
LONE_PAIRS      STATIC     ATOMS    <user>   **** ""
7 34 35 36 37 38 39 40
DONOR_HYDROGENS      STATIC     ATOMS    <user>   **** ""
1 21
ATOM$BLUE        STATIC     ATOMS    COLORGROUP SYSTEM
7 34 35 36 37 38 39 40
ATOM$RED        STATIC     ATOMS    COLORGROUP SYSTEM
1 21
