#       Name:                AV-unprocessed.smi:3142
#       Creating user name   scv26
#       Creation time:       Fri Mar 27 17:37:23 2020


#       File generated by GOLD software.
#

@<TRIPOS>MOLECULE
AV-unprocessed.smi:3142
    39    41     1
SMALL
NO_CHARGES


@<TRIPOS>ATOM
      1 ****        -2.7501  -1.5258   1.7897 C.3            1 S1                 0.0000
      2 ****        -2.1157  -0.7537   0.6179 C.3            1 S1                 0.0000
      3 ****        -0.5969  -0.5918   0.7745 C.2            1 S1                 0.0000
      4 ****         0.0746  -1.4809   1.2991 O.2            1 S1                 0.0000
      5 ****        -0.0707   0.5478   0.2984 N.am           1 S1                 0.0000
      6 ****         1.3434   0.9060   0.3128 C.3            1 S1                 0.0000
      7 ****         1.7422   1.6432   1.5804 C.3            1 S1                 0.0000
      8 ****         3.1710   1.6488   2.0709 C.3            1 S1                 0.0000
      9 ****         2.1096   0.8983   2.8422 C.3            1 S1                 0.0000
     10 ****         1.7207   1.7177  -0.9125 C.3            1 S1                 0.0000
     11 ****         2.0128   1.0421  -2.2308 C.3            1 S1                 0.0000
     12 ****         3.1280   1.7132  -1.4600 C.3            1 S1                 0.0000
     13 ****        -2.4257  -1.3877  -0.6735 N.pl3          1 S1                 0.0000
     14 ****        -2.1656  -2.6800  -1.0604 C.2            1 S1                 0.0000
     15 ****        -2.6167  -2.8032  -2.3490 C.2            1 S1                 0.0000
     16 ****        -3.1262  -1.5821  -2.6992 N.pl3          1 S1                 1.0000
     17 ****        -3.0058  -0.7224  -1.6823 C.2            1 S1                 0.0000
     18 ****        -2.5486  -1.0306   2.7404 H              1 S1                 0.0000
     19 ****        -2.3724  -2.5464   1.8616 H              1 S1                 0.0000
     20 ****        -3.8328  -1.5835   1.6753 H              1 S1                 0.0000
     21 ****        -2.5599   0.2436   0.6070 H              1 S1                 0.0000
     22 ****        -0.6996   1.2225  -0.1123 H              1 S1                 0.0000
     23 ****         1.9307  -0.0138   0.2711 H              1 S1                 0.0000
     24 ****         1.1966   2.5738   1.7263 H              1 S1                 0.0000
     25 ****         3.9022   1.0556   1.5257 H              1 S1                 0.0000
     26 ****         3.5492   2.5727   2.5034 H              1 S1                 0.0000
     27 ****         1.7788   1.3218   3.7883 H              1 S1                 0.0000
     28 ****         2.1393  -0.1889   2.8033 H              1 S1                 0.0000
     29 ****         1.1970   2.6699  -0.9784 H              1 S1                 0.0000
     30 ****         2.0049  -0.0458  -2.2562 H              1 S1                 0.0000
     31 ****         1.6582   1.5323  -3.1351 H              1 S1                 0.0000
     32 ****         3.5168   2.6515  -1.8502 H              1 S1                 0.0000
     33 ****         3.8614   1.0684  -0.9802 H              1 S1                 0.0000
     34 ****        -1.6900  -3.3970  -0.4066 H              1 S1                 0.0000
     35 ****        -2.6108  -3.6452  -3.0257 H              1 S1                 0.0000
     36 ****        -3.3176   0.3069  -1.6790 H              1 S1                 0.0000
     37 ****        -3.5338  -1.3585  -3.5985 H              1 S1                 0.0000
     38 ****        -0.3688  -2.3152   1.6265 LP             1 S1                 0.0000
     39 ****         1.0634  -1.3685   1.3978 LP             1 S1                 0.0000
@<TRIPOS>BOND
    1    1    2 1     
    2    1   18 1     
    3    1   19 1     
    4    1   20 1     
    5    2    3 1     
    6    2   13 1     
    7    2   21 1     
    8    3    4 2     
    9    3    5 am    
   10    5    6 1     
   11    5   22 1     
   12    6    7 1     
   13    6   10 1     
   14    6   23 1     
   15    7    9 1     
   16    7    8 1     
   17    7   24 1     
   18    8    9 1     
   19    8   25 1     
   20    8   26 1     
   21    9   27 1     
   22    9   28 1     
   23   10   12 1     
   24   10   11 1     
   25   10   29 1     
   26   11   12 1     
   27   11   30 1     
   28   11   31 1     
   29   12   32 1     
   30   12   33 1     
   31   13   17 1     
   32   13   14 1     
   33   14   15 2     
   34   14   34 1     
   35   15   16 1     
   36   15   35 1     
   37   16   17 2     
   38   16   37 1     
   39   17   36 1     
   40    4   38 1     
   41    4   39 1     
@<TRIPOS>SUBSTRUCTURE
      1 S1             1
@<TRIPOS>SET
LONE_PAIRS      STATIC     ATOMS    <user>   **** ""
2 38 39
DONOR_HYDROGENS      STATIC     ATOMS    <user>   **** ""
2 22 37
ATOM$BLUE        STATIC     ATOMS    COLORGROUP SYSTEM
2 38 39
ATOM$RED        STATIC     ATOMS    COLORGROUP SYSTEM
2 22 37
