AV-unprocessed.smi:278|AV-procd|sdf|2092|dock7
  -GOLD-   2262021373D 1   1.00000     0.00000
 Structure written by MMmdl.
 50 54  0  0  0  0  0  0  0  0  1 V2000
  143.9777  136.8381  160.2132 O   0  0  0  0  0  0  0  0  0  0  0  0
  145.3816  137.1378  160.5327 S   0  0  0  0  0  0  0  0  0  0  0  0
  145.9655  138.4462  160.1982 O   0  0  0  0  0  0  0  0  0  0  0  0
  145.6756  136.7884  162.3100 C   0  0  0  0  0  0  0  0  0  0  0  0
  146.4091  135.4417  162.3682 C   0  0  0  0  0  0  0  0  0  0  0  0
  147.2330  135.2595  161.0806 C   0  0  2  0  0  0  0  0  0  0  0  0
  148.5107  136.1042  161.0341 C   0  0  0  0  0  0  0  0  0  0  0  0
  148.7452  136.3616  159.6201 N   0  0  0  0  0  0  0  0  0  0  0  0
  149.7092  137.2300  159.2165 C   0  0  0  0  0  0  0  0  0  0  0  0
  150.9759  137.0709  159.6852 N   0  0  0  0  0  0  0  0  0  0  0  0
  151.9474  137.9107  159.3173 C   0  0  0  0  0  0  0  0  0  0  0  0
  151.8770  138.9589  158.4959 N   0  0  0  0  0  0  0  0  0  0  0  0
  150.6142  139.1172  158.0077 C   0  0  0  0  0  0  0  0  0  0  0  0
  149.4822  138.3060  158.3083 C   0  0  0  0  0  0  0  0  0  0  0  0
  148.3749  138.7728  157.6071 N   0  0  0  0  0  0  0  0  0  0  0  0
  148.8213  139.8056  156.9467 C   0  0  0  0  0  0  0  0  0  0  0  0
  150.1540  140.0885  157.1373 N   0  0  0  0  0  0  0  0  0  0  0  0
  150.9041  141.1822  156.5481 C   0  0  0  0  0  0  0  0  0  0  0  0
  151.0940  142.3724  157.5129 C   0  0  1  0  0  0  0  0  0  0  0  0
  149.8249  142.9653  157.7019 O   0  0  0  0  0  0  0  0  0  0  0  0
  151.6862  141.9906  158.8886 C   0  0  2  0  0  0  0  0  0  0  0  0
  152.1059  143.1794  159.7543 C   0  0  0  0  0  0  0  0  0  0  0  0
  153.1047  142.5689  160.7225 C   0  0  0  0  0  0  0  0  0  0  0  0
  153.5826  141.3034  160.0058 C   0  0  0  0  0  0  0  0  0  0  0  0
  152.9275  141.3152  158.7450 O   0  0  0  0  0  0  0  0  0  0  0  0
  147.4962  136.2579  158.8760 C   0  0  0  0  0  0  0  0  0  0  0  0
  146.4392  135.7760  159.8800 C   0  0  2  0  0  0  0  0  0  0  0  0
  147.4954  134.2114  160.9305 H   0  0  0  0  0  0  0  0  0  0  0  0
  145.7847  135.0114  159.4605 H   0  0  0  0  0  0  0  0  0  0  0  0
  146.2999  137.5873  162.7099 H   0  0  0  0  0  0  0  0  0  0  0  0
  144.7313  136.7823  162.8545 H   0  0  0  0  0  0  0  0  0  0  0  0
  147.0259  135.3556  163.2633 H   0  0  0  0  0  0  0  0  0  0  0  0
  145.6675  134.6435  162.4187 H   0  0  0  0  0  0  0  0  0  0  0  0
  148.3739  137.0517  161.5571 H   0  0  0  0  0  0  0  0  0  0  0  0
  149.3520  135.5812  161.4900 H   0  0  0  0  0  0  0  0  0  0  0  0
  152.9204  137.7159  159.7438 H   0  0  0  0  0  0  0  0  0  0  0  0
  148.1835  140.3994  156.3079 H   0  0  0  0  0  0  0  0  0  0  0  0
  151.8725  140.7964  156.2269 H   0  0  0  0  0  0  0  0  0  0  0  0
  150.3835  141.5078  155.6462 H   0  0  0  0  0  0  0  0  0  0  0  0
  151.7353  143.1192  157.0433 H   0  0  0  0  0  0  0  0  0  0  0  0
  149.5350  143.3215  156.8760 H   0  0  0  0  0  0  0  0  0  0  0  0
  150.9921  141.3545  159.4417 H   0  0  0  0  0  0  0  0  0  0  0  0
  152.6037  143.9325  159.1414 H   0  0  0  0  0  0  0  0  0  0  0  0
  151.2658  143.6561  160.2599 H   0  0  0  0  0  0  0  0  0  0  0  0
  153.9236  143.2553  160.9404 H   0  0  0  0  0  0  0  0  0  0  0  0
  152.6225  142.3090  161.6655 H   0  0  0  0  0  0  0  0  0  0  0  0
  154.6644  141.2821  159.8732 H   0  0  0  0  0  0  0  0  0  0  0  0
  153.2892  140.4106  160.5595 H   0  0  0  0  0  0  0  0  0  0  0  0
  147.2132  137.1990  158.4037 H   0  0  0  0  0  0  0  0  0  0  0  0
  147.6265  135.5171  158.0865 H   0  0  0  0  0  0  0  0  0  0  0  0
  1  2  2  0  0  0  0
  2 27  1  0  0  0  0
  2  3  2  0  0  0  0
  2  4  1  0  0  0  0
  4  5  1  0  0  0  0
  4 30  1  0  0  0  0
  4 31  1  0  0  0  0
  5  6  1  0  0  0  0
  5 32  1  0  0  0  0
  5 33  1  0  0  0  0
  6 28  1  0  0  0  0
  6 27  1  0  0  0  0
  6  7  1  0  0  0  0
  7  8  1  0  0  0  0
  7 34  1  0  0  0  0
  7 35  1  0  0  0  0
  8  9  1  0  0  0  0
  8 26  1  0  0  0  0
  9 14  1  0  0  0  0
  9 10  2  0  0  0  0
 10 11  1  0  0  0  0
 11 12  2  0  0  0  0
 11 36  1  0  0  0  0
 12 13  1  0  0  0  0
 13 17  1  0  0  0  0
 13 14  2  0  0  0  0
 14 15  1  0  0  0  0
 15 16  2  0  0  0  0
 16 17  1  0  0  0  0
 16 37  1  0  0  0  0
 17 18  1  0  0  0  0
 18 19  1  0  0  0  0
 18 38  1  0  0  0  0
 18 39  1  0  0  0  0
 19 20  1  0  0  0  0
 19 21  1  0  0  0  0
 19 40  1  0  0  0  0
 20 41  1  0  0  0  0
 21 25  1  0  0  0  0
 21 22  1  0  0  0  0
 21 42  1  0  0  0  0
 22 23  1  0  0  0  0
 22 43  1  0  0  0  0
 22 44  1  0  0  0  0
 23 24  1  0  0  0  0
 23 45  1  0  0  0  0
 23 46  1  0  0  0  0
 24 25  1  0  0  0  0
 24 47  1  0  0  0  0
 24 48  1  0  0  0  0
 26 27  1  0  0  0  0
 26 49  1  0  0  0  0
 26 50  1  0  0  0  0
 27 29  1  0  0  0  0
M  END
> <s_m_source_file>
AV-unprocessed.smi

> <i_m_source_file_index>
278

> <i_lp_mmshare_version>
43012

> <i_f3d_flags>
0

> <s_epik_input>
W0NIMl0xW0NIMl1TKD1PKSg9TylbQ0BASF0oW0NAQEhdMTIpW0NIMl1OKFtDSDJdMiljKG5bY0hdbjMpYyhjMzQpbltjSF1uNFtDSDJdW0NASF0oW09IXSlbQ0BASF01W0NIMl1bQ0gyXVtDSDJdTzU=

> <s_epik_cmdline>
J2VwaWtfcHl0aG9uJywgJy1waCcsICc3LjAnLCAnLXRuJywgJzgnLCAnLW1hJywgJzIwMCcsICctbWV0YWxfYmluZGluZycsICctaW1hZScsICc8aW5maWxlLm1hZT4nLCAnLW9tYWUnLCAnPG91dGZpbGUubWFlPic=

> <r_lp_tautomer_probability>
1

> <r_epik_Ionization_Penalty>
0.000636766

> <r_epik_Ionization_Penalty_Charging>
0

> <r_epik_Ionization_Penalty_Neutral>
0.000636766

> <r_epik_State_Penalty>
0.000329976

> <r_epik_Charging_Adjusted_Penalty>
0.000329976

> <i_epik_Tot_Q>
0

> <i_epik_Tot_abs_Q>
0

> <r_epik_Metal_State_Penalty>
-0

> <b_epik_Metal_Only>
0

> <s_lp_Force_Field>
OPLS_2005

> <r_lp_Energy>
49.0353

> <b_lp_Chiralities_Consistent>
1

> <s_lp_Variant>
AV-unprocessed.smi:278-6

> <Gold.Version>
5.8.1

> <Gold.Id.Protein>
6NUR|6NUR_protein|mol2

> <Gold.PLP.Fitness>
47.5339

> <Gold.PLP.PLP>
-41.0241

> <Gold.PLP.part.hbond>
-2.5738

> <Gold.PLP.part.metal>
0.0000

> <Gold.PLP.part.buried>
-7.0352

> <Gold.PLP.part.nonpolar>
-32.0286

> <Gold.PLP.part.repulsive>
0.0000

> <Gold.PLP.ligand.clash>
0.0000

> <Gold.PLP.ligand.torsion>
0.9050

> <Gold.PLP.Chemscore.Hbond>
2.6720

> <Gold.PLP.Chemscore.CHOScore>
0.0000

> <Gold.PLP.Chemscore.Metal>
0.0000

> <Gold.Chemscore.Hbonds>
donor molecule, donor type, donor heavy atom, donor atom, acceptor molecule, acceptor atom, score
      L1  H    20    41       P1  8028  1.00
      P1  H  6896  6909       L1    10  1.00
      P1  H  6934  6947       L1     3  0.61

> <Gold.PLP.Chemscore.Internal.Correction>
0.3038

> <Gold.Rescore>
     Score         DG    S(hbond)    S(metal)    S(lipo)     H(rot)  DE(clash)    DE(int)     intcor
     16.37     -18.44       2.41        0.00      88.78       2.13       0.00       2.07       ----

> <Gold.Chemscore.Fitness>
16.3718

> <Gold.Chemscore.DG>
-18.4434

> <Gold.Chemscore.ZeroCoef>
-5.4800

> <Gold.Chemscore.Hbond>
2.4073

> <Gold.Chemscore.Metal>
0.0000

> <Gold.Chemscore.Lipo>
88.7830

> <Gold.Chemscore.Internal_Hbond>
0.0000

> <Gold.Chemscore.DEClash>
0.0000

> <Gold.Chemscore.DEInternal>
2.0716

> <Gold.Chemscore.Rot>
2.1346

> <Gold.Chemscore.Internal.Correction>
   9.000000E+99

> <Gold.Chemscore.Hbonds>
donor molecule, donor type, donor heavy atom, donor atom, acceptor molecule, acceptor atom, score
      L1  H    20    41       P1  8028  0.96
      P1  H  6896  6909       L1    10  0.63
      P1  H  6934  6947       L1     3  0.61

> <Gold.Chemscore.Hbond.Weighted>
-8.0404

> <Gold.Chemscore.Metal.Weighted>
-0.0000

> <Gold.Chemscore.Lipo.Weighted>
-10.3876

> <Gold.Chemscore.Internal_Hbond.Weighted>
0.0000

> <Gold.Chemscore.DEClash.Weighted>
0.0000

> <Gold.Chemscore.DEInternal.Weighted>
2.0716

> <Gold.Chemscore.Rot.Weighted>
5.4646

> <Gold.Chemscore.Internal.Correction.Weighted>
   9.000000E+99

> <Gold.Protein.RotatedTorsions>
[ 6907 6896 6895 6894 ] final  104.41 input  -60.11 | X-H torsion
[ 7974 7965 7964 7962 ] final    1.60 input  175.53 | X-H torsion
[ 8008 7997 7996 7995 ] final  -16.02 input   59.86 | X-H torsion
[ 10167 10162 10161 10158 ] final  -85.91 input  -65.29 | X-H torsion
[ 10718 10713 10712 10709 ] final   40.15 input   66.30 | X-H torsion
[ 10763 10752 10751 10750 ] final -116.39 input  -60.55 | X-H torsion
[ 11005 11000 10999 10996 ] final   55.92 input  -57.11 | X-H torsion

> <Gold.Protein.ActiveResidues>
 VAL166  LYS551  ARG553  GLY616  TRP617  ASP618  TYR619  PRO620  LYS621  CYS622 
 ASP623  PHE694  ASN695  SER759  ASP760  ASP761  ALA762  ILE779  LEU786  VAL792 
 PHE793  MET794  SER795  GLU796  ALA797  LYS798  CYS799  TRP800  GLU811  SER814 

> <Gold.Protein.RotatedAtoms>
  152.5265  133.9681  159.7748 H   0  0  0  0  0  0  0  0  0  0  0  0  # atno 6907 bound_to 6896
  150.9958  133.6096  159.2709 H   0  0  0  0  0  0  0  0  0  0  0  0  # atno 6908 bound_to 6896
  151.3223  135.0828  159.9363 H   0  0  0  0  0  0  0  0  0  0  0  0  # atno 6909 bound_to 6896
  146.2441  140.0962  142.8350 H   0  0  0  0  0  0  0  0  0  0  0  0  # atno 7974 bound_to 7965
  154.5085  140.2181  155.9202 H   0  0  0  0  0  0  0  0  0  0  0  0  # atno 8008 bound_to 7997
  156.1524  140.3159  155.8636 H   0  0  0  0  0  0  0  0  0  0  0  0  # atno 8009 bound_to 7997
  155.3913  140.0478  157.3031 H   0  0  0  0  0  0  0  0  0  0  0  0  # atno 8010 bound_to 7997
  140.3992  143.2670  151.9164 H   0  0  0  0  0  0  0  0  0  0  0  0  # atno 10167 bound_to 10162
  157.3789  130.7742  149.7177 H   0  0  0  0  0  0  0  0  0  0  0  0  # atno 10718 bound_to 10713
  154.8517  135.4347  154.1813 H   0  0  0  0  0  0  0  0  0  0  0  0  # atno 10763 bound_to 10752
  153.2903  135.6961  153.7305 H   0  0  0  0  0  0  0  0  0  0  0  0  # atno 10764 bound_to 10752
  153.6475  135.3457  155.3064 H   0  0  0  0  0  0  0  0  0  0  0  0  # atno 10765 bound_to 10752
  140.0569  134.5657  155.9197 H   0  0  0  0  0  0  0  0  0  0  0  0  # atno 11005 bound_to 11000
  145.0608  140.9086  143.4940 LP  0  0  0  0  0  0  0  0  0  0  0  0  # atno 17320 bound_to 7965
  145.1077  139.2778  143.5653 LP  0  0  0  0  0  0  0  0  0  0  0  0  # atno 17321 bound_to 7965
  139.4785  144.5650  151.8178 LP  0  0  0  0  0  0  0  0  0  0  0  0  # atno 17342 bound_to 10162
  140.4758  144.1521  150.5924 LP  0  0  0  0  0  0  0  0  0  0  0  0  # atno 17343 bound_to 10162
  155.9771  130.4067  150.3733 LP  0  0  0  0  0  0  0  0  0  0  0  0  # atno 17370 bound_to 10713
  157.1834  131.0398  151.2737 LP  0  0  0  0  0  0  0  0  0  0  0  0  # atno 17371 bound_to 10713
  141.1956  133.6588  156.5651 LP  0  0  0  0  0  0  0  0  0  0  0  0  # atno 17394 bound_to 11000
  140.3830  134.7507  157.4673 LP  0  0  0  0  0  0  0  0  0  0  0  0  # atno 17395 bound_to 11000

$$$$
