#       Name:                AV-unprocessed.smi:2819
#       Creating user name   scv26
#       Creation time:       Fri Mar 27 15:29:18 2020


#       File generated by GOLD software.
#

@<TRIPOS>MOLECULE
AV-unprocessed.smi:2819
    56    57     1
SMALL
NO_CHARGES


@<TRIPOS>ATOM
      1 ****        -1.9996   4.7692   1.8572 C.3            1 S1                 0.0000
      2 ****        -3.3400   4.2193   1.6778 N.pl3          1 S1                 0.0000
      3 ****        -4.5085   5.0637   1.8921 C.3            1 S1                 0.0000
      4 ****        -3.5037   2.8407   1.4159 C.ar           1 S1                 0.0000
      5 ****        -4.7761   2.2484   1.2689 C.ar           1 S1                 0.0000
      6 ****        -4.8181   0.8662   1.0143 C.ar           1 S1                 0.0000
      7 ****        -3.6727   0.1496   0.9168 N.pl3          1 S1                 1.0000
      8 ****        -2.4864   0.7606   1.0602 C.ar           1 S1                 0.0000
      9 ****        -1.3649  -0.0328   0.9477 N.am           1 S1                 0.0000
     10 ****        -0.0586   0.2903   1.0048 C.2            1 S1                 0.0000
     11 ****         0.3875   1.4270   1.1682 O.2            1 S1                 0.0000
     12 ****         0.7163  -0.7934   0.8507 N.am           1 S1                 0.0000
     13 ****         2.1795  -0.8035   0.8376 C.3            1 S1                 0.0000
     14 ****         2.7725  -0.9892  -0.5908 C.3            1 S1                 0.0000
     15 ****         2.4806   0.3208  -1.3662 C.3            1 S1                 0.0000
     16 ****         4.3094  -1.0909  -0.4355 C.3            1 S1                 0.0000
     17 ****         2.1774  -2.1662  -1.2851 N.3            1 S1                 0.0000
     18 ****         2.6024  -2.3408  -2.6793 C.3            1 S1                 0.0000
     19 ****         1.8641  -3.5002  -3.3700 C.3            1 S1                 0.0000
     20 ****         2.0594  -4.7009  -2.6331 O.3            1 S1                 0.0000
     21 ****         1.6044  -4.5933  -1.2901 C.3            1 S1                 0.0000
     22 ****         2.3436  -3.4448  -0.5833 C.3            1 S1                 0.0000
     23 ****        -2.3930   2.0771   1.3056 N.ar           1 S1                 0.0000
     24 ****        -1.3889   4.5902   0.9716 H              1 S1                 0.0000
     25 ****        -1.5083   4.3093   2.7152 H              1 S1                 0.0000
     26 ****        -2.0303   5.8457   2.0263 H              1 S1                 0.0000
     27 ****        -5.1055   4.6888   2.7240 H              1 S1                 0.0000
     28 ****        -5.1322   5.0907   0.9981 H              1 S1                 0.0000
     29 ****        -4.2193   6.0885   2.1264 H              1 S1                 0.0000
     30 ****        -5.6943   2.8117   1.3440 H              1 S1                 0.0000
     31 ****        -5.7340   0.3081   0.8851 H              1 S1                 0.0000
     32 ****        -1.5562  -1.0117   0.7955 H              1 S1                 0.0000
     33 ****         0.2648  -1.6857   0.7117 H              1 S1                 0.0000
     34 ****         2.5730   0.1060   1.2954 H              1 S1                 0.0000
     35 ****         2.5099  -1.6016   1.5019 H              1 S1                 0.0000
     36 ****         2.7455   1.2011  -0.7792 H              1 S1                 0.0000
     37 ****         1.4256   0.4092  -1.6274 H              1 S1                 0.0000
     38 ****         3.0542   0.3898  -2.2906 H              1 S1                 0.0000
     39 ****         4.7107  -0.2087   0.0650 H              1 S1                 0.0000
     40 ****         4.8179  -1.1631  -1.3965 H              1 S1                 0.0000
     41 ****         4.6073  -1.9521   0.1624 H              1 S1                 0.0000
     42 ****         2.4159  -1.4389  -3.2596 H              1 S1                 0.0000
     43 ****         3.6746  -2.5316  -2.7260 H              1 S1                 0.0000
     44 ****         0.7979  -3.2844  -3.4530 H              1 S1                 0.0000
     45 ****         2.2420  -3.6395  -4.3830 H              1 S1                 0.0000
     46 ****         0.5264  -4.4259  -1.2746 H              1 S1                 0.0000
     47 ****         1.7896  -5.5360  -0.7750 H              1 S1                 0.0000
     48 ****         3.4007  -3.7011  -0.5115 H              1 S1                 0.0000
     49 ****         1.9633  -3.3838   0.4345 H              1 S1                 0.0000
     50 ****        -3.7272  -0.8525   0.7325 H              1 S1                 0.0000
     51 ****        -0.2386   2.1999   1.2710 LP             1 S1                 0.0000
     52 ****         1.3758   1.5768   1.1982 LP             1 S1                 0.0000
     53 ****         1.2072  -1.9239  -1.2780 LP             1 S1                 0.0000
     54 ****         3.0357  -4.9174  -2.6249 LP             1 S1                 0.0000
     55 ****         1.5579  -5.4394  -3.0838 LP             1 S1                 0.0000
     56 ****        -1.4917   2.4980   1.4081 LP             1 S1                 0.0000
@<TRIPOS>BOND
    1    1    2 1     
    2    1   24 1     
    3    1   25 1     
    4    1   26 1     
    5    2    3 1     
    6    2    4 1     
    7    3   27 1     
    8    3   28 1     
    9    3   29 1     
   10    4   23 ar    
   11    4    5 ar    
   12    5    6 ar    
   13    5   30 1     
   14    6    7 ar    
   15    6   31 1     
   16    7    8 ar    
   17    7   50 1     
   18    8    9 1     
   19    8   23 ar    
   20    9   10 am    
   21    9   32 1     
   22   10   11 2     
   23   10   12 am    
   24   12   13 1     
   25   12   33 1     
   26   13   14 1     
   27   13   34 1     
   28   13   35 1     
   29   14   15 1     
   30   14   16 1     
   31   14   17 1     
   32   15   36 1     
   33   15   37 1     
   34   15   38 1     
   35   16   39 1     
   36   16   40 1     
   37   16   41 1     
   38   17   22 1     
   39   17   18 1     
   40   18   19 1     
   41   18   42 1     
   42   18   43 1     
   43   19   20 1     
   44   19   44 1     
   45   19   45 1     
   46   20   21 1     
   47   21   22 1     
   48   21   46 1     
   49   21   47 1     
   50   22   48 1     
   51   22   49 1     
   52   11   51 1     
   53   11   52 1     
   54   17   53 1     
   55   20   54 1     
   56   20   55 1     
   57   23   56 1     
@<TRIPOS>SUBSTRUCTURE
      1 S1             1
@<TRIPOS>SET
LONE_PAIRS      STATIC     ATOMS    <user>   **** ""
6 51 52 53 54 55 56
DONOR_HYDROGENS      STATIC     ATOMS    <user>   **** ""
3 50 32 33
ATOM$BLUE        STATIC     ATOMS    COLORGROUP SYSTEM
6 51 52 53 54 55 56
ATOM$RED        STATIC     ATOMS    COLORGROUP SYSTEM
3 50 32 33
