AV-unprocessed.smi:1021|AV-procd|sdf|4455|dock6
  -GOLD-   22720 2423D 1   1.00000     0.00000
 Structure written by MMmdl.
 42 44  0  0  0  0  0  0  0  0  1 V2000
  147.5510  142.6900  154.1763 O   0  0  0  0  0  0  0  0  0  0  0  0
  147.9238  141.5607  154.9368 C   0  0  0  0  0  0  0  0  0  0  0  0
  149.2599  140.9910  154.4391 C   0  0  0  0  0  0  0  0  0  0  0  0
  149.8273  139.8868  155.3475 C   0  0  0  0  0  0  0  0  0  0  0  0
  150.6111  140.4388  156.5023 C   0  0  0  0  0  0  0  0  0  0  0  0
  150.7046  141.7529  156.7099 N   0  0  0  0  0  0  0  0  0  0  0  0
  151.5123  141.8302  157.8268 C   0  0  0  0  0  0  0  0  0  0  0  0
  151.9895  142.9542  158.5388 C   0  0  0  0  0  0  0  0  0  0  0  0
  152.8184  142.7852  159.6673 C   0  0  0  0  0  0  0  0  0  0  0  0
  153.1813  141.4931  160.0989 C   0  0  0  0  0  0  0  0  0  0  0  0
  152.7162  140.3603  159.4037 C   0  0  0  0  0  0  0  0  0  0  0  0
  151.8880  140.5337  158.2782 C   0  0  0  0  0  0  0  0  0  0  0  0
  151.2734  139.6534  157.3916 N   0  0  0  0  0  0  0  0  0  0  0  0
  151.3470  138.1978  157.4462 C   0  0  0  0  0  0  0  0  0  0  0  0
  151.6465  137.5529  156.0784 C   0  0  1  0  0  0  0  0  0  0  0  0
  153.0425  137.5347  155.8483 O   0  0  0  0  0  0  0  0  0  0  0  0
  151.0245  136.1690  155.9742 C   0  0  0  0  0  0  0  0  0  0  0  0
  151.4853  135.1266  156.8071 C   0  0  0  0  0  0  0  0  0  0  0  0
  150.9203  133.8396  156.7126 C   0  0  0  0  0  0  0  0  0  0  0  0
  149.8929  133.5871  155.7833 C   0  0  0  0  0  0  0  0  0  0  0  0
  149.3496  132.3503  155.6935 F   0  0  0  0  0  0  0  0  0  0  0  0
  149.4323  134.6216  154.9465 C   0  0  0  0  0  0  0  0  0  0  0  0
  149.9977  135.9083  155.0398 C   0  0  0  0  0  0  0  0  0  0  0  0
  147.8632  143.4661  154.6161 H   0  0  0  0  0  0  0  0  0  0  0  0
  147.9860  141.8341  155.9906 H   0  0  0  0  0  0  0  0  0  0  0  0
  147.1398  140.8088  154.8449 H   0  0  0  0  0  0  0  0  0  0  0  0
  149.1079  140.5865  153.4384 H   0  0  0  0  0  0  0  0  0  0  0  0
  149.9885  141.7953  154.3291 H   0  0  0  0  0  0  0  0  0  0  0  0
  149.0128  139.2814  155.7469 H   0  0  0  0  0  0  0  0  0  0  0  0
  150.4413  139.2064  154.7604 H   0  0  0  0  0  0  0  0  0  0  0  0
  151.7184  143.9479  158.2149 H   0  0  0  0  0  0  0  0  0  0  0  0
  153.1781  143.6512  160.2033 H   0  0  0  0  0  0  0  0  0  0  0  0
  153.8176  141.3716  160.9631 H   0  0  0  0  0  0  0  0  0  0  0  0
  152.9967  139.3701  159.7302 H   0  0  0  0  0  0  0  0  0  0  0  0
  152.1201  137.9184  158.1624 H   0  0  0  0  0  0  0  0  0  0  0  0
  150.4148  137.8126  157.8595 H   0  0  0  0  0  0  0  0  0  0  0  0
  151.2132  138.1703  155.2926 H   0  0  0  0  0  0  0  0  0  0  0  0
  153.4465  138.1826  156.4050 H   0  0  0  0  0  0  0  0  0  0  0  0
  152.2752  135.3095  157.5210 H   0  0  0  0  0  0  0  0  0  0  0  0
  151.2759  133.0456  157.3523 H   0  0  0  0  0  0  0  0  0  0  0  0
  148.6460  134.4282  154.2319 H   0  0  0  0  0  0  0  0  0  0  0  0
  149.6408  136.6935  154.3895 H   0  0  0  0  0  0  0  0  0  0  0  0
  1  2  1  0  0  0  0
  1 24  1  0  0  0  0
  2  3  1  0  0  0  0
  2 25  1  0  0  0  0
  2 26  1  0  0  0  0
  3  4  1  0  0  0  0
  3 27  1  0  0  0  0
  3 28  1  0  0  0  0
  4  5  1  0  0  0  0
  4 29  1  0  0  0  0
  4 30  1  0  0  0  0
  5 13  1  0  0  0  0
  5  6  2  0  0  0  0
  6  7  1  0  0  0  0
  7 12  2  0  0  0  0
  7  8  1  0  0  0  0
  8  9  2  0  0  0  0
  8 31  1  0  0  0  0
  9 10  1  0  0  0  0
  9 32  1  0  0  0  0
 10 11  2  0  0  0  0
 10 33  1  0  0  0  0
 11 12  1  0  0  0  0
 11 34  1  0  0  0  0
 12 13  1  0  0  0  0
 13 14  1  0  0  0  0
 14 15  1  0  0  0  0
 14 35  1  0  0  0  0
 14 36  1  0  0  0  0
 15 16  1  0  0  0  0
 15 17  1  0  0  0  0
 15 37  1  0  0  0  0
 16 38  1  0  0  0  0
 17 23  1  0  0  0  0
 17 18  2  0  0  0  0
 18 19  1  0  0  0  0
 18 39  1  0  0  0  0
 19 20  2  0  0  0  0
 19 40  1  0  0  0  0
 20 21  1  0  0  0  0
 20 22  1  0  0  0  0
 22 23  2  0  0  0  0
 22 41  1  0  0  0  0
 23 42  1  0  0  0  0
M  END
> <s_m_source_file>
AV-unprocessed.smi

> <i_m_source_file_index>
1021

> <i_lp_mmshare_version>
43012

> <i_f3d_flags>
0

> <s_epik_input>
W09IXVtDSDJdW0NIMl1bQ0gyXWMobjEpbihjKGMxMilbY0hdW2NIXVtjSF1bY0hdMilbQ0gyXVtDQEhdKFtPSF0pYzNbY0hdW2NIXWMoRilbY0hdW2NIXTM=

> <s_epik_cmdline>
J2VwaWtfcHl0aG9uJywgJy1waCcsICc3LjAnLCAnLXRuJywgJzgnLCAnLW1hJywgJzIwMCcsICctbWV0YWxfYmluZGluZycsICctaW1hZScsICc8aW5maWxlLm1hZT4nLCAnLW9tYWUnLCAnPG91dGZpbGUubWFlPic=

> <r_epik_Ionization_Penalty>
0.182562

> <r_epik_Ionization_Penalty_Charging>
0

> <r_epik_Ionization_Penalty_Neutral>
0.182562

> <r_epik_State_Penalty>
0.172086

> <r_epik_Charging_Adjusted_Penalty>
0.172086

> <i_epik_Tot_Q>
0

> <i_epik_Tot_abs_Q>
0

> <r_epik_Metal_State_Penalty>
0.000199649

> <b_epik_Metal_Only>
0

> <s_lp_Force_Field>
OPLS_2005

> <r_lp_Energy>
11.397

> <b_lp_Chiralities_Consistent>
1

> <s_lp_Variant>
AV-unprocessed.smi:1021-2

> <Gold.Version>
5.8.1

> <Gold.Id.Protein>
6NUR|6NUR_protein|mol2

> <Gold.PLP.Fitness>
43.3861

> <Gold.PLP.PLP>
-41.1240

> <Gold.PLP.part.hbond>
-3.6293

> <Gold.PLP.part.metal>
0.0000

> <Gold.PLP.part.buried>
-1.4774

> <Gold.PLP.part.nonpolar>
-36.2594

> <Gold.PLP.part.repulsive>
0.0744

> <Gold.PLP.ligand.clash>
0.0000

> <Gold.PLP.ligand.torsion>
0.6776

> <Gold.PLP.Chemscore.Hbond>
1.1825

> <Gold.PLP.Chemscore.CHOScore>
0.0000

> <Gold.PLP.Chemscore.Metal>
0.0000

> <Gold.Chemscore.Hbonds>
donor molecule, donor type, donor heavy atom, donor atom, acceptor molecule, acceptor atom, score
      L1  H     1    24       P1  8028  1.00
      P1  H 10752 10765       L1    16  0.30

> <Gold.PLP.Chemscore.Internal.Correction>
0.0697

> <Gold.Rescore>
     Score         DG    S(hbond)    S(metal)    S(lipo)     H(rot)  DE(clash)    DE(int)     intcor
     13.37     -14.12       0.91        0.00     115.14       3.07       0.23       0.53       ----

> <Gold.Chemscore.Fitness>
13.3656

> <Gold.Chemscore.DG>
-14.1213

> <Gold.Chemscore.ZeroCoef>
-5.4800

> <Gold.Chemscore.Hbond>
0.9101

> <Gold.Chemscore.Metal>
0.0000

> <Gold.Chemscore.Lipo>
115.1398

> <Gold.Chemscore.Internal_Hbond>
0.0000

> <Gold.Chemscore.DEClash>
0.2288

> <Gold.Chemscore.DEInternal>
0.5269

> <Gold.Chemscore.Rot>
3.0741

> <Gold.Chemscore.Internal.Correction>
   9.000000E+99

> <Gold.Chemscore.Hbonds>
donor molecule, donor type, donor heavy atom, donor atom, acceptor molecule, acceptor atom, score
      L1  H     1    24       P1  8028  0.65
      P1  H 10752 10765       L1    16  0.08

> <Gold.Chemscore.Hbond.Weighted>
-3.0398

> <Gold.Chemscore.Metal.Weighted>
-0.0000

> <Gold.Chemscore.Lipo.Weighted>
-13.4714

> <Gold.Chemscore.Internal_Hbond.Weighted>
0.0000

> <Gold.Chemscore.DEClash.Weighted>
0.2288

> <Gold.Chemscore.DEInternal.Weighted>
0.5269

> <Gold.Chemscore.Rot.Weighted>
7.8698

> <Gold.Chemscore.Internal.Correction.Weighted>
   9.000000E+99

> <Gold.Protein.RotatedTorsions>
[ 6907 6896 6895 6894 ] final  -82.26 input  -60.11 | X-H torsion
[ 7974 7965 7964 7962 ] final  -14.99 input  175.53 | X-H torsion
[ 8008 7997 7996 7995 ] final -158.13 input   59.86 | X-H torsion
[ 10167 10162 10161 10158 ] final  -59.46 input  -65.29 | X-H torsion
[ 10718 10713 10712 10709 ] final  -98.08 input   66.30 | X-H torsion
[ 10763 10752 10751 10750 ] final -142.39 input  -60.55 | X-H torsion
[ 11005 11000 10999 10996 ] final   18.06 input  -57.11 | X-H torsion

> <Gold.Protein.ActiveResidues>
 VAL166  LYS551  ARG553  GLY616  TRP617  ASP618  TYR619  PRO620  LYS621  CYS622 
 ASP623  PHE694  ASN695  SER759  ASP760  ASP761  ALA762  ILE779  LEU786  VAL792 
 PHE793  MET794  SER795  GLU796  ALA797  LYS798  CYS799  TRP800  GLU811  SER814 

> <Gold.Protein.RotatedAtoms>
  150.6900  134.3691  159.4984 H   0  0  0  0  0  0  0  0  0  0  0  0  # atno 6907 bound_to 6896
  152.1510  134.8986  160.0557 H   0  0  0  0  0  0  0  0  0  0  0  0  # atno 6908 bound_to 6896
  152.0083  133.3817  159.4246 H   0  0  0  0  0  0  0  0  0  0  0  0  # atno 6909 bound_to 6896
  146.2051  140.3428  142.8410 H   0  0  0  0  0  0  0  0  0  0  0  0  # atno 7974 bound_to 7965
  155.7429  140.0816  157.2237 H   0  0  0  0  0  0  0  0  0  0  0  0  # atno 8008 bound_to 7997
  154.4020  140.1574  156.2691 H   0  0  0  0  0  0  0  0  0  0  0  0  # atno 8009 bound_to 7997
  155.9004  140.3410  155.6025 H   0  0  0  0  0  0  0  0  0  0  0  0  # atno 8010 bound_to 7997
  140.6134  143.2394  151.5656 H   0  0  0  0  0  0  0  0  0  0  0  0  # atno 10167 bound_to 10162
  156.0099  130.5222  150.6470 H   0  0  0  0  0  0  0  0  0  0  0  0  # atno 10718 bound_to 10713
  154.8510  135.3497  154.6021 H   0  0  0  0  0  0  0  0  0  0  0  0  # atno 10763 bound_to 10752
  153.6630  135.6989  153.5176 H   0  0  0  0  0  0  0  0  0  0  0  0  # atno 10764 bound_to 10752
  153.2803  135.4266  155.1029 H   0  0  0  0  0  0  0  0  0  0  0  0  # atno 10765 bound_to 10752
  140.4290  134.1439  155.7679 H   0  0  0  0  0  0  0  0  0  0  0  0  # atno 11005 bound_to 11000
  144.8773  140.7354  143.6009 LP  0  0  0  0  0  0  0  0  0  0  0  0  # atno 17320 bound_to 7965
  145.3348  139.1749  143.4517 LP  0  0  0  0  0  0  0  0  0  0  0  0  # atno 17321 bound_to 7965
  139.5379  144.2730  152.1289 LP  0  0  0  0  0  0  0  0  0  0  0  0  # atno 17342 bound_to 10162
  140.1934  144.4729  150.6467 LP  0  0  0  0  0  0  0  0  0  0  0  0  # atno 17343 bound_to 10162
  157.4239  131.0840  151.1105 LP  0  0  0  0  0  0  0  0  0  0  0  0  # atno 17370 bound_to 10713
  157.1698  130.6262  149.5637 LP  0  0  0  0  0  0  0  0  0  0  0  0  # atno 17371 bound_to 10713
  141.1753  133.8526  157.1440 LP  0  0  0  0  0  0  0  0  0  0  0  0  # atno 17394 bound_to 11000
  140.0147  134.9972  157.0469 LP  0  0  0  0  0  0  0  0  0  0  0  0  # atno 17395 bound_to 11000

$$$$
