AV-unprocessed.smi:1308|AV-procd|sdf|5443|dock6
  -GOLD-   22720 5 13D 1   1.00000     0.00000
 Structure written by MMmdl.
 44 44  0  0  0  0  0  0  0  0  2 V2000
  155.6278  140.6400  163.8277 C   0  0  0  0  0  0  0  0  0  0  0  0
  154.8567  141.1086  162.6125 C   0  0  0  0  0  0  0  0  0  0  0  0
  154.0480  142.0917  162.7259 N   0  0  0  0  0  0  0  0  0  0  0  0
  153.3353  142.5345  161.5991 C   0  0  0  0  0  0  0  0  0  0  0  0
  152.4228  143.7279  161.8221 C   0  0  0  0  0  0  0  0  0  0  0  0
  153.4859  141.9295  160.3855 C   0  0  0  0  0  0  0  0  0  0  0  0
  152.7600  142.3961  159.1222 C   0  0  0  0  0  0  0  0  0  0  0  0
  151.7742  141.3823  158.5413 C   0  0  0  0  0  0  0  0  0  0  0  0
  151.6014  140.3017  159.1041 O   0  0  0  0  0  0  0  0  0  0  0  0
  151.1073  141.7717  157.4409 N   0  0  0  0  0  0  0  0  0  0  0  0
  149.9435  141.1254  156.8320 C   0  0  1  0  0  0  0  0  0  0  0  0
  148.6545  141.3847  157.6317 C   0  0  0  0  0  0  0  0  0  0  0  0
  149.7994  141.4859  155.3355 C   0  0  0  0  0  0  0  0  0  0  0  0
  149.1466  140.3739  154.4867 C   0  0  0  0  0  0  0  0  0  0  0  0
  147.6091  140.4565  154.4158 C   0  0  0  0  0  0  0  0  0  0  0  0
  147.0200  139.5300  153.3393 C   0  0  0  0  0  0  0  0  0  0  0  0
  147.1540  141.9063  154.1883 C   0  0  0  0  0  0  0  0  0  0  0  0
  154.4268  140.7982  160.2983 C   0  0  0  0  0  0  0  0  0  0  0  0
  154.6125  140.2262  159.2249 O   0  0  0  0  0  0  0  0  0  0  0  0
  155.0806  140.4294  161.4361 N   0  5  0  0  0  0  0  0  0  0  0  0
  155.4692  141.3072  164.6760 H   0  0  0  0  0  0  0  0  0  0  0  0
  156.6964  140.6127  163.6115 H   0  0  0  0  0  0  0  0  0  0  0  0
  155.3066  139.6382  164.1139 H   0  0  0  0  0  0  0  0  0  0  0  0
  151.3969  143.4874  161.5429 H   0  0  0  0  0  0  0  0  0  0  0  0
  152.7562  144.5795  161.2287 H   0  0  0  0  0  0  0  0  0  0  0  0
  152.4214  144.0333  162.8690 H   0  0  0  0  0  0  0  0  0  0  0  0
  152.2339  143.3359  159.2904 H   0  0  0  0  0  0  0  0  0  0  0  0
  153.5060  142.6295  158.3622 H   0  0  0  0  0  0  0  0  0  0  0  0
  151.3547  142.6745  157.0607 H   0  0  0  0  0  0  0  0  0  0  0  0
  150.1444  140.0552  156.8906 H   0  0  0  0  0  0  0  0  0  0  0  0
  147.8329  140.7794  157.2486 H   0  0  0  0  0  0  0  0  0  0  0  0
  148.3427  142.4275  157.5766 H   0  0  0  0  0  0  0  0  0  0  0  0
  148.7867  141.1297  158.6836 H   0  0  0  0  0  0  0  0  0  0  0  0
  149.2053  142.3960  155.2542 H   0  0  0  0  0  0  0  0  0  0  0  0
  150.7778  141.7306  154.9209 H   0  0  0  0  0  0  0  0  0  0  0  0
  149.5303  140.4307  153.4684 H   0  0  0  0  0  0  0  0  0  0  0  0
  149.4503  139.3964  154.8633 H   0  0  0  0  0  0  0  0  0  0  0  0
  147.2103  140.1449  155.3822 H   0  0  0  0  0  0  0  0  0  0  0  0
  147.4153  139.7689  152.3514 H   0  0  0  0  0  0  0  0  0  0  0  0
  145.9348  139.6238  153.2935 H   0  0  0  0  0  0  0  0  0  0  0  0
  147.2424  138.4831  153.5441 H   0  0  0  0  0  0  0  0  0  0  0  0
  147.5212  142.2933  153.2375 H   0  0  0  0  0  0  0  0  0  0  0  0
  147.5207  142.5633  154.9780 H   0  0  0  0  0  0  0  0  0  0  0  0
  146.0664  141.9811  154.1816 H   0  0  0  0  0  0  0  0  0  0  0  0
  1  2  1  0  0  0  0
  1 21  1  0  0  0  0
  1 22  1  0  0  0  0
  1 23  1  0  0  0  0
  2 20  1  0  0  0  0
  2  3  2  0  0  0  0
  3  4  1  0  0  0  0
  4  5  1  0  0  0  0
  4  6  2  0  0  0  0
  5 24  1  0  0  0  0
  5 25  1  0  0  0  0
  5 26  1  0  0  0  0
  6  7  1  0  0  0  0
  6 18  1  0  0  0  0
  7  8  1  0  0  0  0
  7 27  1  0  0  0  0
  7 28  1  0  0  0  0
  8  9  2  0  0  0  0
  8 10  1  0  0  0  0
 10 11  1  0  0  0  0
 10 29  1  0  0  0  0
 11 12  1  0  0  0  0
 11 13  1  0  0  0  0
 11 30  1  0  0  0  0
 12 31  1  0  0  0  0
 12 32  1  0  0  0  0
 12 33  1  0  0  0  0
 13 14  1  0  0  0  0
 13 34  1  0  0  0  0
 13 35  1  0  0  0  0
 14 15  1  0  0  0  0
 14 36  1  0  0  0  0
 14 37  1  0  0  0  0
 15 16  1  0  0  0  0
 15 17  1  0  0  0  0
 15 38  1  0  0  0  0
 16 39  1  0  0  0  0
 16 40  1  0  0  0  0
 16 41  1  0  0  0  0
 17 42  1  0  0  0  0
 17 43  1  0  0  0  0
 17 44  1  0  0  0  0
 18 19  2  0  0  0  0
 18 20  1  0  0  0  0
M  CHG  1  20  -1
M  END
> <s_m_source_file>
AV-unprocessed.smi

> <i_m_source_file_index>
1308

> <i_lp_mmshare_version>
43012

> <i_f3d_flags>
0

> <s_epik_input>
W0NIM11jMW5jKFtDSDNdKWMoYyg9TylbbkhdMSlbQ0gyXUMoPU8pW05IXVtDQEhdKFtDSDNdKVtDSDJdW0NIMl1bQ0hdKFtDSDNdKVtDSDNd

> <s_epik_cmdline>
J2VwaWtfcHl0aG9uJywgJy1waCcsICc3LjAnLCAnLXRuJywgJzgnLCAnLW1hJywgJzIwMCcsICctbWV0YWxfYmluZGluZycsICctaW1hZScsICc8aW5maWxlLm1hZT4nLCAnLW9tYWUnLCAnPG91dGZpbGUubWFlPic=

> <r_lp_tautomer_probability>
0.839158

> <r_epik_Ionization_Penalty>
6.61719

> <r_epik_Ionization_Penalty_Charging>
7.20681e-08

> <r_epik_Ionization_Penalty_Neutral>
6.61719

> <r_epik_State_Penalty>
4.43758

> <r_epik_Charging_Adjusted_Penalty>
4.43758

> <i_epik_Tot_Q>
-1

> <i_epik_Tot_abs_Q>
1

> <r_epik_Metal_State_Penalty>
0.801586

> <b_epik_Metal_Only>
1

> <s_lp_Force_Field>
OPLS_2005

> <r_lp_Energy>
8.11692

> <b_lp_Chiralities_Consistent>
1

> <s_lp_Variant>
AV-unprocessed.smi:1308-6

> <Gold.Version>
5.8.1

> <Gold.Id.Protein>
6NUR|6NUR_protein|mol2

> <Gold.PLP.Fitness>
42.9639

> <Gold.PLP.PLP>
-41.8655

> <Gold.PLP.part.hbond>
-2.1016

> <Gold.PLP.part.metal>
0.0000

> <Gold.PLP.part.buried>
-1.7663

> <Gold.PLP.part.nonpolar>
-35.9368

> <Gold.PLP.part.repulsive>
0.0774

> <Gold.PLP.ligand.clash>
0.0000

> <Gold.PLP.ligand.torsion>
0.8740

> <Gold.PLP.Chemscore.Hbond>
0.9120

> <Gold.PLP.Chemscore.CHOScore>
0.0000

> <Gold.PLP.Chemscore.Metal>
0.0000

> <Gold.Chemscore.Hbonds>
donor molecule, donor type, donor heavy atom, donor atom, acceptor molecule, acceptor atom, score
      P1  H  7997  8010       L1    19  0.88

> <Gold.PLP.Chemscore.Internal.Correction>
0.1105

> <Gold.Rescore>
     Score         DG    S(hbond)    S(metal)    S(lipo)     H(rot)  DE(clash)    DE(int)     intcor
     13.62     -14.46       0.94        0.00      91.67       1.91       0.06       0.78       ----

> <Gold.Chemscore.Fitness>
13.6185

> <Gold.Chemscore.DG>
-14.4627

> <Gold.Chemscore.ZeroCoef>
-5.4800

> <Gold.Chemscore.Hbond>
0.9435

> <Gold.Chemscore.Metal>
0.0000

> <Gold.Chemscore.Lipo>
91.6713

> <Gold.Chemscore.Internal_Hbond>
0.0000

> <Gold.Chemscore.DEClash>
0.0614

> <Gold.Chemscore.DEInternal>
0.7828

> <Gold.Chemscore.Rot>
1.9118

> <Gold.Chemscore.Internal.Correction>
   9.000000E+99

> <Gold.Chemscore.Hbonds>
donor molecule, donor type, donor heavy atom, donor atom, acceptor molecule, acceptor atom, score
      P1  H  7997  8010       L1    19  0.85

> <Gold.Chemscore.Hbond.Weighted>
-3.1514

> <Gold.Chemscore.Metal.Weighted>
-0.0000

> <Gold.Chemscore.Lipo.Weighted>
-10.7255

> <Gold.Chemscore.Internal_Hbond.Weighted>
0.0000

> <Gold.Chemscore.DEClash.Weighted>
0.0614

> <Gold.Chemscore.DEInternal.Weighted>
0.7828

> <Gold.Chemscore.Rot.Weighted>
4.8943

> <Gold.Chemscore.Internal.Correction.Weighted>
   9.000000E+99

> <Gold.Protein.RotatedTorsions>
[ 6907 6896 6895 6894 ] final   -9.99 input  -60.11 | X-H torsion
[ 7974 7965 7964 7962 ] final  -84.15 input  175.53 | X-H torsion
[ 8008 7997 7996 7995 ] final   -7.28 input   59.86 | X-H torsion
[ 10167 10162 10161 10158 ] final -130.46 input  -65.29 | X-H torsion
[ 10718 10713 10712 10709 ] final  150.32 input   66.30 | X-H torsion
[ 10763 10752 10751 10750 ] final -179.03 input  -60.55 | X-H torsion
[ 11005 11000 10999 10996 ] final -176.63 input  -57.11 | X-H torsion

> <Gold.Protein.ActiveResidues>
 VAL166  LYS551  ARG553  GLY616  TRP617  ASP618  TYR619  PRO620  LYS621  CYS622 
 ASP623  PHE694  ASN695  SER759  ASP760  ASP761  ALA762  ILE779  LEU786  VAL792 
 PHE793  MET794  SER795  GLU796  ALA797  LYS798  CYS799  TRP800  GLU811  SER814 

> <Gold.Protein.RotatedAtoms>
  151.4091  135.0982  159.9579 H   0  0  0  0  0  0  0  0  0  0  0  0  # atno 6907 bound_to 6896
  152.5026  133.8815  159.7359 H   0  0  0  0  0  0  0  0  0  0  0  0  # atno 6908 bound_to 6896
  150.9306  133.6715  159.2840 H   0  0  0  0  0  0  0  0  0  0  0  0  # atno 6909 bound_to 6896
  145.5105  140.9540  143.1710 H   0  0  0  0  0  0  0  0  0  0  0  0  # atno 7974 bound_to 7965
  154.5853  140.2411  155.7995 H   0  0  0  0  0  0  0  0  0  0  0  0  # atno 8008 bound_to 7997
  156.2209  140.2998  155.9905 H   0  0  0  0  0  0  0  0  0  0  0  0  # atno 8009 bound_to 7997
  155.2468  140.0409  157.2972 H   0  0  0  0  0  0  0  0  0  0  0  0  # atno 8010 bound_to 7997
  139.9291  143.6293  152.2534 H   0  0  0  0  0  0  0  0  0  0  0  0  # atno 10167 bound_to 10162
  157.2850  131.0842  151.1504 H   0  0  0  0  0  0  0  0  0  0  0  0  # atno 10718 bound_to 10713
  154.5402  135.2805  155.1102 H   0  0  0  0  0  0  0  0  0  0  0  0  # atno 10763 bound_to 10752
  154.2587  135.6325  153.5270 H   0  0  0  0  0  0  0  0  0  0  0  0  # atno 10764 bound_to 10752
  152.9977  135.5600  154.5940 H   0  0  0  0  0  0  0  0  0  0  0  0  # atno 10765 bound_to 10752
  140.4500  134.6352  157.4796 H   0  0  0  0  0  0  0  0  0  0  0  0  # atno 11005 bound_to 11000
  144.7730  139.6692  143.7186 LP  0  0  0  0  0  0  0  0  0  0  0  0  # atno 17320 bound_to 7965
  146.2170  139.5566  142.9644 LP  0  0  0  0  0  0  0  0  0  0  0  0  # atno 17321 bound_to 7965
  139.6797  144.7656  151.1630 LP  0  0  0  0  0  0  0  0  0  0  0  0  # atno 17342 bound_to 10162
  140.7642  143.5742  150.8963 LP  0  0  0  0  0  0  0  0  0  0  0  0  # atno 17343 bound_to 10162
  157.2923  130.6802  149.6120 LP  0  0  0  0  0  0  0  0  0  0  0  0  # atno 17370 bound_to 10713
  155.9665  130.4417  150.5351 LP  0  0  0  0  0  0  0  0  0  0  0  0  # atno 17371 bound_to 10713
  140.0013  134.6832  155.9525 LP  0  0  0  0  0  0  0  0  0  0  0  0  # atno 17394 bound_to 11000
  141.1668  133.6537  156.4509 LP  0  0  0  0  0  0  0  0  0  0  0  0  # atno 17395 bound_to 11000

$$$$
