AV-unprocessed.smi:781|AV-procd|sdf|3712|dock2
  -GOLD-   22720 1133D 1   1.00000     0.00000
 Structure written by MMmdl.
 38 40  0  0  0  0  0  0  0  0  1 V2000
  150.6321  129.9210  155.2773 C   0  0  0  0  0  0  0  0  0  0  0  0
  149.9716  131.1644  154.7886 C   0  0  0  0  0  0  0  0  0  0  0  0
  150.2853  132.4898  154.9002 C   0  0  0  0  0  0  0  0  0  0  0  0
  149.2270  133.1285  154.2007 C   0  0  0  0  0  0  0  0  0  0  0  0
  149.1815  134.5407  154.0825 N   0  0  0  0  0  0  0  0  0  0  0  0
  149.4293  135.4511  155.0394 C   0  0  0  0  0  0  0  0  0  0  0  0
  149.7542  135.1930  156.1988 O   0  0  0  0  0  0  0  0  0  0  0  0
  149.2826  136.6987  154.5724 N   0  0  0  0  0  0  0  0  0  0  0  0
  149.4770  137.9127  155.3616 C   0  0  1  0  0  0  0  0  0  0  0  0
  150.6359  137.8066  156.3853 C   0  0  1  0  0  0  0  0  0  0  0  0
  151.9362  137.3095  155.7180 C   0  0  0  0  0  0  0  0  0  0  0  0
  152.3417  138.5071  154.8387 C   0  0  0  0  0  0  0  0  0  0  0  0
  151.2405  139.5420  155.1427 C   0  0  2  0  0  0  0  0  0  0  0  0
  150.9712  139.2740  156.6189 C   0  0  0  0  0  0  0  0  0  0  0  0
  149.9204  139.1017  154.4684 C   0  0  2  0  0  0  0  0  0  0  0  0
  148.8790  140.2353  154.3968 C   0  0  0  0  0  0  0  0  0  0  0  0
  149.1983  141.1228  153.3461 O   0  0  0  0  0  0  0  0  0  0  0  0
  148.3475  132.2709  153.7057 N   0  0  0  0  0  0  0  0  0  0  0  0
  148.8207  131.0077  154.0795 O   0  0  0  0  0  0  0  0  0  0  0  0
  151.3130  130.1393  156.1002 H   0  0  0  0  0  0  0  0  0  0  0  0
  151.2058  129.4503  154.4791 H   0  0  0  0  0  0  0  0  0  0  0  0
  149.8931  129.2023  155.6324 H   0  0  0  0  0  0  0  0  0  0  0  0
  151.1353  132.9280  155.4020 H   0  0  0  0  0  0  0  0  0  0  0  0
  148.9302  134.8962  153.1723 H   0  0  0  0  0  0  0  0  0  0  0  0
  149.0119  136.8216  153.6079 H   0  0  0  0  0  0  0  0  0  0  0  0
  148.5506  138.1579  155.8850 H   0  0  0  0  0  0  0  0  0  0  0  0
  150.3710  137.2519  157.2860 H   0  0  0  0  0  0  0  0  0  0  0  0
  152.7014  137.1179  156.4714 H   0  0  0  0  0  0  0  0  0  0  0  0
  151.8100  136.3904  155.1458 H   0  0  0  0  0  0  0  0  0  0  0  0
  153.3217  138.8837  155.1347 H   0  0  0  0  0  0  0  0  0  0  0  0
  152.3904  138.2490  153.7803 H   0  0  0  0  0  0  0  0  0  0  0  0
  151.5367  140.5647  154.9065 H   0  0  0  0  0  0  0  0  0  0  0  0
  150.1382  139.8492  157.0258 H   0  0  0  0  0  0  0  0  0  0  0  0
  151.8473  139.4233  157.2528 H   0  0  0  0  0  0  0  0  0  0  0  0
  150.1349  138.7760  153.4486 H   0  0  0  0  0  0  0  0  0  0  0  0
  147.8720  139.8460  154.2455 H   0  0  0  0  0  0  0  0  0  0  0  0
  148.8689  140.7994  155.3297 H   0  0  0  0  0  0  0  0  0  0  0  0
  149.1398  140.6534  152.5279 H   0  0  0  0  0  0  0  0  0  0  0  0
  1  2  1  0  0  0  0
  1 20  1  0  0  0  0
  1 21  1  0  0  0  0
  1 22  1  0  0  0  0
  2 19  1  0  0  0  0
  2  3  2  0  0  0  0
  3  4  1  0  0  0  0
  3 23  1  0  0  0  0
  4  5  1  0  0  0  0
  4 18  2  0  0  0  0
  5  6  1  0  0  0  0
  5 24  1  0  0  0  0
  6  7  2  0  0  0  0
  6  8  1  0  0  0  0
  8  9  1  0  0  0  0
  8 25  1  0  0  0  0
  9 15  1  0  0  0  0
  9 10  1  0  0  0  0
  9 26  1  0  0  0  0
 10 14  1  0  0  0  0
 10 11  1  0  0  0  0
 10 27  1  0  0  0  0
 11 12  1  0  0  0  0
 11 28  1  0  0  0  0
 11 29  1  0  0  0  0
 12 13  1  0  0  0  0
 12 30  1  0  0  0  0
 12 31  1  0  0  0  0
 13 14  1  0  0  0  0
 13 15  1  0  0  0  0
 13 32  1  0  0  0  0
 14 33  1  0  0  0  0
 14 34  1  0  0  0  0
 15 16  1  0  0  0  0
 15 35  1  0  0  0  0
 16 17  1  0  0  0  0
 16 36  1  0  0  0  0
 16 37  1  0  0  0  0
 17 38  1  0  0  0  0
 18 19  1  0  0  0  0
M  END
> <s_m_source_file>
AV-unprocessed.smi

> <i_m_source_file_index>
781

> <i_lp_mmshare_version>
43012

> <i_f3d_flags>
0

> <s_epik_input>
W0NIM11jMVtjSF1jKG5vMSlbTkhdQyg9TylbTkhdW0NASF0oW0NAQEhdMjMpW0NASF0oW0NIMl1bT0hdKVtDQEBIXShbQ0gyXTMpW0NIMl1bQ0gyXTI=

> <s_epik_cmdline>
J2VwaWtfcHl0aG9uJywgJy1waCcsICc3LjAnLCAnLXRuJywgJzgnLCAnLW1hJywgJzIwMCcsICctbWV0YWxfYmluZGluZycsICctaW1hZScsICc8aW5maWxlLm1hZT4nLCAnLW9tYWUnLCAnPG91dGZpbGUubWFlPic=

> <r_lp_tautomer_probability>
1

> <r_epik_Ionization_Penalty>
2.32222e-05

> <r_epik_Ionization_Penalty_Charging>
0

> <r_epik_Ionization_Penalty_Neutral>
2.32222e-05

> <r_epik_State_Penalty>
-0

> <r_epik_Charging_Adjusted_Penalty>
0

> <i_epik_Tot_Q>
0

> <i_epik_Tot_abs_Q>
0

> <r_epik_Metal_State_Penalty>
-0

> <b_epik_Metal_Only>
0

> <s_lp_Force_Field>
OPLS_2005

> <r_lp_Energy>
46.3898

> <b_lp_Chiralities_Consistent>
1

> <s_lp_Variant>
AV-unprocessed.smi:781-6

> <Gold.Version>
5.8.1

> <Gold.Id.Protein>
6NUR|6NUR_protein|mol2

> <Gold.PLP.Fitness>
38.5712

> <Gold.PLP.PLP>
-30.6034

> <Gold.PLP.part.hbond>
-4.7793

> <Gold.PLP.part.metal>
0.0000

> <Gold.PLP.part.buried>
-3.3182

> <Gold.PLP.part.nonpolar>
-23.2391

> <Gold.PLP.part.repulsive>
0.1979

> <Gold.PLP.ligand.clash>
0.0000

> <Gold.PLP.ligand.torsion>
0.8207

> <Gold.PLP.Chemscore.Hbond>
3.1974

> <Gold.PLP.Chemscore.CHOScore>
0.0000

> <Gold.PLP.Chemscore.Metal>
0.0000

> <Gold.Chemscore.Hbonds>
donor molecule, donor type, donor heavy atom, donor atom, acceptor molecule, acceptor atom, score
      L1  H     5    24       P1  7948  0.90
      L1  H     8    25       P1  7948  1.00
      L1  H    17    38       P1  7957  1.00
      P1  H  7989  7998       L1    17  0.01
      P1  H  8011  8017       L1    17  0.15

> <Gold.PLP.Chemscore.Internal.Correction>
0.0171

> <Gold.Rescore>
     Score         DG    S(hbond)    S(metal)    S(lipo)     H(rot)  DE(clash)    DE(int)     intcor
     14.22     -16.42       2.57        0.00      60.73       1.86       0.01       2.18       ----

> <Gold.Chemscore.Fitness>
14.2191

> <Gold.Chemscore.DG>
-16.4164

> <Gold.Chemscore.ZeroCoef>
-5.4800

> <Gold.Chemscore.Hbond>
2.5715

> <Gold.Chemscore.Metal>
0.0000

> <Gold.Chemscore.Lipo>
60.7332

> <Gold.Chemscore.Internal_Hbond>
0.0000

> <Gold.Chemscore.DEClash>
0.0147

> <Gold.Chemscore.DEInternal>
2.1826

> <Gold.Chemscore.Rot>
1.8587

> <Gold.Chemscore.Internal.Correction>
   9.000000E+99

> <Gold.Chemscore.Hbonds>
donor molecule, donor type, donor heavy atom, donor atom, acceptor molecule, acceptor atom, score
      L1  H     5    24       P1  7948  0.17
      L1  H     8    25       P1  7948  0.94
      L1  H    17    38       P1  7957  0.96

> <Gold.Chemscore.Hbond.Weighted>
-8.5889

> <Gold.Chemscore.Metal.Weighted>
-0.0000

> <Gold.Chemscore.Lipo.Weighted>
-7.1058

> <Gold.Chemscore.Internal_Hbond.Weighted>
0.0000

> <Gold.Chemscore.DEClash.Weighted>
0.0147

> <Gold.Chemscore.DEInternal.Weighted>
2.1826

> <Gold.Chemscore.Rot.Weighted>
4.7583

> <Gold.Chemscore.Internal.Correction.Weighted>
   9.000000E+99

> <Gold.Protein.RotatedTorsions>
[ 6907 6896 6895 6894 ] final -176.94 input  -60.11 | X-H torsion
[ 7974 7965 7964 7962 ] final   33.57 input  175.53 | X-H torsion
[ 8008 7997 7996 7995 ] final   78.26 input   59.86 | X-H torsion
[ 10167 10162 10161 10158 ] final   99.59 input  -65.29 | X-H torsion
[ 10718 10713 10712 10709 ] final  -89.04 input   66.30 | X-H torsion
[ 10763 10752 10751 10750 ] final  112.86 input  -60.55 | X-H torsion
[ 11005 11000 10999 10996 ] final  -41.15 input  -57.11 | X-H torsion

> <Gold.Protein.ActiveResidues>
 VAL166  LYS551  ARG553  GLY616  TRP617  ASP618  TYR619  PRO620  LYS621  CYS622 
 ASP623  PHE694  ASN695  SER759  ASP760  ASP761  ALA762  ILE779  LEU786  VAL792 
 PHE793  MET794  SER795  GLU796  ALA797  LYS798  CYS799  TRP800  GLU811  SER814 

> <Gold.Protein.RotatedAtoms>
  151.6130  133.3345  159.3071 H   0  0  0  0  0  0  0  0  0  0  0  0  # atno 6907 bound_to 6896
  150.8146  134.7325  159.6730 H   0  0  0  0  0  0  0  0  0  0  0  0  # atno 6908 bound_to 6896
  152.4242  134.5904  160.0024 H   0  0  0  0  0  0  0  0  0  0  0  0  # atno 6909 bound_to 6896
  146.1412  139.6380  142.9162 H   0  0  0  0  0  0  0  0  0  0  0  0  # atno 7974 bound_to 7965
  155.8532  140.3457  155.5707 H   0  0  0  0  0  0  0  0  0  0  0  0  # atno 8008 bound_to 7997
  155.8014  140.0886  157.1974 H   0  0  0  0  0  0  0  0  0  0  0  0  # atno 8009 bound_to 7997
  154.4008  140.1465  156.3266 H   0  0  0  0  0  0  0  0  0  0  0  0  # atno 8010 bound_to 7997
  139.7603  144.6956  151.0302 H   0  0  0  0  0  0  0  0  0  0  0  0  # atno 10167 bound_to 10162
  155.9984  130.4857  150.5110 H   0  0  0  0  0  0  0  0  0  0  0  0  # atno 10718 bound_to 10713
  153.4841  135.3673  155.2457 H   0  0  0  0  0  0  0  0  0  0  0  0  # atno 10763 bound_to 10752
  154.8754  135.3961  154.3666 H   0  0  0  0  0  0  0  0  0  0  0  0  # atno 10764 bound_to 10752
  153.4274  135.7081  153.6318 H   0  0  0  0  0  0  0  0  0  0  0  0  # atno 10765 bound_to 10752
  141.0226  133.6856  156.2419 H   0  0  0  0  0  0  0  0  0  0  0  0  # atno 11005 bound_to 11000
  145.5043  141.0437  143.2523 LP  0  0  0  0  0  0  0  0  0  0  0  0  # atno 17320 bound_to 7965
  144.7794  139.6558  143.7161 LP  0  0  0  0  0  0  0  0  0  0  0  0  # atno 17321 bound_to 7965
  140.7806  143.4704  151.0154 LP  0  0  0  0  0  0  0  0  0  0  0  0  # atno 17342 bound_to 10162
  139.8391  143.7588  152.3180 LP  0  0  0  0  0  0  0  0  0  0  0  0  # atno 17343 bound_to 10162
  157.3083  131.0659  151.2019 LP  0  0  0  0  0  0  0  0  0  0  0  0  # atno 17370 bound_to 10713
  157.2974  130.6826  149.6146 LP  0  0  0  0  0  0  0  0  0  0  0  0  # atno 17371 bound_to 10713
  140.6547  134.5030  157.5580 LP  0  0  0  0  0  0  0  0  0  0  0  0  # atno 17394 bound_to 11000
  139.9155  134.8255  156.1380 LP  0  0  0  0  0  0  0  0  0  0  0  0  # atno 17395 bound_to 11000

$$$$
