AV-unprocessed.smi:2185|AV-procd|sdf|8875|dock6
  -GOLD-   2272012 73D 1   1.00000     0.00000
 Structure written by MMmdl.
 38 39  0  0  0  0  0  0  0  0  1 V2000
  151.0933  140.9426  157.4194 C   0  0  0  0  0  0  0  0  0  0  0  0
  151.4989  139.5503  156.2882 S   0  0  0  0  0  0  0  0  0  0  0  0
  151.1107  139.9410  154.9243 O   0  0  0  0  0  0  0  0  0  0  0  0
  152.8808  139.1257  156.5595 O   0  0  0  0  0  0  0  0  0  0  0  0
  150.4374  138.2682  156.7961 N   0  0  0  0  0  0  0  0  0  0  0  0
  148.9790  138.3956  156.6024 C   0  0  0  0  0  0  0  0  0  0  0  0
  148.4948  137.5905  155.3841 C   0  0  0  0  0  0  0  0  0  0  0  0
  148.9333  136.1217  155.4734 C   0  0  0  0  0  0  0  0  0  0  0  0
  148.5044  135.4038  154.2767 N   0  0  0  0  0  0  0  0  0  0  0  0
  147.7639  134.2862  154.2686 C   0  0  0  0  0  0  0  0  0  0  0  0
  147.3639  133.7307  155.2911 O   0  0  0  0  0  0  0  0  0  0  0  0
  147.5150  133.8805  153.0115 N   0  0  0  0  0  0  0  0  0  0  0  0
  146.7676  132.7550  152.5689 C   0  0  0  0  0  0  0  0  0  0  0  0
  146.0383  132.7016  151.3559 C   0  0  0  0  0  0  0  0  0  0  0  0
  145.3244  131.5286  151.0430 C   0  0  0  0  0  0  0  0  0  0  0  0
  145.3595  130.4556  151.9546 C   0  0  0  0  0  0  0  0  0  0  0  0
  146.0403  130.4964  153.1190 N   0  0  0  0  0  0  0  0  0  0  0  0
  146.7220  131.6242  153.4121 C   0  0  0  0  0  0  0  0  0  0  0  0
  150.4614  136.0575  155.6343 C   0  0  0  0  0  0  0  0  0  0  0  0
  150.9334  136.8779  156.8482 C   0  0  0  0  0  0  0  0  0  0  0  0
  151.7221  141.7969  157.1699 H   0  0  0  0  0  0  0  0  0  0  0  0
  151.2854  140.6517  158.4505 H   0  0  0  0  0  0  0  0  0  0  0  0
  150.0491  141.2258  157.2987 H   0  0  0  0  0  0  0  0  0  0  0  0
  148.4802  138.0312  157.5013 H   0  0  0  0  0  0  0  0  0  0  0  0
  148.6985  139.4434  156.5004 H   0  0  0  0  0  0  0  0  0  0  0  0
  147.4076  137.6498  155.3199 H   0  0  0  0  0  0  0  0  0  0  0  0
  148.8781  138.0384  154.4676 H   0  0  0  0  0  0  0  0  0  0  0  0
  148.4609  135.6745  156.3503 H   0  0  0  0  0  0  0  0  0  0  0  0
  148.7871  135.7922  153.3888 H   0  0  0  0  0  0  0  0  0  0  0  0
  147.8586  134.4826  152.2777 H   0  0  0  0  0  0  0  0  0  0  0  0
  145.9982  133.5323  150.6691 H   0  0  0  0  0  0  0  0  0  0  0  0
  144.7585  131.4552  150.1261 H   0  0  0  0  0  0  0  0  0  0  0  0
  144.8217  129.5427  151.7457 H   0  0  0  0  0  0  0  0  0  0  0  0
  147.2525  131.6215  154.3533 H   0  0  0  0  0  0  0  0  0  0  0  0
  150.7825  135.0221  155.7537 H   0  0  0  0  0  0  0  0  0  0  0  0
  150.9448  136.4217  154.7282 H   0  0  0  0  0  0  0  0  0  0  0  0
  152.0207  136.8651  156.9147 H   0  0  0  0  0  0  0  0  0  0  0  0
  150.5641  136.4157  157.7643 H   0  0  0  0  0  0  0  0  0  0  0  0
  1  2  1  0  0  0  0
  1 21  1  0  0  0  0
  1 22  1  0  0  0  0
  1 23  1  0  0  0  0
  2  3  2  0  0  0  0
  2  4  2  0  0  0  0
  2  5  1  0  0  0  0
  5 20  1  0  0  0  0
  5  6  1  0  0  0  0
  6  7  1  0  0  0  0
  6 24  1  0  0  0  0
  6 25  1  0  0  0  0
  7  8  1  0  0  0  0
  7 26  1  0  0  0  0
  7 27  1  0  0  0  0
  8  9  1  0  0  0  0
  8 19  1  0  0  0  0
  8 28  1  0  0  0  0
  9 10  1  0  0  0  0
  9 29  1  0  0  0  0
 10 11  2  0  0  0  0
 10 12  1  0  0  0  0
 12 13  1  0  0  0  0
 12 30  1  0  0  0  0
 13 18  1  0  0  0  0
 13 14  2  0  0  0  0
 14 15  1  0  0  0  0
 14 31  1  0  0  0  0
 15 16  2  0  0  0  0
 15 32  1  0  0  0  0
 16 17  1  0  0  0  0
 16 33  1  0  0  0  0
 17 18  2  0  0  0  0
 18 34  1  0  0  0  0
 19 20  1  0  0  0  0
 19 35  1  0  0  0  0
 19 36  1  0  0  0  0
 20 37  1  0  0  0  0
 20 38  1  0  0  0  0
M  END
> <s_m_source_file>
AV-unprocessed.smi

> <i_m_source_file_index>
2185

> <i_lp_mmshare_version>
43012

> <i_f3d_flags>
0

> <s_epik_input>
W0NIM11TKD1PKSg9TylOMVtDSDJdW0NIMl1bQ0hdKFtDSDJdW0NIMl0xKVtOSF1DKD1PKVtOSF1jMltjSF1bY0hdW2NIXW5bY0hdMg==

> <s_epik_cmdline>
J2VwaWtfcHl0aG9uJywgJy1waCcsICc3LjAnLCAnLXRuJywgJzgnLCAnLW1hJywgJzIwMCcsICctbWV0YWxfYmluZGluZycsICctaW1hZScsICc8aW5maWxlLm1hZT4nLCAnLW9tYWUnLCAnPG91dGZpbGUubWFlPic=

> <r_epik_Ionization_Penalty>
0.00480481

> <r_epik_Ionization_Penalty_Charging>
0

> <r_epik_Ionization_Penalty_Neutral>
0.00480481

> <r_epik_State_Penalty>
0.00345682

> <r_epik_Charging_Adjusted_Penalty>
0.00345682

> <i_epik_Tot_Q>
0

> <i_epik_Tot_abs_Q>
0

> <r_epik_Metal_State_Penalty>
-0

> <b_epik_Metal_Only>
0

> <s_lp_Force_Field>
OPLS_2005

> <r_lp_Energy>
2.72974

> <b_lp_Chiralities_Consistent>
1

> <s_lp_Variant>
AV-unprocessed.smi:2185-1

> <Gold.Version>
5.8.1

> <Gold.Id.Protein>
6NUR|6NUR_protein|mol2

> <Gold.PLP.Fitness>
37.2160

> <Gold.PLP.PLP>
-26.1028

> <Gold.PLP.part.hbond>
-3.9835

> <Gold.PLP.part.metal>
0.0000

> <Gold.PLP.part.buried>
-4.6434

> <Gold.PLP.part.nonpolar>
-18.3837

> <Gold.PLP.part.repulsive>
0.2250

> <Gold.PLP.ligand.clash>
0.0000

> <Gold.PLP.ligand.torsion>
1.3127

> <Gold.PLP.Chemscore.Hbond>
3.8960

> <Gold.PLP.Chemscore.CHOScore>
0.0000

> <Gold.PLP.Chemscore.Metal>
0.0000

> <Gold.Chemscore.Hbonds>
donor molecule, donor type, donor heavy atom, donor atom, acceptor molecule, acceptor atom, score
      L1  H     9    29       P1  7948  1.00
      L1  H    12    30       P1  7948  0.86
      P1  H  7989  7998       L1     3  1.00
      P1  H  7997  8009       L1     4  1.00

> <Gold.PLP.Chemscore.Internal.Correction>
2.0507

> <Gold.Rescore>
     Score         DG    S(hbond)    S(metal)    S(lipo)     H(rot)  DE(clash)    DE(int)     intcor
     18.73     -21.33       3.62        0.00      54.06       1.00       0.00       2.60       ----

> <Gold.Chemscore.Fitness>
18.7262

> <Gold.Chemscore.DG>
-21.3298

> <Gold.Chemscore.ZeroCoef>
-5.4800

> <Gold.Chemscore.Hbond>
3.6181

> <Gold.Chemscore.Metal>
0.0000

> <Gold.Chemscore.Lipo>
54.0634

> <Gold.Chemscore.Internal_Hbond>
0.0000

> <Gold.Chemscore.DEClash>
0.0021

> <Gold.Chemscore.DEInternal>
2.6015

> <Gold.Chemscore.Rot>
1.0000

> <Gold.Chemscore.Internal.Correction>
   9.000000E+99

> <Gold.Chemscore.Hbonds>
donor molecule, donor type, donor heavy atom, donor atom, acceptor molecule, acceptor atom, score
      L1  H     9    29       P1  7948  0.95
      L1  H    12    30       P1  7948  0.32
      P1  H  7989  7998       L1     3  1.00
      P1  H  7997  8009       L1     4  1.00

> <Gold.Chemscore.Hbond.Weighted>
-12.0844

> <Gold.Chemscore.Metal.Weighted>
-0.0000

> <Gold.Chemscore.Lipo.Weighted>
-6.3254

> <Gold.Chemscore.Internal_Hbond.Weighted>
0.0000

> <Gold.Chemscore.DEClash.Weighted>
0.0021

> <Gold.Chemscore.DEInternal.Weighted>
2.6015

> <Gold.Chemscore.Rot.Weighted>
2.5600

> <Gold.Chemscore.Internal.Correction.Weighted>
   9.000000E+99

> <Gold.Protein.RotatedTorsions>
[ 6907 6896 6895 6894 ] final -125.83 input  -60.11 | X-H torsion
[ 7974 7965 7964 7962 ] final   81.06 input  175.53 | X-H torsion
[ 8008 7997 7996 7995 ] final -162.14 input   59.86 | X-H torsion
[ 10167 10162 10161 10158 ] final  160.01 input  -65.29 | X-H torsion
[ 10718 10713 10712 10709 ] final  172.72 input   66.30 | X-H torsion
[ 10763 10752 10751 10750 ] final   46.23 input  -60.55 | X-H torsion
[ 11005 11000 10999 10996 ] final   93.92 input  -57.11 | X-H torsion

> <Gold.Protein.ActiveResidues>
 VAL166  LYS551  ARG553  GLY616  TRP617  ASP618  TYR619  PRO620  LYS621  CYS622 
 ASP623  PHE694  ASN695  SER759  ASP760  ASP761  ALA762  ILE779  LEU786  VAL792 
 PHE793  MET794  SER795  GLU796  ALA797  LYS798  CYS799  TRP800  GLU811  SER814 

> <Gold.Protein.RotatedAtoms>
  150.8907  133.7247  159.2905 H   0  0  0  0  0  0  0  0  0  0  0  0  # atno 6907 bound_to 6896
  151.4798  135.1050  159.9784 H   0  0  0  0  0  0  0  0  0  0  0  0  # atno 6908 bound_to 6896
  152.4818  133.8227  159.7117 H   0  0  0  0  0  0  0  0  0  0  0  0  # atno 6909 bound_to 6896
  145.6431  139.2430  143.2019 H   0  0  0  0  0  0  0  0  0  0  0  0  # atno 7974 bound_to 7965
  155.8025  140.0894  157.1949 H   0  0  0  0  0  0  0  0  0  0  0  0  # atno 8008 bound_to 7997
  154.3981  140.1470  156.3350 H   0  0  0  0  0  0  0  0  0  0  0  0  # atno 8009 bound_to 7997
  155.8448  140.3437  155.5658 H   0  0  0  0  0  0  0  0  0  0  0  0  # atno 8010 bound_to 7997
  139.4836  144.4675  151.8622 H   0  0  0  0  0  0  0  0  0  0  0  0  # atno 10167 bound_to 10162
  156.9747  131.0101  151.2896 H   0  0  0  0  0  0  0  0  0  0  0  0  # atno 10718 bound_to 10713
  152.9813  135.6015  154.3565 H   0  0  0  0  0  0  0  0  0  0  0  0  # atno 10763 bound_to 10752
  154.3250  135.2769  155.2502 H   0  0  0  0  0  0  0  0  0  0  0  0  # atno 10764 bound_to 10752
  154.4652  135.5956  153.6338 H   0  0  0  0  0  0  0  0  0  0  0  0  # atno 10765 bound_to 10752
  139.8804  134.8816  156.3788 H   0  0  0  0  0  0  0  0  0  0  0  0  # atno 11005 bound_to 11000
  146.1265  140.7241  142.9432 LP  0  0  0  0  0  0  0  0  0  0  0  0  # atno 17320 bound_to 7965
  144.7150  140.4177  143.7051 LP  0  0  0  0  0  0  0  0  0  0  0  0  # atno 17321 bound_to 7965
  140.4141  144.2330  150.5888 LP  0  0  0  0  0  0  0  0  0  0  0  0  # atno 17342 bound_to 10162
  140.4937  143.2339  151.8780 LP  0  0  0  0  0  0  0  0  0  0  0  0  # atno 17343 bound_to 10162
  157.5568  130.8219  149.8214 LP  0  0  0  0  0  0  0  0  0  0  0  0  # atno 17370 bound_to 10713
  156.0268  130.3777  150.1800 LP  0  0  0  0  0  0  0  0  0  0  0  0  # atno 17371 bound_to 10713
  140.9413  133.7512  156.0151 LP  0  0  0  0  0  0  0  0  0  0  0  0  # atno 17394 bound_to 11000
  140.8215  134.3283  157.5380 LP  0  0  0  0  0  0  0  0  0  0  0  0  # atno 17395 bound_to 11000

$$$$
