AV-unprocessed.smi:199|AV-procd|sdf|1568|dock10
  -GOLD-   2262019443D 1   1.00000     0.00000
 Structure written by MMmdl.
 51 55  0  0  0  0  0  0  0  0  1 V2000
  151.1144  127.4304  157.1426 C   0  0  0  0  0  0  0  0  0  0  0  0
  151.4920  127.8798  155.7223 C   0  0  2  0  0  0  0  0  0  0  0  0
  152.6723  128.6732  155.8147 O   0  0  0  0  0  0  0  0  0  0  0  0
  152.6709  129.6151  154.7568 C   0  0  0  0  0  0  0  0  0  0  0  0
  151.2156  130.0553  154.7172 C   0  0  0  0  0  0  0  0  0  0  0  0
  150.4544  128.7545  154.9620 C   0  0  1  0  0  0  0  0  0  0  0  0
  150.2226  128.1444  153.7027 O   0  0  0  0  0  0  0  0  0  0  0  0
  149.0816  128.9600  155.6558 C   0  0  0  0  0  0  0  0  0  0  0  0
  148.1564  129.7718  154.8786 N   0  0  0  0  0  0  0  0  0  0  0  0
  147.7365  131.0492  155.1704 C   0  0  0  0  0  0  0  0  0  0  0  0
  146.8920  131.5639  154.3201 N   0  0  0  0  0  0  0  0  0  0  0  0
  146.7232  130.5748  153.3580 C   0  0  0  0  0  0  0  0  0  0  0  0
  145.9498  130.4615  152.1654 C   0  0  0  0  0  0  0  0  0  0  0  0
  145.1256  131.4387  151.6961 N   0  0  0  0  0  0  0  0  0  0  0  0
  145.5387  132.8346  151.7175 C   0  0  1  0  0  0  0  0  0  0  0  0
  146.5674  132.9346  150.5747 C   0  0  0  0  0  0  0  0  0  0  0  0
  145.9803  131.9447  149.5575 C   0  0  0  0  0  0  0  0  0  0  0  0
  144.7121  131.4606  150.2992 C   0  0  2  0  0  0  0  0  0  0  0  0
  143.6203  132.5520  150.3275 C   0  0  2  0  0  0  0  0  0  0  0  0
  143.1794  133.1165  148.9643 C   0  0  0  0  0  0  0  0  0  0  0  0
  142.5908  132.0943  148.1886 O   0  0  0  0  0  0  0  0  0  0  0  0
  144.2542  133.5706  151.2937 C   0  0  0  0  0  0  0  0  0  0  0  0
  146.0266  129.2862  151.4856 N   0  0  0  0  0  0  0  0  0  0  0  0
  146.8197  128.3019  151.9163 C   0  0  0  0  0  0  0  0  0  0  0  0
  147.6024  128.2747  152.9951 N   0  0  0  0  0  0  0  0  0  0  0  0
  147.5153  129.4398  153.6978 C   0  0  0  0  0  0  0  0  0  0  0  0
  150.2176  126.8108  157.1395 H   0  0  0  0  0  0  0  0  0  0  0  0
  150.9409  128.2826  157.8000 H   0  0  0  0  0  0  0  0  0  0  0  0
  151.9172  126.8383  157.5826 H   0  0  0  0  0  0  0  0  0  0  0  0
  151.7410  126.9917  155.1380 H   0  0  0  0  0  0  0  0  0  0  0  0
  153.3575  130.4396  154.9496 H   0  0  0  0  0  0  0  0  0  0  0  0
  152.9623  129.1285  153.8248 H   0  0  0  0  0  0  0  0  0  0  0  0
  151.0441  130.7510  155.5393 H   0  0  0  0  0  0  0  0  0  0  0  0
  150.9422  130.5624  153.7907 H   0  0  0  0  0  0  0  0  0  0  0  0
  151.0163  128.1980  153.1929 H   0  0  0  0  0  0  0  0  0  0  0  0
  148.6054  127.9982  155.8513 H   0  0  0  0  0  0  0  0  0  0  0  0
  149.2115  129.4423  156.6249 H   0  0  0  0  0  0  0  0  0  0  0  0
  148.0716  131.5874  156.0450 H   0  0  0  0  0  0  0  0  0  0  0  0
  145.9190  133.2034  152.6681 H   0  0  0  0  0  0  0  0  0  0  0  0
  146.6607  133.9462  150.1780 H   0  0  0  0  0  0  0  0  0  0  0  0
  147.5540  132.6075  150.9055 H   0  0  0  0  0  0  0  0  0  0  0  0
  145.7793  132.3941  148.5863 H   0  0  0  0  0  0  0  0  0  0  0  0
  146.6729  131.1183  149.3931 H   0  0  0  0  0  0  0  0  0  0  0  0
  144.3310  130.5097  149.9247 H   0  0  0  0  0  0  0  0  0  0  0  0
  142.7440  132.1159  150.8116 H   0  0  0  0  0  0  0  0  0  0  0  0
  142.4592  133.9268  149.0755 H   0  0  0  0  0  0  0  0  0  0  0  0
  144.0392  133.5115  148.4226 H   0  0  0  0  0  0  0  0  0  0  0  0
  142.3138  132.4638  147.3641 H   0  0  0  0  0  0  0  0  0  0  0  0
  143.5993  133.7423  152.1488 H   0  0  0  0  0  0  0  0  0  0  0  0
  144.4622  134.5366  150.8320 H   0  0  0  0  0  0  0  0  0  0  0  0
  146.8259  127.4078  151.3107 H   0  0  0  0  0  0  0  0  0  0  0  0
  1  2  1  0  0  0  0
  1 27  1  0  0  0  0
  1 28  1  0  0  0  0
  1 29  1  0  0  0  0
  2  6  1  0  0  0  0
  2  3  1  0  0  0  0
  2 30  1  0  0  0  0
  3  4  1  0  0  0  0
  4  5  1  0  0  0  0
  4 31  1  0  0  0  0
  4 32  1  0  0  0  0
  5  6  1  0  0  0  0
  5 33  1  0  0  0  0
  5 34  1  0  0  0  0
  6  7  1  0  0  0  0
  6  8  1  0  0  0  0
  7 35  1  0  0  0  0
  8  9  1  0  0  0  0
  8 36  1  0  0  0  0
  8 37  1  0  0  0  0
  9 26  1  0  0  0  0
  9 10  1  0  0  0  0
 10 11  2  0  0  0  0
 10 38  1  0  0  0  0
 11 12  1  0  0  0  0
 12 26  2  0  0  0  0
 12 13  1  0  0  0  0
 13 14  1  0  0  0  0
 13 23  2  0  0  0  0
 14 18  1  0  0  0  0
 14 15  1  0  0  0  0
 15 22  1  0  0  0  0
 15 16  1  0  0  0  0
 15 39  1  0  0  0  0
 16 17  1  0  0  0  0
 16 40  1  0  0  0  0
 16 41  1  0  0  0  0
 17 18  1  0  0  0  0
 17 42  1  0  0  0  0
 17 43  1  0  0  0  0
 18 19  1  0  0  0  0
 18 44  1  0  0  0  0
 19 20  1  0  0  0  0
 19 22  1  0  0  0  0
 19 45  1  0  0  0  0
 20 21  1  0  0  0  0
 20 46  1  0  0  0  0
 20 47  1  0  0  0  0
 21 48  1  0  0  0  0
 22 49  1  0  0  0  0
 22 50  1  0  0  0  0
 23 24  1  0  0  0  0
 24 25  2  0  0  0  0
 24 51  1  0  0  0  0
 25 26  1  0  0  0  0
M  END
> <s_m_source_file>
AV-unprocessed.smi

> <i_m_source_file_index>
199

> <i_lp_mmshare_version>
43012

> <i_f3d_flags>
0

> <s_epik_input>
W0NIMl0xW0NIMl1PW0NAQEhdKFtDSDNdKVtDQEBdMShbT0hdKVtDSDJdbihbY0hdbjIpYyhjMjMpbltjSF1uYzNOKFtDQEBIXTQ1KVtDQEhdKFtDSDJdW0NIMl00KVtDQEhdKFtDSDJdNSlbQ0gyXVtPSF0=

> <s_epik_cmdline>
J2VwaWtfcHl0aG9uJywgJy1waCcsICc3LjAnLCAnLXRuJywgJzgnLCAnLW1hJywgJzIwMCcsICctbWV0YWxfYmluZGluZycsICctaW1hZScsICc8aW5maWxlLm1hZT4nLCAnLW9tYWUnLCAnPG91dGZpbGUubWFlPic=

> <r_lp_tautomer_probability>
1

> <r_epik_Ionization_Penalty>
0.00583903

> <r_epik_Ionization_Penalty_Charging>
0

> <r_epik_Ionization_Penalty_Neutral>
0.00583903

> <r_epik_State_Penalty>
-0

> <r_epik_Charging_Adjusted_Penalty>
0

> <i_epik_Tot_Q>
0

> <i_epik_Tot_abs_Q>
0

> <r_epik_Metal_State_Penalty>
-0

> <b_epik_Metal_Only>
0

> <s_lp_Force_Field>
OPLS_2005

> <r_lp_Energy>
83.953

> <b_lp_Chiralities_Consistent>
1

> <s_lp_Variant>
AV-unprocessed.smi:199-9

> <Gold.Version>
5.8.1

> <Gold.Id.Protein>
6NUR|6NUR_protein|mol2

> <Gold.PLP.Fitness>
44.3522

> <Gold.PLP.PLP>
-37.7045

> <Gold.PLP.part.hbond>
-4.7486

> <Gold.PLP.part.metal>
0.0000

> <Gold.PLP.part.buried>
-1.7328

> <Gold.PLP.part.nonpolar>
-32.7540

> <Gold.PLP.part.repulsive>
0.4808

> <Gold.PLP.ligand.clash>
0.0000

> <Gold.PLP.ligand.torsion>
0.6567

> <Gold.PLP.Chemscore.Hbond>
2.6497

> <Gold.PLP.Chemscore.CHOScore>
0.0000

> <Gold.PLP.Chemscore.Metal>
0.0000

> <Gold.Chemscore.Hbonds>
donor molecule, donor type, donor heavy atom, donor atom, acceptor molecule, acceptor atom, score
      L1  H     7    35       P1 10737  1.00
      L1  H    21    48       P1 10195  1.00
      P1  H 10785 10796       L1    21  0.65

> <Gold.PLP.Chemscore.Internal.Correction>
0.0118

> <Gold.Rescore>
     Score         DG    S(hbond)    S(metal)    S(lipo)     H(rot)  DE(clash)    DE(int)     intcor
     13.02     -16.86       2.51        0.00      92.82       3.07       1.78       2.06       ----

> <Gold.Chemscore.Fitness>
13.0152

> <Gold.Chemscore.DG>
-16.8575

> <Gold.Chemscore.ZeroCoef>
-5.4800

> <Gold.Chemscore.Hbond>
2.5103

> <Gold.Chemscore.Metal>
0.0000

> <Gold.Chemscore.Lipo>
92.8196

> <Gold.Chemscore.Internal_Hbond>
0.0000

> <Gold.Chemscore.DEClash>
1.7845

> <Gold.Chemscore.DEInternal>
2.0577

> <Gold.Chemscore.Rot>
3.0729

> <Gold.Chemscore.Internal.Correction>
   9.000000E+99

> <Gold.Chemscore.Hbonds>
donor molecule, donor type, donor heavy atom, donor atom, acceptor molecule, acceptor atom, score
      L1  H     7    35       P1 10737  0.96
      L1  H    21    48       P1 10195  0.93
      P1  H 10785 10796       L1    21  0.57

> <Gold.Chemscore.Hbond.Weighted>
-8.3843

> <Gold.Chemscore.Metal.Weighted>
-0.0000

> <Gold.Chemscore.Lipo.Weighted>
-10.8599

> <Gold.Chemscore.Internal_Hbond.Weighted>
0.0000

> <Gold.Chemscore.DEClash.Weighted>
1.7845

> <Gold.Chemscore.DEInternal.Weighted>
2.0577

> <Gold.Chemscore.Rot.Weighted>
7.8667

> <Gold.Chemscore.Internal.Correction.Weighted>
   9.000000E+99

> <Gold.Protein.RotatedTorsions>
[ 6907 6896 6895 6894 ] final  108.16 input  -60.11 | X-H torsion
[ 7974 7965 7964 7962 ] final   34.67 input  175.53 | X-H torsion
[ 8008 7997 7996 7995 ] final -112.20 input   59.86 | X-H torsion
[ 10167 10162 10161 10158 ] final -131.32 input  -65.29 | X-H torsion
[ 10718 10713 10712 10709 ] final -166.39 input   66.30 | X-H torsion
[ 10763 10752 10751 10750 ] final  123.96 input  -60.55 | X-H torsion
[ 11005 11000 10999 10996 ] final -173.42 input  -57.11 | X-H torsion

> <Gold.Protein.ActiveResidues>
 VAL166  LYS551  ARG553  GLY616  TRP617  ASP618  TYR619  PRO620  LYS621  CYS622 
 ASP623  PHE694  ASN695  SER759  ASP760  ASP761  ALA762  ILE779  LEU786  VAL792 
 PHE793  MET794  SER795  GLU796  ALA797  LYS798  CYS799  TRP800  GLU811  SER814 

> <Gold.Protein.RotatedAtoms>
  152.5124  133.9129  159.7496 H   0  0  0  0  0  0  0  0  0  0  0  0  # atno 6907 bound_to 6896
  150.9519  133.6532  159.2777 H   0  0  0  0  0  0  0  0  0  0  0  0  # atno 6908 bound_to 6896
  151.3807  135.0944  159.9548 H   0  0  0  0  0  0  0  0  0  0  0  0  # atno 6909 bound_to 6896
  146.1336  139.6239  142.9210 H   0  0  0  0  0  0  0  0  0  0  0  0  # atno 7974 bound_to 7965
  155.0015  140.0394  157.2362 H   0  0  0  0  0  0  0  0  0  0  0  0  # atno 8008 bound_to 7997
  154.7539  140.2772  155.6246 H   0  0  0  0  0  0  0  0  0  0  0  0  # atno 8009 bound_to 7997
  156.2891  140.2641  156.2300 H   0  0  0  0  0  0  0  0  0  0  0  0  # atno 8010 bound_to 7997
  139.9201  143.6392  152.2555 H   0  0  0  0  0  0  0  0  0  0  0  0  # atno 10167 bound_to 10162
  156.6672  130.9070  151.3038 H   0  0  0  0  0  0  0  0  0  0  0  0  # atno 10718 bound_to 10713
  153.6538  135.3358  155.3107 H   0  0  0  0  0  0  0  0  0  0  0  0  # atno 10763 bound_to 10752
  154.8531  135.4347  154.1876 H   0  0  0  0  0  0  0  0  0  0  0  0  # atno 10764 bound_to 10752
  153.2826  135.7010  153.7446 H   0  0  0  0  0  0  0  0  0  0  0  0  # atno 10765 bound_to 10752
  140.4859  134.6031  157.4937 H   0  0  0  0  0  0  0  0  0  0  0  0  # atno 11005 bound_to 11000
  145.5205  141.0432  143.2438 LP  0  0  0  0  0  0  0  0  0  0  0  0  # atno 17320 bound_to 7965
  144.7716  139.6721  143.7192 LP  0  0  0  0  0  0  0  0  0  0  0  0  # atno 17321 bound_to 7965
  139.6869  144.7651  151.1508 LP  0  0  0  0  0  0  0  0  0  0  0  0  # atno 17342 bound_to 10162
  140.7664  143.5644  150.9063 LP  0  0  0  0  0  0  0  0  0  0  0  0  # atno 17343 bound_to 10162
  157.7089  130.9417  150.1024 LP  0  0  0  0  0  0  0  0  0  0  0  0  # atno 17370 bound_to 10713
  156.1966  130.3657  149.8842 LP  0  0  0  0  0  0  0  0  0  0  0  0  # atno 17371 bound_to 10713
  139.9798  134.7155  155.9880 LP  0  0  0  0  0  0  0  0  0  0  0  0  # atno 17394 bound_to 11000
  141.1508  133.6549  156.4008 LP  0  0  0  0  0  0  0  0  0  0  0  0  # atno 17395 bound_to 11000

$$$$
