AV-unprocessed.smi:196|AV-procd|sdf|1529|dock3
  -GOLD-   2262019383D 1   1.00000     0.00000
 Structure written by MMmdl.
 47 50  0  0  0  0  0  0  0  0  1 V2000
  149.4975  140.2429  154.3536 C   0  0  0  0  0  0  0  0  0  0  0  0
  148.1095  140.9038  154.3297 C   0  0  1  0  0  0  0  0  0  0  0  0
  148.2071  142.2585  153.9154 O   0  0  0  0  0  0  0  0  0  0  0  0
  146.9033  142.6735  153.5506 C   0  0  0  0  0  0  0  0  0  0  0  0
  146.3889  141.4925  152.7363 C   0  0  0  0  0  0  0  0  0  0  0  0
  147.0406  140.2736  153.3974 C   0  0  1  0  0  0  0  0  0  0  0  0
  147.6334  139.4837  152.3793 O   0  0  0  0  0  0  0  0  0  0  0  0
  146.0097  139.3974  154.1518 C   0  0  0  0  0  0  0  0  0  0  0  0
  145.8640  138.0623  153.5912 N   0  0  0  0  0  0  0  0  0  0  0  0
  145.1868  137.7204  152.4427 C   0  0  0  0  0  0  0  0  0  0  0  0
  145.2152  136.4527  152.1366 N   0  0  0  0  0  0  0  0  0  0  0  0
  145.9535  135.8694  153.1600 C   0  0  0  0  0  0  0  0  0  0  0  0
  146.3750  134.5388  153.4481 C   0  0  0  0  0  0  0  0  0  0  0  0
  146.0758  133.4726  152.6574 N   0  0  0  0  0  0  0  0  0  0  0  0
  145.5592  133.7177  151.3149 C   0  0  0  0  0  0  0  0  0  0  0  0
  144.5200  132.6256  151.0650 C   0  0  2  0  0  0  0  0  0  0  0  0
  143.3214  133.0539  151.4646 F   0  0  0  0  0  0  0  0  0  0  0  0
  144.9836  131.4899  151.9708 C   0  0  0  0  0  0  0  0  0  0  0  0
  145.5571  132.2101  153.2021 C   0  0  1  0  0  0  0  0  0  0  0  0
  146.6030  131.3315  153.9165 C   0  0  0  0  0  0  0  0  0  0  0  0
  146.1917  130.2387  154.5683 N   0  0  0  0  0  0  0  0  0  0  0  0
  147.7906  131.6445  153.8731 O   0  0  0  0  0  0  0  0  0  0  0  0
  147.1288  134.3552  154.5645 N   0  0  0  0  0  0  0  0  0  0  0  0
  147.4377  135.3878  155.3533 C   0  0  0  0  0  0  0  0  0  0  0  0
  147.1091  136.6725  155.2110 N   0  0  0  0  0  0  0  0  0  0  0  0
  146.3652  136.8705  154.0857 C   0  0  0  0  0  0  0  0  0  0  0  0
  144.4349  132.3402  150.0161 H   0  0  0  0  0  0  0  0  0  0  0  0
  144.7396  132.4230  153.8931 H   0  0  0  0  0  0  0  0  0  0  0  0
  149.4304  139.1966  154.6523 H   0  0  0  0  0  0  0  0  0  0  0  0
  150.1514  140.7473  155.0647 H   0  0  0  0  0  0  0  0  0  0  0  0
  149.9801  140.2862  153.3770 H   0  0  0  0  0  0  0  0  0  0  0  0
  147.7252  140.9338  155.3496 H   0  0  0  0  0  0  0  0  0  0  0  0
  146.2997  142.8250  154.4470 H   0  0  0  0  0  0  0  0  0  0  0  0
  146.9190  143.6035  152.9820 H   0  0  0  0  0  0  0  0  0  0  0  0
  145.2994  141.4484  152.7186 H   0  0  0  0  0  0  0  0  0  0  0  0
  146.7254  141.6063  151.7043 H   0  0  0  0  0  0  0  0  0  0  0  0
  148.0752  140.0579  151.7728 H   0  0  0  0  0  0  0  0  0  0  0  0
  146.2978  139.2994  155.1994 H   0  0  0  0  0  0  0  0  0  0  0  0
  145.0296  139.8764  154.1510 H   0  0  0  0  0  0  0  0  0  0  0  0
  144.6775  138.4478  151.8274 H   0  0  0  0  0  0  0  0  0  0  0  0
  145.1213  134.7102  151.1963 H   0  0  0  0  0  0  0  0  0  0  0  0
  146.3843  133.6264  150.6079 H   0  0  0  0  0  0  0  0  0  0  0  0
  144.1780  130.7994  152.2234 H   0  0  0  0  0  0  0  0  0  0  0  0
  145.7606  130.9189  151.4586 H   0  0  0  0  0  0  0  0  0  0  0  0
  146.8637  129.6552  155.0451 H   0  0  0  0  0  0  0  0  0  0  0  0
  145.2099  130.0043  154.5845 H   0  0  0  0  0  0  0  0  0  0  0  0
  148.0349  135.1505  156.2213 H   0  0  0  0  0  0  0  0  0  0  0  0
  1  2  1  0  0  0  0
  1 29  1  0  0  0  0
  1 30  1  0  0  0  0
  1 31  1  0  0  0  0
  2  6  1  0  0  0  0
  2  3  1  0  0  0  0
  2 32  1  0  0  0  0
  3  4  1  0  0  0  0
  4  5  1  0  0  0  0
  4 33  1  0  0  0  0
  4 34  1  0  0  0  0
  5  6  1  0  0  0  0
  5 35  1  0  0  0  0
  5 36  1  0  0  0  0
  6  7  1  0  0  0  0
  6  8  1  0  0  0  0
  7 37  1  0  0  0  0
  8  9  1  0  0  0  0
  8 38  1  0  0  0  0
  8 39  1  0  0  0  0
  9 26  1  0  0  0  0
  9 10  1  0  0  0  0
 10 11  2  0  0  0  0
 10 40  1  0  0  0  0
 11 12  1  0  0  0  0
 12 26  2  0  0  0  0
 12 13  1  0  0  0  0
 13 14  1  0  0  0  0
 13 23  2  0  0  0  0
 14 19  1  0  0  0  0
 14 15  1  0  0  0  0
 15 16  1  0  0  0  0
 15 41  1  0  0  0  0
 15 42  1  0  0  0  0
 16 27  1  0  0  0  0
 16 17  1  0  0  0  0
 16 18  1  0  0  0  0
 18 19  1  0  0  0  0
 18 43  1  0  0  0  0
 18 44  1  0  0  0  0
 19 28  1  0  0  0  0
 19 20  1  0  0  0  0
 20 21  1  0  0  0  0
 20 22  2  0  0  0  0
 21 45  1  0  0  0  0
 21 46  1  0  0  0  0
 23 24  1  0  0  0  0
 24 25  2  0  0  0  0
 24 47  1  0  0  0  0
 25 26  1  0  0  0  0
M  END
> <s_m_source_file>
AV-unprocessed.smi

> <i_m_source_file_index>
196

> <i_lp_mmshare_version>
43012

> <i_f3d_flags>
0

> <s_epik_input>
W0NIMl0xW0NIMl1PW0NAQEhdKFtDSDNdKVtDQEBdMShbT0hdKVtDSDJdbihbY0hdbjIpYyhjMjMpbltjSF1uYzNONFtDSDJdW0NASF0oRilbQ0gyXVtDQEhdNEMoPU8pW05IMl0=

> <s_epik_cmdline>
J2VwaWtfcHl0aG9uJywgJy1waCcsICc3LjAnLCAnLXRuJywgJzgnLCAnLW1hJywgJzIwMCcsICctbWV0YWxfYmluZGluZycsICctaW1hZScsICc8aW5maWxlLm1hZT4nLCAnLW9tYWUnLCAnPG91dGZpbGUubWFlPic=

> <r_lp_tautomer_probability>
1

> <r_epik_Ionization_Penalty>
0.000857933

> <r_epik_Ionization_Penalty_Charging>
0

> <r_epik_Ionization_Penalty_Neutral>
0.000857933

> <r_epik_State_Penalty>
0.000462053

> <r_epik_Charging_Adjusted_Penalty>
0.000462053

> <i_epik_Tot_Q>
0

> <i_epik_Tot_abs_Q>
0

> <r_epik_Metal_State_Penalty>
-0

> <b_epik_Metal_Only>
0

> <s_lp_Force_Field>
OPLS_2005

> <r_lp_Energy>
42.3272

> <b_lp_Chiralities_Consistent>
1

> <s_lp_Variant>
AV-unprocessed.smi:196-2

> <Gold.Version>
5.8.1

> <Gold.Id.Protein>
6NUR|6NUR_protein|mol2

> <Gold.PLP.Fitness>
42.7296

> <Gold.PLP.PLP>
-34.5911

> <Gold.PLP.part.hbond>
-3.0350

> <Gold.PLP.part.metal>
0.0000

> <Gold.PLP.part.buried>
-5.8850

> <Gold.PLP.part.nonpolar>
-26.6541

> <Gold.PLP.part.repulsive>
0.5686

> <Gold.PLP.ligand.clash>
0.0000

> <Gold.PLP.ligand.torsion>
1.9169

> <Gold.PLP.Chemscore.Hbond>
1.9450

> <Gold.PLP.Chemscore.CHOScore>
1.9556

> <Gold.PLP.Chemscore.Metal>
0.0000

> <Gold.Chemscore.Hbonds>
donor molecule, donor type, donor heavy atom, donor atom, acceptor molecule, acceptor atom, score
      L1  H     7    37       P1  7957  0.66
      L1  H    21    46       P1 10956  1.00
      P1  H  8011  8017       L1     3  0.14
      L1  C    10    40       P1 10171  1.00
      L1  C    10    40       P1 10175  1.00

> <Gold.PLP.Chemscore.Internal.Correction>
0.2704

> <Gold.Rescore>
     Score         DG    S(hbond)    S(metal)    S(lipo)     H(rot)  DE(clash)    DE(int)     intcor
      9.47     -12.69       1.94        0.00      63.01       2.60       0.16       3.06       ----

> <Gold.Chemscore.Fitness>
9.4679

> <Gold.Chemscore.DG>
-12.6927

> <Gold.Chemscore.ZeroCoef>
-5.4800

> <Gold.Chemscore.Hbond>
1.9425

> <Gold.Chemscore.Metal>
0.0000

> <Gold.Chemscore.Lipo>
63.0131

> <Gold.Chemscore.Internal_Hbond>
0.0000

> <Gold.Chemscore.DEClash>
0.1643

> <Gold.Chemscore.DEInternal>
3.0605

> <Gold.Chemscore.Rot>
2.5968

> <Gold.Chemscore.Internal.Correction>
   9.000000E+99

> <Gold.Chemscore.Hbonds>
donor molecule, donor type, donor heavy atom, donor atom, acceptor molecule, acceptor atom, score
      L1  H     7    37       P1  7957  0.65
      L1  H    21    46       P1 10956  0.64
      P1  H  8011  8017       L1     3  0.09

> <Gold.Chemscore.Hbond.Weighted>
-6.4879

> <Gold.Chemscore.Metal.Weighted>
-0.0000

> <Gold.Chemscore.Lipo.Weighted>
-7.3725

> <Gold.Chemscore.Internal_Hbond.Weighted>
0.0000

> <Gold.Chemscore.DEClash.Weighted>
0.1643

> <Gold.Chemscore.DEInternal.Weighted>
3.0605

> <Gold.Chemscore.Rot.Weighted>
6.6477

> <Gold.Chemscore.Internal.Correction.Weighted>
   9.000000E+99

> <Gold.Protein.RotatedTorsions>
[ 6907 6896 6895 6894 ] final  -51.67 input  -60.11 | X-H torsion
[ 7974 7965 7964 7962 ] final  147.84 input  175.53 | X-H torsion
[ 8008 7997 7996 7995 ] final  126.18 input   59.86 | X-H torsion
[ 10167 10162 10161 10158 ] final  133.76 input  -65.29 | X-H torsion
[ 10718 10713 10712 10709 ] final  -19.38 input   66.30 | X-H torsion
[ 10763 10752 10751 10750 ] final   66.76 input  -60.55 | X-H torsion
[ 11005 11000 10999 10996 ] final   90.10 input  -57.11 | X-H torsion

> <Gold.Protein.ActiveResidues>
 VAL166  LYS551  ARG553  GLY616  TRP617  ASP618  TYR619  PRO620  LYS621  CYS622 
 ASP623  PHE694  ASN695  SER759  ASP760  ASP761  ALA762  ILE779  LEU786  VAL792 
 PHE793  MET794  SER795  GLU796  ALA797  LYS798  CYS799  TRP800  GLU811  SER814 

> <Gold.Protein.RotatedAtoms>
  150.8590  134.7936  159.7067 H   0  0  0  0  0  0  0  0  0  0  0  0  # atno 6907 bound_to 6896
  152.4632  134.5132  159.9770 H   0  0  0  0  0  0  0  0  0  0  0  0  # atno 6908 bound_to 6896
  151.5239  133.3423  159.2942 H   0  0  0  0  0  0  0  0  0  0  0  0  # atno 6909 bound_to 6896
  144.8560  139.6079  143.5952 H   0  0  0  0  0  0  0  0  0  0  0  0  # atno 7974 bound_to 7965
  156.2856  140.2699  156.2069 H   0  0  0  0  0  0  0  0  0  0  0  0  # atno 8008 bound_to 7997
  155.0304  140.0386  157.2490 H   0  0  0  0  0  0  0  0  0  0  0  0  # atno 8009 bound_to 7997
  154.7359  140.2715  155.6420 H   0  0  0  0  0  0  0  0  0  0  0  0  # atno 8010 bound_to 7997
  139.5284  144.6600  151.5042 H   0  0  0  0  0  0  0  0  0  0  0  0  # atno 10167 bound_to 10162
  156.5464  130.4691  149.6473 H   0  0  0  0  0  0  0  0  0  0  0  0  # atno 10718 bound_to 10713
  153.0155  135.5308  154.6874 H   0  0  0  0  0  0  0  0  0  0  0  0  # atno 10763 bound_to 10752
  154.6018  135.2869  155.0529 H   0  0  0  0  0  0  0  0  0  0  0  0  # atno 10764 bound_to 10752
  154.1583  135.6551  153.5032 H   0  0  0  0  0  0  0  0  0  0  0  0  # atno 10765 bound_to 10752
  139.8862  134.8592  156.3236 H   0  0  0  0  0  0  0  0  0  0  0  0  # atno 11005 bound_to 11000
  146.2823  139.6911  142.9220 LP  0  0  0  0  0  0  0  0  0  0  0  0  # atno 17320 bound_to 7965
  145.4405  141.0422  143.2860 LP  0  0  0  0  0  0  0  0  0  0  0  0  # atno 17321 bound_to 7965
  140.6444  143.8824  150.6723 LP  0  0  0  0  0  0  0  0  0  0  0  0  # atno 17342 bound_to 10162
  140.2169  143.3839  152.1674 LP  0  0  0  0  0  0  0  0  0  0  0  0  # atno 17343 bound_to 10162
  156.2924  130.7132  151.1984 LP  0  0  0  0  0  0  0  0  0  0  0  0  # atno 17370 bound_to 10713
  157.7396  131.0527  150.5223 LP  0  0  0  0  0  0  0  0  0  0  0  0  # atno 17371 bound_to 10713
  140.9770  133.7291  156.0617 LP  0  0  0  0  0  0  0  0  0  0  0  0  # atno 17394 bound_to 11000
  140.7798  134.3738  157.5490 LP  0  0  0  0  0  0  0  0  0  0  0  0  # atno 17395 bound_to 11000

$$$$
