#       Name:                AV-unprocessed.smi:283
#       Creating user name   scv26
#       Creation time:       Thu Mar 26 21:45:49 2020


#       File generated by GOLD software.
#

@<TRIPOS>MOLECULE
AV-unprocessed.smi:283
    59    62     1
SMALL
NO_CHARGES


@<TRIPOS>ATOM
      1 ****        -5.2750  -0.3010  -1.2069 C.3            1 S1                 0.0000
      2 ****        -3.7764  -0.3669  -0.8830 C.3            1 S1                 0.0000
      3 ****        -3.1310   0.8792  -1.2902 N.pl3          1 S1                 0.0000
      4 ****        -1.7992   1.0607  -1.1497 C.ar           1 S1                 0.0000
      5 ****        -1.3944   2.3498  -1.0640 N.ar           1 S1                 0.0000
      6 ****        -0.1000   2.6367  -0.9068 C.ar           1 S1                 0.0000
      7 ****         0.9334   1.7990  -0.8184 N.ar           1 S1                 0.0000
      8 ****         0.5404   0.4965  -0.9186 C.ar           1 S1                 0.0000
      9 ****        -0.8006   0.0438  -1.0878 C.ar           1 S1                 0.0000
     10 ****        -0.8093  -1.3440  -1.1612 N.2            1 S1                 0.0000
     11 ****         0.4423  -1.6848  -1.0286 C.2            1 S1                 0.0000
     12 ****         1.3251  -0.6409  -0.8745 N.pl3          1 S1                 0.0000
     13 ****         2.8117  -0.7418  -0.6971 C.3            1 S1                 0.0000
     14 ****         3.4380   0.3518  -1.3004 O.3            1 S1                 0.0000
     15 ****         4.1329   1.1301  -0.3269 C.3            1 S1                 0.0000
     16 ****         5.3326   1.8608  -0.9534 C.3            1 S1                 0.0000
     17 ****         4.8973   3.0439  -1.5881 O.3            1 S1                 0.0000
     18 ****         4.4716   0.1181   0.7752 C.3            1 S1                 0.0000
     19 ****         5.6331  -0.6248   0.4501 O.3            1 S1                 0.0000
     20 ****         3.2451  -0.7806   0.7825 C.3            1 S1                 0.0000
     21 ****         2.2683  -0.2812   1.6796 O.3            1 S1                 0.0000
     22 ****        -3.5677  -0.7476   0.5857 C.ar           1 S1                 0.0000
     23 ****        -3.5077   0.2616   1.5753 C.ar           1 S1                 0.0000
     24 ****        -3.3207  -0.0704   2.9300 C.ar           1 S1                 0.0000
     25 ****        -3.2001  -1.4180   3.3130 C.ar           1 S1                 0.0000
     26 ****        -3.2722  -2.4315   2.3398 C.ar           1 S1                 0.0000
     27 ****        -3.4587  -2.1047   0.9816 C.ar           1 S1                 0.0000
     28 ****        -3.5541  -3.3930  -0.1678 Cl             1 S1                 0.0000
     29 ****         3.0899  -1.6456  -1.2403 H              1 S1                 0.0000
     30 ****         3.4432   1.8589   0.1008 H              1 S1                 0.0000
     31 ****         4.6407   0.6037   1.7373 H              1 S1                 0.0000
     32 ****         3.4782  -1.8061   1.0720 H              1 S1                 0.0000
     33 ****        -5.7653  -1.2512  -0.9931 H              1 S1                 0.0000
     34 ****        -5.4400  -0.0774  -2.2612 H              1 S1                 0.0000
     35 ****        -5.7750   0.4702  -0.6197 H              1 S1                 0.0000
     36 ****        -3.3541  -1.1457  -1.5155 H              1 S1                 0.0000
     37 ****        -3.7618   1.6581  -1.4119 H              1 S1                 0.0000
     38 ****         0.1428   3.6872  -0.8417 H              1 S1                 0.0000
     39 ****         0.7584  -2.7178  -1.0376 H              1 S1                 0.0000
     40 ****         6.0439   2.1492  -0.1787 H              1 S1                 0.0000
     41 ****         5.8621   1.2245  -1.6630 H              1 S1                 0.0000
     42 ****         4.2750   2.8112  -2.2603 H              1 S1                 0.0000
     43 ****         5.5104  -1.0165  -0.4011 H              1 S1                 0.0000
     44 ****         1.4707  -0.7734   1.5580 H              1 S1                 0.0000
     45 ****        -3.6044   1.3018   1.3011 H              1 S1                 0.0000
     46 ****        -3.2728   0.7098   3.6754 H              1 S1                 0.0000
     47 ****        -3.0588  -1.6748   4.3523 H              1 S1                 0.0000
     48 ****        -3.1875  -3.4660   2.6383 H              1 S1                 0.0000
     49 ****        -2.0662   3.0885  -1.1186 LP             1 S1                 0.0000
     50 ****         1.8819   2.0902  -0.6937 LP             1 S1                 0.0000
     51 ****        -1.5979  -1.9458  -1.2873 LP             1 S1                 0.0000
     52 ****         2.7475   0.9219  -1.7456 LP             1 S1                 0.0000
     53 ****         4.0892   0.0221  -1.9839 LP             1 S1                 0.0000
     54 ****         5.6786   3.5134  -1.9994 LP             1 S1                 0.0000
     55 ****         4.4617   3.6455  -0.9185 LP             1 S1                 0.0000
     56 ****         5.7776  -1.3408   1.1331 LP             1 S1                 0.0000
     57 ****         6.4273  -0.0175   0.4305 LP             1 S1                 0.0000
     58 ****         2.0999   0.6863   1.4908 LP             1 S1                 0.0000
     59 ****         2.5894  -0.3862   2.6208 LP             1 S1                 0.0000
@<TRIPOS>BOND
    1    1    2 1     
    2    1   33 1     
    3    1   34 1     
    4    1   35 1     
    5    2    3 1     
    6    2   22 1     
    7    2   36 1     
    8    3    4 1     
    9    3   37 1     
   10    4    9 ar    
   11    4    5 ar    
   12    5    6 ar    
   13    6    7 ar    
   14    6   38 1     
   15    7    8 ar    
   16    8   12 1     
   17    8    9 ar    
   18    9   10 1     
   19   10   11 2     
   20   11   12 1     
   21   11   39 1     
   22   12   13 1     
   23   13   29 1     
   24   13   20 1     
   25   13   14 1     
   26   14   15 1     
   27   15   30 1     
   28   15   16 1     
   29   15   18 1     
   30   16   17 1     
   31   16   40 1     
   32   16   41 1     
   33   17   42 1     
   34   18   31 1     
   35   18   19 1     
   36   18   20 1     
   37   19   43 1     
   38   20   32 1     
   39   20   21 1     
   40   21   44 1     
   41   22   27 ar    
   42   22   23 ar    
   43   23   24 ar    
   44   23   45 1     
   45   24   25 ar    
   46   24   46 1     
   47   25   26 ar    
   48   25   47 1     
   49   26   27 ar    
   50   26   48 1     
   51   27   28 1     
   52    5   49 1     
   53    7   50 1     
   54   10   51 1     
   55   14   52 1     
   56   14   53 1     
   57   17   54 1     
   58   17   55 1     
   59   19   56 1     
   60   19   57 1     
   61   21   58 1     
   62   21   59 1     
@<TRIPOS>SUBSTRUCTURE
      1 S1             1
@<TRIPOS>SET
LONE_PAIRS      STATIC     ATOMS    <user>   **** ""
11 49 50 51 52 53 54 55 56 57 58 59
DONOR_HYDROGENS      STATIC     ATOMS    <user>   **** ""
4 37 42 43 44
ATOM$BLUE        STATIC     ATOMS    COLORGROUP SYSTEM
11 49 50 51 52 53 54 55 56 57 58 59
ATOM$RED        STATIC     ATOMS    COLORGROUP SYSTEM
4 37 42 43 44
