AV-unprocessed.smi:3230|AV-procd|sdf|12330|dock3
  -GOLD-   2272018183D 1   1.00000     0.00000
 Structure written by MMmdl.
 40 40  0  0  0  0  0  0  0  0  1 V2000
  151.9787  145.6915  159.8437 C   0  0  0  0  0  0  0  0  0  0  0  0
  151.3542  144.6068  158.9534 C   0  0  0  0  0  0  0  0  0  0  0  0
  151.6789  143.1529  159.3816 C   0  0  0  0  0  0  0  0  0  0  0  0
  153.2011  142.8658  159.3072 C   0  0  0  0  0  0  0  0  0  0  0  0
  153.6400  141.5834  160.0300 C   0  0  0  0  0  0  0  0  0  0  0  0
  150.8388  142.1045  158.5983 C   0  0  1  0  0  0  0  0  0  0  0  0
  149.4655  142.3342  158.8510 O   0  0  0  0  0  0  0  0  0  0  0  0
  151.0793  142.1389  157.0712 C   0  0  0  0  0  0  0  0  0  0  0  0
  150.1363  141.2919  156.3489 N   0  0  0  0  0  0  0  0  0  0  0  0
  150.4550  140.4597  155.3453 C   0  0  0  0  0  0  0  0  0  0  0  0
  151.5999  140.3228  154.9149 O   0  0  0  0  0  0  0  0  0  0  0  0
  149.3058  139.6630  154.7266 C   0  0  0  0  0  0  0  0  0  0  0  0
  148.0682  140.5147  154.6426 C   0  0  0  0  0  0  0  0  0  0  0  0
  147.9315  141.8239  154.1028 C   0  0  0  0  0  0  0  0  0  0  0  0
  146.6096  142.1138  154.2873 C   0  0  0  0  0  0  0  0  0  0  0  0
  145.7754  143.3054  153.9634 C   0  0  0  0  0  0  0  0  0  0  0  0
  145.9815  141.0732  154.8924 O   0  0  0  0  0  0  0  0  0  0  0  0
  146.9190  140.0590  155.1166 N   0  0  0  0  0  0  0  0  0  0  0  0
  151.8188  146.6793  159.4114 H   0  0  0  0  0  0  0  0  0  0  0  0
  153.0544  145.5473  159.9472 H   0  0  0  0  0  0  0  0  0  0  0  0
  151.5397  145.7041  160.8406 H   0  0  0  0  0  0  0  0  0  0  0  0
  150.2748  144.7531  158.9041 H   0  0  0  0  0  0  0  0  0  0  0  0
  151.7195  144.7790  157.9422 H   0  0  0  0  0  0  0  0  0  0  0  0
  151.3904  143.0623  160.4299 H   0  0  0  0  0  0  0  0  0  0  0  0
  153.5095  142.7643  158.2674 H   0  0  0  0  0  0  0  0  0  0  0  0
  153.7613  143.7148  159.7009 H   0  0  0  0  0  0  0  0  0  0  0  0
  154.6993  141.3917  159.8583 H   0  0  0  0  0  0  0  0  0  0  0  0
  153.0860  140.7171  159.6677 H   0  0  0  0  0  0  0  0  0  0  0  0
  153.4962  141.6499  161.1077 H   0  0  0  0  0  0  0  0  0  0  0  0
  151.0891  141.1077  158.9596 H   0  0  0  0  0  0  0  0  0  0  0  0
  149.1339  142.9216  158.1885 H   0  0  0  0  0  0  0  0  0  0  0  0
  151.0732  143.1575  156.6787 H   0  0  0  0  0  0  0  0  0  0  0  0
  152.0680  141.7366  156.8484 H   0  0  0  0  0  0  0  0  0  0  0  0
  149.1696  141.3366  156.6384 H   0  0  0  0  0  0  0  0  0  0  0  0
  149.6015  139.3005  153.7410 H   0  0  0  0  0  0  0  0  0  0  0  0
  149.1135  138.7785  155.3348 H   0  0  0  0  0  0  0  0  0  0  0  0
  148.6858  142.4499  153.6499 H   0  0  0  0  0  0  0  0  0  0  0  0
  146.3389  144.0261  153.3706 H   0  0  0  0  0  0  0  0  0  0  0  0
  145.4433  143.8032  154.8744 H   0  0  0  0  0  0  0  0  0  0  0  0
  144.8922  143.0162  153.3934 H   0  0  0  0  0  0  0  0  0  0  0  0
  1  2  1  0  0  0  0
  1 19  1  0  0  0  0
  1 20  1  0  0  0  0
  1 21  1  0  0  0  0
  2  3  1  0  0  0  0
  2 22  1  0  0  0  0
  2 23  1  0  0  0  0
  3  4  1  0  0  0  0
  3  6  1  0  0  0  0
  3 24  1  0  0  0  0
  4  5  1  0  0  0  0
  4 25  1  0  0  0  0
  4 26  1  0  0  0  0
  5 27  1  0  0  0  0
  5 28  1  0  0  0  0
  5 29  1  0  0  0  0
  6  7  1  0  0  0  0
  6  8  1  0  0  0  0
  6 30  1  0  0  0  0
  7 31  1  0  0  0  0
  8  9  1  0  0  0  0
  8 32  1  0  0  0  0
  8 33  1  0  0  0  0
  9 10  1  0  0  0  0
  9 34  1  0  0  0  0
 10 11  2  0  0  0  0
 10 12  1  0  0  0  0
 12 13  1  0  0  0  0
 12 35  1  0  0  0  0
 12 36  1  0  0  0  0
 13 18  2  0  0  0  0
 13 14  1  0  0  0  0
 14 15  2  0  0  0  0
 14 37  1  0  0  0  0
 15 16  1  0  0  0  0
 15 17  1  0  0  0  0
 16 38  1  0  0  0  0
 16 39  1  0  0  0  0
 16 40  1  0  0  0  0
 17 18  1  0  0  0  0
M  END
> <s_m_source_file>
AV-unprocessed.smi

> <i_m_source_file_index>
3230

> <i_lp_mmshare_version>
43012

> <i_f3d_flags>
0

> <s_epik_input>
W0NIM11bQ0gyXVtDSF0oW0NIMl1bQ0gzXSlbQ0BIXShbT0hdKVtDSDJdW05IXUMoPU8pW0NIMl1jMVtjSF1jKFtDSDNdKW9uMQ==

> <s_epik_cmdline>
J2VwaWtfcHl0aG9uJywgJy1waCcsICc3LjAnLCAnLXRuJywgJzgnLCAnLW1hJywgJzIwMCcsICctbWV0YWxfYmluZGluZycsICctaW1hZScsICc8aW5maWxlLm1hZT4nLCAnLW9tYWUnLCAnPG91dGZpbGUubWFlPic=

> <r_lp_tautomer_probability>
1

> <r_epik_Ionization_Penalty>
2.40054e-07

> <r_epik_Ionization_Penalty_Charging>
0

> <r_epik_Ionization_Penalty_Neutral>
2.40054e-07

> <r_epik_State_Penalty>
-0

> <r_epik_Charging_Adjusted_Penalty>
0

> <i_epik_Tot_Q>
0

> <i_epik_Tot_abs_Q>
0

> <r_epik_Metal_State_Penalty>
-0

> <b_epik_Metal_Only>
0

> <s_lp_Force_Field>
OPLS_2005

> <r_lp_Energy>
9.12341

> <b_lp_Chiralities_Consistent>
1

> <s_lp_Variant>
AV-unprocessed.smi:3230-2

> <Gold.Version>
5.8.1

> <Gold.Id.Protein>
6NUR|6NUR_protein|mol2

> <Gold.PLP.Fitness>
44.1001

> <Gold.PLP.PLP>
-42.2430

> <Gold.PLP.part.hbond>
-1.9611

> <Gold.PLP.part.metal>
0.0000

> <Gold.PLP.part.buried>
-4.6405

> <Gold.PLP.part.nonpolar>
-36.2938

> <Gold.PLP.part.repulsive>
0.2907

> <Gold.PLP.ligand.clash>
0.0000

> <Gold.PLP.ligand.torsion>
0.6525

> <Gold.PLP.Chemscore.Hbond>
0.9600

> <Gold.PLP.Chemscore.CHOScore>
0.0000

> <Gold.PLP.Chemscore.Metal>
0.0000

> <Gold.Chemscore.Hbonds>
donor molecule, donor type, donor heavy atom, donor atom, acceptor molecule, acceptor atom, score
      P1  H  7989  7998       L1    11  0.90

> <Gold.PLP.Chemscore.Internal.Correction>
0.2821

> <Gold.Rescore>
     Score         DG    S(hbond)    S(metal)    S(lipo)     H(rot)  DE(clash)    DE(int)     intcor
     13.72     -14.24       0.89        0.00     105.76       2.57       0.03       0.49       ----

> <Gold.Chemscore.Fitness>
13.7187

> <Gold.Chemscore.DG>
-14.2386

> <Gold.Chemscore.ZeroCoef>
-5.4800

> <Gold.Chemscore.Hbond>
0.8884

> <Gold.Chemscore.Metal>
0.0000

> <Gold.Chemscore.Lipo>
105.7632

> <Gold.Chemscore.Internal_Hbond>
0.0000

> <Gold.Chemscore.DEClash>
0.0346

> <Gold.Chemscore.DEInternal>
0.4853

> <Gold.Chemscore.Rot>
2.5715

> <Gold.Chemscore.Internal.Correction>
   9.000000E+99

> <Gold.Chemscore.Hbonds>
donor molecule, donor type, donor heavy atom, donor atom, acceptor molecule, acceptor atom, score
      P1  H  7989  7998       L1    11  0.58

> <Gold.Chemscore.Hbond.Weighted>
-2.9674

> <Gold.Chemscore.Metal.Weighted>
-0.0000

> <Gold.Chemscore.Lipo.Weighted>
-12.3743

> <Gold.Chemscore.Internal_Hbond.Weighted>
0.0000

> <Gold.Chemscore.DEClash.Weighted>
0.0346

> <Gold.Chemscore.DEInternal.Weighted>
0.4853

> <Gold.Chemscore.Rot.Weighted>
6.5831

> <Gold.Chemscore.Internal.Correction.Weighted>
   9.000000E+99

> <Gold.Protein.RotatedTorsions>
[ 6907 6896 6895 6894 ] final -152.12 input  -60.11 | X-H torsion
[ 7974 7965 7964 7962 ] final    4.30 input  175.53 | X-H torsion
[ 8008 7997 7996 7995 ] final -133.75 input   59.86 | X-H torsion
[ 10167 10162 10161 10158 ] final  -42.01 input  -65.29 | X-H torsion
[ 10718 10713 10712 10709 ] final  -53.94 input   66.30 | X-H torsion
[ 10763 10752 10751 10750 ] final -179.65 input  -60.55 | X-H torsion
[ 11005 11000 10999 10996 ] final  106.09 input  -57.11 | X-H torsion

> <Gold.Protein.ActiveResidues>
 VAL166  LYS551  ARG553  GLY616  TRP617  ASP618  TYR619  PRO620  LYS621  CYS622 
 ASP623  PHE694  ASN695  SER759  ASP760  ASP761  ALA762  ILE779  LEU786  VAL792 
 PHE793  MET794  SER795  GLU796  ALA797  LYS798  CYS799  TRP800  GLU811  SER814 

> <Gold.Protein.RotatedAtoms>
  151.2231  133.4491  159.2601 H   0  0  0  0  0  0  0  0  0  0  0  0  # atno 6907 bound_to 6896
  151.0866  134.9891  159.8392 H   0  0  0  0  0  0  0  0  0  0  0  0  # atno 6908 bound_to 6896
  152.5430  134.2167  159.8824 H   0  0  0  0  0  0  0  0  0  0  0  0  # atno 6909 bound_to 6896
  146.2444  140.0556  142.8372 H   0  0  0  0  0  0  0  0  0  0  0  0  # atno 7974 bound_to 7965
  155.3507  140.0477  157.3046 H   0  0  0  0  0  0  0  0  0  0  0  0  # atno 8008 bound_to 7997
  154.5229  140.2231  155.8907 H   0  0  0  0  0  0  0  0  0  0  0  0  # atno 8009 bound_to 7997
  156.1708  140.3096  155.8977 H   0  0  0  0  0  0  0  0  0  0  0  0  # atno 8010 bound_to 7997
  140.6983  143.3061  151.3149 H   0  0  0  0  0  0  0  0  0  0  0  0  # atno 10167 bound_to 10162
  156.1493  130.4152  149.9972 H   0  0  0  0  0  0  0  0  0  0  0  0  # atno 10718 bound_to 10713
  154.5323  135.2800  155.1169 H   0  0  0  0  0  0  0  0  0  0  0  0  # atno 10763 bound_to 10752
  154.2684  135.6308  153.5304 H   0  0  0  0  0  0  0  0  0  0  0  0  # atno 10764 bound_to 10752
  152.9960  135.5622  154.5840 H   0  0  0  0  0  0  0  0  0  0  0  0  # atno 10765 bound_to 10752
  139.8810  134.9358  156.5614 H   0  0  0  0  0  0  0  0  0  0  0  0  # atno 11005 bound_to 11000
  145.0945  140.9306  143.4749 LP  0  0  0  0  0  0  0  0  0  0  0  0  # atno 17320 bound_to 7965
  145.0736  139.3013  143.5819 LP  0  0  0  0  0  0  0  0  0  0  0  0  # atno 17321 bound_to 7965
  139.6468  144.0436  152.2596 LP  0  0  0  0  0  0  0  0  0  0  0  0  # atno 17342 bound_to 10162
  139.9960  144.6328  150.7772 LP  0  0  0  0  0  0  0  0  0  0  0  0  # atno 17343 bound_to 10162
  156.7835  130.9230  151.3646 LP  0  0  0  0  0  0  0  0  0  0  0  0  # atno 17370 bound_to 10713
  157.6643  130.8994  149.9898 LP  0  0  0  0  0  0  0  0  0  0  0  0  # atno 17371 bound_to 10713
  140.8167  133.8386  155.8858 LP  0  0  0  0  0  0  0  0  0  0  0  0  # atno 17394 bound_to 11000
  140.9457  134.1844  157.4765 LP  0  0  0  0  0  0  0  0  0  0  0  0  # atno 17395 bound_to 11000

$$$$
