#       Name:                AV-unprocessed.smi:774
#       Creating user name   scv26
#       Creation time:       Fri Mar 27 01:11:01 2020


#       File generated by GOLD software.
#

@<TRIPOS>MOLECULE
AV-unprocessed.smi:774
    40    41     1
SMALL
NO_CHARGES


@<TRIPOS>ATOM
      1 ****        -5.9701   0.7611  -1.2605 C.3            1 S1                 0.0000
      2 ****        -4.4738   0.4452  -1.1896 C.3            1 S1                 0.0000
      3 ****        -4.1801  -1.3385  -1.0506 S.3            1 S1                 0.0000
      4 ****        -2.3648  -1.3726  -1.0799 C.3            1 S1                 0.0000
      5 ****        -1.8118  -2.7901  -1.2006 C.3            1 S1                 0.0000
      6 ****        -0.3657  -2.6734  -0.7172 C.3            1 S1                 0.0000
      7 ****        -0.3580  -1.5369   0.3225 C.3            1 S1                 0.0000
      8 ****         0.7309  -0.5972   0.0596 N.am           1 S1                 0.0000
      9 ****         1.6190  -0.1557   0.9619 C.2            1 S1                 0.0000
     10 ****         1.6194  -0.5013   2.1429 O.2            1 S1                 0.0000
     11 ****         2.5008   0.6881   0.3977 N.am           1 S1                 0.0000
     12 ****         3.6047   1.3543   0.9972 C.ar           1 S1                 0.0000
     13 ****         4.6008   1.8745   0.1450 C.ar           1 S1                 0.0000
     14 ****         5.7025   2.5479   0.7056 C.ar           1 S1                 0.0000
     15 ****         5.7621   2.6838   2.1058 C.ar           1 S1                 0.0000
     16 ****         4.8106   2.2074   2.9358 N.ar           1 S1                 0.0000
     17 ****         3.7570   1.5610   2.3914 C.ar           1 S1                 0.0000
     18 ****        -1.7264  -0.8387   0.2067 C.3            1 S1                 0.0000
     19 ****        -6.1369   1.8347  -1.3486 H              1 S1                 0.0000
     20 ****        -6.4877   0.4158  -0.3652 H              1 S1                 0.0000
     21 ****        -6.4337   0.2797  -2.1222 H              1 S1                 0.0000
     22 ****        -3.9721   0.8178  -2.0828 H              1 S1                 0.0000
     23 ****        -4.0263   0.9496  -0.3332 H              1 S1                 0.0000
     24 ****        -2.0132  -0.7860  -1.9298 H              1 S1                 0.0000
     25 ****        -2.3622  -3.4635  -0.5420 H              1 S1                 0.0000
     26 ****        -1.8839  -3.1839  -2.2148 H              1 S1                 0.0000
     27 ****         0.0020  -3.6127  -0.3030 H              1 S1                 0.0000
     28 ****         0.2733  -2.4245  -1.5661 H              1 S1                 0.0000
     29 ****        -0.2685  -1.9699   1.3204 H              1 S1                 0.0000
     30 ****         0.8140  -0.2585  -0.8876 H              1 S1                 0.0000
     31 ****         2.4064   0.8230  -0.5982 H              1 S1                 0.0000
     32 ****         4.5270   1.7564  -0.9263 H              1 S1                 0.0000
     33 ****         6.4833   2.9503   0.0774 H              1 S1                 0.0000
     34 ****         6.5932   3.1929   2.5710 H              1 S1                 0.0000
     35 ****         3.0215   1.2270   3.1057 H              1 S1                 0.0000
     36 ****        -1.6549   0.2498   0.2076 H              1 S1                 0.0000
     37 ****        -2.3394  -1.1176   1.0650 H              1 S1                 0.0000
     38 ****         0.9310  -1.1458   2.4755 LP             1 S1                 0.0000
     39 ****         2.3082  -0.1376   2.7700 LP             1 S1                 0.0000
     40 ****         4.8835   2.3295   3.9256 LP             1 S1                 0.0000
@<TRIPOS>BOND
    1    1    2 1     
    2    1   19 1     
    3    1   20 1     
    4    1   21 1     
    5    2    3 1     
    6    2   22 1     
    7    2   23 1     
    8    3    4 1     
    9    4   18 1     
   10    4    5 1     
   11    4   24 1     
   12    5    6 1     
   13    5   25 1     
   14    5   26 1     
   15    6    7 1     
   16    6   27 1     
   17    6   28 1     
   18    7    8 1     
   19    7   18 1     
   20    7   29 1     
   21    8    9 am    
   22    8   30 1     
   23    9   10 2     
   24    9   11 am    
   25   11   12 1     
   26   11   31 1     
   27   12   17 ar    
   28   12   13 ar    
   29   13   14 ar    
   30   13   32 1     
   31   14   15 ar    
   32   14   33 1     
   33   15   16 ar    
   34   15   34 1     
   35   16   17 ar    
   36   17   35 1     
   37   18   36 1     
   38   18   37 1     
   39   10   38 1     
   40   10   39 1     
   41   16   40 1     
@<TRIPOS>SUBSTRUCTURE
      1 S1             1
@<TRIPOS>SET
LONE_PAIRS      STATIC     ATOMS    <user>   **** ""
3 38 39 40
DONOR_HYDROGENS      STATIC     ATOMS    <user>   **** ""
2 30 31
ATOM$BLUE        STATIC     ATOMS    COLORGROUP SYSTEM
3 38 39 40
ATOM$RED        STATIC     ATOMS    COLORGROUP SYSTEM
2 30 31
