AV-unprocessed.smi:3228|AV-procd|sdf|12326|dock10
  -GOLD-   2272018173D 1   1.00000     0.00000
 Structure written by MMmdl.
 30 31  0  0  0  0  0  0  0  0  2 V2000
  151.1660  140.3108  155.3385 O   0  0  0  0  0  0  0  0  0  0  0  0
  150.4592  141.2340  155.7499 C   0  0  0  0  0  0  0  0  0  0  0  0
  150.7569  141.8357  156.9089 N   0  0  0  0  0  0  0  0  0  0  0  0
  151.8805  141.4907  157.7712 C   0  0  0  0  0  0  0  0  0  0  0  0
  151.7888  142.2280  159.1189 C   0  0  1  0  0  0  0  0  0  0  0  0
  152.7586  141.7017  160.1873 C   0  0  0  0  0  0  0  0  0  0  0  0
  153.0243  142.8754  161.1427 C   0  0  0  0  0  0  0  0  0  0  0  0
  152.4044  144.1174  160.4881 C   0  0  0  0  0  0  0  0  0  0  0  0
  152.1332  143.7181  159.0357 C   0  0  2  0  0  0  0  0  0  0  0  0
  151.0839  144.4820  158.4780 O   0  0  0  0  0  0  0  0  0  0  0  0
  149.3628  141.7393  155.1396 N   0  5  0  0  0  0  0  0  0  0  0  0
  148.5704  140.9371  154.4105 C   0  0  0  0  0  0  0  0  0  0  0  0
  148.7843  139.6226  154.2809 N   0  0  0  0  0  0  0  0  0  0  0  0
  147.8341  138.9813  153.4843 C   0  0  0  0  0  0  0  0  0  0  0  0
  146.8689  139.8256  153.0033 C   0  0  0  0  0  0  0  0  0  0  0  0
  147.1266  141.4615  153.5391 S   0  0  0  0  0  0  0  0  0  0  0  0
  150.1550  142.5862  157.2142 H   0  0  0  0  0  0  0  0  0  0  0  0
  151.8964  140.4112  157.9298 H   0  0  0  0  0  0  0  0  0  0  0  0
  152.8119  141.7534  157.2673 H   0  0  0  0  0  0  0  0  0  0  0  0
  150.7738  142.1301  159.5095 H   0  0  0  0  0  0  0  0  0  0  0  0
  152.3594  140.8299  160.7071 H   0  0  0  0  0  0  0  0  0  0  0  0
  153.6981  141.3986  159.7226 H   0  0  0  0  0  0  0  0  0  0  0  0
  152.5810  142.6966  162.1227 H   0  0  0  0  0  0  0  0  0  0  0  0
  154.0970  143.0062  161.2897 H   0  0  0  0  0  0  0  0  0  0  0  0
  151.4663  144.3532  160.9932 H   0  0  0  0  0  0  0  0  0  0  0  0
  153.0465  144.9955  160.5636 H   0  0  0  0  0  0  0  0  0  0  0  0
  153.0379  143.8608  158.4427 H   0  0  0  0  0  0  0  0  0  0  0  0
  150.2788  143.9957  158.5682 H   0  0  0  0  0  0  0  0  0  0  0  0
  147.9214  137.9186  153.3135 H   0  0  0  0  0  0  0  0  0  0  0  0
  146.0267  139.5878  152.3713 H   0  0  0  0  0  0  0  0  0  0  0  0
  1  2  2  0  0  0  0
  2  3  1  0  0  0  0
  2 11  1  0  0  0  0
  3  4  1  0  0  0  0
  3 17  1  0  0  0  0
  4  5  1  0  0  0  0
  4 18  1  0  0  0  0
  4 19  1  0  0  0  0
  5  9  1  0  0  0  0
  5  6  1  0  0  0  0
  5 20  1  0  0  0  0
  6  7  1  0  0  0  0
  6 21  1  0  0  0  0
  6 22  1  0  0  0  0
  7  8  1  0  0  0  0
  7 23  1  0  0  0  0
  7 24  1  0  0  0  0
  8  9  1  0  0  0  0
  8 25  1  0  0  0  0
  8 26  1  0  0  0  0
  9 10  1  0  0  0  0
  9 27  1  0  0  0  0
 10 28  1  0  0  0  0
 11 12  1  0  0  0  0
 12 16  1  0  0  0  0
 12 13  2  0  0  0  0
 13 14  1  0  0  0  0
 14 15  2  0  0  0  0
 14 29  1  0  0  0  0
 15 16  1  0  0  0  0
 15 30  1  0  0  0  0
M  CHG  1  11  -1
M  END
> <s_m_source_file>
AV-unprocessed.smi

> <i_m_source_file_index>
3228

> <i_lp_mmshare_version>
43012

> <i_f3d_flags>
0

> <s_epik_input>
czFbY0hdW2NIXW5jMVtOSF1DKD1PKVtOSF1bQ0gyXVtDQEBIXTJbQ0gyXVtDSDJdW0NIMl1bQ0BIXTJbT0hd

> <s_epik_cmdline>
J2VwaWtfcHl0aG9uJywgJy1waCcsICc3LjAnLCAnLXRuJywgJzgnLCAnLW1hJywgJzIwMCcsICctbWV0YWxfYmluZGluZycsICctaW1hZScsICc8aW5maWxlLm1hZT4nLCAnLW9tYWUnLCAnPG91dGZpbGUubWFlPic=

> <r_lp_tautomer_probability>
0.999

> <r_epik_Ionization_Penalty>
8.49756

> <r_epik_Ionization_Penalty_Charging>
6.79645

> <r_epik_Ionization_Penalty_Neutral>
1.70111

> <r_epik_State_Penalty>
6.79662

> <r_epik_Charging_Adjusted_Penalty>
13.5931

> <i_epik_Tot_Q>
-1

> <i_epik_Tot_abs_Q>
1

> <r_epik_Metal_State_Penalty>
2.71629

> <b_epik_Metal_Only>
1

> <s_lp_Force_Field>
OPLS_2005

> <r_lp_Energy>
17.8369

> <b_lp_Chiralities_Consistent>
1

> <s_lp_Variant>
AV-unprocessed.smi:3228-8

> <Gold.Version>
5.8.1

> <Gold.Id.Protein>
6NUR|6NUR_protein|mol2

> <Gold.PLP.Fitness>
41.2439

> <Gold.PLP.PLP>
-32.9361

> <Gold.PLP.part.hbond>
-1.0000

> <Gold.PLP.part.metal>
0.0000

> <Gold.PLP.part.buried>
-5.8593

> <Gold.PLP.part.nonpolar>
-26.2696

> <Gold.PLP.part.repulsive>
0.8428

> <Gold.PLP.ligand.clash>
0.0000

> <Gold.PLP.ligand.torsion>
0.3437

> <Gold.PLP.Chemscore.Hbond>
1.0000

> <Gold.PLP.Chemscore.CHOScore>
1.9891

> <Gold.PLP.Chemscore.Metal>
0.0000

> <Gold.Chemscore.Hbonds>
donor molecule, donor type, donor heavy atom, donor atom, acceptor molecule, acceptor atom, score
      P1  H  7989  7998       L1     1  1.00
      L1  C    14    29       P1  7948  1.00
      L1  C    15    30       P1 10175  0.99

> <Gold.PLP.Chemscore.Internal.Correction>
0.0279

> <Gold.Rescore>
     Score         DG    S(hbond)    S(metal)    S(lipo)     H(rot)  DE(clash)    DE(int)     intcor
     11.30     -13.21       0.75        0.00      85.23       1.85       0.06       1.85       ----

> <Gold.Chemscore.Fitness>
11.3037

> <Gold.Chemscore.DG>
-13.2143

> <Gold.Chemscore.ZeroCoef>
-5.4800

> <Gold.Chemscore.Hbond>
0.7464

> <Gold.Chemscore.Metal>
0.0000

> <Gold.Chemscore.Lipo>
85.2347

> <Gold.Chemscore.Internal_Hbond>
0.0000

> <Gold.Chemscore.DEClash>
0.0594

> <Gold.Chemscore.DEInternal>
1.8512

> <Gold.Chemscore.Rot>
1.8481

> <Gold.Chemscore.Internal.Correction>
   9.000000E+99

> <Gold.Chemscore.Hbonds>
donor molecule, donor type, donor heavy atom, donor atom, acceptor molecule, acceptor atom, score
      P1  H  7989  7998       L1     1  0.37

> <Gold.Chemscore.Hbond.Weighted>
-2.4931

> <Gold.Chemscore.Metal.Weighted>
-0.0000

> <Gold.Chemscore.Lipo.Weighted>
-9.9725

> <Gold.Chemscore.Internal_Hbond.Weighted>
0.0000

> <Gold.Chemscore.DEClash.Weighted>
0.0594

> <Gold.Chemscore.DEInternal.Weighted>
1.8512

> <Gold.Chemscore.Rot.Weighted>
4.7313

> <Gold.Chemscore.Internal.Correction.Weighted>
   9.000000E+99

> <Gold.Protein.RotatedTorsions>
[ 6907 6896 6895 6894 ] final  -81.36 input  -60.11 | X-H torsion
[ 7974 7965 7964 7962 ] final   31.18 input  175.53 | X-H torsion
[ 8008 7997 7996 7995 ] final -128.19 input   59.86 | X-H torsion
[ 10167 10162 10161 10158 ] final  128.94 input  -65.29 | X-H torsion
[ 10718 10713 10712 10709 ] final -174.73 input   66.30 | X-H torsion
[ 10763 10752 10751 10750 ] final -177.93 input  -60.55 | X-H torsion
[ 11005 11000 10999 10996 ] final  172.76 input  -57.11 | X-H torsion

> <Gold.Protein.ActiveResidues>
 VAL166  LYS551  ARG553  GLY616  TRP617  ASP618  TYR619  PRO620  LYS621  CYS622 
 ASP623  PHE694  ASN695  SER759  ASP760  ASP761  ALA762  ILE779  LEU786  VAL792 
 PHE793  MET794  SER795  GLU796  ALA797  LYS798  CYS799  TRP800  GLU811  SER814 

> <Gold.Protein.RotatedAtoms>
  150.6913  134.3830  159.5042 H   0  0  0  0  0  0  0  0  0  0  0  0  # atno 6907 bound_to 6896
  152.1629  134.8894  160.0549 H   0  0  0  0  0  0  0  0  0  0  0  0  # atno 6908 bound_to 6896
  151.9949  133.3769  159.4196 H   0  0  0  0  0  0  0  0  0  0  0  0  # atno 6909 bound_to 6896
  146.1566  139.6690  142.9062 H   0  0  0  0  0  0  0  0  0  0  0  0  # atno 7974 bound_to 7965
  155.2586  140.0435  157.2995 H   0  0  0  0  0  0  0  0  0  0  0  0  # atno 8008 bound_to 7997
  154.5725  140.2378  155.8140 H   0  0  0  0  0  0  0  0  0  0  0  0  # atno 8009 bound_to 7997
  156.2133  140.2992  155.9790 H   0  0  0  0  0  0  0  0  0  0  0  0  # atno 8010 bound_to 7997
  139.5502  144.6807  151.4347 H   0  0  0  0  0  0  0  0  0  0  0  0  # atno 10167 bound_to 10162
  156.7894  130.9512  151.3120 H   0  0  0  0  0  0  0  0  0  0  0  0  # atno 10718 bound_to 10713
  154.5540  135.2815  155.0982 H   0  0  0  0  0  0  0  0  0  0  0  0  # atno 10763 bound_to 10752
  154.2417  135.6356  153.5213 H   0  0  0  0  0  0  0  0  0  0  0  0  # atno 10764 bound_to 10752
  153.0010  135.5561  154.6114 H   0  0  0  0  0  0  0  0  0  0  0  0  # atno 10765 bound_to 10752
  140.3332  134.7339  157.4149 H   0  0  0  0  0  0  0  0  0  0  0  0  # atno 11005 bound_to 11000
  145.4693  141.0435  143.2707 LP  0  0  0  0  0  0  0  0  0  0  0  0  # atno 17320 bound_to 7965
  144.7971  139.6213  143.7088 LP  0  0  0  0  0  0  0  0  0  0  0  0  # atno 17321 bound_to 7965
  140.6763  143.8183  150.7062 LP  0  0  0  0  0  0  0  0  0  0  0  0  # atno 17342 bound_to 10162
  140.1623  143.4265  152.2059 LP  0  0  0  0  0  0  0  0  0  0  0  0  # atno 17343 bound_to 10162
  157.6608  130.8964  149.9826 LP  0  0  0  0  0  0  0  0  0  0  0  0  # atno 17370 bound_to 10713
  156.1169  130.3647  149.9953 LP  0  0  0  0  0  0  0  0  0  0  0  0  # atno 17371 bound_to 10713
  140.0843  134.5688  155.8508 LP  0  0  0  0  0  0  0  0  0  0  0  0  # atno 17394 bound_to 11000
  141.2058  133.6650  156.6202 LP  0  0  0  0  0  0  0  0  0  0  0  0  # atno 17395 bound_to 11000

$$$$
