AV-unprocessed.smi:83|AV-procd|sdf|806|dock6
  -GOLD-   2262017193D 1   1.00000     0.00000
 Structure written by MMmdl.
 56 59  0  0  0  0  0  0  0  0  1 V2000
  151.5938  144.8124  160.4687 C   0  0  0  0  0  0  0  0  0  0  0  0
  152.1500  143.9050  159.3698 C   0  0  0  0  0  0  0  0  0  0  0  0
  151.9027  144.1725  158.1943 O   0  0  0  0  0  0  0  0  0  0  0  0
  152.8938  142.8392  159.7288 N   0  0  0  0  0  0  0  0  0  0  0  0
  153.2061  142.4944  161.1132 C   0  0  0  0  0  0  0  0  0  0  0  0
  154.1168  141.2652  161.0327 C   0  0  0  0  0  0  0  0  0  0  0  0
  153.7588  140.6126  159.6977 C   0  0  1  0  0  0  0  0  0  0  0  0
  152.5648  139.6438  159.8819 C   0  0  0  0  0  0  0  0  0  0  0  0
  152.0464  139.0839  158.6324 N   0  0  0  0  0  0  0  0  0  0  0  0
  152.8967  139.2005  157.4492 C   0  0  0  0  0  0  0  0  0  0  0  0
  150.7112  138.8461  158.4618 C   0  0  0  0  0  0  0  0  0  0  0  0
  149.9784  139.7689  157.7795 N   0  0  0  0  0  0  0  0  0  0  0  0
  148.6623  139.6203  157.6131 C   0  0  0  0  0  0  0  0  0  0  0  0
  147.8759  138.6344  158.0417 N   0  0  0  0  0  0  0  0  0  0  0  0
  148.5939  137.6924  158.7146 C   0  0  0  0  0  0  0  0  0  0  0  0
  149.9989  137.7098  158.9629 C   0  0  0  0  0  0  0  0  0  0  0  0
  150.3469  136.5612  159.6686 N   0  0  0  0  0  0  0  0  0  0  0  0
  149.2246  135.9215  159.8427 C   0  0  0  0  0  0  0  0  0  0  0  0
  148.1202  136.5335  159.3018 N   0  0  0  0  0  0  0  0  0  0  0  0
  146.7513  136.0526  159.3430 C   0  0  0  0  0  0  0  0  0  0  0  0
  145.8450  136.9422  160.2152 C   0  0  1  0  0  0  0  0  0  0  0  0
  144.4797  136.6503  159.9780 O   0  0  0  0  0  0  0  0  0  0  0  0
  146.1661  136.8356  161.7200 C   0  0  1  0  0  0  0  0  0  0  0  0
  145.9435  135.4508  162.3523 C   0  0  0  0  0  0  0  0  0  0  0  0
  147.3265  135.0516  162.8319 C   0  0  0  0  0  0  0  0  0  0  0  0
  147.9944  136.4009  163.0600 C   0  0  0  0  0  0  0  0  0  0  0  0
  147.5270  137.1793  161.9706 O   0  0  0  0  0  0  0  0  0  0  0  0
  153.4572  141.8405  158.8238 C   0  0  0  0  0  0  0  0  0  0  0  0
  151.0508  144.2312  161.2146 H   0  0  0  0  0  0  0  0  0  0  0  0
  150.9055  145.5470  160.0495 H   0  0  0  0  0  0  0  0  0  0  0  0
  152.3995  145.3528  160.9651 H   0  0  0  0  0  0  0  0  0  0  0  0
  153.6915  143.3187  161.6378 H   0  0  0  0  0  0  0  0  0  0  0  0
  152.2813  142.2533  161.6398 H   0  0  0  0  0  0  0  0  0  0  0  0
  155.1582  141.5886  161.0092 H   0  0  0  0  0  0  0  0  0  0  0  0
  154.0020  140.5979  161.8876 H   0  0  0  0  0  0  0  0  0  0  0  0
  154.6106  140.0581  159.3020 H   0  0  0  0  0  0  0  0  0  0  0  0
  152.9036  138.8017  160.4861 H   0  0  0  0  0  0  0  0  0  0  0  0
  151.7883  140.0988  160.4871 H   0  0  0  0  0  0  0  0  0  0  0  0
  152.7863  138.3283  156.8038 H   0  0  0  0  0  0  0  0  0  0  0  0
  153.9482  139.2716  157.7286 H   0  0  0  0  0  0  0  0  0  0  0  0
  152.6412  140.0931  156.8771 H   0  0  0  0  0  0  0  0  0  0  0  0
  148.1687  140.4072  157.0623 H   0  0  0  0  0  0  0  0  0  0  0  0
  149.1717  134.9804  160.3706 H   0  0  0  0  0  0  0  0  0  0  0  0
  146.3719  136.0002  158.3217 H   0  0  0  0  0  0  0  0  0  0  0  0
  146.7599  135.0312  159.7250 H   0  0  0  0  0  0  0  0  0  0  0  0
  145.9940  137.9811  159.9180 H   0  0  0  0  0  0  0  0  0  0  0  0
  144.2066  135.9809  160.5866 H   0  0  0  0  0  0  0  0  0  0  0  0
  145.5514  137.5595  162.2578 H   0  0  0  0  0  0  0  0  0  0  0  0
  145.2656  135.5390  163.2023 H   0  0  0  0  0  0  0  0  0  0  0  0
  145.5159  134.7172  161.6685 H   0  0  0  0  0  0  0  0  0  0  0  0
  147.3073  134.4269  163.7252 H   0  0  0  0  0  0  0  0  0  0  0  0
  147.8512  134.5081  162.0450 H   0  0  0  0  0  0  0  0  0  0  0  0
  147.6612  136.8475  163.9983 H   0  0  0  0  0  0  0  0  0  0  0  0
  149.0827  136.3387  163.0726 H   0  0  0  0  0  0  0  0  0  0  0  0
  152.8155  141.6146  157.9759 H   0  0  0  0  0  0  0  0  0  0  0  0
  154.3862  142.2419  158.4172 H   0  0  0  0  0  0  0  0  0  0  0  0
  1  2  1  0  0  0  0
  1 29  1  0  0  0  0
  1 30  1  0  0  0  0
  1 31  1  0  0  0  0
  2  3  2  0  0  0  0
  2  4  1  0  0  0  0
  4 28  1  0  0  0  0
  4  5  1  0  0  0  0
  5  6  1  0  0  0  0
  5 32  1  0  0  0  0
  5 33  1  0  0  0  0
  6  7  1  0  0  0  0
  6 34  1  0  0  0  0
  6 35  1  0  0  0  0
  7  8  1  0  0  0  0
  7 28  1  0  0  0  0
  7 36  1  0  0  0  0
  8  9  1  0  0  0  0
  8 37  1  0  0  0  0
  8 38  1  0  0  0  0
  9 10  1  0  0  0  0
  9 11  1  0  0  0  0
 10 39  1  0  0  0  0
 10 40  1  0  0  0  0
 10 41  1  0  0  0  0
 11 16  1  0  0  0  0
 11 12  2  0  0  0  0
 12 13  1  0  0  0  0
 13 14  2  0  0  0  0
 13 42  1  0  0  0  0
 14 15  1  0  0  0  0
 15 19  1  0  0  0  0
 15 16  2  0  0  0  0
 16 17  1  0  0  0  0
 17 18  2  0  0  0  0
 18 19  1  0  0  0  0
 18 43  1  0  0  0  0
 19 20  1  0  0  0  0
 20 21  1  0  0  0  0
 20 44  1  0  0  0  0
 20 45  1  0  0  0  0
 21 22  1  0  0  0  0
 21 23  1  0  0  0  0
 21 46  1  0  0  0  0
 22 47  1  0  0  0  0
 23 27  1  0  0  0  0
 23 24  1  0  0  0  0
 23 48  1  0  0  0  0
 24 25  1  0  0  0  0
 24 49  1  0  0  0  0
 24 50  1  0  0  0  0
 25 26  1  0  0  0  0
 25 51  1  0  0  0  0
 25 52  1  0  0  0  0
 26 27  1  0  0  0  0
 26 53  1  0  0  0  0
 26 54  1  0  0  0  0
 28 55  1  0  0  0  0
 28 56  1  0  0  0  0
M  END
> <s_m_source_file>
AV-unprocessed.smi

> <i_m_source_file_index>
83

> <i_lp_mmshare_version>
43012

> <i_f3d_flags>
0

> <s_epik_input>
W0NIM11DKD1PKU4xW0NIMl1bQ0gyXVtDQEhdKFtDSDJdMSlbQ0gyXU4oW0NIM10pYyhuW2NIXW4yKWMoYzIzKW5bY0hdbjNbQ0gyXVtDQEhdKFtPSF0pW0NAQEhdNFtDSDJdW0NIMl1bQ0gyXU80

> <s_epik_cmdline>
J2VwaWtfcHl0aG9uJywgJy1waCcsICc3LjAnLCAnLXRuJywgJzgnLCAnLW1hJywgJzIwMCcsICctbWV0YWxfYmluZGluZycsICctaW1hZScsICc8aW5maWxlLm1hZT4nLCAnLW9tYWUnLCAnPG91dGZpbGUubWFlPic=

> <r_lp_tautomer_probability>
1

> <r_epik_Ionization_Penalty>
0.00109752

> <r_epik_Ionization_Penalty_Charging>
0

> <r_epik_Ionization_Penalty_Neutral>
0.00109752

> <r_epik_State_Penalty>
0.000634803

> <r_epik_Charging_Adjusted_Penalty>
0.000634803

> <i_epik_Tot_Q>
0

> <i_epik_Tot_abs_Q>
0

> <r_epik_Metal_State_Penalty>
-0

> <b_epik_Metal_Only>
0

> <s_lp_Force_Field>
OPLS_2005

> <r_lp_Energy>
56.5247

> <b_lp_Chiralities_Consistent>
1

> <s_lp_Variant>
AV-unprocessed.smi:83-7

> <Gold.Version>
5.8.1

> <Gold.Id.Protein>
6NUR|6NUR_protein|mol2

> <Gold.PLP.Fitness>
50.7164

> <Gold.PLP.PLP>
-47.6776

> <Gold.PLP.part.hbond>
-3.5841

> <Gold.PLP.part.metal>
0.0000

> <Gold.PLP.part.buried>
-6.0018

> <Gold.PLP.part.nonpolar>
-38.3004

> <Gold.PLP.part.repulsive>
0.0665

> <Gold.PLP.ligand.clash>
0.0000

> <Gold.PLP.ligand.torsion>
1.7268

> <Gold.PLP.Chemscore.Hbond>
2.0139

> <Gold.PLP.Chemscore.CHOScore>
0.0000

> <Gold.PLP.Chemscore.Metal>
0.0000

> <Gold.Chemscore.Hbonds>
donor molecule, donor type, donor heavy atom, donor atom, acceptor molecule, acceptor atom, score
      P1  H  6896  6909       L1    17  0.50
      P1  H  6931  6943       L1    27  0.66
      P1  H  6934  6947       L1    27  0.23

> <Gold.PLP.Chemscore.Internal.Correction>
0.4506

> <Gold.Rescore>
     Score         DG    S(hbond)    S(metal)    S(lipo)     H(rot)  DE(clash)    DE(int)     intcor
     10.05     -13.17       0.93        0.00      96.42       2.62       0.20       2.93       ----

> <Gold.Chemscore.Fitness>
10.0497

> <Gold.Chemscore.DG>
-13.1733

> <Gold.Chemscore.ZeroCoef>
-5.4800

> <Gold.Chemscore.Hbond>
0.9304

> <Gold.Chemscore.Metal>
0.0000

> <Gold.Chemscore.Lipo>
96.4165

> <Gold.Chemscore.Internal_Hbond>
0.0000

> <Gold.Chemscore.DEClash>
0.1985

> <Gold.Chemscore.DEInternal>
2.9251

> <Gold.Chemscore.Rot>
2.6152

> <Gold.Chemscore.Internal.Correction>
   9.000000E+99

> <Gold.Chemscore.Hbonds>
donor molecule, donor type, donor heavy atom, donor atom, acceptor molecule, acceptor atom, score
      P1  H  6896  6909       L1    17  0.02
      P1  H  6931  6943       L1    27  0.07
      P1  H  6934  6947       L1    27  0.01

> <Gold.Chemscore.Hbond.Weighted>
-3.1074

> <Gold.Chemscore.Metal.Weighted>
-0.0000

> <Gold.Chemscore.Lipo.Weighted>
-11.2807

> <Gold.Chemscore.Internal_Hbond.Weighted>
0.0000

> <Gold.Chemscore.DEClash.Weighted>
0.1985

> <Gold.Chemscore.DEInternal.Weighted>
2.9251

> <Gold.Chemscore.Rot.Weighted>
6.6949

> <Gold.Chemscore.Internal.Correction.Weighted>
   9.000000E+99

> <Gold.Protein.RotatedTorsions>
[ 6907 6896 6895 6894 ] final   98.02 input  -60.11 | X-H torsion
[ 7974 7965 7964 7962 ] final   42.26 input  175.53 | X-H torsion
[ 8008 7997 7996 7995 ] final -141.25 input   59.86 | X-H torsion
[ 10167 10162 10161 10158 ] final  170.06 input  -65.29 | X-H torsion
[ 10718 10713 10712 10709 ] final   89.55 input   66.30 | X-H torsion
[ 10763 10752 10751 10750 ] final  -36.75 input  -60.55 | X-H torsion
[ 11005 11000 10999 10996 ] final -169.00 input  -57.11 | X-H torsion

> <Gold.Protein.ActiveResidues>
 VAL166  LYS551  ARG553  GLY616  TRP617  ASP618  TYR619  PRO620  LYS621  CYS622 
 ASP623  PHE694  ASN695  SER759  ASP760  ASP761  ALA762  ILE779  LEU786  VAL792 
 PHE793  MET794  SER795  GLU796  ALA797  LYS798  CYS799  TRP800  GLU811  SER814 

> <Gold.Protein.RotatedAtoms>
  152.5415  134.0644  159.8165 H   0  0  0  0  0  0  0  0  0  0  0  0  # atno 6907 bound_to 6896
  151.0767  133.5415  159.2630 H   0  0  0  0  0  0  0  0  0  0  0  0  # atno 6908 bound_to 6896
  151.2258  135.0544  159.9022 H   0  0  0  0  0  0  0  0  0  0  0  0  # atno 6909 bound_to 6896
  146.0755  139.5321  142.9570 H   0  0  0  0  0  0  0  0  0  0  0  0  # atno 7974 bound_to 7965
  155.4747  140.0555  157.2975 H   0  0  0  0  0  0  0  0  0  0  0  0  # atno 8008 bound_to 7997
  154.4684  140.2029  156.0011 H   0  0  0  0  0  0  0  0  0  0  0  0  # atno 8009 bound_to 7997
  156.1014  140.3218  155.7952 H   0  0  0  0  0  0  0  0  0  0  0  0  # atno 8010 bound_to 7997
  139.5008  144.3638  151.9797 H   0  0  0  0  0  0  0  0  0  0  0  0  # atno 10167 bound_to 10162
  157.6956  131.0337  150.3443 H   0  0  0  0  0  0  0  0  0  0  0  0  # atno 10718 bound_to 10713
  153.8850  135.6818  153.4764 H   0  0  0  0  0  0  0  0  0  0  0  0  # atno 10763 bound_to 10752
  153.1213  135.4739  154.9197 H   0  0  0  0  0  0  0  0  0  0  0  0  # atno 10764 bound_to 10752
  154.7650  135.3222  154.8256 H   0  0  0  0  0  0  0  0  0  0  0  0  # atno 10765 bound_to 10752
  140.5356  134.5573  157.5086 H   0  0  0  0  0  0  0  0  0  0  0  0  # atno 11005 bound_to 11000
  145.6313  141.0303  143.1861 LP  0  0  0  0  0  0  0  0  0  0  0  0  # atno 17320 bound_to 7965
  144.7259  139.7878  143.7365 LP  0  0  0  0  0  0  0  0  0  0  0  0  # atno 17321 bound_to 7965
  140.3074  144.3577  150.6043 LP  0  0  0  0  0  0  0  0  0  0  0  0  # atno 17342 bound_to 10162
  140.5825  143.2172  151.7401 LP  0  0  0  0  0  0  0  0  0  0  0  0  # atno 17343 bound_to 10162
  156.3900  130.3896  149.7037 LP  0  0  0  0  0  0  0  0  0  0  0  0  # atno 17370 bound_to 10713
  156.4390  130.7852  151.2873 LP  0  0  0  0  0  0  0  0  0  0  0  0  # atno 17371 bound_to 10713
  139.9531  134.7583  156.0404 LP  0  0  0  0  0  0  0  0  0  0  0  0  # atno 17394 bound_to 11000
  141.1256  133.6600  156.3328 LP  0  0  0  0  0  0  0  0  0  0  0  0  # atno 17395 bound_to 11000

$$$$
