AV-unprocessed.smi:460|AV-procd|sdf|2626|dock7
  -GOLD-   2262023 33D 1   1.00000     0.00000
 Structure written by MMmdl.
 46 48  0  0  0  0  0  0  0  0  1 V2000
  151.8965  138.0813  154.3863 C   0  0  0  0  0  0  0  0  0  0  0  0
  152.2003  138.9646  155.6040 C   0  0  0  0  0  0  0  0  0  0  0  0
  151.0044  139.8286  156.0482 C   0  0  2  0  0  0  0  0  0  0  0  0
  150.4718  140.4942  154.9200 O   0  0  0  0  0  0  0  0  0  0  0  0
  151.3912  140.7951  157.1363 C   0  0  0  0  0  0  0  0  0  0  0  0
  151.2964  142.1155  156.9624 N   0  0  0  0  0  0  0  0  0  0  0  0
  151.7578  142.6187  158.1615 C   0  0  0  0  0  0  0  0  0  0  0  0
  151.9052  143.9544  158.5993 C   0  0  0  0  0  0  0  0  0  0  0  0
  152.4088  144.2321  159.8868 C   0  0  0  0  0  0  0  0  0  0  0  0
  152.7727  143.1803  160.7522 C   0  0  0  0  0  0  0  0  0  0  0  0
  152.6336  141.8424  160.3352 C   0  0  0  0  0  0  0  0  0  0  0  0
  152.1281  141.5699  159.0492 C   0  0  0  0  0  0  0  0  0  0  0  0
  151.8692  140.3966  158.3453 N   0  0  0  0  0  0  0  0  0  0  0  0
  152.0805  139.0439  158.8415 C   0  0  0  0  0  0  0  0  0  0  0  0
  153.3868  138.9198  159.6353 C   0  0  0  0  0  0  0  0  0  0  0  0
  153.6479  137.5425  159.8627 O   0  0  0  0  0  0  0  0  0  0  0  0
  154.0567  137.1493  161.1207 C   0  0  0  0  0  0  0  0  0  0  0  0
  154.0533  138.0058  162.2512 C   0  0  0  0  0  0  0  0  0  0  0  0
  154.4843  137.5360  163.5050 C   0  0  0  0  0  0  0  0  0  0  0  0
  154.9227  136.2086  163.6443 C   0  0  0  0  0  0  0  0  0  0  0  0
  154.9308  135.3503  162.5300 C   0  0  0  0  0  0  0  0  0  0  0  0
  154.4981  135.8127  161.2609 C   0  0  0  0  0  0  0  0  0  0  0  0
  154.4783  135.0252  160.1277 O   0  0  0  0  0  0  0  0  0  0  0  0
  155.0488  133.7267  160.1995 C   0  0  0  0  0  0  0  0  0  0  0  0
  152.7583  137.4637  154.1327 H   0  0  0  0  0  0  0  0  0  0  0  0
  151.6509  138.6813  153.5097 H   0  0  0  0  0  0  0  0  0  0  0  0
  151.0569  137.4141  154.5837 H   0  0  0  0  0  0  0  0  0  0  0  0
  152.4935  138.3103  156.4257 H   0  0  0  0  0  0  0  0  0  0  0  0
  153.0660  139.5964  155.4008 H   0  0  0  0  0  0  0  0  0  0  0  0
  150.2182  139.1686  156.4090 H   0  0  0  0  0  0  0  0  0  0  0  0
  149.7368  141.0172  155.2006 H   0  0  0  0  0  0  0  0  0  0  0  0
  151.6298  144.7666  157.9428 H   0  0  0  0  0  0  0  0  0  0  0  0
  152.5166  145.2566  160.2118 H   0  0  0  0  0  0  0  0  0  0  0  0
  153.1579  143.4013  161.7370 H   0  0  0  0  0  0  0  0  0  0  0  0
  152.9127  141.0370  160.9982 H   0  0  0  0  0  0  0  0  0  0  0  0
  151.2386  138.7691  159.4773 H   0  0  0  0  0  0  0  0  0  0  0  0
  152.0598  138.3440  158.0063 H   0  0  0  0  0  0  0  0  0  0  0  0
  154.2082  139.3662  159.0747 H   0  0  0  0  0  0  0  0  0  0  0  0
  153.2925  139.4477  160.5858 H   0  0  0  0  0  0  0  0  0  0  0  0
  153.7236  139.0312  162.1846 H   0  0  0  0  0  0  0  0  0  0  0  0
  154.4778  138.1951  164.3606 H   0  0  0  0  0  0  0  0  0  0  0  0
  155.2534  135.8472  164.6070 H   0  0  0  0  0  0  0  0  0  0  0  0
  155.2744  134.3378  162.6763 H   0  0  0  0  0  0  0  0  0  0  0  0
  154.9478  133.2355  159.2318 H   0  0  0  0  0  0  0  0  0  0  0  0
  154.5391  133.1063  160.9377 H   0  0  0  0  0  0  0  0  0  0  0  0
  156.1125  133.7717  160.4364 H   0  0  0  0  0  0  0  0  0  0  0  0
  1  2  1  0  0  0  0
  1 25  1  0  0  0  0
  1 26  1  0  0  0  0
  1 27  1  0  0  0  0
  2  3  1  0  0  0  0
  2 28  1  0  0  0  0
  2 29  1  0  0  0  0
  3  4  1  0  0  0  0
  3  5  1  0  0  0  0
  3 30  1  0  0  0  0
  4 31  1  0  0  0  0
  5 13  1  0  0  0  0
  5  6  2  0  0  0  0
  6  7  1  0  0  0  0
  7 12  2  0  0  0  0
  7  8  1  0  0  0  0
  8  9  2  0  0  0  0
  8 32  1  0  0  0  0
  9 10  1  0  0  0  0
  9 33  1  0  0  0  0
 10 11  2  0  0  0  0
 10 34  1  0  0  0  0
 11 12  1  0  0  0  0
 11 35  1  0  0  0  0
 12 13  1  0  0  0  0
 13 14  1  0  0  0  0
 14 15  1  0  0  0  0
 14 36  1  0  0  0  0
 14 37  1  0  0  0  0
 15 16  1  0  0  0  0
 15 38  1  0  0  0  0
 15 39  1  0  0  0  0
 16 17  1  0  0  0  0
 17 22  1  0  0  0  0
 17 18  2  0  0  0  0
 18 19  1  0  0  0  0
 18 40  1  0  0  0  0
 19 20  2  0  0  0  0
 19 41  1  0  0  0  0
 20 21  1  0  0  0  0
 20 42  1  0  0  0  0
 21 22  2  0  0  0  0
 21 43  1  0  0  0  0
 22 23  1  0  0  0  0
 23 24  1  0  0  0  0
 24 44  1  0  0  0  0
 24 45  1  0  0  0  0
 24 46  1  0  0  0  0
M  END
> <s_m_source_file>
AV-unprocessed.smi

> <i_m_source_file_index>
460

> <i_lp_mmshare_version>
43012

> <i_f3d_flags>
0

> <s_epik_input>
W2NIXTFbY0hdW2NIXVtjSF1jKGMxMiluKGMobjIpW0NAQEhdKFtPSF0pW0NIMl1bQ0gzXSlbQ0gyXVtDSDJdT2MzW2NIXVtjSF1bY0hdW2NIXWMzT1tDSDNd

> <s_epik_cmdline>
J2VwaWtfcHl0aG9uJywgJy1waCcsICc3LjAnLCAnLXRuJywgJzgnLCAnLW1hJywgJzIwMCcsICctbWV0YWxfYmluZGluZycsICctaW1hZScsICc8aW5maWxlLm1hZT4nLCAnLW9tYWUnLCAnPG91dGZpbGUubWFlPic=

> <r_lp_tautomer_probability>
1

> <r_epik_Ionization_Penalty>
0.0507825

> <r_epik_Ionization_Penalty_Charging>
0

> <r_epik_Ionization_Penalty_Neutral>
0.0507825

> <r_epik_State_Penalty>
0.0434615

> <r_epik_Charging_Adjusted_Penalty>
0.0434615

> <i_epik_Tot_Q>
0

> <i_epik_Tot_abs_Q>
0

> <r_epik_Metal_State_Penalty>
4.50935e-05

> <b_epik_Metal_Only>
0

> <s_lp_Force_Field>
OPLS_2005

> <r_lp_Energy>
20.8142

> <b_lp_Chiralities_Consistent>
1

> <s_lp_Variant>
AV-unprocessed.smi:460-1

> <Gold.Version>
5.8.1

> <Gold.Id.Protein>
6NUR|6NUR_protein|mol2

> <Gold.PLP.Fitness>
53.9832

> <Gold.PLP.PLP>
-49.4365

> <Gold.PLP.part.hbond>
-2.0000

> <Gold.PLP.part.metal>
0.0000

> <Gold.PLP.part.buried>
-5.8339

> <Gold.PLP.part.nonpolar>
-42.0936

> <Gold.PLP.part.repulsive>
0.0647

> <Gold.PLP.ligand.clash>
0.0000

> <Gold.PLP.ligand.torsion>
0.7942

> <Gold.PLP.Chemscore.Hbond>
2.0000

> <Gold.PLP.Chemscore.CHOScore>
0.0000

> <Gold.PLP.Chemscore.Metal>
0.0000

> <Gold.Chemscore.Hbonds>
donor molecule, donor type, donor heavy atom, donor atom, acceptor molecule, acceptor atom, score
      P1  H  6896  6909       L1    23  0.96
      P1  H  7989  7998       L1     4  1.00

> <Gold.PLP.Chemscore.Internal.Correction>
0.1351

> <Gold.Rescore>
     Score         DG    S(hbond)    S(metal)    S(lipo)     H(rot)  DE(clash)    DE(int)     intcor
     18.71     -19.51       1.11        0.00     139.87       2.36       0.13       0.67       ----

> <Gold.Chemscore.Fitness>
18.7058

> <Gold.Chemscore.DG>
-19.5103

> <Gold.Chemscore.ZeroCoef>
-5.4800

> <Gold.Chemscore.Hbond>
1.1089

> <Gold.Chemscore.Metal>
0.0000

> <Gold.Chemscore.Lipo>
139.8704

> <Gold.Chemscore.Internal_Hbond>
0.0000

> <Gold.Chemscore.DEClash>
0.1330

> <Gold.Chemscore.DEInternal>
0.6714

> <Gold.Chemscore.Rot>
2.3587

> <Gold.Chemscore.Internal.Correction>
   9.000000E+99

> <Gold.Chemscore.Hbonds>
donor molecule, donor type, donor heavy atom, donor atom, acceptor molecule, acceptor atom, score
      P1  H  6896  6909       L1    23  0.09
      P1  H  7989  7998       L1     4  0.91

> <Gold.Chemscore.Hbond.Weighted>
-3.7038

> <Gold.Chemscore.Metal.Weighted>
-0.0000

> <Gold.Chemscore.Lipo.Weighted>
-16.3648

> <Gold.Chemscore.Internal_Hbond.Weighted>
0.0000

> <Gold.Chemscore.DEClash.Weighted>
0.1330

> <Gold.Chemscore.DEInternal.Weighted>
0.6714

> <Gold.Chemscore.Rot.Weighted>
6.0384

> <Gold.Chemscore.Internal.Correction.Weighted>
   9.000000E+99

> <Gold.Protein.RotatedTorsions>
[ 6907 6896 6895 6894 ] final -178.93 input  -60.11 | X-H torsion
[ 7974 7965 7964 7962 ] final  -86.08 input  175.53 | X-H torsion
[ 8008 7997 7996 7995 ] final   85.02 input   59.86 | X-H torsion
[ 10167 10162 10161 10158 ] final   35.55 input  -65.29 | X-H torsion
[ 10718 10713 10712 10709 ] final  104.74 input   66.30 | X-H torsion
[ 10763 10752 10751 10750 ] final  -59.01 input  -60.55 | X-H torsion
[ 11005 11000 10999 10996 ] final  -18.34 input  -57.11 | X-H torsion

> <Gold.Protein.ActiveResidues>
 VAL166  LYS551  ARG553  GLY616  TRP617  ASP618  TYR619  PRO620  LYS621  CYS622 
 ASP623  PHE694  ASN695  SER759  ASP760  ASP761  ALA762  ILE779  LEU786  VAL792 
 PHE793  MET794  SER795  GLU796  ALA797  LYS798  CYS799  TRP800  GLU811  SER814 

> <Gold.Protein.RotatedAtoms>
  151.6452  133.3324  159.3138 H   0  0  0  0  0  0  0  0  0  0  0  0  # atno 6907 bound_to 6896
  150.7988  134.7071  159.6592 H   0  0  0  0  0  0  0  0  0  0  0  0  # atno 6908 bound_to 6896
  152.4078  134.6181  160.0095 H   0  0  0  0  0  0  0  0  0  0  0  0  # atno 6909 bound_to 6896
  145.4846  140.9555  143.1845 H   0  0  0  0  0  0  0  0  0  0  0  0  # atno 7974 bound_to 7965
  155.9446  140.3405  155.6356 H   0  0  0  0  0  0  0  0  0  0  0  0  # atno 8008 bound_to 7997
  155.6997  140.0758  157.2434 H   0  0  0  0  0  0  0  0  0  0  0  0  # atno 8009 bound_to 7997
  154.4109  140.1642  156.2164 H   0  0  0  0  0  0  0  0  0  0  0  0  # atno 8010 bound_to 7997
  140.4211  144.1459  150.6148 H   0  0  0  0  0  0  0  0  0  0  0  0  # atno 10167 bound_to 10162
  157.6730  131.0811  150.5752 H   0  0  0  0  0  0  0  0  0  0  0  0  # atno 10718 bound_to 10713
  154.2471  135.6333  153.5227 H   0  0  0  0  0  0  0  0  0  0  0  0  # atno 10763 bound_to 10752
  152.9919  135.5556  154.5848 H   0  0  0  0  0  0  0  0  0  0  0  0  # atno 10764 bound_to 10752
  154.5367  135.2892  155.1107 H   0  0  0  0  0  0  0  0  0  0  0  0  # atno 10765 bound_to 10752
  140.8258  133.8034  155.9707 H   0  0  0  0  0  0  0  0  0  0  0  0  # atno 11005 bound_to 11000
  144.7869  139.6408  143.7130 LP  0  0  0  0  0  0  0  0  0  0  0  0  # atno 17320 bound_to 7965
  146.2320  139.5833  142.9548 LP  0  0  0  0  0  0  0  0  0  0  0  0  # atno 17321 bound_to 7965
  140.4533  143.2478  151.9319 LP  0  0  0  0  0  0  0  0  0  0  0  0  # atno 17342 bound_to 10162
  139.4782  144.5541  151.8341 LP  0  0  0  0  0  0  0  0  0  0  0  0  # atno 17343 bound_to 10162
  156.6053  130.4365  149.5880 LP  0  0  0  0  0  0  0  0  0  0  0  0  # atno 17370 bound_to 10713
  156.2473  130.6887  151.1612 LP  0  0  0  0  0  0  0  0  0  0  0  0  # atno 17371 bound_to 10713
  140.9051  134.2331  157.5019 LP  0  0  0  0  0  0  0  0  0  0  0  0  # atno 17394 bound_to 11000
  139.8706  134.9724  156.4772 LP  0  0  0  0  0  0  0  0  0  0  0  0  # atno 17395 bound_to 11000

$$$$
