AV-unprocessed.smi:1381|AV-procd|sdf|5606|dock6
  -GOLD-   22720 5213D 1   1.00000     0.00000
 Structure written by MMmdl.
 43 44  0  0  0  0  0  0  0  0  2 V2000
  153.2961  137.5770  157.0990 C   0  0  0  0  0  0  0  0  0  0  0  0
  152.4240  138.2994  156.1303 C   0  0  0  0  0  0  0  0  0  0  0  0
  151.3121  137.9321  155.4257 C   0  0  0  0  0  0  0  0  0  0  0  0
  150.9925  139.1085  154.6970 C   0  0  0  0  0  0  0  0  0  0  0  0
  149.8745  139.1437  153.8249 N   0  0  0  0  0  0  0  0  0  0  0  0
  148.6353  138.6830  154.0653 C   0  0  0  0  0  0  0  0  0  0  0  0
  148.2681  138.1400  155.1077 O   0  0  0  0  0  0  0  0  0  0  0  0
  147.8261  138.8834  153.0149 N   0  0  0  0  0  0  0  0  0  0  0  0
  146.4198  138.5004  152.9665 C   0  0  0  0  0  0  0  0  0  0  0  0
  146.0865  137.7347  151.6716 C   0  0  0  0  0  0  0  0  0  0  0  0
  146.0901  136.2644  151.8709 N   0  3  1  0  0  0  0  0  0  0  0  0
  145.5795  135.8732  153.2062 C   0  0  0  0  0  0  0  0  0  0  0  0
  145.6554  134.3468  153.4076 C   0  0  2  0  0  0  0  0  0  0  0  0
  147.0852  133.8279  153.6424 C   0  0  0  0  0  0  0  0  0  0  0  0
  145.0053  133.6738  152.3294 O   0  0  0  0  0  0  0  0  0  0  0  0
  145.4961  134.0050  151.0328 C   0  0  1  0  0  0  0  0  0  0  0  0
  144.6911  133.2019  150.0050 C   0  0  0  0  0  0  0  0  0  0  0  0
  145.3687  135.5226  150.8089 C   0  0  0  0  0  0  0  0  0  0  0  0
  151.8336  140.1033  154.9340 N   0  0  0  0  0  0  0  0  0  0  0  0
  152.7560  139.5895  155.8531 O   0  0  0  0  0  0  0  0  0  0  0  0
  152.8365  136.6395  157.4124 H   0  0  0  0  0  0  0  0  0  0  0  0
  153.4699  138.1816  157.9892 H   0  0  0  0  0  0  0  0  0  0  0  0
  154.2629  137.3477  156.6511 H   0  0  0  0  0  0  0  0  0  0  0  0
  150.8109  136.9756  155.4341 H   0  0  0  0  0  0  0  0  0  0  0  0
  150.0372  139.5656  152.9226 H   0  0  0  0  0  0  0  0  0  0  0  0
  148.2063  139.3383  152.1976 H   0  0  0  0  0  0  0  0  0  0  0  0
  146.1801  137.9123  153.8529 H   0  0  0  0  0  0  0  0  0  0  0  0
  145.8189  139.4083  153.0253 H   0  0  0  0  0  0  0  0  0  0  0  0
  145.0959  138.0493  151.3399 H   0  0  0  0  0  0  0  0  0  0  0  0
  146.7765  137.9958  150.8677 H   0  0  0  0  0  0  0  0  0  0  0  0
  146.1452  136.3789  153.9899 H   0  0  0  0  0  0  0  0  0  0  0  0
  144.5440  136.2048  153.3009 H   0  0  0  0  0  0  0  0  0  0  0  0
  145.0831  134.1027  154.3030 H   0  0  0  0  0  0  0  0  0  0  0  0
  147.5086  134.2599  154.5494 H   0  0  0  0  0  0  0  0  0  0  0  0
  147.7575  134.0772  152.8219 H   0  0  0  0  0  0  0  0  0  0  0  0
  147.0901  132.7442  153.7621 H   0  0  0  0  0  0  0  0  0  0  0  0
  146.5417  133.7089  150.9472 H   0  0  0  0  0  0  0  0  0  0  0  0
  145.0292  133.4115  148.9900 H   0  0  0  0  0  0  0  0  0  0  0  0
  143.6288  133.4408  150.0600 H   0  0  0  0  0  0  0  0  0  0  0  0
  144.8002  132.1307  150.1760 H   0  0  0  0  0  0  0  0  0  0  0  0
  144.3179  135.8176  150.8078 H   0  0  0  0  0  0  0  0  0  0  0  0
  145.7701  135.7752  149.8281 H   0  0  0  0  0  0  0  0  0  0  0  0
  147.0557  135.9699  151.8384 H   0  0  0  0  0  0  0  0  0  0  0  0
  1  2  1  0  0  0  0
  1 21  1  0  0  0  0
  1 22  1  0  0  0  0
  1 23  1  0  0  0  0
  2 20  1  0  0  0  0
  2  3  2  0  0  0  0
  3  4  1  0  0  0  0
  3 24  1  0  0  0  0
  4  5  1  0  0  0  0
  4 19  2  0  0  0  0
  5  6  1  0  0  0  0
  5 25  1  0  0  0  0
  6  7  2  0  0  0  0
  6  8  1  0  0  0  0
  8  9  1  0  0  0  0
  8 26  1  0  0  0  0
  9 10  1  0  0  0  0
  9 27  1  0  0  0  0
  9 28  1  0  0  0  0
 10 11  1  0  0  0  0
 10 29  1  0  0  0  0
 10 30  1  0  0  0  0
 11 18  1  0  0  0  0
 11 12  1  0  0  0  0
 11 43  1  0  0  0  0
 12 13  1  0  0  0  0
 12 31  1  0  0  0  0
 12 32  1  0  0  0  0
 13 14  1  0  0  0  0
 13 15  1  0  0  0  0
 13 33  1  0  0  0  0
 14 34  1  0  0  0  0
 14 35  1  0  0  0  0
 14 36  1  0  0  0  0
 15 16  1  0  0  0  0
 16 17  1  0  0  0  0
 16 18  1  0  0  0  0
 16 37  1  0  0  0  0
 17 38  1  0  0  0  0
 17 39  1  0  0  0  0
 17 40  1  0  0  0  0
 18 41  1  0  0  0  0
 18 42  1  0  0  0  0
 19 20  1  0  0  0  0
M  CHG  1  11   1
M  END
> <s_m_source_file>
AV-unprocessed.smi

> <i_m_source_file_index>
1381

> <i_lp_mmshare_version>
43012

> <i_f3d_flags>
0

> <s_epik_input>
W0NIM11jMVtjSF1jKG5vMSlbTkhdQyg9TylbTkhdW0NIMl1bQ0gyXU4yW0NIMl1bQ0BASF0oW0NIM10pT1tDQEBIXShbQ0gzXSlbQ0gyXTI=

> <s_epik_cmdline>
J2VwaWtfcHl0aG9uJywgJy1waCcsICc3LjAnLCAnLXRuJywgJzgnLCAnLW1hJywgJzIwMCcsICctbWV0YWxfYmluZGluZycsICctaW1hZScsICc8aW5maWxlLm1hZT4nLCAnLW9tYWUnLCAnPG91dGZpbGUubWFlPic=

> <r_epik_Ionization_Penalty>
0.707076

> <r_epik_Ionization_Penalty_Charging>
0.707039

> <r_epik_Ionization_Penalty_Neutral>
3.6548e-05

> <r_epik_State_Penalty>
0.730276

> <r_epik_Charging_Adjusted_Penalty>
1.43732

> <i_epik_Tot_Q>
1

> <i_epik_Tot_abs_Q>
1

> <r_epik_Metal_State_Penalty>
0.743132

> <b_epik_Metal_Only>
0

> <s_lp_Force_Field>
OPLS_2005

> <r_lp_Energy>
14.5355

> <b_lp_Chiralities_Consistent>
1

> <s_lp_Variant>
AV-unprocessed.smi:1381-5

> <Gold.Version>
5.8.1

> <Gold.Id.Protein>
6NUR|6NUR_protein|mol2

> <Gold.PLP.Fitness>
45.8632

> <Gold.PLP.PLP>
-29.9320

> <Gold.PLP.part.hbond>
-5.9079

> <Gold.PLP.part.metal>
0.0000

> <Gold.PLP.part.buried>
-3.7659

> <Gold.PLP.part.nonpolar>
-22.6557

> <Gold.PLP.part.repulsive>
0.4130

> <Gold.PLP.ligand.clash>
0.0000

> <Gold.PLP.ligand.torsion>
0.9126

> <Gold.PLP.Chemscore.Hbond>
5.9120

> <Gold.PLP.Chemscore.CHOScore>
0.0000

> <Gold.PLP.Chemscore.Metal>
0.0000

> <Gold.Chemscore.Hbonds>
donor molecule, donor type, donor heavy atom, donor atom, acceptor molecule, acceptor atom, score
      L1  H     5    25       P1  7957  1.00
      L1  H     8    26       P1  7957  1.00
      L1  H    11    43       P1  7948  2.00
      P1  H  7989  7998       L1    19  0.82
      P1  H  7997  8009       L1    20  1.00

> <Gold.PLP.Chemscore.Internal.Correction>
0.0205

> <Gold.Rescore>
     Score         DG    S(hbond)    S(metal)    S(lipo)     H(rot)  DE(clash)    DE(int)     intcor
     21.29     -22.37       4.18        0.00      60.09       1.61       0.26       0.81       ----

> <Gold.Chemscore.Fitness>
21.2931

> <Gold.Chemscore.DG>
-22.3711

> <Gold.Chemscore.ZeroCoef>
-5.4800

> <Gold.Chemscore.Hbond>
4.1847

> <Gold.Chemscore.Metal>
0.0000

> <Gold.Chemscore.Lipo>
60.0925

> <Gold.Chemscore.Internal_Hbond>
0.0000

> <Gold.Chemscore.DEClash>
0.2639

> <Gold.Chemscore.DEInternal>
0.8141

> <Gold.Chemscore.Rot>
1.6081

> <Gold.Chemscore.Internal.Correction>
   9.000000E+99

> <Gold.Chemscore.Hbonds>
donor molecule, donor type, donor heavy atom, donor atom, acceptor molecule, acceptor atom, score
      L1  H     5    25       P1  7957  0.97
      L1  H     8    26       P1  7957  0.98
      L1  H    11    43       P1  7948  0.98
      P1  H  7989  7998       L1    19  0.16
      P1  H  7997  8009       L1    20  0.96

> <Gold.Chemscore.Hbond.Weighted>
-13.9770

> <Gold.Chemscore.Metal.Weighted>
-0.0000

> <Gold.Chemscore.Lipo.Weighted>
-7.0308

> <Gold.Chemscore.Internal_Hbond.Weighted>
0.0000

> <Gold.Chemscore.DEClash.Weighted>
0.2639

> <Gold.Chemscore.DEInternal.Weighted>
0.8141

> <Gold.Chemscore.Rot.Weighted>
4.1167

> <Gold.Chemscore.Internal.Correction.Weighted>
   9.000000E+99

> <Gold.Protein.RotatedTorsions>
[ 6907 6896 6895 6894 ] final  175.61 input  -60.11 | X-H torsion
[ 7974 7965 7964 7962 ] final  104.51 input  175.53 | X-H torsion
[ 8008 7997 7996 7995 ] final -136.78 input   59.86 | X-H torsion
[ 10167 10162 10161 10158 ] final -101.99 input  -65.29 | X-H torsion
[ 10718 10713 10712 10709 ] final -161.31 input   66.30 | X-H torsion
[ 10763 10752 10751 10750 ] final    9.00 input  -60.55 | X-H torsion
[ 11005 11000 10999 10996 ] final  144.83 input  -57.11 | X-H torsion

> <Gold.Protein.ActiveResidues>
 VAL166  LYS551  ARG553  GLY616  TRP617  ASP618  TYR619  PRO620  LYS621  CYS622 
 ASP623  PHE694  ASN695  SER759  ASP760  ASP761  ALA762  ILE779  LEU786  VAL792 
 PHE793  MET794  SER795  GLU796  ALA797  LYS798  CYS799  TRP800  GLU811  SER814 

> <Gold.Protein.RotatedAtoms>
  151.7334  133.3318  159.3346 H   0  0  0  0  0  0  0  0  0  0  0  0  # atno 6907 bound_to 6896
  150.7603  134.6343  159.6212 H   0  0  0  0  0  0  0  0  0  0  0  0  # atno 6908 bound_to 6896
  152.3577  134.6919  160.0268 H   0  0  0  0  0  0  0  0  0  0  0  0  # atno 6909 bound_to 6896
  145.3318  139.2485  143.3656 H   0  0  0  0  0  0  0  0  0  0  0  0  # atno 7974 bound_to 7965
  155.4010  140.0506  157.3036 H   0  0  0  0  0  0  0  0  0  0  0  0  # atno 8008 bound_to 7997
  154.4991  140.2150  155.9345 H   0  0  0  0  0  0  0  0  0  0  0  0  # atno 8009 bound_to 7997
  156.1444  140.3148  155.8551 H   0  0  0  0  0  0  0  0  0  0  0  0  # atno 8010 bound_to 7997
  140.2354  143.3576  152.0849 H   0  0  0  0  0  0  0  0  0  0  0  0  # atno 10167 bound_to 10162
  156.5944  130.8784  151.2898 H   0  0  0  0  0  0  0  0  0  0  0  0  # atno 10718 bound_to 10713
  153.2188  135.6878  153.8025 H   0  0  0  0  0  0  0  0  0  0  0  0  # atno 10763 bound_to 10752
  153.7231  135.3264  155.3271 H   0  0  0  0  0  0  0  0  0  0  0  0  # atno 10764 bound_to 10752
  154.8259  135.4618  154.1027 H   0  0  0  0  0  0  0  0  0  0  0  0  # atno 10765 bound_to 10752
  140.0664  134.9176  157.1271 H   0  0  0  0  0  0  0  0  0  0  0  0  # atno 11005 bound_to 11000
  146.3042  140.3897  142.8693 LP  0  0  0  0  0  0  0  0  0  0  0  0  # atno 17320 bound_to 7965
  144.8858  140.7460  143.5958 LP  0  0  0  0  0  0  0  0  0  0  0  0  # atno 17321 bound_to 7965
  139.5095  144.6869  151.5864 LP  0  0  0  0  0  0  0  0  0  0  0  0  # atno 17342 bound_to 10162
  140.6153  143.9359  150.6484 LP  0  0  0  0  0  0  0  0  0  0  0  0  # atno 17343 bound_to 10162
  157.7295  130.9672  150.1792 LP  0  0  0  0  0  0  0  0  0  0  0  0  # atno 17370 bound_to 10713
  156.2522  130.3702  149.8220 LP  0  0  0  0  0  0  0  0  0  0  0  0  # atno 17371 bound_to 10713
  140.3693  134.2408  155.7179 LP  0  0  0  0  0  0  0  0  0  0  0  0  # atno 17394 bound_to 11000
  141.1994  133.8012  157.0537 LP  0  0  0  0  0  0  0  0  0  0  0  0  # atno 17395 bound_to 11000

$$$$
