AV-unprocessed.smi:2651|AV-procd|sdf|10292|dock5
  -GOLD-   2272014303D 1   1.00000     0.00000
 Structure written by MMmdl.
 43 44  0  0  0  0  0  0  0  0  1 V2000
  146.5936  134.2148  162.5194 C   0  0  0  0  0  0  0  0  0  0  0  0
  147.1793  135.1977  161.5647 C   0  0  0  0  0  0  0  0  0  0  0  0
  147.4889  135.1321  160.2354 C   0  0  0  0  0  0  0  0  0  0  0  0
  148.0191  136.4219  159.9668 C   0  0  0  0  0  0  0  0  0  0  0  0
  148.4740  136.7644  158.6683 N   0  0  0  0  0  0  0  0  0  0  0  0
  149.7391  136.9853  158.2736 C   0  0  0  0  0  0  0  0  0  0  0  0
  150.7260  136.9359  159.0076 O   0  0  0  0  0  0  0  0  0  0  0  0
  149.7872  137.2635  156.9600 N   0  0  0  0  0  0  0  0  0  0  0  0
  150.9570  137.5444  156.1136 C   0  0  1  0  0  0  0  0  0  0  0  0
  152.1945  136.7863  156.6583 C   0  0  0  0  0  0  0  0  0  0  0  0
  150.6728  137.0490  154.6649 C   0  0  0  0  0  0  0  0  0  0  0  0
  151.8077  137.1555  153.8287 O   0  0  0  0  0  0  0  0  0  0  0  0
  151.2004  139.0956  156.1581 C   0  0  0  0  0  0  0  0  0  0  0  0
  151.4580  139.6417  157.5893 C   0  0  0  0  0  0  0  0  0  0  0  0
  151.7370  141.1534  157.5968 C   0  0  0  0  0  0  0  0  0  0  0  0
  150.5910  141.9346  156.9429 C   0  0  0  0  0  0  0  0  0  0  0  0
  150.3379  141.4291  155.5175 C   0  0  0  0  0  0  0  0  0  0  0  0
  150.0573  139.9180  155.5021 C   0  0  0  0  0  0  0  0  0  0  0  0
  148.0268  137.2061  161.0337 N   0  0  0  0  0  0  0  0  0  0  0  0
  147.4888  136.4254  162.0634 O   0  0  0  0  0  0  0  0  0  0  0  0
  146.5843  133.2128  162.0900 H   0  0  0  0  0  0  0  0  0  0  0  0
  145.5681  134.4851  162.7708 H   0  0  0  0  0  0  0  0  0  0  0  0
  147.1717  134.1801  163.4432 H   0  0  0  0  0  0  0  0  0  0  0  0
  147.3596  134.2941  159.5670 H   0  0  0  0  0  0  0  0  0  0  0  0
  147.7598  136.8325  157.9587 H   0  0  0  0  0  0  0  0  0  0  0  0
  148.9025  137.2750  156.4740 H   0  0  0  0  0  0  0  0  0  0  0  0
  153.1106  137.1274  156.1751 H   0  0  0  0  0  0  0  0  0  0  0  0
  152.1253  135.7130  156.4800 H   0  0  0  0  0  0  0  0  0  0  0  0
  152.3180  136.9164  157.7331 H   0  0  0  0  0  0  0  0  0  0  0  0
  150.3622  136.0041  154.6599 H   0  0  0  0  0  0  0  0  0  0  0  0
  149.8531  137.6046  154.2093 H   0  0  0  0  0  0  0  0  0  0  0  0
  151.5236  137.0997  152.9291 H   0  0  0  0  0  0  0  0  0  0  0  0
  152.1066  139.3018  155.5867 H   0  0  0  0  0  0  0  0  0  0  0  0
  150.6029  139.4364  158.2338 H   0  0  0  0  0  0  0  0  0  0  0  0
  152.3125  139.1436  158.0450 H   0  0  0  0  0  0  0  0  0  0  0  0
  151.8834  141.4984  158.6207 H   0  0  0  0  0  0  0  0  0  0  0  0
  152.6685  141.3564  157.0668 H   0  0  0  0  0  0  0  0  0  0  0  0
  149.6839  141.8253  157.5390 H   0  0  0  0  0  0  0  0  0  0  0  0
  150.8261  142.9992  156.9258 H   0  0  0  0  0  0  0  0  0  0  0  0
  149.4971  141.9664  155.0780 H   0  0  0  0  0  0  0  0  0  0  0  0
  151.2043  141.6468  154.8917 H   0  0  0  0  0  0  0  0  0  0  0  0
  149.9108  139.6177  154.4656 H   0  0  0  0  0  0  0  0  0  0  0  0
  149.1135  139.7275  156.0137 H   0  0  0  0  0  0  0  0  0  0  0  0
  1  2  1  0  0  0  0
  1 21  1  0  0  0  0
  1 22  1  0  0  0  0
  1 23  1  0  0  0  0
  2 20  1  0  0  0  0
  2  3  2  0  0  0  0
  3  4  1  0  0  0  0
  3 24  1  0  0  0  0
  4  5  1  0  0  0  0
  4 19  2  0  0  0  0
  5  6  1  0  0  0  0
  5 25  1  0  0  0  0
  6  7  2  0  0  0  0
  6  8  1  0  0  0  0
  8  9  1  0  0  0  0
  8 26  1  0  0  0  0
  9 10  1  0  0  0  0
  9 11  1  0  0  0  0
  9 13  1  0  0  0  0
 10 27  1  0  0  0  0
 10 28  1  0  0  0  0
 10 29  1  0  0  0  0
 11 12  1  0  0  0  0
 11 30  1  0  0  0  0
 11 31  1  0  0  0  0
 12 32  1  0  0  0  0
 13 18  1  0  0  0  0
 13 14  1  0  0  0  0
 13 33  1  0  0  0  0
 14 15  1  0  0  0  0
 14 34  1  0  0  0  0
 14 35  1  0  0  0  0
 15 16  1  0  0  0  0
 15 36  1  0  0  0  0
 15 37  1  0  0  0  0
 16 17  1  0  0  0  0
 16 38  1  0  0  0  0
 16 39  1  0  0  0  0
 17 18  1  0  0  0  0
 17 40  1  0  0  0  0
 17 41  1  0  0  0  0
 18 42  1  0  0  0  0
 18 43  1  0  0  0  0
 19 20  1  0  0  0  0
M  END
> <s_m_source_file>
AV-unprocessed.smi

> <i_m_source_file_index>
2651

> <i_lp_mmshare_version>
43012

> <i_f3d_flags>
0

> <s_epik_input>
W0NIM11jMVtjSF1jKG5vMSlbTkhdQyg9TylbTkhdW0NAQF0oW0NIM10pKFtDSDJdW09IXSlbQ0hdMltDSDJdW0NIMl1bQ0gyXVtDSDJdW0NIMl0y

> <s_epik_cmdline>
J2VwaWtfcHl0aG9uJywgJy1waCcsICc3LjAnLCAnLXRuJywgJzgnLCAnLW1hJywgJzIwMCcsICctbWV0YWxfYmluZGluZycsICctaW1hZScsICc8aW5maWxlLm1hZT4nLCAnLW9tYWUnLCAnPG91dGZpbGUubWFlPic=

> <r_lp_tautomer_probability>
1

> <r_epik_Ionization_Penalty>
2.26451e-05

> <r_epik_Ionization_Penalty_Charging>
0

> <r_epik_Ionization_Penalty_Neutral>
2.26451e-05

> <r_epik_State_Penalty>
-0

> <r_epik_Charging_Adjusted_Penalty>
0

> <i_epik_Tot_Q>
0

> <i_epik_Tot_abs_Q>
0

> <r_epik_Metal_State_Penalty>
-0

> <b_epik_Metal_Only>
0

> <s_lp_Force_Field>
OPLS_2005

> <r_lp_Energy>
17.1045

> <b_lp_Chiralities_Consistent>
1

> <s_lp_Variant>
AV-unprocessed.smi:2651-1

> <Gold.Version>
5.8.1

> <Gold.Id.Protein>
6NUR|6NUR_protein|mol2

> <Gold.PLP.Fitness>
44.3052

> <Gold.PLP.PLP>
-32.6146

> <Gold.PLP.part.hbond>
-5.0000

> <Gold.PLP.part.metal>
0.0000

> <Gold.PLP.part.buried>
-5.1029

> <Gold.PLP.part.nonpolar>
-22.3587

> <Gold.PLP.part.repulsive>
0.1509

> <Gold.PLP.ligand.clash>
0.0000

> <Gold.PLP.ligand.torsion>
1.2795

> <Gold.PLP.Chemscore.Hbond>
4.7360

> <Gold.PLP.Chemscore.CHOScore>
0.0000

> <Gold.PLP.Chemscore.Metal>
0.0000

> <Gold.Chemscore.Hbonds>
donor molecule, donor type, donor heavy atom, donor atom, acceptor molecule, acceptor atom, score
      L1  H    12    32       P1  7949  0.93
      P1  H  6896  6908       L1     7  0.86
      P1  H  6931  6943       L1    19  0.96
      P1  H  6934  6947       L1    19  0.72
      P1  H 10752 10764       L1    12  1.00

> <Gold.PLP.Chemscore.Internal.Correction>
0.0417

> <Gold.Rescore>
     Score         DG    S(hbond)    S(metal)    S(lipo)     H(rot)  DE(clash)    DE(int)     intcor
     19.27     -22.07       4.26        0.00      65.95       2.09       0.00       2.80       ----

> <Gold.Chemscore.Fitness>
19.2706

> <Gold.Chemscore.DG>
-22.0657

> <Gold.Chemscore.ZeroCoef>
-5.4800

> <Gold.Chemscore.Hbond>
4.2602

> <Gold.Chemscore.Metal>
0.0000

> <Gold.Chemscore.Lipo>
65.9492

> <Gold.Chemscore.Internal_Hbond>
0.0000

> <Gold.Chemscore.DEClash>
0.0000

> <Gold.Chemscore.DEInternal>
2.7950

> <Gold.Chemscore.Rot>
2.0935

> <Gold.Chemscore.Internal.Correction>
   9.000000E+99

> <Gold.Chemscore.Hbonds>
donor molecule, donor type, donor heavy atom, donor atom, acceptor molecule, acceptor atom, score
      L1  H    12    32       P1  7949  0.84
      P1  H  6896  6908       L1     7  0.68
      P1  H  6931  6943       L1    19  0.32
      P1  H  6934  6947       L1    19  0.58
      P1  H 10752 10764       L1    12  0.41

> <Gold.Chemscore.Hbond.Weighted>
-14.2290

> <Gold.Chemscore.Metal.Weighted>
-0.0000

> <Gold.Chemscore.Lipo.Weighted>
-7.7161

> <Gold.Chemscore.Internal_Hbond.Weighted>
0.0000

> <Gold.Chemscore.DEClash.Weighted>
0.0000

> <Gold.Chemscore.DEInternal.Weighted>
2.7950

> <Gold.Chemscore.Rot.Weighted>
5.3594

> <Gold.Chemscore.Internal.Correction.Weighted>
   9.000000E+99

> <Gold.Protein.RotatedTorsions>
[ 6907 6896 6895 6894 ] final -155.20 input  -60.11 | X-H torsion
[ 7974 7965 7964 7962 ] final   79.54 input  175.53 | X-H torsion
[ 8008 7997 7996 7995 ] final   95.26 input   59.86 | X-H torsion
[ 10167 10162 10161 10158 ] final  -38.62 input  -65.29 | X-H torsion
[ 10718 10713 10712 10709 ] final   87.16 input   66.30 | X-H torsion
[ 10763 10752 10751 10750 ] final  -76.21 input  -60.55 | X-H torsion
[ 11005 11000 10999 10996 ] final   39.05 input  -57.11 | X-H torsion

> <Gold.Protein.ActiveResidues>
 VAL166  LYS551  ARG553  GLY616  TRP617  ASP618  TYR619  PRO620  LYS621  CYS622 
 ASP623  PHE694  ASN695  SER759  ASP760  ASP761  ALA762  ILE779  LEU786  VAL792 
 PHE793  MET794  SER795  GLU796  ALA797  LYS798  CYS799  TRP800  GLU811  SER814 

> <Gold.Protein.RotatedAtoms>
  151.2690  133.4265  159.2619 H   0  0  0  0  0  0  0  0  0  0  0  0  # atno 6907 bound_to 6896
  151.0462  134.9642  159.8198 H   0  0  0  0  0  0  0  0  0  0  0  0  # atno 6908 bound_to 6896
  152.5374  134.2646  159.9001 H   0  0  0  0  0  0  0  0  0  0  0  0  # atno 6909 bound_to 6896
  145.6629  139.2476  143.1912 H   0  0  0  0  0  0  0  0  0  0  0  0  # atno 7974 bound_to 7965
  156.0669  140.3289  155.7529 H   0  0  0  0  0  0  0  0  0  0  0  0  # atno 8008 bound_to 7997
  155.5367  140.0598  157.2895 H   0  0  0  0  0  0  0  0  0  0  0  0  # atno 8009 bound_to 7997
  154.4510  140.1918  156.0538 H   0  0  0  0  0  0  0  0  0  0  0  0  # atno 8010 bound_to 7997
  140.7087  143.3266  151.2666 H   0  0  0  0  0  0  0  0  0  0  0  0  # atno 10167 bound_to 10162
  157.6937  131.0244  150.3082 H   0  0  0  0  0  0  0  0  0  0  0  0  # atno 10718 bound_to 10713
  154.4968  135.5805  153.6501 H   0  0  0  0  0  0  0  0  0  0  0  0  # atno 10763 bound_to 10752
  152.9872  135.6126  154.3053 H   0  0  0  0  0  0  0  0  0  0  0  0  # atno 10764 bound_to 10752
  154.2958  135.2847  155.2613 H   0  0  0  0  0  0  0  0  0  0  0  0  # atno 10765 bound_to 10752
  140.2066  134.3806  155.8069 H   0  0  0  0  0  0  0  0  0  0  0  0  # atno 11005 bound_to 11000
  146.1110  140.7428  142.9503 LP  0  0  0  0  0  0  0  0  0  0  0  0  # atno 17320 bound_to 7965
  144.7083  140.3939  143.7101 LP  0  0  0  0  0  0  0  0  0  0  0  0  # atno 17321 bound_to 7965
  139.6736  143.9977  152.2767 LP  0  0  0  0  0  0  0  0  0  0  0  0  # atno 17342 bound_to 10162
  139.9584  144.6574  150.8103 LP  0  0  0  0  0  0  0  0  0  0  0  0  # atno 17343 bound_to 10162
  156.3587  130.3843  149.7269 LP  0  0  0  0  0  0  0  0  0  0  0  0  # atno 17370 bound_to 10713
  156.4722  130.8002  151.3019 LP  0  0  0  0  0  0  0  0  0  0  0  0  # atno 17371 bound_to 10713
  141.2227  133.7121  156.8347 LP  0  0  0  0  0  0  0  0  0  0  0  0  # atno 17394 bound_to 11000
  140.1996  134.8906  157.3154 LP  0  0  0  0  0  0  0  0  0  0  0  0  # atno 17395 bound_to 11000

$$$$
