#       Name:                AV-unprocessed.smi:2583
#       Creating user name   scv26
#       Creation time:       Fri Mar 27 14:15:10 2020


#       File generated by GOLD software.
#

@<TRIPOS>MOLECULE
AV-unprocessed.smi:2583
    58    60     1
SMALL
NO_CHARGES


@<TRIPOS>ATOM
      1 ****        -5.8424   6.2434   0.7451 C.3            1 S1                 0.0000
      2 ****        -5.8932   4.7896   0.3243 C.ar           1 S1                 0.0000
      3 ****        -7.0991   4.1974  -0.1038 C.ar           1 S1                 0.0000
      4 ****        -7.1972   2.9037  -0.4750 N.ar           1 S1                 0.0000
      5 ****        -6.0786   2.1489  -0.4380 C.ar           1 S1                 0.0000
      6 ****        -4.8158   2.6392  -0.0435 C.ar           1 S1                 0.0000
      7 ****        -3.7212   1.7326  -0.0336 N.am           1 S1                 0.0000
      8 ****        -2.4069   2.0109  -0.0753 C.2            1 S1                 0.0000
      9 ****        -1.9230   3.1371  -0.1853 O.2            1 S1                 0.0000
     10 ****        -1.6719   0.8909  -0.0035 N.am           1 S1                 0.0000
     11 ****        -0.2123   0.8274  -0.0299 C.3            1 S1                 0.0000
     12 ****         0.2674   0.1178  -1.3093 C.3            1 S1                 0.0000
     13 ****         1.7945  -0.0907  -1.2863 C.3            1 S1                 0.0000
     14 ****         2.2365  -0.8530  -0.0825 N.4            1 S1                 1.0000
     15 ****         1.8963  -2.3194  -0.0878 C.3            1 S1                 0.0000
     16 ****         2.4288  -3.0825   1.1496 C.3            1 S1                 0.0000
     17 ****         3.9671  -3.1562   1.1596 C.3            1 S1                 0.0000
     18 ****         4.4792  -3.8064  -0.0731 N.4            1 S1                 1.0000
     19 ****         5.9508  -3.9524  -0.0624 C.3            1 S1                 0.0000
     20 ****         3.9863  -3.1475  -1.3089 C.3            1 S1                 0.0000
     21 ****         2.4478  -3.0725  -1.3227 C.3            1 S1                 0.0000
     22 ****         1.8339  -0.1057   1.1439 C.3            1 S1                 0.0000
     23 ****         0.3080   0.0948   1.2198 C.3            1 S1                 0.0000
     24 ****        -4.7302   3.9943   0.3579 C.ar           1 S1                 0.0000
     25 ****        -6.8147   6.7238   0.6315 H              1 S1                 0.0000
     26 ****        -5.1197   6.7881   0.1372 H              1 S1                 0.0000
     27 ****        -5.5423   6.3234   1.7904 H              1 S1                 0.0000
     28 ****        -8.0124   4.7728  -0.1439 H              1 S1                 0.0000
     29 ****        -6.1962   1.1179  -0.7385 H              1 S1                 0.0000
     30 ****        -3.9712   0.7545  -0.0404 H              1 S1                 0.0000
     31 ****        -2.1632   0.0126   0.0777 H              1 S1                 0.0000
     32 ****         0.2123   1.8331  -0.0248 H              1 S1                 0.0000
     33 ****        -0.2390  -0.8410  -1.4243 H              1 S1                 0.0000
     34 ****        -0.0070   0.7104  -2.1830 H              1 S1                 0.0000
     35 ****         2.1396  -0.5436  -2.2128 H              1 S1                 0.0000
     36 ****         2.2806   0.8858  -1.2630 H              1 S1                 0.0000
     37 ****         0.8109  -2.4157  -0.0949 H              1 S1                 0.0000
     38 ****         2.0533  -2.6730   2.0855 H              1 S1                 0.0000
     39 ****         2.0366  -4.1004   1.1274 H              1 S1                 0.0000
     40 ****         4.3950  -2.1573   1.2557 H              1 S1                 0.0000
     41 ****         4.2974  -3.7254   2.0296 H              1 S1                 0.0000
     42 ****         6.4418  -2.9783  -0.0567 H              1 S1                 0.0000
     43 ****         6.2896  -4.5010  -0.9418 H              1 S1                 0.0000
     44 ****         6.2766  -4.5046   0.8198 H              1 S1                 0.0000
     45 ****         4.4158  -2.1480  -1.3916 H              1 S1                 0.0000
     46 ****         4.3296  -3.7107  -2.1775 H              1 S1                 0.0000
     47 ****         2.0543  -4.0903  -1.3157 H              1 S1                 0.0000
     48 ****         2.0897  -2.6542  -2.2611 H              1 S1                 0.0000
     49 ****         2.2142  -0.5656   2.0530 H              1 S1                 0.0000
     50 ****         2.3142   0.8734   1.1139 H              1 S1                 0.0000
     51 ****         0.0587   0.6696   2.1126 H              1 S1                 0.0000
     52 ****        -0.1907  -0.8686   1.3311 H              1 S1                 0.0000
     53 ****        -3.8059   4.4308   0.7031 H              1 S1                 0.0000
     54 ****         3.2456  -0.8176  -0.0978 H              1 S1                 0.0000
     55 ****         4.1022  -4.7438  -0.0793 H              1 S1                 0.0000
     56 ****        -8.0712   2.5163  -0.7683 LP             1 S1                 0.0000
     57 ****        -2.5226   3.9347  -0.2518 LP             1 S1                 0.0000
     58 ****        -0.9302   3.2547  -0.2082 LP             1 S1                 0.0000
@<TRIPOS>BOND
    1    1    2 1     
    2    1   25 1     
    3    1   26 1     
    4    1   27 1     
    5    2   24 ar    
    6    2    3 ar    
    7    3    4 ar    
    8    3   28 1     
    9    4    5 ar    
   10    5    6 ar    
   11    5   29 1     
   12    6    7 1     
   13    6   24 ar    
   14    7    8 am    
   15    7   30 1     
   16    8    9 2     
   17    8   10 am    
   18   10   11 1     
   19   10   31 1     
   20   11   23 1     
   21   11   12 1     
   22   11   32 1     
   23   12   13 1     
   24   12   33 1     
   25   12   34 1     
   26   13   14 1     
   27   13   35 1     
   28   13   36 1     
   29   14   15 1     
   30   14   22 1     
   31   14   54 1     
   32   15   21 1     
   33   15   16 1     
   34   15   37 1     
   35   16   17 1     
   36   16   38 1     
   37   16   39 1     
   38   17   18 1     
   39   17   40 1     
   40   17   41 1     
   41   18   19 1     
   42   18   20 1     
   43   18   55 1     
   44   19   42 1     
   45   19   43 1     
   46   19   44 1     
   47   20   21 1     
   48   20   45 1     
   49   20   46 1     
   50   21   47 1     
   51   21   48 1     
   52   22   23 1     
   53   22   49 1     
   54   22   50 1     
   55   23   51 1     
   56   23   52 1     
   57   24   53 1     
   58    4   56 1     
   59    9   57 1     
   60    9   58 1     
@<TRIPOS>SUBSTRUCTURE
      1 S1             1
@<TRIPOS>SET
LONE_PAIRS      STATIC     ATOMS    <user>   **** ""
3 56 57 58
DONOR_HYDROGENS      STATIC     ATOMS    <user>   **** ""
4 30 31 54 55
ATOM$BLUE        STATIC     ATOMS    COLORGROUP SYSTEM
3 56 57 58
ATOM$RED        STATIC     ATOMS    COLORGROUP SYSTEM
4 30 31 54 55
