AV-unprocessed.smi:2451|AV-procd|sdf|9679|dock3
  -GOLD-   2272013313D 1   1.00000     0.00000
 Structure written by MMmdl.
 37 38  0  0  0  0  0  0  0  0  2 V2000
  151.6342  144.2206  158.6068 C   0  0  0  0  0  0  0  0  0  0  0  0
  151.9648  142.9724  159.4476 C   0  0  2  0  0  0  0  0  0  0  0  0
  153.0324  143.3525  160.5032 C   0  0  0  0  0  0  0  0  0  0  0  0
  153.3936  142.1280  161.3607 C   0  0  0  0  0  0  0  0  0  0  0  0
  153.8646  140.9402  160.4956 C   0  0  0  0  0  0  0  0  0  0  0  0
  152.8258  140.5069  159.4329 C   0  0  2  0  0  0  0  0  0  0  0  0
  153.4130  139.4748  158.5885 N   0  5  0  0  0  0  0  0  0  0  0  0
  152.5573  138.1436  158.2306 S   0  0  0  0  0  0  0  0  0  0  0  0
  152.9348  136.9818  159.0528 O   0  0  0  0  0  0  0  0  0  0  0  0
  151.1203  138.4338  158.0982 O   0  0  0  0  0  0  0  0  0  0  0  0
  153.1584  137.7947  156.5192 C   0  0  0  0  0  0  0  0  0  0  0  0
  152.1579  138.2625  155.4969 C   0  0  0  0  0  0  0  0  0  0  0  0
  151.4737  137.4978  154.5109 C   0  0  0  0  0  0  0  0  0  0  0  0
  150.7036  138.4219  153.8663 C   0  0  0  0  0  0  0  0  0  0  0  0
  150.8986  139.6554  154.3961 O   0  0  0  0  0  0  0  0  0  0  0  0
  151.8309  139.5447  155.4338 N   0  0  0  0  0  0  0  0  0  0  0  0
  152.3861  141.7386  158.5707 C   0  0  1  0  0  0  0  0  0  0  0  0
  151.2647  141.3626  157.5656 C   0  0  0  0  0  0  0  0  0  0  0  0
  152.4628  144.4870  157.9501 H   0  0  0  0  0  0  0  0  0  0  0  0
  151.4301  145.0800  159.2459 H   0  0  0  0  0  0  0  0  0  0  0  0
  150.7476  144.0757  157.9911 H   0  0  0  0  0  0  0  0  0  0  0  0
  151.0540  142.7124  159.9915 H   0  0  0  0  0  0  0  0  0  0  0  0
  153.9287  143.7282  160.0078 H   0  0  0  0  0  0  0  0  0  0  0  0
  152.6682  144.1559  161.1443 H   0  0  0  0  0  0  0  0  0  0  0  0
  154.1817  142.3982  162.0641 H   0  0  0  0  0  0  0  0  0  0  0  0
  152.5357  141.8387  161.9713 H   0  0  0  0  0  0  0  0  0  0  0  0
  154.7985  141.2163  160.0032 H   0  0  0  0  0  0  0  0  0  0  0  0
  154.1037  140.0990  161.1469 H   0  0  0  0  0  0  0  0  0  0  0  0
  151.9412  140.1411  159.9566 H   0  0  0  0  0  0  0  0  0  0  0  0
  154.1073  138.3164  156.3952 H   0  0  0  0  0  0  0  0  0  0  0  0
  153.3598  136.7278  156.4280 H   0  0  0  0  0  0  0  0  0  0  0  0
  151.5342  136.4373  154.3156 H   0  0  0  0  0  0  0  0  0  0  0  0
  150.0011  138.3615  153.0485 H   0  0  0  0  0  0  0  0  0  0  0  0
  153.2534  142.0477  157.9842 H   0  0  0  0  0  0  0  0  0  0  0  0
  150.3271  141.1254  158.0715 H   0  0  0  0  0  0  0  0  0  0  0  0
  151.5235  140.5097  156.9352 H   0  0  0  0  0  0  0  0  0  0  0  0
  151.0617  142.1780  156.8729 H   0  0  0  0  0  0  0  0  0  0  0  0
  1  2  1  0  0  0  0
  1 19  1  0  0  0  0
  1 20  1  0  0  0  0
  1 21  1  0  0  0  0
  2 17  1  0  0  0  0
  2  3  1  0  0  0  0
  2 22  1  0  0  0  0
  3  4  1  0  0  0  0
  3 23  1  0  0  0  0
  3 24  1  0  0  0  0
  4  5  1  0  0  0  0
  4 25  1  0  0  0  0
  4 26  1  0  0  0  0
  5  6  1  0  0  0  0
  5 27  1  0  0  0  0
  5 28  1  0  0  0  0
  6  7  1  0  0  0  0
  6 17  1  0  0  0  0
  6 29  1  0  0  0  0
  7  8  1  0  0  0  0
  8  9  2  0  0  0  0
  8 10  2  0  0  0  0
  8 11  1  0  0  0  0
 11 12  1  0  0  0  0
 11 30  1  0  0  0  0
 11 31  1  0  0  0  0
 12 16  2  0  0  0  0
 12 13  1  0  0  0  0
 13 14  2  0  0  0  0
 13 32  1  0  0  0  0
 14 15  1  0  0  0  0
 14 33  1  0  0  0  0
 15 16  1  0  0  0  0
 17 18  1  0  0  0  0
 17 34  1  0  0  0  0
 18 35  1  0  0  0  0
 18 36  1  0  0  0  0
 18 37  1  0  0  0  0
M  CHG  1   7  -1
M  END
> <s_m_source_file>
AV-unprocessed.smi

> <i_m_source_file_index>
2451

> <i_lp_mmshare_version>
43012

> <i_f3d_flags>
0

> <s_epik_input>
W0NIM11bQ0BASF0xW0NIMl1bQ0gyXVtDSDJdW0NASF0oW0NASF0xW0NIM10pW05IXVMoPU8pKD1PKVtDSDJdYzJbY0hdW2NIXW9uMg==

> <s_epik_cmdline>
J2VwaWtfcHl0aG9uJywgJy1waCcsICc3LjAnLCAnLXRuJywgJzgnLCAnLW1hJywgJzIwMCcsICctbWV0YWxfYmluZGluZycsICctaW1hZScsICc8aW5maWxlLm1hZT4nLCAnLW9tYWUnLCAnPG91dGZpbGUubWFlPic=

> <r_lp_tautomer_probability>
1

> <r_epik_Ionization_Penalty>
5.22693

> <r_epik_Ionization_Penalty_Charging>
5.22693

> <r_epik_Ionization_Penalty_Neutral>
2.67702e-10

> <r_epik_State_Penalty>
5.22685

> <r_epik_Charging_Adjusted_Penalty>
10.4538

> <i_epik_Tot_Q>
-1

> <i_epik_Tot_abs_Q>
1

> <r_epik_Metal_State_Penalty>
1.28716

> <b_epik_Metal_Only>
1

> <s_lp_Force_Field>
OPLS_2005

> <r_lp_Energy>
12.9846

> <b_lp_Chiralities_Consistent>
1

> <s_lp_Variant>
AV-unprocessed.smi:2451-11

> <Gold.Version>
5.8.1

> <Gold.Id.Protein>
6NUR|6NUR_protein|mol2

> <Gold.PLP.Fitness>
49.2385

> <Gold.PLP.PLP>
-36.2199

> <Gold.PLP.part.hbond>
-2.4934

> <Gold.PLP.part.metal>
0.0000

> <Gold.PLP.part.buried>
-5.6648

> <Gold.PLP.part.nonpolar>
-27.8907

> <Gold.PLP.part.repulsive>
0.1313

> <Gold.PLP.ligand.clash>
0.0000

> <Gold.PLP.ligand.torsion>
1.1545

> <Gold.PLP.Chemscore.Hbond>
3.0000

> <Gold.PLP.Chemscore.CHOScore>
1.7779

> <Gold.PLP.Chemscore.Metal>
0.0000

> <Gold.Chemscore.Hbonds>
donor molecule, donor type, donor heavy atom, donor atom, acceptor molecule, acceptor atom, score
      P1  H  7989  7998       L1    15  1.00
      P1  H  7997  8010       L1     7  2.00
      L1  C    14    33       P1  7948  0.81
      L1  C    14    33       P1  7957  0.96

> <Gold.PLP.Chemscore.Internal.Correction>
0.9939

> <Gold.Rescore>
     Score         DG    S(hbond)    S(metal)    S(lipo)     H(rot)  DE(clash)    DE(int)     intcor
     19.00     -20.62       1.83        0.00     107.86       1.40       0.32       1.30       ----

> <Gold.Chemscore.Fitness>
18.9989

> <Gold.Chemscore.DG>
-20.6229

> <Gold.Chemscore.ZeroCoef>
-5.4800

> <Gold.Chemscore.Hbond>
1.8276

> <Gold.Chemscore.Metal>
0.0000

> <Gold.Chemscore.Lipo>
107.8557

> <Gold.Chemscore.Internal_Hbond>
0.0000

> <Gold.Chemscore.DEClash>
0.3237

> <Gold.Chemscore.DEInternal>
1.3003

> <Gold.Chemscore.Rot>
1.3986

> <Gold.Chemscore.Internal.Correction>
   9.000000E+99

> <Gold.Chemscore.Hbonds>
donor molecule, donor type, donor heavy atom, donor atom, acceptor molecule, acceptor atom, score
      P1  H  7989  7998       L1    15  0.25
      P1  H  7997  8010       L1     7  0.82

> <Gold.Chemscore.Hbond.Weighted>
-6.1042

> <Gold.Chemscore.Metal.Weighted>
-0.0000

> <Gold.Chemscore.Lipo.Weighted>
-12.6191

> <Gold.Chemscore.Internal_Hbond.Weighted>
0.0000

> <Gold.Chemscore.DEClash.Weighted>
0.3237

> <Gold.Chemscore.DEInternal.Weighted>
1.3003

> <Gold.Chemscore.Rot.Weighted>
3.5804

> <Gold.Chemscore.Internal.Correction.Weighted>
   9.000000E+99

> <Gold.Protein.RotatedTorsions>
[ 6907 6896 6895 6894 ] final  -31.59 input  -60.11 | X-H torsion
[ 7974 7965 7964 7962 ] final   48.00 input  175.53 | X-H torsion
[ 8008 7997 7996 7995 ] final   20.31 input   59.86 | X-H torsion
[ 10167 10162 10161 10158 ] final  170.43 input  -65.29 | X-H torsion
[ 10718 10713 10712 10709 ] final  -59.20 input   66.30 | X-H torsion
[ 10763 10752 10751 10750 ] final -128.80 input  -60.55 | X-H torsion
[ 11005 11000 10999 10996 ] final  -40.89 input  -57.11 | X-H torsion

> <Gold.Protein.ActiveResidues>
 VAL166  LYS551  ARG553  GLY616  TRP617  ASP618  TYR619  PRO620  LYS621  CYS622 
 ASP623  PHE694  ASN695  SER759  ASP760  ASP761  ALA762  ILE779  LEU786  VAL792 
 PHE793  MET794  SER795  GLU796  ALA797  LYS798  CYS799  TRP800  GLU811  SER814 

> <Gold.Protein.RotatedAtoms>
  151.0900  134.9910  159.8397 H   0  0  0  0  0  0  0  0  0  0  0  0  # atno 6907 bound_to 6896
  152.5428  134.2077  159.8747 H   0  0  0  0  0  0  0  0  0  0  0  0  # atno 6908 bound_to 6896
  151.2112  133.4511  159.2631 H   0  0  0  0  0  0  0  0  0  0  0  0  # atno 6909 bound_to 6896
  146.0245  139.4690  142.9876 H   0  0  0  0  0  0  0  0  0  0  0  0  # atno 7974 bound_to 7965
  154.9338  140.3044  155.5155 H   0  0  0  0  0  0  0  0  0  0  0  0  # atno 8008 bound_to 7997
  156.3001  140.2349  156.4337 H   0  0  0  0  0  0  0  0  0  0  0  0  # atno 8009 bound_to 7997
  154.8212  140.0423  157.1400 H   0  0  0  0  0  0  0  0  0  0  0  0  # atno 8010 bound_to 7997
  139.5018  144.3597  151.9838 H   0  0  0  0  0  0  0  0  0  0  0  0  # atno 10167 bound_to 10162
  156.1079  130.4178  150.0682 H   0  0  0  0  0  0  0  0  0  0  0  0  # atno 10718 bound_to 10713
  154.8757  135.3916  154.3817 H   0  0  0  0  0  0  0  0  0  0  0  0  # atno 10763 bound_to 10752
  153.4563  135.7029  153.6083 H   0  0  0  0  0  0  0  0  0  0  0  0  # atno 10764 bound_to 10752
  153.4601  135.3814  155.2301 H   0  0  0  0  0  0  0  0  0  0  0  0  # atno 10765 bound_to 10752
  141.0207  133.6864  156.2383 H   0  0  0  0  0  0  0  0  0  0  0  0  # atno 11005 bound_to 11000
  145.7139  141.0097  143.1438 LP  0  0  0  0  0  0  0  0  0  0  0  0  # atno 17320 bound_to 7965
  144.7004  139.8790  143.7446 LP  0  0  0  0  0  0  0  0  0  0  0  0  # atno 17321 bound_to 7965
  140.3033  144.3621  150.6054 LP  0  0  0  0  0  0  0  0  0  0  0  0  # atno 17342 bound_to 10162
  140.5856  143.2170  151.7348 LP  0  0  0  0  0  0  0  0  0  0  0  0  # atno 17343 bound_to 10162
  156.8653  130.9506  151.3614 LP  0  0  0  0  0  0  0  0  0  0  0  0  # atno 17370 bound_to 10713
  157.6257  130.8690  149.9186 LP  0  0  0  0  0  0  0  0  0  0  0  0  # atno 17371 bound_to 10713
  140.6577  134.5000  157.5581 LP  0  0  0  0  0  0  0  0  0  0  0  0  # atno 17394 bound_to 11000
  139.9144  134.8276  156.1415 LP  0  0  0  0  0  0  0  0  0  0  0  0  # atno 17395 bound_to 11000

$$$$
