AV-unprocessed.smi:648|AV-procd|sdf|3171|dock7
  -GOLD-   22720 0 93D 1   1.00000     0.00000
 Structure written by MMmdl.
 46 47  0  0  0  0  0  0  0  0  2 V2000
  141.6889  135.0447  153.3828 C   0  0  0  0  0  0  0  0  0  0  0  0
  143.1218  134.6745  152.9720 C   0  0  1  0  0  0  0  0  0  0  0  0
  143.1294  133.8823  151.6506 C   0  0  0  0  0  0  0  0  0  0  0  0
  144.5421  133.4598  151.1814 C   0  0  0  0  0  0  0  0  0  0  0  0
  145.0596  132.2592  152.0063 C   0  0  0  0  0  0  0  0  0  0  0  0
  144.4409  132.9708  149.7200 C   0  0  0  0  0  0  0  0  0  0  0  0
  145.5110  134.6803  151.2095 C   0  0  0  0  0  0  0  0  0  0  0  0
  145.4775  135.6128  152.4596 C   0  0  1  0  0  0  0  0  0  0  0  0
  146.2274  134.9645  153.6559 C   0  0  0  0  0  0  0  0  0  0  0  0
  147.5437  134.5809  153.3057 O   0  0  0  0  0  0  0  0  0  0  0  0
  146.2500  136.8515  152.1472 N   0  3  0  0  0  0  0  0  0  0  0  0
  146.4373  137.8740  153.2030 C   0  0  0  0  0  0  0  0  0  0  0  0
  146.8239  139.2247  152.5835 C   0  0  0  0  0  0  0  0  0  0  0  0
  147.8958  139.8686  153.3174 N   0  0  0  0  0  0  0  0  0  0  0  0
  149.1195  139.4380  153.6283 C   0  0  0  0  0  0  0  0  0  0  0  0
  149.8378  140.3168  154.3134 N   0  0  0  0  0  0  0  0  0  0  0  0
  148.9349  141.3391  154.3913 C   0  0  0  0  0  0  0  0  0  0  0  0
  147.7556  141.1223  153.8085 N   0  0  0  0  0  0  0  0  0  0  0  0
  144.0014  135.9313  152.8320 C   0  0  0  0  0  0  0  0  0  0  0  0
  141.2116  135.6813  152.6370 H   0  0  0  0  0  0  0  0  0  0  0  0
  141.6779  135.5788  154.3333 H   0  0  0  0  0  0  0  0  0  0  0  0
  141.0728  134.1529  153.5017 H   0  0  0  0  0  0  0  0  0  0  0  0
  143.5174  134.0447  153.7672 H   0  0  0  0  0  0  0  0  0  0  0  0
  142.4943  133.0001  151.7445 H   0  0  0  0  0  0  0  0  0  0  0  0
  142.6641  134.4997  150.8804 H   0  0  0  0  0  0  0  0  0  0  0  0
  146.1085  132.0510  151.7933 H   0  0  0  0  0  0  0  0  0  0  0  0
  144.4988  131.3543  151.7691 H   0  0  0  0  0  0  0  0  0  0  0  0
  144.9549  132.3907  153.0787 H   0  0  0  0  0  0  0  0  0  0  0  0
  145.4117  132.6494  149.3403 H   0  0  0  0  0  0  0  0  0  0  0  0
  144.0732  133.7531  149.0546 H   0  0  0  0  0  0  0  0  0  0  0  0
  143.7575  132.1259  149.6275 H   0  0  0  0  0  0  0  0  0  0  0  0
  146.5325  134.3434  151.0269 H   0  0  0  0  0  0  0  0  0  0  0  0
  145.2645  135.2841  150.3375 H   0  0  0  0  0  0  0  0  0  0  0  0
  146.3216  135.6309  154.5054 H   0  0  0  0  0  0  0  0  0  0  0  0
  145.6967  134.0797  154.0105 H   0  0  0  0  0  0  0  0  0  0  0  0
  147.9283  135.2681  152.7820 H   0  0  0  0  0  0  0  0  0  0  0  0
  147.1721  136.5566  151.8578 H   0  0  0  0  0  0  0  0  0  0  0  0
  145.5293  137.9923  153.7921 H   0  0  0  0  0  0  0  0  0  0  0  0
  147.2271  137.5551  153.8839 H   0  0  0  0  0  0  0  0  0  0  0  0
  147.1423  139.0920  151.5485 H   0  0  0  0  0  0  0  0  0  0  0  0
  145.9656  139.8981  152.5683 H   0  0  0  0  0  0  0  0  0  0  0  0
  149.4933  138.4636  153.3492 H   0  0  0  0  0  0  0  0  0  0  0  0
  149.1528  142.2709  154.8920 H   0  0  0  0  0  0  0  0  0  0  0  0
  143.5395  136.5468  152.0606 H   0  0  0  0  0  0  0  0  0  0  0  0
  143.9595  136.5215  153.7482 H   0  0  0  0  0  0  0  0  0  0  0  0
  145.8045  137.2930  151.3556 H   0  0  0  0  0  0  0  0  0  0  0  0
  1  2  1  0  0  0  0
  1 20  1  0  0  0  0
  1 21  1  0  0  0  0
  1 22  1  0  0  0  0
  2 19  1  0  0  0  0
  2  3  1  0  0  0  0
  2 23  1  0  0  0  0
  3  4  1  0  0  0  0
  3 24  1  0  0  0  0
  3 25  1  0  0  0  0
  4  5  1  0  0  0  0
  4  6  1  0  0  0  0
  4  7  1  0  0  0  0
  5 26  1  0  0  0  0
  5 27  1  0  0  0  0
  5 28  1  0  0  0  0
  6 29  1  0  0  0  0
  6 30  1  0  0  0  0
  6 31  1  0  0  0  0
  7  8  1  0  0  0  0
  7 32  1  0  0  0  0
  7 33  1  0  0  0  0
  8  9  1  0  0  0  0
  8 11  1  0  0  0  0
  8 19  1  0  0  0  0
  9 10  1  0  0  0  0
  9 34  1  0  0  0  0
  9 35  1  0  0  0  0
 10 36  1  0  0  0  0
 11 12  1  0  0  0  0
 11 37  1  0  0  0  0
 11 46  1  0  0  0  0
 12 13  1  0  0  0  0
 12 38  1  0  0  0  0
 12 39  1  0  0  0  0
 13 14  1  0  0  0  0
 13 40  1  0  0  0  0
 13 41  1  0  0  0  0
 14 18  1  0  0  0  0
 14 15  1  0  0  0  0
 15 16  2  0  0  0  0
 15 42  1  0  0  0  0
 16 17  1  0  0  0  0
 17 18  2  0  0  0  0
 17 43  1  0  0  0  0
 19 44  1  0  0  0  0
 19 45  1  0  0  0  0
M  CHG  1  11   1
M  END
> <s_m_source_file>
AV-unprocessed.smi

> <i_m_source_file_index>
648

> <i_lp_mmshare_version>
43012

> <i_f3d_flags>
0

> <s_epik_input>
W0NIM11DMShbQ0gzXSlbQ0gyXVtDQEBIXShbQ0gzXSlbQ0gyXVtDQF0oW0NIMl0xKShbQ0gyXVtPSF0pW05IXVtDSDJdW0NIMl1uMltjSF1uW2NIXW4y

> <s_epik_cmdline>
J2VwaWtfcHl0aG9uJywgJy1waCcsICc3LjAnLCAnLXRuJywgJzgnLCAnLW1hJywgJzIwMCcsICctbWV0YWxfYmluZGluZycsICctaW1hZScsICc8aW5maWxlLm1hZT4nLCAnLW9tYWUnLCAnPG91dGZpbGUubWFlPic=

> <r_lp_tautomer_probability>
1

> <r_epik_Ionization_Penalty>
0.00942316

> <r_epik_Ionization_Penalty_Charging>
0.00942185

> <r_epik_Ionization_Penalty_Neutral>
1.31257e-06

> <r_epik_State_Penalty>
0.00715409

> <r_epik_Charging_Adjusted_Penalty>
0.0165759

> <i_epik_Tot_Q>
1

> <i_epik_Tot_abs_Q>
1

> <r_epik_Metal_State_Penalty>
0.00715563

> <b_epik_Metal_Only>
0

> <s_lp_Force_Field>
OPLS_2005

> <r_lp_Energy>
31.5534

> <b_lp_Chiralities_Consistent>
1

> <s_lp_Variant>
AV-unprocessed.smi:648-2

> <Gold.Version>
5.8.1

> <Gold.Id.Protein>
6NUR|6NUR_protein|mol2

> <Gold.PLP.Fitness>
45.5759

> <Gold.PLP.PLP>
-30.3977

> <Gold.PLP.part.hbond>
-3.0000

> <Gold.PLP.part.metal>
0.0000

> <Gold.PLP.part.buried>
2.9890

> <Gold.PLP.part.nonpolar>
-30.3892

> <Gold.PLP.part.repulsive>
0.3248

> <Gold.PLP.ligand.clash>
0.0000

> <Gold.PLP.ligand.torsion>
0.4340

> <Gold.PLP.Chemscore.Hbond>
3.8564

> <Gold.PLP.Chemscore.CHOScore>
1.4826

> <Gold.PLP.Chemscore.Metal>
0.0000

> <Gold.Chemscore.Hbonds>
donor molecule, donor type, donor heavy atom, donor atom, acceptor molecule, acceptor atom, score
      L1  H    10    36       P1  7948  1.00
      L1  H    11    37       P1  7948  2.00
      P1  H  7989  7998       L1    16  0.86
      L1  C    15    42       P1  7948  0.58
      L1  C    17    43       P1  8028  0.90

> <Gold.PLP.Chemscore.Internal.Correction>
0.0291

> <Gold.Rescore>
     Score         DG    S(hbond)    S(metal)    S(lipo)     H(rot)  DE(clash)    DE(int)     intcor
     11.17     -13.41       2.65        0.00      61.75       3.17       1.82       0.42       ----

> <Gold.Chemscore.Fitness>
11.1680

> <Gold.Chemscore.DG>
-13.4134

> <Gold.Chemscore.ZeroCoef>
-5.4800

> <Gold.Chemscore.Hbond>
2.6457

> <Gold.Chemscore.Metal>
0.0000

> <Gold.Chemscore.Lipo>
61.7489

> <Gold.Chemscore.Internal_Hbond>
0.0000

> <Gold.Chemscore.DEClash>
1.8204

> <Gold.Chemscore.DEInternal>
0.4250

> <Gold.Chemscore.Rot>
3.1750

> <Gold.Chemscore.Internal.Correction>
   9.000000E+99

> <Gold.Chemscore.Hbonds>
donor molecule, donor type, donor heavy atom, donor atom, acceptor molecule, acceptor atom, score
      L1  H    10    36       P1  7948  0.99
      L1  H    11    37       P1  7948  1.00
      P1  H  7989  7998       L1    16  0.62

> <Gold.Chemscore.Hbond.Weighted>
-8.8367

> <Gold.Chemscore.Metal.Weighted>
-0.0000

> <Gold.Chemscore.Lipo.Weighted>
-7.2246

> <Gold.Chemscore.Internal_Hbond.Weighted>
0.0000

> <Gold.Chemscore.DEClash.Weighted>
1.8204

> <Gold.Chemscore.DEInternal.Weighted>
0.4250

> <Gold.Chemscore.Rot.Weighted>
8.1279

> <Gold.Chemscore.Internal.Correction.Weighted>
   9.000000E+99

> <Gold.Protein.RotatedTorsions>
[ 6907 6896 6895 6894 ] final  -57.33 input  -60.11 | X-H torsion
[ 7974 7965 7964 7962 ] final -118.64 input  175.53 | X-H torsion
[ 8008 7997 7996 7995 ] final  -65.74 input   59.86 | X-H torsion
[ 10167 10162 10161 10158 ] final   80.66 input  -65.29 | X-H torsion
[ 10718 10713 10712 10709 ] final  101.04 input   66.30 | X-H torsion
[ 10763 10752 10751 10750 ] final -119.82 input  -60.55 | X-H torsion
[ 11005 11000 10999 10996 ] final  160.46 input  -57.11 | X-H torsion

> <Gold.Protein.ActiveResidues>
 VAL166  LYS551  ARG553  GLY616  TRP617  ASP618  TYR619  PRO620  LYS621  CYS622 
 ASP623  PHE694  ASN695  SER759  ASP760  ASP761  ALA762  ILE779  LEU786  VAL792 
 PHE793  MET794  SER795  GLU796  ALA797  LYS798  CYS799  TRP800  GLU811  SER814 

> <Gold.Protein.RotatedAtoms>
  150.8095  134.7241  159.6674 H   0  0  0  0  0  0  0  0  0  0  0  0  # atno 6907 bound_to 6896
  152.4215  134.5944  159.9992 H   0  0  0  0  0  0  0  0  0  0  0  0  # atno 6908 bound_to 6896
  151.6158  133.3306  159.3113 H   0  0  0  0  0  0  0  0  0  0  0  0  # atno 6909 bound_to 6896
  145.0715  140.8362  143.4093 H   0  0  0  0  0  0  0  0  0  0  0  0  # atno 7974 bound_to 7965
  154.4691  140.0927  156.7097 H   0  0  0  0  0  0  0  0  0  0  0  0  # atno 8008 bound_to 7997
  155.4775  140.3466  155.4316 H   0  0  0  0  0  0  0  0  0  0  0  0  # atno 8009 bound_to 7997
  156.1007  140.1421  156.9459 H   0  0  0  0  0  0  0  0  0  0  0  0  # atno 8010 bound_to 7997
  139.9474  144.6049  150.8193 H   0  0  0  0  0  0  0  0  0  0  0  0  # atno 10167 bound_to 10162
  157.6839  131.0715  150.5193 H   0  0  0  0  0  0  0  0  0  0  0  0  # atno 10718 bound_to 10713
  154.8628  135.4224  154.2361 H   0  0  0  0  0  0  0  0  0  0  0  0  # atno 10763 bound_to 10752
  153.3336  135.6989  153.6932 H   0  0  0  0  0  0  0  0  0  0  0  0  # atno 10764 bound_to 10752
  153.5939  135.3549  155.2894 H   0  0  0  0  0  0  0  0  0  0  0  0  # atno 10765 bound_to 10752
  140.2062  134.8301  157.3072 H   0  0  0  0  0  0  0  0  0  0  0  0  # atno 11005 bound_to 11000
  145.1286  139.2646  143.5551 LP  0  0  0  0  0  0  0  0  0  0  0  0  # atno 17320 bound_to 7965
  146.3529  140.0931  142.8611 LP  0  0  0  0  0  0  0  0  0  0  0  0  # atno 17321 bound_to 7965
  140.7593  143.3126  151.2809 LP  0  0  0  0  0  0  0  0  0  0  0  0  # atno 17342 bound_to 10162
  139.6655  144.0112  152.2720 LP  0  0  0  0  0  0  0  0  0  0  0  0  # atno 17343 bound_to 10162
  156.5507  130.4231  149.6109 LP  0  0  0  0  0  0  0  0  0  0  0  0  # atno 17370 bound_to 10713
  156.2905  130.7121  151.1969 LP  0  0  0  0  0  0  0  0  0  0  0  0  # atno 17371 bound_to 10713
  140.2000  134.4266  155.7668 LP  0  0  0  0  0  0  0  0  0  0  0  0  # atno 17394 bound_to 11000
  141.2227  133.7067  156.8168 LP  0  0  0  0  0  0  0  0  0  0  0  0  # atno 17395 bound_to 11000

$$$$
