AV-unprocessed.smi:1583|AV-procd|sdf|6364|dock4
  -GOLD-   22720 6593D 1   1.00000     0.00000
 Structure written by MMmdl.
 37 38  0  0  0  0  0  0  0  0  2 V2000
  147.0999  139.2670  152.9503 C   0  0  0  0  0  0  0  0  0  0  0  0
  147.6744  139.6462  154.2320 N   0  0  0  0  0  0  0  0  0  0  0  0
  148.4340  140.7342  154.4254 C   0  0  0  0  0  0  0  0  0  0  0  0
  148.7242  141.5263  153.5292 O   0  0  0  0  0  0  0  0  0  0  0  0
  148.9546  140.9605  155.8422 C   0  0  0  0  0  0  0  0  0  0  0  0
  150.7654  141.0387  155.9152 S   0  0  0  0  0  0  0  0  0  0  0  0
  151.1398  142.0981  157.2753 C   0  0  0  0  0  0  0  0  0  0  0  0
  150.8917  143.4356  157.3413 N   0  3  0  0  0  0  0  0  0  0  0  0
  151.3354  143.9322  158.5678 C   0  0  0  0  0  0  0  0  0  0  0  0
  151.3060  145.2200  159.0939 C   0  0  0  0  0  0  0  0  0  0  0  0
  151.8501  145.3889  160.3842 C   0  0  0  0  0  0  0  0  0  0  0  0
  152.3949  144.3028  161.1000 C   0  0  0  0  0  0  0  0  0  0  0  0
  152.4186  143.0012  160.5570 C   0  0  0  0  0  0  0  0  0  0  0  0
  151.8780  142.8426  159.2814 C   0  0  0  0  0  0  0  0  0  0  0  0
  151.7326  141.7302  158.4458 N   0  0  0  0  0  0  0  0  0  0  0  0
  152.2135  140.4187  158.9026 C   0  0  0  0  0  0  0  0  0  0  0  0
  153.6482  140.4818  159.4461 C   0  0  0  0  0  0  0  0  0  0  0  0
  154.3995  139.3936  158.9329 O   0  0  0  0  0  0  0  0  0  0  0  0
  153.8827  138.1385  159.3379 C   0  0  0  0  0  0  0  0  0  0  0  0
  146.5118  138.3558  153.0611 H   0  0  0  0  0  0  0  0  0  0  0  0
  147.8831  139.0804  152.2142 H   0  0  0  0  0  0  0  0  0  0  0  0
  146.4443  140.0518  152.5705 H   0  0  0  0  0  0  0  0  0  0  0  0
  147.4798  139.0471  155.0216 H   0  0  0  0  0  0  0  0  0  0  0  0
  148.5391  141.8886  156.2361 H   0  0  0  0  0  0  0  0  0  0  0  0
  148.6089  140.1537  156.4895 H   0  0  0  0  0  0  0  0  0  0  0  0
  150.8902  146.0540  158.5474 H   0  0  0  0  0  0  0  0  0  0  0  0
  151.8502  146.3714  160.8337 H   0  0  0  0  0  0  0  0  0  0  0  0
  152.8036  144.4713  162.0859 H   0  0  0  0  0  0  0  0  0  0  0  0
  152.8395  142.1761  161.1126 H   0  0  0  0  0  0  0  0  0  0  0  0
  151.5250  140.0313  159.6541 H   0  0  0  0  0  0  0  0  0  0  0  0
  152.1652  139.7323  158.0569 H   0  0  0  0  0  0  0  0  0  0  0  0
  154.1166  141.4242  159.1587 H   0  0  0  0  0  0  0  0  0  0  0  0
  153.6313  140.4459  160.5362 H   0  0  0  0  0  0  0  0  0  0  0  0
  154.4944  137.3387  158.9205 H   0  0  0  0  0  0  0  0  0  0  0  0
  152.8604  138.0002  158.9839 H   0  0  0  0  0  0  0  0  0  0  0  0
  153.8940  138.0391  160.4241 H   0  0  0  0  0  0  0  0  0  0  0  0
  150.4534  143.9670  156.6004 H   0  0  0  0  0  0  0  0  0  0  0  0
  1  2  1  0  0  0  0
  1 20  1  0  0  0  0
  1 21  1  0  0  0  0
  1 22  1  0  0  0  0
  2  3  1  0  0  0  0
  2 23  1  0  0  0  0
  3  4  2  0  0  0  0
  3  5  1  0  0  0  0
  5  6  1  0  0  0  0
  5 24  1  0  0  0  0
  5 25  1  0  0  0  0
  6  7  1  0  0  0  0
  7 15  1  0  0  0  0
  7  8  2  0  0  0  0
  8  9  1  0  0  0  0
  8 37  1  0  0  0  0
  9 14  2  0  0  0  0
  9 10  1  0  0  0  0
 10 11  2  0  0  0  0
 10 26  1  0  0  0  0
 11 12  1  0  0  0  0
 11 27  1  0  0  0  0
 12 13  2  0  0  0  0
 12 28  1  0  0  0  0
 13 14  1  0  0  0  0
 13 29  1  0  0  0  0
 14 15  1  0  0  0  0
 15 16  1  0  0  0  0
 16 17  1  0  0  0  0
 16 30  1  0  0  0  0
 16 31  1  0  0  0  0
 17 18  1  0  0  0  0
 17 32  1  0  0  0  0
 17 33  1  0  0  0  0
 18 19  1  0  0  0  0
 19 34  1  0  0  0  0
 19 35  1  0  0  0  0
 19 36  1  0  0  0  0
M  CHG  1   8   1
M  END
> <s_m_source_file>
AV-unprocessed.smi

> <i_m_source_file_index>
1583

> <i_lp_mmshare_version>
43012

> <i_f3d_flags>
0

> <s_epik_input>
W0NIM11bTkhdQyg9TylbQ0gyXVNjKG4xKW4oW0NIMl1bQ0gyXU9bQ0gzXSljKGMxMilbY0hdW2NIXVtjSF1bY0hdMg==

> <s_epik_cmdline>
J2VwaWtfcHl0aG9uJywgJy1waCcsICc3LjAnLCAnLXRuJywgJzgnLCAnLW1hJywgJzIwMCcsICctbWV0YWxfYmluZGluZycsICctaW1hZScsICc8aW5maWxlLm1hZT4nLCAnLW9tYWUnLCAnPG91dGZpbGUubWFlPic=

> <r_epik_Ionization_Penalty>
1.68337

> <r_epik_Ionization_Penalty_Charging>
1.68337

> <r_epik_Ionization_Penalty_Neutral>
1.65978e-07

> <r_epik_State_Penalty>
1.78799

> <r_epik_Charging_Adjusted_Penalty>
3.47136

> <i_epik_Tot_Q>
1

> <i_epik_Tot_abs_Q>
1

> <r_epik_Metal_State_Penalty>
1.82204

> <b_epik_Metal_Only>
0

> <s_lp_Force_Field>
OPLS_2005

> <r_lp_Energy>
8.62321

> <b_lp_Chiralities_Consistent>
1

> <s_lp_Variant>
AV-unprocessed.smi:1583-2

> <Gold.Version>
5.8.1

> <Gold.Id.Protein>
6NUR|6NUR_protein|mol2

> <Gold.PLP.Fitness>
51.7460

> <Gold.PLP.PLP>
-41.7733

> <Gold.PLP.part.hbond>
-3.0000

> <Gold.PLP.part.metal>
0.0000

> <Gold.PLP.part.buried>
-5.3603

> <Gold.PLP.part.nonpolar>
-33.7671

> <Gold.PLP.part.repulsive>
1.4643

> <Gold.PLP.ligand.clash>
0.0000

> <Gold.PLP.ligand.torsion>
0.6623

> <Gold.PLP.Chemscore.Hbond>
3.7520

> <Gold.PLP.Chemscore.CHOScore>
0.0000

> <Gold.PLP.Chemscore.Metal>
0.0000

> <Gold.Chemscore.Hbonds>
donor molecule, donor type, donor heavy atom, donor atom, acceptor molecule, acceptor atom, score
      L1  H     8    37       P1  8028  2.00
      P1  H  7997  8010       L1    18  1.00
      P1  H  8011  8017       L1     4  0.75

> <Gold.PLP.Chemscore.Internal.Correction>
0.0412

> <Gold.Rescore>
     Score         DG    S(hbond)    S(metal)    S(lipo)     H(rot)  DE(clash)    DE(int)     intcor
     18.28     -20.36       2.42        0.00     107.44       2.25       0.65       1.43       ----

> <Gold.Chemscore.Fitness>
18.2812

> <Gold.Chemscore.DG>
-20.3585

> <Gold.Chemscore.ZeroCoef>
-5.4800

> <Gold.Chemscore.Hbond>
2.4191

> <Gold.Chemscore.Metal>
0.0000

> <Gold.Chemscore.Lipo>
107.4407

> <Gold.Chemscore.Internal_Hbond>
0.0000

> <Gold.Chemscore.DEClash>
0.6519

> <Gold.Chemscore.DEInternal>
1.4254

> <Gold.Chemscore.Rot>
2.2546

> <Gold.Chemscore.Internal.Correction>
   9.000000E+99

> <Gold.Chemscore.Hbonds>
donor molecule, donor type, donor heavy atom, donor atom, acceptor molecule, acceptor atom, score
      L1  H     8    37       P1  8028  0.96
      P1  H  7997  8010       L1    18  0.58
      P1  H  8011  8017       L1     4  0.76

> <Gold.Chemscore.Hbond.Weighted>
-8.0798

> <Gold.Chemscore.Metal.Weighted>
-0.0000

> <Gold.Chemscore.Lipo.Weighted>
-12.5706

> <Gold.Chemscore.Internal_Hbond.Weighted>
0.0000

> <Gold.Chemscore.DEClash.Weighted>
0.6519

> <Gold.Chemscore.DEInternal.Weighted>
1.4254

> <Gold.Chemscore.Rot.Weighted>
5.7719

> <Gold.Chemscore.Internal.Correction.Weighted>
   9.000000E+99

> <Gold.Protein.RotatedTorsions>
[ 6907 6896 6895 6894 ] final   34.29 input  -60.11 | X-H torsion
[ 7974 7965 7964 7962 ] final -112.25 input  175.53 | X-H torsion
[ 8008 7997 7996 7995 ] final  -11.17 input   59.86 | X-H torsion
[ 10167 10162 10161 10158 ] final  131.13 input  -65.29 | X-H torsion
[ 10718 10713 10712 10709 ] final  -53.24 input   66.30 | X-H torsion
[ 10763 10752 10751 10750 ] final   77.03 input  -60.55 | X-H torsion
[ 11005 11000 10999 10996 ] final  135.11 input  -57.11 | X-H torsion

> <Gold.Protein.ActiveResidues>
 VAL166  LYS551  ARG553  GLY616  TRP617  ASP618  TYR619  PRO620  LYS621  CYS622 
 ASP623  PHE694  ASN695  SER759  ASP760  ASP761  ALA762  ILE779  LEU786  VAL792 
 PHE793  MET794  SER795  GLU796  ALA797  LYS798  CYS799  TRP800  GLU811  SER814 

> <Gold.Protein.RotatedAtoms>
  152.1004  134.9345  160.0569 H   0  0  0  0  0  0  0  0  0  0  0  0  # atno 6907 bound_to 6896
  152.0562  133.4036  159.4406 H   0  0  0  0  0  0  0  0  0  0  0  0  # atno 6908 bound_to 6896
  150.6839  134.3172  159.4815 H   0  0  0  0  0  0  0  0  0  0  0  0  # atno 6909 bound_to 6896
  145.1463  140.8805  143.3673 H   0  0  0  0  0  0  0  0  0  0  0  0  # atno 7974 bound_to 7965
  154.5488  140.2309  155.8518 H   0  0  0  0  0  0  0  0  0  0  0  0  # atno 8008 bound_to 7997
  156.1928  140.3073  155.9327 H   0  0  0  0  0  0  0  0  0  0  0  0  # atno 8009 bound_to 7997
  155.3111  140.0436  157.3025 H   0  0  0  0  0  0  0  0  0  0  0  0  # atno 8010 bound_to 7997
  139.5398  144.6719  151.4663 H   0  0  0  0  0  0  0  0  0  0  0  0  # atno 10167 bound_to 10162
  156.1552  130.4150  149.9881 H   0  0  0  0  0  0  0  0  0  0  0  0  # atno 10718 bound_to 10713
  153.0768  135.4929  154.8421 H   0  0  0  0  0  0  0  0  0  0  0  0  # atno 10763 bound_to 10752
  154.7098  135.3018  154.9217 H   0  0  0  0  0  0  0  0  0  0  0  0  # atno 10764 bound_to 10752
  153.9914  135.6777  153.4807 H   0  0  0  0  0  0  0  0  0  0  0  0  # atno 10765 bound_to 10752
  139.9958  134.9497  156.9962 H   0  0  0  0  0  0  0  0  0  0  0  0  # atno 11005 bound_to 11000
  145.0479  139.3206  143.5944 LP  0  0  0  0  0  0  0  0  0  0  0  0  # atno 17320 bound_to 7965
  146.3500  139.9876  142.8689 LP  0  0  0  0  0  0  0  0  0  0  0  0  # atno 17321 bound_to 7965
  140.6622  143.8473  150.6901 LP  0  0  0  0  0  0  0  0  0  0  0  0  # atno 17342 bound_to 10162
  140.1871  143.4066  152.1890 LP  0  0  0  0  0  0  0  0  0  0  0  0  # atno 17343 bound_to 10162
  156.7726  130.9192  151.3644 LP  0  0  0  0  0  0  0  0  0  0  0  0  # atno 17370 bound_to 10713
  157.6689  130.9033  149.9995 LP  0  0  0  0  0  0  0  0  0  0  0  0  # atno 17371 bound_to 10713
  140.4820  134.1280  155.7218 LP  0  0  0  0  0  0  0  0  0  0  0  0  # atno 17394 bound_to 11000
  141.1603  133.8805  157.1865 LP  0  0  0  0  0  0  0  0  0  0  0  0  # atno 17395 bound_to 11000

$$$$
