#       Name:                AV-unprocessed.smi:526
#       Creating user name   scv26
#       Creation time:       Thu Mar 26 23:29:33 2020


#       File generated by GOLD software.
#

@<TRIPOS>MOLECULE
AV-unprocessed.smi:526
    37    37     1
SMALL
NO_CHARGES


@<TRIPOS>ATOM
      1 ****        -2.4388   1.1549  -2.4027 C.2            1 S1                 0.0000
      2 ****        -3.0690   1.2377  -1.2193 C.2            1 S1                 0.0000
      3 ****        -4.2941   0.4000  -0.9047 C.3            1 S1                 0.0000
      4 ****        -2.5992   2.1738  -0.1171 C.3            1 S1                 0.0000
      5 ****        -2.0133   1.3051   1.3734 S.3            1 S1                 0.0000
      6 ****        -0.3760   0.6705   0.9521 C.2            1 S1                 0.0000
      7 ****         0.2005  -0.0681   1.8201 N.2            1 S1                 0.0000
      8 ****         1.4710  -0.6015   1.5441 C.2            1 S1                 0.0000
      9 ****         2.0796  -1.4617   2.6376 C.3            1 S1                 0.0000
     10 ****         2.1009  -0.3503   0.3606 C.2            1 S1                 0.0000
     11 ****         3.4885  -0.8989   0.0161 C.3            1 S1                 0.0000
     12 ****         3.5095  -2.3476  -0.4871 C.2            1 S1                 0.0000
     13 ****         4.6298  -2.9013  -0.5388 O.co2          1 S1                 0.0000
     14 ****         2.4271  -2.8836  -0.8136 O.co2          1 S1                -1.0000
     15 ****         1.4029   0.5062  -0.6150 C.2            1 S1                 0.0000
     16 ****         1.9168   0.7586  -1.7042 O.2            1 S1                 0.0000
     17 ****         0.1821   1.0011  -0.2624 N.pl3          1 S1                -1.0000
     18 ****        -2.7819   0.4854  -3.1772 H              1 S1                 0.0000
     19 ****        -1.5653   1.7550  -2.6131 H              1 S1                 0.0000
     20 ****        -4.0937  -0.2741  -0.0719 H              1 S1                 0.0000
     21 ****        -4.5921  -0.2045  -1.7619 H              1 S1                 0.0000
     22 ****        -5.1327   1.0418  -0.6339 H              1 S1                 0.0000
     23 ****        -1.8209   2.8452  -0.4812 H              1 S1                 0.0000
     24 ****        -3.4376   2.8086   0.1692 H              1 S1                 0.0000
     25 ****         3.0030  -1.0153   3.0061 H              1 S1                 0.0000
     26 ****         2.3016  -2.4599   2.2602 H              1 S1                 0.0000
     27 ****         1.3980  -1.5679   3.4820 H              1 S1                 0.0000
     28 ****         3.9845  -0.2682  -0.7222 H              1 S1                 0.0000
     29 ****         4.1176  -0.8402   0.9043 H              1 S1                 0.0000
     30 ****        -0.2495  -0.2657   2.6910 LP             1 S1                 0.0000
     31 ****         4.7068  -3.8450  -0.8607 LP             1 S1                 0.0000
     32 ****         5.4486  -2.4004  -0.2582 LP             1 S1                 0.0000
     33 ****         2.4165  -3.8266  -1.1464 LP             1 S1                 0.0000
     34 ****         1.5727  -2.3691  -0.7417 LP             1 S1                 0.0000
     35 ****         2.8145   0.3817  -1.9329 LP             1 S1                 0.0000
     36 ****         1.4369   1.3405  -2.3607 LP             1 S1                 0.0000
     37 ****        -0.3096   1.6064  -0.8883 LP             1 S1                 0.0000
@<TRIPOS>BOND
    1    1    2 2     
    2    1   18 1     
    3    1   19 1     
    4    2    3 1     
    5    2    4 1     
    6    3   20 1     
    7    3   21 1     
    8    3   22 1     
    9    4    5 1     
   10    4   23 1     
   11    4   24 1     
   12    5    6 1     
   13    6   17 1     
   14    6    7 2     
   15    7    8 1     
   16    8    9 1     
   17    8   10 2     
   18    9   25 1     
   19    9   26 1     
   20    9   27 1     
   21   10   11 1     
   22   10   15 1     
   23   11   12 1     
   24   11   28 1     
   25   11   29 1     
   26   12   13 ar    
   27   12   14 ar    
   28   15   16 2     
   29   15   17 1     
   30    7   30 1     
   31   13   31 1     
   32   13   32 1     
   33   14   33 1     
   34   14   34 1     
   35   16   35 1     
   36   16   36 1     
   37   17   37 1     
@<TRIPOS>SUBSTRUCTURE
      1 S1             1
@<TRIPOS>SET
LONE_PAIRS      STATIC     ATOMS    <user>   **** ""
8 30 31 32 33 34 35 36 37
ATOM$BLUE        STATIC     ATOMS    COLORGROUP SYSTEM
8 30 31 32 33 34 35 36 37
