AV-unprocessed.smi:731|AV-procd|sdf|3526|dock8
  -GOLD-   22720 0523D 1   1.00000     0.00000
 Structure written by MMmdl.
 34 35  0  0  0  0  0  0  0  0  1 V2000
  151.0094  140.3059  154.7905 O   0  0  0  0  0  0  0  0  0  0  0  0
  149.8578  140.5727  155.1364 C   0  0  0  0  0  0  0  0  0  0  0  0
  149.4970  140.7577  156.4166 N   0  0  0  0  0  0  0  0  0  0  0  0
  150.3834  140.6455  157.5730 C   0  0  0  0  0  0  0  0  0  0  0  0
  151.4641  141.7441  157.6004 C   0  0  0  0  0  0  0  0  0  0  0  0
  152.3508  141.6994  158.8031 C   0  0  0  0  0  0  0  0  0  0  0  0
  153.1186  140.6512  159.1104 N   0  0  0  0  0  0  0  0  0  0  0  0
  153.8115  140.8211  160.3140 C   0  0  0  0  0  0  0  0  0  0  0  0
  154.7155  139.7314  160.8134 C   0  0  0  0  0  0  0  0  0  0  0  0
  154.0720  138.5683  160.9166 F   0  0  0  0  0  0  0  0  0  0  0  0
  155.7467  139.5475  159.9893 F   0  0  0  0  0  0  0  0  0  0  0  0
  155.2048  140.0272  162.0174 F   0  0  0  0  0  0  0  0  0  0  0  0
  153.5557  142.0298  160.9151 C   0  0  0  0  0  0  0  0  0  0  0  0
  152.4346  142.9930  159.9943 S   0  0  0  0  0  0  0  0  0  0  0  0
  148.7394  140.6898  154.0885 C   0  0  0  0  0  0  0  0  0  0  0  0
  148.0946  142.0960  154.0922 C   0  0  0  0  0  0  0  0  0  0  0  0
  146.6061  141.9048  154.4080 C   0  0  0  0  0  0  0  0  0  0  0  0
  146.5110  140.5388  155.0808 C   0  0  0  0  0  0  0  0  0  0  0  0
  147.5836  139.7111  154.3745 C   0  0  0  0  0  0  0  0  0  0  0  0
  148.5291  140.9737  156.6061 H   0  0  0  0  0  0  0  0  0  0  0  0
  149.8089  140.6670  158.5008 H   0  0  0  0  0  0  0  0  0  0  0  0
  150.8619  139.6667  157.5381 H   0  0  0  0  0  0  0  0  0  0  0  0
  152.0859  141.6697  156.7075 H   0  0  0  0  0  0  0  0  0  0  0  0
  150.9899  142.7253  157.5613 H   0  0  0  0  0  0  0  0  0  0  0  0
  153.9559  142.4089  161.8437 H   0  0  0  0  0  0  0  0  0  0  0  0
  149.1540  140.4742  153.1024 H   0  0  0  0  0  0  0  0  0  0  0  0
  148.5454  142.7476  154.8430 H   0  0  0  0  0  0  0  0  0  0  0  0
  148.2249  142.5944  153.1311 H   0  0  0  0  0  0  0  0  0  0  0  0
  146.2042  142.7052  155.0299 H   0  0  0  0  0  0  0  0  0  0  0  0
  146.0353  141.8913  153.4783 H   0  0  0  0  0  0  0  0  0  0  0  0
  146.7496  140.6302  156.1414 H   0  0  0  0  0  0  0  0  0  0  0  0
  145.5173  140.0975  154.9981 H   0  0  0  0  0  0  0  0  0  0  0  0
  147.1891  139.3315  153.4310 H   0  0  0  0  0  0  0  0  0  0  0  0
  147.8815  138.8441  154.9665 H   0  0  0  0  0  0  0  0  0  0  0  0
  1  2  2  0  0  0  0
  2  3  1  0  0  0  0
  2 15  1  0  0  0  0
  3  4  1  0  0  0  0
  3 20  1  0  0  0  0
  4  5  1  0  0  0  0
  4 21  1  0  0  0  0
  4 22  1  0  0  0  0
  5  6  1  0  0  0  0
  5 23  1  0  0  0  0
  5 24  1  0  0  0  0
  6 14  1  0  0  0  0
  6  7  2  0  0  0  0
  7  8  1  0  0  0  0
  8  9  1  0  0  0  0
  8 13  2  0  0  0  0
  9 10  1  0  0  0  0
  9 11  1  0  0  0  0
  9 12  1  0  0  0  0
 13 14  1  0  0  0  0
 13 25  1  0  0  0  0
 15 19  1  0  0  0  0
 15 16  1  0  0  0  0
 15 26  1  0  0  0  0
 16 17  1  0  0  0  0
 16 27  1  0  0  0  0
 16 28  1  0  0  0  0
 17 18  1  0  0  0  0
 17 29  1  0  0  0  0
 17 30  1  0  0  0  0
 18 19  1  0  0  0  0
 18 31  1  0  0  0  0
 18 32  1  0  0  0  0
 19 33  1  0  0  0  0
 19 34  1  0  0  0  0
M  END
> <s_m_source_file>
AV-unprocessed.smi

> <i_m_source_file_index>
731

> <i_lp_mmshare_version>
43012

> <i_f3d_flags>
0

> <s_epik_input>
W0NIMl0xW0NIMl1bQ0gyXVtDSDJdW0NIXTFDKD1PKVtOSF1bQ0gyXVtDSDJdYzJuYyhDKEYpKEYpRilbY0hdczI=

> <s_epik_cmdline>
J2VwaWtfcHl0aG9uJywgJy1waCcsICc3LjAnLCAnLXRuJywgJzgnLCAnLW1hJywgJzIwMCcsICctbWV0YWxfYmluZGluZycsICctaW1hZScsICc8aW5maWxlLm1hZT4nLCAnLW9tYWUnLCAnPG91dGZpbGUubWFlPic=

> <r_lp_tautomer_probability>
1

> <r_epik_Ionization_Penalty>
2.28973e-08

> <r_epik_Ionization_Penalty_Charging>
0

> <r_epik_Ionization_Penalty_Neutral>
2.28973e-08

> <r_epik_State_Penalty>
-0

> <r_epik_Charging_Adjusted_Penalty>
0

> <i_epik_Tot_Q>
0

> <i_epik_Tot_abs_Q>
0

> <r_epik_Metal_State_Penalty>
-0

> <b_epik_Metal_Only>
0

> <s_lp_Force_Field>
OPLS_2005

> <r_lp_Energy>
15.4873

> <b_lp_Chiralities_Consistent>
1

> <s_lp_Variant>
AV-unprocessed.smi:731-1

> <Gold.Version>
5.8.1

> <Gold.Id.Protein>
6NUR|6NUR_protein|mol2

> <Gold.PLP.Fitness>
40.1228

> <Gold.PLP.PLP>
-37.3001

> <Gold.PLP.part.hbond>
-1.0000

> <Gold.PLP.part.metal>
0.0000

> <Gold.PLP.part.buried>
-2.5842

> <Gold.PLP.part.nonpolar>
-33.0599

> <Gold.PLP.part.repulsive>
0.0925

> <Gold.PLP.ligand.clash>
0.0000

> <Gold.PLP.ligand.torsion>
0.1033

> <Gold.PLP.Chemscore.Hbond>
1.0000

> <Gold.PLP.Chemscore.CHOScore>
0.0000

> <Gold.PLP.Chemscore.Metal>
0.0000

> <Gold.Chemscore.Hbonds>
donor molecule, donor type, donor heavy atom, donor atom, acceptor molecule, acceptor atom, score
      P1  H  7989  7998       L1     1  1.00

> <Gold.PLP.Chemscore.Internal.Correction>
0.0295

> <Gold.Rescore>
     Score         DG    S(hbond)    S(metal)    S(lipo)     H(rot)  DE(clash)    DE(int)     intcor
     14.58     -14.86       1.18        0.00      84.16       1.73       0.14       0.13       ----

> <Gold.Chemscore.Fitness>
14.5839

> <Gold.Chemscore.DG>
-14.8566

> <Gold.Chemscore.ZeroCoef>
-5.4800

> <Gold.Chemscore.Hbond>
1.1824

> <Gold.Chemscore.Metal>
0.0000

> <Gold.Chemscore.Lipo>
84.1624

> <Gold.Chemscore.Internal_Hbond>
0.0000

> <Gold.Chemscore.DEClash>
0.1387

> <Gold.Chemscore.DEInternal>
0.1340

> <Gold.Chemscore.Rot>
1.7264

> <Gold.Chemscore.Internal.Correction>
   9.000000E+99

> <Gold.Chemscore.Hbonds>
donor molecule, donor type, donor heavy atom, donor atom, acceptor molecule, acceptor atom, score
      P1  H  7989  7998       L1     1  0.93

> <Gold.Chemscore.Hbond.Weighted>
-3.9492

> <Gold.Chemscore.Metal.Weighted>
-0.0000

> <Gold.Chemscore.Lipo.Weighted>
-9.8470

> <Gold.Chemscore.Internal_Hbond.Weighted>
0.0000

> <Gold.Chemscore.DEClash.Weighted>
0.1387

> <Gold.Chemscore.DEInternal.Weighted>
0.1340

> <Gold.Chemscore.Rot.Weighted>
4.4196

> <Gold.Chemscore.Internal.Correction.Weighted>
   9.000000E+99

> <Gold.Protein.RotatedTorsions>
[ 6907 6896 6895 6894 ] final  117.25 input  -60.11 | X-H torsion
[ 7974 7965 7964 7962 ] final  -81.12 input  175.53 | X-H torsion
[ 8008 7997 7996 7995 ] final   13.49 input   59.86 | X-H torsion
[ 10167 10162 10161 10158 ] final   75.87 input  -65.29 | X-H torsion
[ 10718 10713 10712 10709 ] final   76.34 input   66.30 | X-H torsion
[ 10763 10752 10751 10750 ] final  -56.51 input  -60.55 | X-H torsion
[ 11005 11000 10999 10996 ] final   39.70 input  -57.11 | X-H torsion

> <Gold.Protein.ActiveResidues>
 VAL166  LYS551  ARG553  GLY616  TRP617  ASP618  TYR619  PRO620  LYS621  CYS622 
 ASP623  PHE694  ASN695  SER759  ASP760  ASP761  ALA762  ILE779  LEU786  VAL792 
 PHE793  MET794  SER795  GLU796  ALA797  LYS798  CYS799  TRP800  GLU811  SER814 

> <Gold.Protein.RotatedAtoms>
  152.4624  133.7851  159.6871 H   0  0  0  0  0  0  0  0  0  0  0  0  # atno 6907 bound_to 6896
  150.8574  133.7685  159.3010 H   0  0  0  0  0  0  0  0  0  0  0  0  # atno 6908 bound_to 6896
  151.5261  135.1071  159.9943 H   0  0  0  0  0  0  0  0  0  0  0  0  # atno 6909 bound_to 6896
  145.5509  140.9497  143.1500 H   0  0  0  0  0  0  0  0  0  0  0  0  # atno 7974 bound_to 7965
  154.8352  140.2906  155.5695 H   0  0  0  0  0  0  0  0  0  0  0  0  # atno 8008 bound_to 7997
  156.3008  140.2524  156.3216 H   0  0  0  0  0  0  0  0  0  0  0  0  # atno 8009 bound_to 7997
  154.9186  140.0386  157.1975 H   0  0  0  0  0  0  0  0  0  0  0  0  # atno 8010 bound_to 7997
  139.9983  144.5705  150.7759 H   0  0  0  0  0  0  0  0  0  0  0  0  # atno 10167 bound_to 10162
  157.6669  130.9769  150.1482 H   0  0  0  0  0  0  0  0  0  0  0  0  # atno 10718 bound_to 10713
  154.2078  135.6400  153.5106 H   0  0  0  0  0  0  0  0  0  0  0  0  # atno 10763 bound_to 10752
  152.9997  135.5467  154.6247 H   0  0  0  0  0  0  0  0  0  0  0  0  # atno 10764 bound_to 10752
  154.5676  135.2914  155.0832 H   0  0  0  0  0  0  0  0  0  0  0  0  # atno 10765 bound_to 10752
  140.2003  134.3879  155.8100 H   0  0  0  0  0  0  0  0  0  0  0  0  # atno 11005 bound_to 11000
  144.7530  139.7146  143.7265 LP  0  0  0  0  0  0  0  0  0  0  0  0  # atno 17320 bound_to 7965
  146.1917  139.5162  142.9800 LP  0  0  0  0  0  0  0  0  0  0  0  0  # atno 17321 bound_to 7965
  140.7429  143.2838  151.3522 LP  0  0  0  0  0  0  0  0  0  0  0  0  # atno 17342 bound_to 10162
  139.6290  144.0757  152.2460 LP  0  0  0  0  0  0  0  0  0  0  0  0  # atno 17343 bound_to 10162
  156.2288  130.3680  149.8469 LP  0  0  0  0  0  0  0  0  0  0  0  0  # atno 17370 bound_to 10713
  156.6302  130.8662  151.3493 LP  0  0  0  0  0  0  0  0  0  0  0  0  # atno 17371 bound_to 10713
  141.2227  133.7090  156.8245 LP  0  0  0  0  0  0  0  0  0  0  0  0  # atno 17394 bound_to 11000
  140.2062  134.8861  157.3224 LP  0  0  0  0  0  0  0  0  0  0  0  0  # atno 17395 bound_to 11000

$$$$
