AV-unprocessed.smi:737|AV-procd|sdf|3537|dock2
  -GOLD-   22720 0533D 1   1.00000     0.00000
 Structure written by MMmdl.
 45 47  0  0  0  0  0  0  0  0  1 V2000
  146.9373  133.1971  151.9195 C   0  0  0  0  0  0  0  0  0  0  0  0
  147.8640  133.6214  152.9565 N   0  0  0  0  0  0  0  0  0  0  0  0
  148.4263  132.6887  153.8390 C   0  0  0  0  0  0  0  0  0  0  0  0
  148.1208  131.3760  153.7179 N   0  0  0  0  0  0  0  0  0  0  0  0
  148.6848  130.5194  154.5794 C   0  0  0  0  0  0  0  0  0  0  0  0
  149.5410  130.7691  155.5824 N   0  0  0  0  0  0  0  0  0  0  0  0
  149.8487  132.0668  155.7119 C   0  0  0  0  0  0  0  0  0  0  0  0
  150.7044  132.6084  156.6559 N   0  0  0  0  0  0  0  0  0  0  0  0
  150.6568  133.9033  156.3532 C   0  0  0  0  0  0  0  0  0  0  0  0
  149.8721  134.2725  155.3221 N   0  0  0  0  0  0  0  0  0  0  0  0
  149.6754  135.6248  154.8291 C   0  0  0  0  0  0  0  0  0  0  0  0
  150.8545  136.5578  155.1734 C   0  0  1  0  0  0  0  0  0  0  0  0
  151.7825  136.6573  154.1109 O   0  0  0  0  0  0  0  0  0  0  0  0
  150.4154  137.9719  155.5827 C   0  0  0  0  0  0  0  0  0  0  0  0
  151.5556  138.8116  155.7020 O   0  0  0  0  0  0  0  0  0  0  0  0
  151.2932  140.0209  156.2909 C   0  0  0  0  0  0  0  0  0  0  0  0
  151.8442  140.3129  157.5602 C   0  0  0  0  0  0  0  0  0  0  0  0
  152.7223  139.2989  158.2691 C   0  0  0  0  0  0  0  0  0  0  0  0
  151.5772  141.5549  158.1717 C   0  0  0  0  0  0  0  0  0  0  0  0
  150.7557  142.4991  157.5285 C   0  0  0  0  0  0  0  0  0  0  0  0
  150.1917  142.2023  156.2738 C   0  0  0  0  0  0  0  0  0  0  0  0
  150.4508  140.9630  155.6530 C   0  0  0  0  0  0  0  0  0  0  0  0
  149.8144  140.6576  154.3093 C   0  0  0  0  0  0  0  0  0  0  0  0
  149.3144  133.0809  154.8612 C   0  0  0  0  0  0  0  0  0  0  0  0
  146.6192  134.0579  151.3314 H   0  0  0  0  0  0  0  0  0  0  0  0
  146.0511  132.7373  152.3581 H   0  0  0  0  0  0  0  0  0  0  0  0
  147.4096  132.4802  151.2471 H   0  0  0  0  0  0  0  0  0  0  0  0
  148.1480  134.5900  152.9952 H   0  0  0  0  0  0  0  0  0  0  0  0
  148.4129  129.4825  154.4480 H   0  0  0  0  0  0  0  0  0  0  0  0
  151.2271  134.6286  156.9152 H   0  0  0  0  0  0  0  0  0  0  0  0
  149.5054  135.5822  153.7540 H   0  0  0  0  0  0  0  0  0  0  0  0
  148.7548  136.0177  155.2626 H   0  0  0  0  0  0  0  0  0  0  0  0
  151.4027  136.1233  156.0103 H   0  0  0  0  0  0  0  0  0  0  0  0
  151.3879  136.2957  153.3320 H   0  0  0  0  0  0  0  0  0  0  0  0
  149.7527  138.3773  154.8166 H   0  0  0  0  0  0  0  0  0  0  0  0
  149.8440  137.9436  156.5115 H   0  0  0  0  0  0  0  0  0  0  0  0
  152.8364  139.5453  159.3251 H   0  0  0  0  0  0  0  0  0  0  0  0
  153.7131  139.2746  157.8156 H   0  0  0  0  0  0  0  0  0  0  0  0
  152.2889  138.3005  158.2034 H   0  0  0  0  0  0  0  0  0  0  0  0
  151.9999  141.7879  159.1382 H   0  0  0  0  0  0  0  0  0  0  0  0
  150.5527  143.4490  158.0006 H   0  0  0  0  0  0  0  0  0  0  0  0
  149.5549  142.9290  155.7908 H   0  0  0  0  0  0  0  0  0  0  0  0
  148.8770  141.2015  154.1907 H   0  0  0  0  0  0  0  0  0  0  0  0
  149.5957  139.5942  154.2081 H   0  0  0  0  0  0  0  0  0  0  0  0
  150.4824  140.9508  153.4997 H   0  0  0  0  0  0  0  0  0  0  0  0
  1  2  1  0  0  0  0
  1 25  1  0  0  0  0
  1 26  1  0  0  0  0
  1 27  1  0  0  0  0
  2  3  1  0  0  0  0
  2 28  1  0  0  0  0
  3 24  1  0  0  0  0
  3  4  2  0  0  0  0
  4  5  1  0  0  0  0
  5  6  2  0  0  0  0
  5 29  1  0  0  0  0
  6  7  1  0  0  0  0
  7 24  2  0  0  0  0
  7  8  1  0  0  0  0
  8  9  2  0  0  0  0
  9 10  1  0  0  0  0
  9 30  1  0  0  0  0
 10 11  1  0  0  0  0
 10 24  1  0  0  0  0
 11 12  1  0  0  0  0
 11 31  1  0  0  0  0
 11 32  1  0  0  0  0
 12 13  1  0  0  0  0
 12 14  1  0  0  0  0
 12 33  1  0  0  0  0
 13 34  1  0  0  0  0
 14 15  1  0  0  0  0
 14 35  1  0  0  0  0
 14 36  1  0  0  0  0
 15 16  1  0  0  0  0
 16 22  1  0  0  0  0
 16 17  2  0  0  0  0
 17 18  1  0  0  0  0
 17 19  1  0  0  0  0
 18 37  1  0  0  0  0
 18 38  1  0  0  0  0
 18 39  1  0  0  0  0
 19 20  2  0  0  0  0
 19 40  1  0  0  0  0
 20 21  1  0  0  0  0
 20 41  1  0  0  0  0
 21 22  2  0  0  0  0
 21 42  1  0  0  0  0
 22 23  1  0  0  0  0
 23 43  1  0  0  0  0
 23 44  1  0  0  0  0
 23 45  1  0  0  0  0
M  END
> <s_m_source_file>
AV-unprocessed.smi

> <i_m_source_file_index>
737

> <i_lp_mmshare_version>
43012

> <i_f3d_flags>
0

> <s_epik_input>
bjFbY0hdbmMoW05IXVtDSDNdKWMoYzEyKW4oW2NIXW4yKVtDSDJdW0NASF0oW09IXSlbQ0gyXU9jM2MoW0NIM10pW2NIXVtjSF1bY0hdYzNbQ0gzXQ==

> <s_epik_cmdline>
J2VwaWtfcHl0aG9uJywgJy1waCcsICc3LjAnLCAnLXRuJywgJzgnLCAnLW1hJywgJzIwMCcsICctbWV0YWxfYmluZGluZycsICctaW1hZScsICc8aW5maWxlLm1hZT4nLCAnLW9tYWUnLCAnPG91dGZpbGUubWFlPic=

> <r_lp_tautomer_probability>
1

> <r_epik_Ionization_Penalty>
0.0070961

> <r_epik_Ionization_Penalty_Charging>
0

> <r_epik_Ionization_Penalty_Neutral>
0.0070961

> <r_epik_State_Penalty>
-0

> <r_epik_Charging_Adjusted_Penalty>
0

> <i_epik_Tot_Q>
0

> <i_epik_Tot_abs_Q>
0

> <r_epik_Metal_State_Penalty>
-0

> <b_epik_Metal_Only>
0

> <s_lp_Force_Field>
OPLS_2005

> <r_lp_Energy>
18.2804

> <b_lp_Chiralities_Consistent>
1

> <s_lp_Variant>
AV-unprocessed.smi:737-2

> <Gold.Version>
5.8.1

> <Gold.Id.Protein>
6NUR|6NUR_protein|mol2

> <Gold.PLP.Fitness>
46.1237

> <Gold.PLP.PLP>
-39.4719

> <Gold.PLP.part.hbond>
-3.0000

> <Gold.PLP.part.metal>
0.0000

> <Gold.PLP.part.buried>
-3.1778

> <Gold.PLP.part.nonpolar>
-33.1734

> <Gold.PLP.part.repulsive>
0.2193

> <Gold.PLP.ligand.clash>
0.0000

> <Gold.PLP.ligand.torsion>
0.9952

> <Gold.PLP.Chemscore.Hbond>
2.8000

> <Gold.PLP.Chemscore.CHOScore>
0.0000

> <Gold.PLP.Chemscore.Metal>
0.0000

> <Gold.Chemscore.Hbonds>
donor molecule, donor type, donor heavy atom, donor atom, acceptor molecule, acceptor atom, score
      L1  H     2    28       P1  7948  0.69
      L1  H    13    34       P1  7949  1.00
      P1  H 10752 10763       L1    13  0.90

> <Gold.PLP.Chemscore.Internal.Correction>
0.2423

> <Gold.Rescore>
     Score         DG    S(hbond)    S(metal)    S(lipo)     H(rot)  DE(clash)    DE(int)     intcor
     10.99     -12.51       1.68        0.00      75.82       2.91       0.36       1.17       ----

> <Gold.Chemscore.Fitness>
10.9855

> <Gold.Chemscore.DG>
-12.5116

> <Gold.Chemscore.ZeroCoef>
-5.4800

> <Gold.Chemscore.Hbond>
1.6771

> <Gold.Chemscore.Metal>
0.0000

> <Gold.Chemscore.Lipo>
75.8231

> <Gold.Chemscore.Internal_Hbond>
0.0000

> <Gold.Chemscore.DEClash>
0.3597

> <Gold.Chemscore.DEInternal>
1.1663

> <Gold.Chemscore.Rot>
2.9067

> <Gold.Chemscore.Internal.Correction>
   9.000000E+99

> <Gold.Chemscore.Hbonds>
donor molecule, donor type, donor heavy atom, donor atom, acceptor molecule, acceptor atom, score
      L1  H     2    28       P1  7948  0.44
      L1  H    13    34       P1  7949  0.74
      P1  H 10752 10763       L1    13  0.14

> <Gold.Chemscore.Hbond.Weighted>
-5.6014

> <Gold.Chemscore.Metal.Weighted>
-0.0000

> <Gold.Chemscore.Lipo.Weighted>
-8.8713

> <Gold.Chemscore.Internal_Hbond.Weighted>
0.0000

> <Gold.Chemscore.DEClash.Weighted>
0.3597

> <Gold.Chemscore.DEInternal.Weighted>
1.1663

> <Gold.Chemscore.Rot.Weighted>
7.4412

> <Gold.Chemscore.Internal.Correction.Weighted>
   9.000000E+99

> <Gold.Protein.RotatedTorsions>
[ 6907 6896 6895 6894 ] final  -24.95 input  -60.11 | X-H torsion
[ 7974 7965 7964 7962 ] final -127.01 input  175.53 | X-H torsion
[ 8008 7997 7996 7995 ] final  106.08 input   59.86 | X-H torsion
[ 10167 10162 10161 10158 ] final  122.94 input  -65.29 | X-H torsion
[ 10718 10713 10712 10709 ] final  101.61 input   66.30 | X-H torsion
[ 10763 10752 10751 10750 ] final   40.03 input  -60.55 | X-H torsion
[ 11005 11000 10999 10996 ] final  113.12 input  -57.11 | X-H torsion

> <Gold.Protein.ActiveResidues>
 VAL166  LYS551  ARG553  GLY616  TRP617  ASP618  TYR619  PRO620  LYS621  CYS622 
 ASP623  PHE694  ASN695  SER759  ASP760  ASP761  ALA762  ILE779  LEU786  VAL792 
 PHE793  MET794  SER795  GLU796  ALA797  LYS798  CYS799  TRP800  GLU811  SER814 

> <Gold.Protein.RotatedAtoms>
  151.1821  135.0365  159.8796 H   0  0  0  0  0  0  0  0  0  0  0  0  # atno 6907 bound_to 6896
  152.5444  134.1051  159.8344 H   0  0  0  0  0  0  0  0  0  0  0  0  # atno 6908 bound_to 6896
  151.1169  133.5085  159.2636 H   0  0  0  0  0  0  0  0  0  0  0  0  # atno 6909 bound_to 6896
  144.9815  140.7644  143.4609 H   0  0  0  0  0  0  0  0  0  0  0  0  # atno 7974 bound_to 7965
  156.1713  140.3119  155.8979 H   0  0  0  0  0  0  0  0  0  0  0  0  # atno 8008 bound_to 7997
  155.3580  140.0475  157.3063 H   0  0  0  0  0  0  0  0  0  0  0  0  # atno 8009 bound_to 7997
  154.5244  140.2209  155.8927 H   0  0  0  0  0  0  0  0  0  0  0  0  # atno 8010 bound_to 7997
  139.5829  144.6994  151.3483 H   0  0  0  0  0  0  0  0  0  0  0  0  # atno 10167 bound_to 10162
  157.6825  131.0731  150.5278 H   0  0  0  0  0  0  0  0  0  0  0  0  # atno 10718 bound_to 10713
  152.9948  135.6203  154.2561 H   0  0  0  0  0  0  0  0  0  0  0  0  # atno 10763 bound_to 10752
  154.2298  135.2792  155.2896 H   0  0  0  0  0  0  0  0  0  0  0  0  # atno 10764 bound_to 10752
  154.5459  135.5747  153.6937 H   0  0  0  0  0  0  0  0  0  0  0  0  # atno 10765 bound_to 10752
  139.8945  134.9543  156.6690 H   0  0  0  0  0  0  0  0  0  0  0  0  # atno 11005 bound_to 11000
  145.2415  139.2071  143.4990 LP  0  0  0  0  0  0  0  0  0  0  0  0  # atno 17320 bound_to 7965
  146.3409  140.2311  142.8593 LP  0  0  0  0  0  0  0  0  0  0  0  0  # atno 17321 bound_to 7965
  140.7104  143.7404  150.7557 LP  0  0  0  0  0  0  0  0  0  0  0  0  # atno 17342 bound_to 10162
  140.0941  143.4850  152.2462 LP  0  0  0  0  0  0  0  0  0  0  0  0  # atno 17343 bound_to 10162
  156.5589  130.4250  149.6072 LP  0  0  0  0  0  0  0  0  0  0  0  0  # atno 17370 bound_to 10713
  156.2838  130.7086  151.1917 LP  0  0  0  0  0  0  0  0  0  0  0  0  # atno 17371 bound_to 10713
  140.7388  133.8996  155.8263 LP  0  0  0  0  0  0  0  0  0  0  0  0  # atno 17394 bound_to 11000
  141.0094  134.1041  157.4236 LP  0  0  0  0  0  0  0  0  0  0  0  0  # atno 17395 bound_to 11000

$$$$
