AV-unprocessed.smi:479|AV-procd|sdf|2672|dock9
  -GOLD-   2262023 93D 1   1.00000     0.00000
 Structure written by MMmdl.
 45 47  0  0  0  0  0  0  0  0  1 V2000
  151.5324  131.2058  157.5718 C   0  0  0  0  0  0  0  0  0  0  0  0
  151.2927  132.5909  157.3735 O   0  0  0  0  0  0  0  0  0  0  0  0
  150.4893  132.9771  156.3202 C   0  0  0  0  0  0  0  0  0  0  0  0
  149.8173  132.0635  155.4690 C   0  0  0  0  0  0  0  0  0  0  0  0
  149.0106  132.5209  154.4016 C   0  0  0  0  0  0  0  0  0  0  0  0
  148.2941  131.5781  153.4949 C   0  0  0  0  0  0  0  0  0  0  0  0
  147.1800  132.1405  152.6132 C   0  0  0  0  0  0  0  0  0  0  0  0
  148.5561  130.3779  153.4197 O   0  0  0  0  0  0  0  0  0  0  0  0
  148.8889  133.9104  154.1891 C   0  0  0  0  0  0  0  0  0  0  0  0
  149.5495  134.8239  155.0290 C   0  0  0  0  0  0  0  0  0  0  0  0
  150.3487  134.3661  156.1043 C   0  0  0  0  0  0  0  0  0  0  0  0
  151.0107  135.2043  156.9774 O   0  0  0  0  0  0  0  0  0  0  0  0
  150.9298  136.6085  156.7678 C   0  0  0  0  0  0  0  0  0  0  0  0
  151.4809  137.3536  157.9983 C   0  0  2  0  0  0  0  0  0  0  0  0
  150.8594  136.8637  159.1679 O   0  0  0  0  0  0  0  0  0  0  0  0
  151.3682  138.8914  157.9377 C   0  0  0  0  0  0  0  0  0  0  0  0
  152.2609  139.5526  158.8736 N   0  0  0  0  0  0  0  0  0  0  0  0
  153.2333  138.9772  159.6065 C   0  0  0  0  0  0  0  0  0  0  0  0
  153.9546  139.7701  160.3938 N   0  0  0  0  0  0  0  0  0  0  0  0
  153.3767  141.0044  160.1512 C   0  0  0  0  0  0  0  0  0  0  0  0
  153.6853  142.2800  160.6758 C   0  0  0  0  0  0  0  0  0  0  0  0
  152.9483  143.4144  160.2764 C   0  0  0  0  0  0  0  0  0  0  0  0
  151.8901  143.2908  159.3529 C   0  0  0  0  0  0  0  0  0  0  0  0
  151.5628  142.0296  158.8200 C   0  0  0  0  0  0  0  0  0  0  0  0
  152.3059  140.9013  159.2126 C   0  0  0  0  0  0  0  0  0  0  0  0
  152.1541  131.0734  158.4572 H   0  0  0  0  0  0  0  0  0  0  0  0
  152.0657  130.7681  156.7267 H   0  0  0  0  0  0  0  0  0  0  0  0
  150.6027  130.6598  157.7381 H   0  0  0  0  0  0  0  0  0  0  0  0
  149.9221  131.0028  155.6327 H   0  0  0  0  0  0  0  0  0  0  0  0
  146.3728  132.5410  153.2268 H   0  0  0  0  0  0  0  0  0  0  0  0
  146.7672  131.3589  151.9749 H   0  0  0  0  0  0  0  0  0  0  0  0
  147.5633  132.9349  151.9728 H   0  0  0  0  0  0  0  0  0  0  0  0
  148.2845  134.2930  153.3792 H   0  0  0  0  0  0  0  0  0  0  0  0
  149.4253  135.8762  154.8243 H   0  0  0  0  0  0  0  0  0  0  0  0
  151.4713  136.8977  155.8656 H   0  0  0  0  0  0  0  0  0  0  0  0
  149.8863  136.8968  156.6312 H   0  0  0  0  0  0  0  0  0  0  0  0
  152.5360  137.0935  158.0913 H   0  0  0  0  0  0  0  0  0  0  0  0
  149.9626  137.1617  159.1793 H   0  0  0  0  0  0  0  0  0  0  0  0
  151.5933  139.2475  156.9317 H   0  0  0  0  0  0  0  0  0  0  0  0
  150.3470  139.2057  158.1562 H   0  0  0  0  0  0  0  0  0  0  0  0
  153.4291  137.9163  159.5502 H   0  0  0  0  0  0  0  0  0  0  0  0
  154.4919  142.3863  161.3858 H   0  0  0  0  0  0  0  0  0  0  0  0
  153.1952  144.3844  160.6826 H   0  0  0  0  0  0  0  0  0  0  0  0
  151.3299  144.1641  159.0522 H   0  0  0  0  0  0  0  0  0  0  0  0
  150.7532  141.9312  158.1129 H   0  0  0  0  0  0  0  0  0  0  0  0
  1  2  1  0  0  0  0
  1 26  1  0  0  0  0
  1 27  1  0  0  0  0
  1 28  1  0  0  0  0
  2  3  1  0  0  0  0
  3 11  1  0  0  0  0
  3  4  2  0  0  0  0
  4  5  1  0  0  0  0
  4 29  1  0  0  0  0
  5  6  1  0  0  0  0
  5  9  2  0  0  0  0
  6  7  1  0  0  0  0
  6  8  2  0  0  0  0
  7 30  1  0  0  0  0
  7 31  1  0  0  0  0
  7 32  1  0  0  0  0
  9 10  1  0  0  0  0
  9 33  1  0  0  0  0
 10 11  2  0  0  0  0
 10 34  1  0  0  0  0
 11 12  1  0  0  0  0
 12 13  1  0  0  0  0
 13 14  1  0  0  0  0
 13 35  1  0  0  0  0
 13 36  1  0  0  0  0
 14 15  1  0  0  0  0
 14 16  1  0  0  0  0
 14 37  1  0  0  0  0
 15 38  1  0  0  0  0
 16 17  1  0  0  0  0
 16 39  1  0  0  0  0
 16 40  1  0  0  0  0
 17 25  1  0  0  0  0
 17 18  1  0  0  0  0
 18 19  2  0  0  0  0
 18 41  1  0  0  0  0
 19 20  1  0  0  0  0
 20 25  2  0  0  0  0
 20 21  1  0  0  0  0
 21 22  2  0  0  0  0
 21 42  1  0  0  0  0
 22 23  1  0  0  0  0
 22 43  1  0  0  0  0
 23 24  2  0  0  0  0
 23 44  1  0  0  0  0
 24 25  1  0  0  0  0
 24 45  1  0  0  0  0
M  END
> <s_m_source_file>
AV-unprocessed.smi

> <i_m_source_file_index>
479

> <i_lp_mmshare_version>
43012

> <i_f3d_flags>
0

> <s_epik_input>
W0NIM11PYzFbY0hdYyhDKD1PKVtDSDNdKVtjSF1bY0hdYzFPW0NIMl1bQ0BIXShbT0hdKVtDSDJdbihbY0hdbjIpYyhjMjMpW2NIXVtjSF1bY0hdW2NIXTM=

> <s_epik_cmdline>
J2VwaWtfcHl0aG9uJywgJy1waCcsICc3LjAnLCAnLXRuJywgJzgnLCAnLW1hJywgJzIwMCcsICctbWV0YWxfYmluZGluZycsICctaW1hZScsICc8aW5maWxlLm1hZT4nLCAnLW9tYWUnLCAnPG91dGZpbGUubWFlPic=

> <r_lp_tautomer_probability>
0.99995

> <r_epik_Ionization_Penalty>
0.061028

> <r_epik_Ionization_Penalty_Charging>
0

> <r_epik_Ionization_Penalty_Neutral>
0.061028

> <r_epik_State_Penalty>
0.052945

> <r_epik_Charging_Adjusted_Penalty>
0.052945

> <i_epik_Tot_Q>
0

> <i_epik_Tot_abs_Q>
0

> <r_epik_Metal_State_Penalty>
5.53801e-05

> <b_epik_Metal_Only>
0

> <s_lp_Force_Field>
OPLS_2005

> <r_lp_Energy>
25.674

> <b_lp_Chiralities_Consistent>
1

> <s_lp_Variant>
AV-unprocessed.smi:479-1

> <Gold.Version>
5.8.1

> <Gold.Id.Protein>
6NUR|6NUR_protein|mol2

> <Gold.PLP.Fitness>
48.8994

> <Gold.PLP.PLP>
-44.0741

> <Gold.PLP.part.hbond>
-2.6614

> <Gold.PLP.part.metal>
0.0000

> <Gold.PLP.part.buried>
-5.5473

> <Gold.PLP.part.nonpolar>
-36.4345

> <Gold.PLP.part.repulsive>
0.1159

> <Gold.PLP.ligand.clash>
0.0000

> <Gold.PLP.ligand.torsion>
0.3969

> <Gold.PLP.Chemscore.Hbond>
1.8160

> <Gold.PLP.Chemscore.CHOScore>
0.0000

> <Gold.PLP.Chemscore.Metal>
0.0000

> <Gold.Chemscore.Hbonds>
donor molecule, donor type, donor heavy atom, donor atom, acceptor molecule, acceptor atom, score
      P1  H  6896  6907       L1    15  0.77
      P1  H  6896  6909       L1     2  1.00

> <Gold.PLP.Chemscore.Internal.Correction>
0.1712

> <Gold.Rescore>
     Score         DG    S(hbond)    S(metal)    S(lipo)     H(rot)  DE(clash)    DE(int)     intcor
     16.96     -17.44       1.86        0.00     107.24       2.66       0.02       0.46       ----

> <Gold.Chemscore.Fitness>
16.9599

> <Gold.Chemscore.DG>
-17.4367

> <Gold.Chemscore.ZeroCoef>
-5.4800

> <Gold.Chemscore.Hbond>
1.8587

> <Gold.Chemscore.Metal>
0.0000

> <Gold.Chemscore.Lipo>
107.2376

> <Gold.Chemscore.Internal_Hbond>
0.0000

> <Gold.Chemscore.DEClash>
0.0202

> <Gold.Chemscore.DEInternal>
0.4566

> <Gold.Chemscore.Rot>
2.6555

> <Gold.Chemscore.Internal.Correction>
   9.000000E+99

> <Gold.Chemscore.Hbonds>
donor molecule, donor type, donor heavy atom, donor atom, acceptor molecule, acceptor atom, score
      P1  H  6896  6907       L1    15  0.47
      P1  H  6896  6909       L1     2  0.33

> <Gold.Chemscore.Hbond.Weighted>
-6.2079

> <Gold.Chemscore.Metal.Weighted>
-0.0000

> <Gold.Chemscore.Lipo.Weighted>
-12.5468

> <Gold.Chemscore.Internal_Hbond.Weighted>
0.0000

> <Gold.Chemscore.DEClash.Weighted>
0.0202

> <Gold.Chemscore.DEInternal.Weighted>
0.4566

> <Gold.Chemscore.Rot.Weighted>
6.7980

> <Gold.Chemscore.Internal.Correction.Weighted>
   9.000000E+99

> <Gold.Protein.RotatedTorsions>
[ 6907 6896 6895 6894 ] final  -48.93 input  -60.11 | X-H torsion
[ 7974 7965 7964 7962 ] final -161.68 input  175.53 | X-H torsion
[ 8008 7997 7996 7995 ] final   78.48 input   59.86 | X-H torsion
[ 10167 10162 10161 10158 ] final -140.65 input  -65.29 | X-H torsion
[ 10718 10713 10712 10709 ] final -179.60 input   66.30 | X-H torsion
[ 10763 10752 10751 10750 ] final   26.39 input  -60.55 | X-H torsion
[ 11005 11000 10999 10996 ] final   23.17 input  -57.11 | X-H torsion

> <Gold.Protein.ActiveResidues>
 VAL166  LYS551  ARG553  GLY616  TRP617  ASP618  TYR619  PRO620  LYS621  CYS622 
 ASP623  PHE694  ASN695  SER759  ASP760  ASP761  ALA762  ILE779  LEU786  VAL792 
 PHE793  MET794  SER795  GLU796  ALA797  LYS798  CYS799  TRP800  GLU811  SER814 

> <Gold.Protein.RotatedAtoms>
  150.8855  134.8252  159.7255 H   0  0  0  0  0  0  0  0  0  0  0  0  # atno 6907 bound_to 6896
  152.4805  134.4729  159.9651 H   0  0  0  0  0  0  0  0  0  0  0  0  # atno 6908 bound_to 6896
  151.4798  133.3510  159.2872 H   0  0  0  0  0  0  0  0  0  0  0  0  # atno 6909 bound_to 6896
  144.7383  140.3362  143.6143 H   0  0  0  0  0  0  0  0  0  0  0  0  # atno 7974 bound_to 7965
  155.8563  140.3456  155.5726 H   0  0  0  0  0  0  0  0  0  0  0  0  # atno 8008 bound_to 7997
  155.7983  140.0881  157.1991 H   0  0  0  0  0  0  0  0  0  0  0  0  # atno 8009 bound_to 7997
  154.4009  140.1470  156.3231 H   0  0  0  0  0  0  0  0  0  0  0  0  # atno 8010 bound_to 7997
  139.8261  143.7509  152.2666 H   0  0  0  0  0  0  0  0  0  0  0  0  # atno 10167 bound_to 10162
  156.8614  130.9753  151.3083 H   0  0  0  0  0  0  0  0  0  0  0  0  # atno 10718 bound_to 10713
  153.0626  135.6561  154.0428 H   0  0  0  0  0  0  0  0  0  0  0  0  # atno 10763 bound_to 10752
  154.0092  135.2930  155.3395 H   0  0  0  0  0  0  0  0  0  0  0  0  # atno 10764 bound_to 10752
  154.6970  135.5260  153.8541 H   0  0  0  0  0  0  0  0  0  0  0  0  # atno 10765 bound_to 10752
  140.3726  134.2006  155.7666 H   0  0  0  0  0  0  0  0  0  0  0  0  # atno 11005 bound_to 11000
  145.7421  139.1767  143.2370 LP  0  0  0  0  0  0  0  0  0  0  0  0  # atno 17320 bound_to 7965
  146.1126  140.7409  142.9496 LP  0  0  0  0  0  0  0  0  0  0  0  0  # atno 17321 bound_to 7965
  139.7702  144.7479  151.0235 LP  0  0  0  0  0  0  0  0  0  0  0  0  # atno 17342 bound_to 10162
  140.7810  143.4653  151.0221 LP  0  0  0  0  0  0  0  0  0  0  0  0  # atno 17343 bound_to 10162
  157.6248  130.8683  149.9170 LP  0  0  0  0  0  0  0  0  0  0  0  0  # atno 17370 bound_to 10713
  156.0774  130.3677  150.0649 LP  0  0  0  0  0  0  0  0  0  0  0  0  # atno 17371 bound_to 10713
  141.1949  133.8116  157.0735 LP  0  0  0  0  0  0  0  0  0  0  0  0  # atno 17394 bound_to 11000
  140.0540  134.9790  157.1187 LP  0  0  0  0  0  0  0  0  0  0  0  0  # atno 17395 bound_to 11000

$$$$
