AV-unprocessed.smi:1464|AV-procd|sdf|5943|dock4
  -GOLD-   22720 6 23D 1   1.00000     0.00000
 Structure written by MMmdl.
 41 42  0  0  0  0  0  0  0  0  1 V2000
  147.8526  141.7267  153.9404 C   0  0  0  0  0  0  0  0  0  0  0  0
  148.8859  141.0203  154.8365 C   0  0  2  0  0  0  0  0  0  0  0  0
  149.3422  139.7061  154.1693 C   0  0  0  0  0  0  0  0  0  0  0  0
  150.3868  138.9608  155.0109 C   0  0  0  0  0  0  0  0  0  0  0  0
  149.8579  138.6865  156.4261 C   0  0  0  0  0  0  0  0  0  0  0  0
  149.3991  139.9776  157.1280 C   0  0  1  0  0  0  0  0  0  0  0  0
  150.5624  140.8082  157.4486 N   0  0  0  0  0  0  0  0  0  0  0  0
  151.4022  140.6355  158.4811 C   0  0  0  0  0  0  0  0  0  0  0  0
  151.2769  139.7387  159.3162 O   0  0  0  0  0  0  0  0  0  0  0  0
  152.5431  141.6578  158.5895 C   0  0  0  0  0  0  0  0  0  0  0  0
  152.4996  142.4536  159.8245 N   0  0  0  0  0  0  0  0  0  0  0  0
  151.9556  143.7191  159.6643 N   0  0  0  0  0  0  0  0  0  0  0  0
  151.8492  144.5083  160.6795 C   0  0  0  0  0  0  0  0  0  0  0  0
  151.3017  145.7516  160.4777 O   0  0  0  0  0  0  0  0  0  0  0  0
  152.2933  144.1006  161.9946 C   0  0  0  0  0  0  0  0  0  0  0  0
  152.8269  142.8679  162.1395 C   0  0  0  0  0  0  0  0  0  0  0  0
  152.9624  141.9475  161.0089 C   0  0  0  0  0  0  0  0  0  0  0  0
  153.4471  140.8206  161.1114 O   0  0  0  0  0  0  0  0  0  0  0  0
  148.3588  140.7509  156.2739 C   0  0  1  0  0  0  0  0  0  0  0  0
  147.8771  142.0281  156.9919 C   0  0  0  0  0  0  0  0  0  0  0  0
  150.3784  145.6511  160.6500 H   0  0  0  0  0  0  0  0  0  0  0  0
  146.9224  141.1604  153.8841 H   0  0  0  0  0  0  0  0  0  0  0  0
  148.2310  141.8429  152.9244 H   0  0  0  0  0  0  0  0  0  0  0  0
  147.6169  142.7258  154.3057 H   0  0  0  0  0  0  0  0  0  0  0  0
  149.7547  141.6764  154.9072 H   0  0  0  0  0  0  0  0  0  0  0  0
  148.4798  139.0576  154.0089 H   0  0  0  0  0  0  0  0  0  0  0  0
  149.7571  139.9129  153.1822 H   0  0  0  0  0  0  0  0  0  0  0  0
  150.6504  138.0202  154.5263 H   0  0  0  0  0  0  0  0  0  0  0  0
  151.3051  139.5470  155.0622 H   0  0  0  0  0  0  0  0  0  0  0  0
  149.0176  137.9939  156.3645 H   0  0  0  0  0  0  0  0  0  0  0  0
  150.6218  138.1835  157.0208 H   0  0  0  0  0  0  0  0  0  0  0  0
  148.9089  139.6744  158.0546 H   0  0  0  0  0  0  0  0  0  0  0  0
  150.7458  141.5796  156.8235 H   0  0  0  0  0  0  0  0  0  0  0  0
  153.5030  141.1430  158.5130 H   0  0  0  0  0  0  0  0  0  0  0  0
  152.4925  142.3115  157.7169 H   0  0  0  0  0  0  0  0  0  0  0  0
  152.1971  144.7721  162.8352 H   0  0  0  0  0  0  0  0  0  0  0  0
  153.1626  142.5498  163.1157 H   0  0  0  0  0  0  0  0  0  0  0  0
  147.4874  140.1007  156.1814 H   0  0  0  0  0  0  0  0  0  0  0  0
  148.6500  142.7968  157.0086 H   0  0  0  0  0  0  0  0  0  0  0  0
  147.5998  141.8139  158.0245 H   0  0  0  0  0  0  0  0  0  0  0  0
  146.9966  142.4527  156.5101 H   0  0  0  0  0  0  0  0  0  0  0  0
  1  2  1  0  0  0  0
  1 22  1  0  0  0  0
  1 23  1  0  0  0  0
  1 24  1  0  0  0  0
  2 19  1  0  0  0  0
  2  3  1  0  0  0  0
  2 25  1  0  0  0  0
  3  4  1  0  0  0  0
  3 26  1  0  0  0  0
  3 27  1  0  0  0  0
  4  5  1  0  0  0  0
  4 28  1  0  0  0  0
  4 29  1  0  0  0  0
  5  6  1  0  0  0  0
  5 30  1  0  0  0  0
  5 31  1  0  0  0  0
  6  7  1  0  0  0  0
  6 19  1  0  0  0  0
  6 32  1  0  0  0  0
  7  8  1  0  0  0  0
  7 33  1  0  0  0  0
  8  9  2  0  0  0  0
  8 10  1  0  0  0  0
 10 34  1  0  0  0  0
 10 35  1  0  0  0  0
 10 11  1  0  0  0  0
 11 12  1  0  0  0  0
 11 17  1  0  0  0  0
 12 13  2  0  0  0  0
 13 14  1  0  0  0  0
 13 15  1  0  0  0  0
 14 21  1  0  0  0  0
 15 36  1  0  0  0  0
 15 16  2  0  0  0  0
 16 37  1  0  0  0  0
 16 17  1  0  0  0  0
 17 18  2  0  0  0  0
 19 20  1  0  0  0  0
 19 38  1  0  0  0  0
 20 39  1  0  0  0  0
 20 40  1  0  0  0  0
 20 41  1  0  0  0  0
M  END
> <s_m_source_file>
AV-unprocessed.smi

> <i_m_source_file_index>
1464

> <i_lp_mmshare_version>
43012

> <i_f3d_flags>
0

> <s_epik_input>
W0NIM11bQ0BASF0xW0NIMl1bQ0gyXVtDSDJdW0NASF0oW0NASF0xW0NIM10pW05IXUMoPU8pW0NIMl1uMltuSF1jKD1PKVtjSF1bY0hdYzI9Tw==

> <s_epik_cmdline>
J2VwaWtfcHl0aG9uJywgJy1waCcsICc3LjAnLCAnLXRuJywgJzgnLCAnLW1hJywgJzIwMCcsICctbWV0YWxfYmluZGluZycsICctaW1hZScsICc8aW5maWxlLm1hZT4nLCAnLW9tYWUnLCAnPG91dGZpbGUubWFlPic=

> <r_lp_tautomer_probability>
0.9996

> <r_epik_Ionization_Penalty>
2.10335

> <r_epik_Ionization_Penalty_Charging>
3.98079e-08

> <r_epik_Ionization_Penalty_Neutral>
2.10335

> <r_epik_State_Penalty>
1.67957

> <r_epik_Charging_Adjusted_Penalty>
1.67957

> <i_epik_Tot_Q>
0

> <i_epik_Tot_abs_Q>
0

> <r_epik_Metal_State_Penalty>
1.67957

> <b_epik_Metal_Only>
0

> <s_lp_Force_Field>
OPLS_2005

> <r_lp_Energy>
20.9709

> <b_lp_Chiralities_Consistent>
1

> <s_lp_Variant>
AV-unprocessed.smi:1464-9

> <Gold.Version>
5.8.1

> <Gold.Id.Protein>
6NUR|6NUR_protein|mol2

> <Gold.PLP.Fitness>
37.9074

> <Gold.PLP.PLP>
-39.0521

> <Gold.PLP.part.hbond>
-1.0000

> <Gold.PLP.part.metal>
0.0000

> <Gold.PLP.part.buried>
-6.5484

> <Gold.PLP.part.nonpolar>
-31.7582

> <Gold.PLP.part.repulsive>
0.0513

> <Gold.PLP.ligand.clash>
0.0000

> <Gold.PLP.ligand.torsion>
0.5776

> <Gold.PLP.Chemscore.Hbond>
0.0000

> <Gold.PLP.Chemscore.CHOScore>
0.0000

> <Gold.PLP.Chemscore.Metal>
0.0000

> <Gold.PLP.Chemscore.Internal.Correction>
0.0104

> <Gold.Rescore>
     Score         DG    S(hbond)    S(metal)    S(lipo)     H(rot)  DE(clash)    DE(int)     intcor
      7.50      -8.16       0.00        0.00      71.49       2.22       0.11       0.55       ----

> <Gold.Chemscore.Fitness>
7.5009

> <Gold.Chemscore.DG>
-8.1555

> <Gold.Chemscore.ZeroCoef>
-5.4800

> <Gold.Chemscore.Hbond>
0.0000

> <Gold.Chemscore.Metal>
0.0000

> <Gold.Chemscore.Lipo>
71.4944

> <Gold.Chemscore.Internal_Hbond>
0.0000

> <Gold.Chemscore.DEClash>
0.1061

> <Gold.Chemscore.DEInternal>
0.5485

> <Gold.Chemscore.Rot>
2.2224

> <Gold.Chemscore.Internal.Correction>
   9.000000E+99

> <Gold.Chemscore.Hbond.Weighted>
-0.0000

> <Gold.Chemscore.Metal.Weighted>
-0.0000

> <Gold.Chemscore.Lipo.Weighted>
-8.3648

> <Gold.Chemscore.Internal_Hbond.Weighted>
0.0000

> <Gold.Chemscore.DEClash.Weighted>
0.1061

> <Gold.Chemscore.DEInternal.Weighted>
0.5485

> <Gold.Chemscore.Rot.Weighted>
5.6893

> <Gold.Chemscore.Internal.Correction.Weighted>
   9.000000E+99

> <Gold.Protein.RotatedTorsions>
[ 6907 6896 6895 6894 ] final   -9.29 input  -60.11 | X-H torsion
[ 7974 7965 7964 7962 ] final   78.52 input  175.53 | X-H torsion
[ 8008 7997 7996 7995 ] final  128.35 input   59.86 | X-H torsion
[ 10167 10162 10161 10158 ] final -107.41 input  -65.29 | X-H torsion
[ 10718 10713 10712 10709 ] final   16.50 input   66.30 | X-H torsion
[ 10763 10752 10751 10750 ] final  -61.17 input  -60.55 | X-H torsion
[ 11005 11000 10999 10996 ] final   39.57 input  -57.11 | X-H torsion

> <Gold.Protein.ActiveResidues>
 VAL166  LYS551  ARG553  GLY616  TRP617  ASP618  TYR619  PRO620  LYS621  CYS622 
 ASP623  PHE694  ASN695  SER759  ASP760  ASP761  ALA762  ILE779  LEU786  VAL792 
 PHE793  MET794  SER795  GLU796  ALA797  LYS798  CYS799  TRP800  GLU811  SER814 

> <Gold.Protein.RotatedAtoms>
  151.4201  135.0997  159.9611 H   0  0  0  0  0  0  0  0  0  0  0  0  # atno 6907 bound_to 6896
  152.4991  133.8715  159.7311 H   0  0  0  0  0  0  0  0  0  0  0  0  # atno 6908 bound_to 6896
  150.9229  133.6801  159.2856 H   0  0  0  0  0  0  0  0  0  0  0  0  # atno 6909 bound_to 6896
  145.6761  139.2510  143.1841 H   0  0  0  0  0  0  0  0  0  0  0  0  # atno 7974 bound_to 7965
  156.2913  140.2647  156.2421 H   0  0  0  0  0  0  0  0  0  0  0  0  # atno 8008 bound_to 7997
  154.9967  140.0388  157.2361 H   0  0  0  0  0  0  0  0  0  0  0  0  # atno 8009 bound_to 7997
  154.7638  140.2765  155.6198 H   0  0  0  0  0  0  0  0  0  0  0  0  # atno 8010 bound_to 7997
  140.1772  143.3995  152.1309 H   0  0  0  0  0  0  0  0  0  0  0  0  # atno 10167 bound_to 10162
  157.0687  130.6339  149.5801 H   0  0  0  0  0  0  0  0  0  0  0  0  # atno 10718 bound_to 10713
  154.2805  135.6273  153.5345 H   0  0  0  0  0  0  0  0  0  0  0  0  # atno 10763 bound_to 10752
  152.9866  135.5631  154.5501 H   0  0  0  0  0  0  0  0  0  0  0  0  # atno 10764 bound_to 10752
  154.5090  135.2876  155.1333 H   0  0  0  0  0  0  0  0  0  0  0  0  # atno 10765 bound_to 10752
  140.2015  134.3865  155.8094 H   0  0  0  0  0  0  0  0  0  0  0  0  # atno 11005 bound_to 11000
  146.1004  140.7550  142.9552 LP  0  0  0  0  0  0  0  0  0  0  0  0  # atno 17320 bound_to 7965
  144.7041  140.3779  143.7132 LP  0  0  0  0  0  0  0  0  0  0  0  0  # atno 17321 bound_to 7965
  139.5312  144.7160  151.5051 LP  0  0  0  0  0  0  0  0  0  0  0  0  # atno 17342 bound_to 10162
  140.6543  143.8631  150.6818 LP  0  0  0  0  0  0  0  0  0  0  0  0  # atno 17343 bound_to 10162
  155.9957  130.5024  150.7468 LP  0  0  0  0  0  0  0  0  0  0  0  0  # atno 17370 bound_to 10713
  157.4896  131.0909  151.0443 LP  0  0  0  0  0  0  0  0  0  0  0  0  # atno 17371 bound_to 10713
  141.2227  133.7096  156.8265 LP  0  0  0  0  0  0  0  0  0  0  0  0  # atno 17394 bound_to 11000
  140.2049  134.8870  157.3210 LP  0  0  0  0  0  0  0  0  0  0  0  0  # atno 17395 bound_to 11000

$$$$
