AV-unprocessed.smi:102|AV-procd|sdf|961|dock7
  -GOLD-   2262017503D 1   1.00000     0.00000
 Structure written by MMmdl.
 43 44  0  0  0  0  0  0  0  0  2 V2000
  159.8177  140.7621  152.4436 C   0  0  0  0  0  0  0  0  0  0  0  0
  158.3754  140.5339  152.0120 C   0  0  0  0  0  0  0  0  0  0  0  0
  158.0559  139.5588  151.3320 O   0  0  0  0  0  0  0  0  0  0  0  0
  157.5496  141.4980  152.4564 O   0  0  0  0  0  0  0  0  0  0  0  0
  156.1900  141.5314  152.0430 C   0  0  0  0  0  0  0  0  0  0  0  0
  155.2714  141.0026  153.1548 C   0  0  2  0  0  0  0  0  0  0  0  0
  155.8070  139.8130  153.7244 O   0  0  0  0  0  0  0  0  0  0  0  0
  154.7855  139.0648  154.3183 C   0  0  1  0  0  0  0  0  0  0  0  0
  154.9283  139.1231  155.8278 N   0  0  0  0  0  0  0  0  0  0  0  0
  155.9811  139.7917  156.4315 C   0  0  0  0  0  0  0  0  0  0  0  0
  156.0939  139.8486  157.7741 C   0  0  0  0  0  0  0  0  0  0  0  0
  157.1257  140.5056  158.3312 F   0  0  0  0  0  0  0  0  0  0  0  0
  155.0910  139.1951  158.6130 C   0  0  0  0  0  0  0  0  0  0  0  0
  155.1996  139.2511  159.8369 O   0  0  0  0  0  0  0  0  0  0  0  0
  154.0652  138.5442  157.9916 N   0  5  0  0  0  0  0  0  0  0  0  0
  153.9453  138.4862  156.6330 C   0  0  0  0  0  0  0  0  0  0  0  0
  153.0174  137.9137  156.0613 O   0  0  0  0  0  0  0  0  0  0  0  0
  153.4443  139.6488  153.8145 C   0  0  1  0  0  0  0  0  0  0  0  0
  152.8176  140.4380  154.8281 O   0  0  0  0  0  0  0  0  0  0  0  0
  151.5089  140.2988  155.1008 C   0  0  0  0  0  0  0  0  0  0  0  0
  151.0915  141.0760  156.3417 C   0  0  0  0  0  0  0  0  0  0  0  0
  150.6967  139.6379  154.4539 O   0  0  0  0  0  0  0  0  0  0  0  0
  153.9159  140.5181  152.6528 C   0  0  1  0  0  0  0  0  0  0  0  0
  153.0356  141.5962  152.3551 O   0  0  0  0  0  0  0  0  0  0  0  0
  153.2881  142.4056  151.3122 C   0  0  0  0  0  0  0  0  0  0  0  0
  152.7556  143.8154  151.5303 C   0  0  0  0  0  0  0  0  0  0  0  0
  153.8688  142.0909  150.2735 O   0  0  0  0  0  0  0  0  0  0  0  0
  160.1912  141.7011  152.0352 H   0  0  0  0  0  0  0  0  0  0  0  0
  160.4555  139.9521  152.0892 H   0  0  0  0  0  0  0  0  0  0  0  0
  159.8853  140.8043  153.5308 H   0  0  0  0  0  0  0  0  0  0  0  0
  155.9455  142.5752  151.8452 H   0  0  0  0  0  0  0  0  0  0  0  0
  156.0341  140.9935  151.1068 H   0  0  0  0  0  0  0  0  0  0  0  0
  155.1300  141.7565  153.9317 H   0  0  0  0  0  0  0  0  0  0  0  0
  154.9348  138.0183  154.0475 H   0  0  0  0  0  0  0  0  0  0  0  0
  156.7328  140.2834  155.8332 H   0  0  0  0  0  0  0  0  0  0  0  0
  152.8036  138.8329  153.4773 H   0  0  0  0  0  0  0  0  0  0  0  0
  151.7128  141.9630  156.4677 H   0  0  0  0  0  0  0  0  0  0  0  0
  151.1978  140.4503  157.2280 H   0  0  0  0  0  0  0  0  0  0  0  0
  150.0511  141.3916  156.2617 H   0  0  0  0  0  0  0  0  0  0  0  0
  154.0781  139.8934  151.7726 H   0  0  0  0  0  0  0  0  0  0  0  0
  153.1016  144.2094  152.4861 H   0  0  0  0  0  0  0  0  0  0  0  0
  151.6656  143.8097  151.5301 H   0  0  0  0  0  0  0  0  0  0  0  0
  153.0981  144.4811  150.7378 H   0  0  0  0  0  0  0  0  0  0  0  0
  1  2  1  0  0  0  0
  1 28  1  0  0  0  0
  1 29  1  0  0  0  0
  1 30  1  0  0  0  0
  2  3  2  0  0  0  0
  2  4  1  0  0  0  0
  4  5  1  0  0  0  0
  5  6  1  0  0  0  0
  5 31  1  0  0  0  0
  5 32  1  0  0  0  0
  6 23  1  0  0  0  0
  6  7  1  0  0  0  0
  6 33  1  0  0  0  0
  7  8  1  0  0  0  0
  8  9  1  0  0  0  0
  8 18  1  0  0  0  0
  8 34  1  0  0  0  0
  9 16  1  0  0  0  0
  9 10  1  0  0  0  0
 10 11  2  0  0  0  0
 10 35  1  0  0  0  0
 11 12  1  0  0  0  0
 11 13  1  0  0  0  0
 13 14  2  0  0  0  0
 13 15  1  0  0  0  0
 15 16  1  0  0  0  0
 16 17  2  0  0  0  0
 18 19  1  0  0  0  0
 18 23  1  0  0  0  0
 18 36  1  0  0  0  0
 19 20  1  0  0  0  0
 20 21  1  0  0  0  0
 20 22  2  0  0  0  0
 21 37  1  0  0  0  0
 21 38  1  0  0  0  0
 21 39  1  0  0  0  0
 23 24  1  0  0  0  0
 23 40  1  0  0  0  0
 24 25  1  0  0  0  0
 25 26  1  0  0  0  0
 25 27  2  0  0  0  0
 26 41  1  0  0  0  0
 26 42  1  0  0  0  0
 26 43  1  0  0  0  0
M  CHG  1  15  -1
M  END
> <s_m_source_file>
AV-unprocessed.smi

> <i_m_source_file_index>
102

> <i_lp_mmshare_version>
43012

> <i_f3d_flags>
0

> <s_epik_input>
W0NIM11DKD1PKU9bQ0gyXVtDQEBIXTFPW0NASF0oW0NAQEhdKE9DKD1PKVtDSDNdKVtDQEhdMU9DKD1PKVtDSDNdKW4yW2NIXWMoRiljKD1PKVtuSF1jMj1P

> <s_epik_cmdline>
J2VwaWtfcHl0aG9uJywgJy1waCcsICc3LjAnLCAnLXRuJywgJzgnLCAnLW1hJywgJzIwMCcsICctbWV0YWxfYmluZGluZycsICctaW1hZScsICc8aW5maWxlLm1hZT4nLCAnLW9tYWUnLCAnPG91dGZpbGUubWFlPic=

> <r_epik_Ionization_Penalty>
1.40304

> <r_epik_Ionization_Penalty_Charging>
1.43915e-08

> <r_epik_Ionization_Penalty_Neutral>
1.40304

> <r_epik_State_Penalty>
1.48536

> <r_epik_Charging_Adjusted_Penalty>
1.48536

> <i_epik_Tot_Q>
-1

> <i_epik_Tot_abs_Q>
1

> <r_epik_Metal_State_Penalty>
0.00663881

> <b_epik_Metal_Only>
0

> <s_epik_Chemistry_Notes>
This compound has an ester and may undergo hydrolysis at high or low pH. This compound contains an acetal/aminal-like group ( X-CH(R)-Y where X, Y are N, S, or O) that may be acid/base labile, releasing an aldehyde.

> <s_lp_Force_Field>
OPLS_2005

> <r_lp_Energy>
23.8996

> <b_lp_Chiralities_Consistent>
1

> <s_lp_Variant>
AV-unprocessed.smi:102-17

> <Gold.Version>
5.8.1

> <Gold.Id.Protein>
6NUR|6NUR_protein|mol2

> <Gold.PLP.Fitness>
41.5311

> <Gold.PLP.PLP>
-32.1798

> <Gold.PLP.part.hbond>
-4.3639

> <Gold.PLP.part.metal>
0.0000

> <Gold.PLP.part.buried>
-5.4449

> <Gold.PLP.part.nonpolar>
-22.3293

> <Gold.PLP.part.repulsive>
0.1244

> <Gold.PLP.ligand.clash>
0.0000

> <Gold.PLP.ligand.torsion>
1.6857

> <Gold.PLP.Chemscore.Hbond>
4.0000

> <Gold.PLP.Chemscore.CHOScore>
0.0000

> <Gold.PLP.Chemscore.Metal>
0.0000

> <Gold.PLP.Chemscore.Internal.Correction>
0.7226

> <Gold.Rescore>
     Score         DG    S(hbond)    S(metal)    S(lipo)     H(rot)  DE(clash)    DE(int)     intcor
      6.63      -8.30       2.51        0.00      39.75       4.00       0.10       1.57       ----

> <Gold.Chemscore.Fitness>
6.6276

> <Gold.Chemscore.DG>
-8.2953

> <Gold.Chemscore.ZeroCoef>
-5.4800

> <Gold.Chemscore.Hbond>
2.5126

> <Gold.Chemscore.Metal>
0.0000

> <Gold.Chemscore.Lipo>
39.7489

> <Gold.Chemscore.Internal_Hbond>
0.0000

> <Gold.Chemscore.DEClash>
0.1004

> <Gold.Chemscore.DEInternal>
1.5673

> <Gold.Chemscore.Rot>
3.9951

> <Gold.Chemscore.Internal.Correction>
   9.000000E+99

> <Gold.Chemscore.Hbond.Weighted>
-8.3921

> <Gold.Chemscore.Metal.Weighted>
-0.0000

> <Gold.Chemscore.Lipo.Weighted>
-4.6506

> <Gold.Chemscore.Internal_Hbond.Weighted>
0.0000

> <Gold.Chemscore.DEClash.Weighted>
0.1004

> <Gold.Chemscore.DEInternal.Weighted>
1.5673

> <Gold.Chemscore.Rot.Weighted>
10.2274

> <Gold.Chemscore.Internal.Correction.Weighted>
   9.000000E+99

> <Gold.Protein.RotatedTorsions>
[ 6907 6896 6895 6894 ] final -145.61 input  -60.11 | X-H torsion
[ 7974 7965 7964 7962 ] final   73.96 input  175.53 | X-H torsion
[ 8008 7997 7996 7995 ] final  126.12 input   59.86 | X-H torsion
[ 10167 10162 10161 10158 ] final   85.61 input  -65.29 | X-H torsion
[ 10718 10713 10712 10709 ] final -128.68 input   66.30 | X-H torsion
[ 10763 10752 10751 10750 ] final  148.30 input  -60.55 | X-H torsion
[ 11005 11000 10999 10996 ] final -124.68 input  -57.11 | X-H torsion

> <Gold.Protein.ActiveResidues>
 VAL166  LYS551  ARG553  GLY616  TRP617  ASP618  TYR619  PRO620  LYS621  CYS622 
 ASP623  PHE694  ASN695  SER759  ASP760  ASP761  ALA762  ILE779  LEU786  VAL792 
 PHE793  MET794  SER795  GLU796  ALA797  LYS798  CYS799  TRP800  GLU811  SER814 

> <Gold.Protein.RotatedAtoms>
  151.1302  133.5042  159.2599 H   0  0  0  0  0  0  0  0  0  0  0  0  # atno 6907 bound_to 6896
  151.1766  135.0341  159.8784 H   0  0  0  0  0  0  0  0  0  0  0  0  # atno 6908 bound_to 6896
  152.5459  134.1159  159.8431 H   0  0  0  0  0  0  0  0  0  0  0  0  # atno 6909 bound_to 6896
  145.7343  139.2696  143.1523 H   0  0  0  0  0  0  0  0  0  0  0  0  # atno 7974 bound_to 7965
  156.2854  140.2700  156.2060 H   0  0  0  0  0  0  0  0  0  0  0  0  # atno 8008 bound_to 7997
  155.0313  140.0386  157.2493 H   0  0  0  0  0  0  0  0  0  0  0  0  # atno 8009 bound_to 7997
  154.7352  140.2714  155.6426 H   0  0  0  0  0  0  0  0  0  0  0  0  # atno 8010 bound_to 7997
  139.8960  144.6358  150.8688 H   0  0  0  0  0  0  0  0  0  0  0  0  # atno 10167 bound_to 10162
  156.1974  130.6835  151.0498 H   0  0  0  0  0  0  0  0  0  0  0  0  # atno 10718 bound_to 10713
  154.0524  135.2880  155.3338 H   0  0  0  0  0  0  0  0  0  0  0  0  # atno 10763 bound_to 10752
  154.6860  135.5245  153.8331 H   0  0  0  0  0  0  0  0  0  0  0  0  # atno 10764 bound_to 10752
  153.0555  135.6593  154.0719 H   0  0  0  0  0  0  0  0  0  0  0  0  # atno 10765 bound_to 10752
  140.9822  134.0657  157.3752 H   0  0  0  0  0  0  0  0  0  0  0  0  # atno 11005 bound_to 11000
  146.0508  140.8071  142.9782 LP  0  0  0  0  0  0  0  0  0  0  0  0  # atno 17320 bound_to 7965
  144.6885  140.3050  143.7257 LP  0  0  0  0  0  0  0  0  0  0  0  0  # atno 17321 bound_to 7965
  140.7717  143.3473  151.2084 LP  0  0  0  0  0  0  0  0  0  0  0  0  # atno 17342 bound_to 10162
  139.7067  143.9443  152.2930 LP  0  0  0  0  0  0  0  0  0  0  0  0  # atno 17343 bound_to 10162
  157.6966  131.0792  150.6951 LP  0  0  0  0  0  0  0  0  0  0  0  0  # atno 17370 bound_to 10713
  156.7008  130.4622  149.5573 LP  0  0  0  0  0  0  0  0  0  0  0  0  # atno 17371 bound_to 10713
  139.8955  135.0141  156.7005 LP  0  0  0  0  0  0  0  0  0  0  0  0  # atno 17394 bound_to 11000
  140.7169  133.9175  155.8121 LP  0  0  0  0  0  0  0  0  0  0  0  0  # atno 17395 bound_to 11000

$$$$
