AV-unprocessed.smi:1038|AV-procd|sdf|4521|dock7
  -GOLD-   22720 2533D 1   1.00000     0.00000
 Structure written by MMmdl.
 57 58  0  0  0  0  0  0  0  0  2 V2000
  152.2105  144.7387  158.3070 C   0  0  0  0  0  0  0  0  0  0  0  0
  151.8990  144.0908  159.5274 O   0  0  0  0  0  0  0  0  0  0  0  0
  152.2306  142.7121  159.5119 C   0  0  0  0  0  0  0  0  0  0  0  0
  151.6415  142.0463  158.2578 C   0  0  0  0  0  0  0  0  0  0  0  0
  151.4381  140.6029  158.4484 N   0  0  0  0  0  0  0  0  0  0  0  0
  150.1414  140.1088  158.2072 C   0  0  0  0  0  0  0  0  0  0  0  0
  149.8276  138.8060  158.3468 C   0  0  0  0  0  0  0  0  0  0  0  0
  148.4589  138.3574  158.0812 C   0  0  0  0  0  0  0  0  0  0  0  0
  147.6392  138.9730  157.3981 O   0  0  0  0  0  0  0  0  0  0  0  0
  148.1544  137.1853  158.6605 N   0  0  0  0  0  0  0  0  0  0  0  0
  146.8624  136.5125  158.5612 C   0  0  0  0  0  0  0  0  0  0  0  0
  146.4929  135.7070  159.8478 C   0  0  0  0  0  0  0  0  0  0  0  0
  145.2633  134.8719  159.5892 N   0  3  0  0  0  0  0  0  0  0  0  0
  145.4094  133.8022  158.5662 C   0  0  0  0  0  0  0  0  0  0  0  0
  144.0134  135.6374  159.3374 C   0  0  0  0  0  0  0  0  0  0  0  0
  147.7316  134.8259  160.2198 C   0  0  0  0  0  0  0  0  0  0  0  0
  147.5863  133.8220  161.3785 C   0  0  0  0  0  0  0  0  0  0  0  0
  147.2519  134.4451  162.7396 C   0  0  0  0  0  0  0  0  0  0  0  0
  145.7858  134.8799  162.8315 C   0  0  0  0  0  0  0  0  0  0  0  0
  145.4856  136.2776  162.2702 C   0  0  0  0  0  0  0  0  0  0  0  0
  146.2507  136.7301  161.0044 C   0  0  0  0  0  0  0  0  0  0  0  0
  150.8932  137.9043  158.7598 C   0  0  0  0  0  0  0  0  0  0  0  0
  152.1364  138.3714  158.9867 C   0  0  0  0  0  0  0  0  0  0  0  0
  152.4685  139.7906  158.8319 C   0  0  0  0  0  0  0  0  0  0  0  0
  153.6047  140.2186  159.0354 O   0  0  0  0  0  0  0  0  0  0  0  0
  151.9454  145.7937  158.3739 H   0  0  0  0  0  0  0  0  0  0  0  0
  151.6536  144.3033  157.4762 H   0  0  0  0  0  0  0  0  0  0  0  0
  153.2768  144.6727  158.0866 H   0  0  0  0  0  0  0  0  0  0  0  0
  153.3161  142.6031  159.5027 H   0  0  0  0  0  0  0  0  0  0  0  0
  151.8634  142.2195  160.4140 H   0  0  0  0  0  0  0  0  0  0  0  0
  150.7192  142.5506  157.9643 H   0  0  0  0  0  0  0  0  0  0  0  0
  152.3221  142.2022  157.4195 H   0  0  0  0  0  0  0  0  0  0  0  0
  149.4303  140.8635  157.9005 H   0  0  0  0  0  0  0  0  0  0  0  0
  148.8689  136.7297  159.2095 H   0  0  0  0  0  0  0  0  0  0  0  0
  146.1147  137.2775  158.3498 H   0  0  0  0  0  0  0  0  0  0  0  0
  146.8926  135.8570  157.6903 H   0  0  0  0  0  0  0  0  0  0  0  0
  145.5662  134.2163  157.5703 H   0  0  0  0  0  0  0  0  0  0  0  0
  144.5018  133.1988  158.5264 H   0  0  0  0  0  0  0  0  0  0  0  0
  146.2230  133.1128  158.7808 H   0  0  0  0  0  0  0  0  0  0  0  0
  144.0156  136.0926  158.3469 H   0  0  0  0  0  0  0  0  0  0  0  0
  143.8367  136.4241  160.0676 H   0  0  0  0  0  0  0  0  0  0  0  0
  143.1534  134.9684  159.3828 H   0  0  0  0  0  0  0  0  0  0  0  0
  148.0663  134.2766  159.3394 H   0  0  0  0  0  0  0  0  0  0  0  0
  148.5769  135.4699  160.4648 H   0  0  0  0  0  0  0  0  0  0  0  0
  146.8542  133.0522  161.1367 H   0  0  0  0  0  0  0  0  0  0  0  0
  148.5346  133.2917  161.4754 H   0  0  0  0  0  0  0  0  0  0  0  0
  147.4274  133.6874  163.5042 H   0  0  0  0  0  0  0  0  0  0  0  0
  147.9256  135.2697  162.9762 H   0  0  0  0  0  0  0  0  0  0  0  0
  145.1528  134.1392  162.3418 H   0  0  0  0  0  0  0  0  0  0  0  0
  145.4786  134.8666  163.8779 H   0  0  0  0  0  0  0  0  0  0  0  0
  144.4117  136.3477  162.0997 H   0  0  0  0  0  0  0  0  0  0  0  0
  145.6898  137.0111  163.0513 H   0  0  0  0  0  0  0  0  0  0  0  0
  147.2135  137.1276  161.3283 H   0  0  0  0  0  0  0  0  0  0  0  0
  145.7265  137.6032  160.6135 H   0  0  0  0  0  0  0  0  0  0  0  0
  150.7173  136.8469  158.8915 H   0  0  0  0  0  0  0  0  0  0  0  0
  152.9114  137.6832  159.2912 H   0  0  0  0  0  0  0  0  0  0  0  0
  145.1040  134.3838  160.4593 H   0  0  0  0  0  0  0  0  0  0  0  0
  1  2  1  0  0  0  0
  1 26  1  0  0  0  0
  1 27  1  0  0  0  0
  1 28  1  0  0  0  0
  2  3  1  0  0  0  0
  3  4  1  0  0  0  0
  3 29  1  0  0  0  0
  3 30  1  0  0  0  0
  4  5  1  0  0  0  0
  4 31  1  0  0  0  0
  4 32  1  0  0  0  0
  5 24  1  0  0  0  0
  5  6  1  0  0  0  0
  6  7  2  0  0  0  0
  6 33  1  0  0  0  0
  7  8  1  0  0  0  0
  7 22  1  0  0  0  0
  8  9  2  0  0  0  0
  8 10  1  0  0  0  0
 10 11  1  0  0  0  0
 10 34  1  0  0  0  0
 11 12  1  0  0  0  0
 11 35  1  0  0  0  0
 11 36  1  0  0  0  0
 12 21  1  0  0  0  0
 12 13  1  0  0  0  0
 12 16  1  0  0  0  0
 13 14  1  0  0  0  0
 13 15  1  0  0  0  0
 13 57  1  0  0  0  0
 14 37  1  0  0  0  0
 14 38  1  0  0  0  0
 14 39  1  0  0  0  0
 15 40  1  0  0  0  0
 15 41  1  0  0  0  0
 15 42  1  0  0  0  0
 16 17  1  0  0  0  0
 16 43  1  0  0  0  0
 16 44  1  0  0  0  0
 17 18  1  0  0  0  0
 17 45  1  0  0  0  0
 17 46  1  0  0  0  0
 18 19  1  0  0  0  0
 18 47  1  0  0  0  0
 18 48  1  0  0  0  0
 19 20  1  0  0  0  0
 19 49  1  0  0  0  0
 19 50  1  0  0  0  0
 20 21  1  0  0  0  0
 20 51  1  0  0  0  0
 20 52  1  0  0  0  0
 21 53  1  0  0  0  0
 21 54  1  0  0  0  0
 22 23  2  0  0  0  0
 22 55  1  0  0  0  0
 23 24  1  0  0  0  0
 23 56  1  0  0  0  0
 24 25  2  0  0  0  0
M  CHG  1  13   1
M  END
> <s_m_source_file>
AV-unprocessed.smi

> <i_m_source_file_index>
1038

> <i_lp_mmshare_version>
43012

> <i_f3d_flags>
0

> <s_epik_input>
W0NIM11PW0NIMl1bQ0gyXW4xW2NIXWMoW2NIXVtjSF1jMT1PKUMoPU8pW05IXVtDSDJdQzIoTihbQ0gzXSlbQ0gzXSlbQ0gyXVtDSDJdW0NIMl1bQ0gyXVtDSDJdW0NIMl0y

> <s_epik_cmdline>
J2VwaWtfcHl0aG9uJywgJy1waCcsICc3LjAnLCAnLXRuJywgJzgnLCAnLW1hJywgJzIwMCcsICctbWV0YWxfYmluZGluZycsICctaW1hZScsICc8aW5maWxlLm1hZT4nLCAnLW9tYWUnLCAnPG91dGZpbGUubWFlPic=

> <r_lp_tautomer_probability>
1

> <r_epik_Ionization_Penalty>
0.00379096

> <r_epik_Ionization_Penalty_Charging>
0.0037899

> <r_epik_Ionization_Penalty_Neutral>
1.06849e-06

> <r_epik_State_Penalty>
0.00270348

> <r_epik_Charging_Adjusted_Penalty>
0.00649338

> <i_epik_Tot_Q>
1

> <i_epik_Tot_abs_Q>
1

> <r_epik_Metal_State_Penalty>
-0

> <b_epik_Metal_Only>
0

> <s_lp_Force_Field>
OPLS_2005

> <r_lp_Energy>
50.9414

> <b_lp_Chiralities_Consistent>
1

> <s_lp_Variant>
AV-unprocessed.smi:1038-1

> <Gold.Version>
5.8.1

> <Gold.Id.Protein>
6NUR|6NUR_protein|mol2

> <Gold.PLP.Fitness>
39.2781

> <Gold.PLP.PLP>
-37.3820

> <Gold.PLP.part.hbond>
-1.0000

> <Gold.PLP.part.metal>
0.0000

> <Gold.PLP.part.buried>
-5.8555

> <Gold.PLP.part.nonpolar>
-29.9084

> <Gold.PLP.part.repulsive>
0.1430

> <Gold.PLP.ligand.clash>
0.0000

> <Gold.PLP.ligand.torsion>
0.6597

> <Gold.PLP.Chemscore.Hbond>
0.9920

> <Gold.PLP.Chemscore.CHOScore>
0.0000

> <Gold.PLP.Chemscore.Metal>
0.0000

> <Gold.Chemscore.Hbonds>
donor molecule, donor type, donor heavy atom, donor atom, acceptor molecule, acceptor atom, score
      P1  H  7997  8009       L1    25  0.51

> <Gold.PLP.Chemscore.Internal.Correction>
0.2395

> <Gold.Rescore>
     Score         DG    S(hbond)    S(metal)    S(lipo)     H(rot)  DE(clash)    DE(int)     intcor
     14.45     -15.46       0.90        0.00     100.39       1.86       0.01       1.00       ----

> <Gold.Chemscore.Fitness>
14.4495

> <Gold.Chemscore.DG>
-15.4616

> <Gold.Chemscore.ZeroCoef>
-5.4800

> <Gold.Chemscore.Hbond>
0.9012

> <Gold.Chemscore.Metal>
0.0000

> <Gold.Chemscore.Lipo>
100.3892

> <Gold.Chemscore.Internal_Hbond>
0.0000

> <Gold.Chemscore.DEClash>
0.0110

> <Gold.Chemscore.DEInternal>
1.0011

> <Gold.Chemscore.Rot>
1.8649

> <Gold.Chemscore.Internal.Correction>
   9.000000E+99

> <Gold.Chemscore.Hbonds>
donor molecule, donor type, donor heavy atom, donor atom, acceptor molecule, acceptor atom, score
      P1  H  7997  8009       L1    25  0.42

> <Gold.Chemscore.Hbond.Weighted>
-3.0102

> <Gold.Chemscore.Metal.Weighted>
-0.0000

> <Gold.Chemscore.Lipo.Weighted>
-11.7455

> <Gold.Chemscore.Internal_Hbond.Weighted>
0.0000

> <Gold.Chemscore.DEClash.Weighted>
0.0110

> <Gold.Chemscore.DEInternal.Weighted>
1.0011

> <Gold.Chemscore.Rot.Weighted>
4.7741

> <Gold.Chemscore.Internal.Correction.Weighted>
   9.000000E+99

> <Gold.Protein.RotatedTorsions>
[ 6907 6896 6895 6894 ] final -166.55 input  -60.11 | X-H torsion
[ 7974 7965 7964 7962 ] final   17.24 input  175.53 | X-H torsion
[ 8008 7997 7996 7995 ] final  130.47 input   59.86 | X-H torsion
[ 10167 10162 10161 10158 ] final    7.62 input  -65.29 | X-H torsion
[ 10718 10713 10712 10709 ] final   94.25 input   66.30 | X-H torsion
[ 10763 10752 10751 10750 ] final  -38.66 input  -60.55 | X-H torsion
[ 11005 11000 10999 10996 ] final -170.70 input  -57.11 | X-H torsion

> <Gold.Protein.ActiveResidues>
 VAL166  LYS551  ARG553  GLY616  TRP617  ASP618  TYR619  PRO620  LYS621  CYS622 
 ASP623  PHE694  ASN695  SER759  ASP760  ASP761  ALA762  ILE779  LEU786  VAL792 
 PHE793  MET794  SER795  GLU796  ALA797  LYS798  CYS799  TRP800  GLU811  SER814 

> <Gold.Protein.RotatedAtoms>
  151.4454  133.3632  159.2787 H   0  0  0  0  0  0  0  0  0  0  0  0  # atno 6907 bound_to 6896
  150.9128  134.8547  159.7448 H   0  0  0  0  0  0  0  0  0  0  0  0  # atno 6908 bound_to 6896
  152.4941  134.4385  159.9587 H   0  0  0  0  0  0  0  0  0  0  0  0  # atno 6909 bound_to 6896
  146.2225  139.8631  142.8601 H   0  0  0  0  0  0  0  0  0  0  0  0  # atno 7974 bound_to 7965
  156.2955  140.2595  156.2768 H   0  0  0  0  0  0  0  0  0  0  0  0  # atno 8008 bound_to 7997
  154.9641  140.0392  157.2222 H   0  0  0  0  0  0  0  0  0  0  0  0  # atno 8009 bound_to 7997
  154.7919  140.2813  155.5990 H   0  0  0  0  0  0  0  0  0  0  0  0  # atno 8010 bound_to 7997
  140.6361  143.7882  150.7362 H   0  0  0  0  0  0  0  0  0  0  0  0  # atno 10167 bound_to 10162
  157.6949  131.0506  150.4158 H   0  0  0  0  0  0  0  0  0  0  0  0  # atno 10718 bound_to 10713
  153.9165  135.6787  153.4749 H   0  0  0  0  0  0  0  0  0  0  0  0  # atno 10763 bound_to 10752
  153.1051  135.4809  154.8934 H   0  0  0  0  0  0  0  0  0  0  0  0  # atno 10764 bound_to 10752
  154.7500  135.3182  154.8530 H   0  0  0  0  0  0  0  0  0  0  0  0  # atno 10765 bound_to 10752
  140.5165  134.5750  157.5035 H   0  0  0  0  0  0  0  0  0  0  0  0  # atno 11005 bound_to 11000
  145.2684  141.0100  143.3786 LP  0  0  0  0  0  0  0  0  0  0  0  0  # atno 17320 bound_to 7965
  144.9243  139.4374  143.6526 LP  0  0  0  0  0  0  0  0  0  0  0  0  # atno 17321 bound_to 7965
  140.1504  143.4363  152.2135 LP  0  0  0  0  0  0  0  0  0  0  0  0  # atno 17342 bound_to 10162
  139.5572  144.7381  151.4261 LP  0  0  0  0  0  0  0  0  0  0  0  0  # atno 17343 bound_to 10162
  156.4538  130.4017  149.6619 LP  0  0  0  0  0  0  0  0  0  0  0  0  # atno 17370 bound_to 10713
  156.3759  130.7554  151.2542 LP  0  0  0  0  0  0  0  0  0  0  0  0  # atno 17371 bound_to 10713
  139.9629  134.7421  156.0198 LP  0  0  0  0  0  0  0  0  0  0  0  0  # atno 17394 bound_to 11000
  141.1357  133.6575  156.3587 LP  0  0  0  0  0  0  0  0  0  0  0  0  # atno 17395 bound_to 11000

$$$$
