AV-unprocessed.smi:2439|AV-procd|sdf|9611|dock7
  -GOLD-   2272013243D 1   1.00000     0.00000
 Structure written by MMmdl.
 40 42  0  0  0  0  0  0  0  0  1 V2000
  151.6411  136.8794  154.6868 N   0  0  0  0  0  0  0  0  0  0  0  0
  150.8889  137.7525  154.5838 C   0  0  0  0  0  0  0  0  0  0  0  0
  149.9412  138.8527  154.4532 C   0  0  0  0  0  0  0  0  0  0  0  0
  148.7497  138.6446  153.7271 C   0  0  0  0  0  0  0  0  0  0  0  0
  147.8310  139.7022  153.5984 C   0  0  0  0  0  0  0  0  0  0  0  0
  148.1447  140.9332  154.2022 C   0  0  0  0  0  0  0  0  0  0  0  0
  149.2813  141.1463  154.8971 N   0  0  0  0  0  0  0  0  0  0  0  0
  150.1702  140.1310  155.0303 C   0  0  0  0  0  0  0  0  0  0  0  0
  151.3472  140.3816  155.7604 N   0  0  0  0  0  0  0  0  0  0  0  0
  151.4701  141.5260  156.6556 C   0  0  0  0  0  0  0  0  0  0  0  0
  151.7638  141.1089  158.1060 C   0  0  2  0  0  0  0  0  0  0  0  0
  152.0407  142.3298  159.0019 C   0  0  0  0  0  0  0  0  0  0  0  0
  152.3925  141.9379  160.3608 N   0  0  0  0  0  0  0  0  0  0  0  0
  152.6581  143.1057  161.1991 C   0  0  0  0  0  0  0  0  0  0  0  0
  152.9978  142.7215  162.6477 C   0  0  0  0  0  0  0  0  0  0  0  0
  154.1954  141.7610  162.6776 C   0  0  0  0  0  0  0  0  0  0  0  0
  153.9337  140.5625  161.7524 C   0  0  0  0  0  0  0  0  0  0  0  0
  153.5460  141.0334  160.3354 C   0  0  1  0  0  0  0  0  0  0  0  0
  153.2781  139.8261  159.4137 C   0  0  0  0  0  0  0  0  0  0  0  0
  152.9230  140.2791  158.1113 O   0  0  0  0  0  0  0  0  0  0  0  0
  148.5372  137.6876  153.2724 H   0  0  0  0  0  0  0  0  0  0  0  0
  146.9096  139.5731  153.0503 H   0  0  0  0  0  0  0  0  0  0  0  0
  147.4657  141.7695  154.1248 H   0  0  0  0  0  0  0  0  0  0  0  0
  152.0484  139.6571  155.8206 H   0  0  0  0  0  0  0  0  0  0  0  0
  152.2705  142.1681  156.2873 H   0  0  0  0  0  0  0  0  0  0  0  0
  150.5592  142.1238  156.6085 H   0  0  0  0  0  0  0  0  0  0  0  0
  150.9170  140.5530  158.5125 H   0  0  0  0  0  0  0  0  0  0  0  0
  152.8475  142.9229  158.5679 H   0  0  0  0  0  0  0  0  0  0  0  0
  151.1590  142.9715  159.0222 H   0  0  0  0  0  0  0  0  0  0  0  0
  153.4798  143.6856  160.7759 H   0  0  0  0  0  0  0  0  0  0  0  0
  151.7866  143.7613  161.2002 H   0  0  0  0  0  0  0  0  0  0  0  0
  153.2169  143.6146  163.2331 H   0  0  0  0  0  0  0  0  0  0  0  0
  152.1329  142.2469  163.1130 H   0  0  0  0  0  0  0  0  0  0  0  0
  155.0934  142.2862  162.3500 H   0  0  0  0  0  0  0  0  0  0  0  0
  154.3844  141.4207  163.6960 H   0  0  0  0  0  0  0  0  0  0  0  0
  154.8199  139.9284  161.7107 H   0  0  0  0  0  0  0  0  0  0  0  0
  153.1327  139.9502  162.1690 H   0  0  0  0  0  0  0  0  0  0  0  0
  154.3988  141.5749  159.9220 H   0  0  0  0  0  0  0  0  0  0  0  0
  154.1683  139.2016  159.3358 H   0  0  0  0  0  0  0  0  0  0  0  0
  152.4808  139.1976  159.8141 H   0  0  0  0  0  0  0  0  0  0  0  0
  1  2  3  0  0  0  0
  2  3  1  0  0  0  0
  3  8  1  0  0  0  0
  3  4  2  0  0  0  0
  4  5  1  0  0  0  0
  4 21  1  0  0  0  0
  5  6  2  0  0  0  0
  5 22  1  0  0  0  0
  6  7  1  0  0  0  0
  6 23  1  0  0  0  0
  7  8  2  0  0  0  0
  8  9  1  0  0  0  0
  9 10  1  0  0  0  0
  9 24  1  0  0  0  0
 10 11  1  0  0  0  0
 10 25  1  0  0  0  0
 10 26  1  0  0  0  0
 11 20  1  0  0  0  0
 11 12  1  0  0  0  0
 11 27  1  0  0  0  0
 12 13  1  0  0  0  0
 12 28  1  0  0  0  0
 12 29  1  0  0  0  0
 13 18  1  0  0  0  0
 13 14  1  0  0  0  0
 14 15  1  0  0  0  0
 14 30  1  0  0  0  0
 14 31  1  0  0  0  0
 15 16  1  0  0  0  0
 15 32  1  0  0  0  0
 15 33  1  0  0  0  0
 16 17  1  0  0  0  0
 16 34  1  0  0  0  0
 16 35  1  0  0  0  0
 17 18  1  0  0  0  0
 17 36  1  0  0  0  0
 17 37  1  0  0  0  0
 18 19  1  0  0  0  0
 18 38  1  0  0  0  0
 19 20  1  0  0  0  0
 19 39  1  0  0  0  0
 19 40  1  0  0  0  0
M  END
> <s_m_source_file>
AV-unprocessed.smi

> <i_m_source_file_index>
2439

> <i_lp_mmshare_version>
43012

> <i_f3d_flags>
0

> <s_epik_input>
TiNDYzFbY0hdW2NIXVtjSF1uYzFbTkhdW0NIMl1bQ0BIXShbQ0gyXTIpT1tDSDJdW0NAQEhdKE4yMylbQ0gyXVtDSDJdW0NIMl1bQ0gyXTM=

> <s_epik_cmdline>
J2VwaWtfcHl0aG9uJywgJy1waCcsICc3LjAnLCAnLXRuJywgJzgnLCAnLW1hJywgJzIwMCcsICctbWV0YWxfYmluZGluZycsICctaW1hZScsICc8aW5maWxlLm1hZT4nLCAnLW9tYWUnLCAnPG91dGZpbGUubWFlPic=

> <r_epik_Ionization_Penalty>
1.22355

> <r_epik_Ionization_Penalty_Charging>
0

> <r_epik_Ionization_Penalty_Neutral>
1.22355

> <r_epik_State_Penalty>
1.29103

> <r_epik_Charging_Adjusted_Penalty>
1.29103

> <i_epik_Tot_Q>
0

> <i_epik_Tot_abs_Q>
0

> <r_epik_Metal_State_Penalty>
1.29103

> <b_epik_Metal_Only>
0

> <s_lp_Force_Field>
OPLS_2005

> <r_lp_Energy>
37.4104

> <b_lp_Chiralities_Consistent>
1

> <s_lp_Variant>
AV-unprocessed.smi:2439-9

> <Gold.Version>
5.8.1

> <Gold.Id.Protein>
6NUR|6NUR_protein|mol2

> <Gold.PLP.Fitness>
44.4369

> <Gold.PLP.PLP>
-38.8595

> <Gold.PLP.part.hbond>
-2.0000

> <Gold.PLP.part.metal>
0.0000

> <Gold.PLP.part.buried>
-1.0560

> <Gold.PLP.part.nonpolar>
-35.4405

> <Gold.PLP.part.repulsive>
0.4523

> <Gold.PLP.ligand.clash>
0.0000

> <Gold.PLP.ligand.torsion>
0.0803

> <Gold.PLP.Chemscore.Hbond>
1.9120

> <Gold.PLP.Chemscore.CHOScore>
0.0000

> <Gold.PLP.Chemscore.Metal>
0.0000

> <Gold.Chemscore.Hbonds>
donor molecule, donor type, donor heavy atom, donor atom, acceptor molecule, acceptor atom, score
      P1  H  7997  8010       L1    20  0.93
      P1  H 10752 10763       L1     1  1.00

> <Gold.PLP.Chemscore.Internal.Correction>
0.0019

> <Gold.Rescore>
     Score         DG    S(hbond)    S(metal)    S(lipo)     H(rot)  DE(clash)    DE(int)     intcor
     19.87     -20.05       1.70        0.00     103.25       1.25       0.09       0.09       ----

> <Gold.Chemscore.Fitness>
19.8657

> <Gold.Chemscore.DG>
-20.0531

> <Gold.Chemscore.ZeroCoef>
-5.4800

> <Gold.Chemscore.Hbond>
1.7033

> <Gold.Chemscore.Metal>
0.0000

> <Gold.Chemscore.Lipo>
103.2499

> <Gold.Chemscore.Internal_Hbond>
0.0000

> <Gold.Chemscore.DEClash>
0.0943

> <Gold.Chemscore.DEInternal>
0.0931

> <Gold.Chemscore.Rot>
1.2485

> <Gold.Chemscore.Internal.Correction>
   9.000000E+99

> <Gold.Chemscore.Hbonds>
donor molecule, donor type, donor heavy atom, donor atom, acceptor molecule, acceptor atom, score
      P1  H  7997  8010       L1    20  0.61
      P1  H 10752 10763       L1     1  1.00

> <Gold.Chemscore.Hbond.Weighted>
-5.6890

> <Gold.Chemscore.Metal.Weighted>
-0.0000

> <Gold.Chemscore.Lipo.Weighted>
-12.0802

> <Gold.Chemscore.Internal_Hbond.Weighted>
0.0000

> <Gold.Chemscore.DEClash.Weighted>
0.0943

> <Gold.Chemscore.DEInternal.Weighted>
0.0931

> <Gold.Chemscore.Rot.Weighted>
3.1961

> <Gold.Chemscore.Internal.Correction.Weighted>
   9.000000E+99

> <Gold.Protein.RotatedTorsions>
[ 6907 6896 6895 6894 ] final   94.12 input  -60.11 | X-H torsion
[ 7974 7965 7964 7962 ] final -143.68 input  175.53 | X-H torsion
[ 8008 7997 7996 7995 ] final   44.69 input   59.86 | X-H torsion
[ 10167 10162 10161 10158 ] final  176.60 input  -65.29 | X-H torsion
[ 10718 10713 10712 10709 ] final  -86.25 input   66.30 | X-H torsion
[ 10763 10752 10751 10750 ] final   52.39 input  -60.55 | X-H torsion
[ 11005 11000 10999 10996 ] final    0.21 input  -57.11 | X-H torsion

> <Gold.Protein.ActiveResidues>
 VAL166  LYS551  ARG553  GLY616  TRP617  ASP618  TYR619  PRO620  LYS621  CYS622 
 ASP623  PHE694  ASN695  SER759  ASP760  ASP761  ALA762  ILE779  LEU786  VAL792 
 PHE793  MET794  SER795  GLU796  ALA797  LYS798  CYS799  TRP800  GLU811  SER814 

> <Gold.Protein.RotatedAtoms>
  152.5450  134.1242  159.8411 H   0  0  0  0  0  0  0  0  0  0  0  0  # atno 6907 bound_to 6896
  151.1295  133.5040  159.2607 H   0  0  0  0  0  0  0  0  0  0  0  0  # atno 6908 bound_to 6896
  151.1691  135.0319  159.8798 H   0  0  0  0  0  0  0  0  0  0  0  0  # atno 6909 bound_to 6896
  144.8352  140.5805  143.5488 H   0  0  0  0  0  0  0  0  0  0  0  0  # atno 7974 bound_to 7965
  155.3235  140.3398  155.4240 H   0  0  0  0  0  0  0  0  0  0  0  0  # atno 8008 bound_to 7997
  156.1897  140.1693  156.8153 H   0  0  0  0  0  0  0  0  0  0  0  0  # atno 8009 bound_to 7997
  154.5427  140.0721  156.8521 H   0  0  0  0  0  0  0  0  0  0  0  0  # atno 8010 bound_to 7997
  139.5220  144.2897  152.0475 H   0  0  0  0  0  0  0  0  0  0  0  0  # atno 10167 bound_to 10162
  155.9991  130.4759  150.4686 H   0  0  0  0  0  0  0  0  0  0  0  0  # atno 10718 bound_to 10713
  152.9789  135.5814  154.4570 H   0  0  0  0  0  0  0  0  0  0  0  0  # atno 10763 bound_to 10752
  154.4151  135.2770  155.2013 H   0  0  0  0  0  0  0  0  0  0  0  0  # atno 10764 bound_to 10752
  154.3787  135.6151  153.5833 H   0  0  0  0  0  0  0  0  0  0  0  0  # atno 10765 bound_to 10752
  140.6291  133.9592  155.8265 H   0  0  0  0  0  0  0  0  0  0  0  0  # atno 11005 bound_to 11000
  145.4810  139.1495  143.3762 LP  0  0  0  0  0  0  0  0  0  0  0  0  # atno 17320 bound_to 7965
  146.2651  140.4946  142.8837 LP  0  0  0  0  0  0  0  0  0  0  0  0  # atno 17321 bound_to 7965
  140.2348  144.4331  150.6284 LP  0  0  0  0  0  0  0  0  0  0  0  0  # atno 17342 bound_to 10162
  140.6331  143.2190  151.6454 LP  0  0  0  0  0  0  0  0  0  0  0  0  # atno 17343 bound_to 10162
  157.2703  131.0586  151.2264 LP  0  0  0  0  0  0  0  0  0  0  0  0  # atno 17370 bound_to 10713
  157.3346  130.7002  149.6345 LP  0  0  0  0  0  0  0  0  0  0  0  0  # atno 17371 bound_to 10713
  141.0688  134.0236  157.3555 LP  0  0  0  0  0  0  0  0  0  0  0  0  # atno 17394 bound_to 11000
  139.9123  135.0192  156.7742 LP  0  0  0  0  0  0  0  0  0  0  0  0  # atno 17395 bound_to 11000

$$$$
