AV-unprocessed.smi:1867|AV-procd|sdf|7573|dock6
  -GOLD-   22720 9283D 1   1.00000     0.00000
 Structure written by MMmdl.
 53 56  0  0  0  0  0  0  0  0  3 V2000
  146.5539  137.4634  155.2070 O   0  0  0  0  0  0  0  0  0  0  0  0
  147.2340  137.2707  154.2028 C   0  0  0  0  0  0  0  0  0  0  0  0
  148.4458  137.8157  153.9731 N   0  0  0  0  0  0  0  0  0  0  0  0
  149.2068  138.7032  154.7840 C   0  0  0  0  0  0  0  0  0  0  0  0
  150.5888  138.8021  154.5164 C   0  0  0  0  0  0  0  0  0  0  0  0
  151.3968  139.6604  155.2900 C   0  0  0  0  0  0  0  0  0  0  0  0
  150.8145  140.4188  156.3326 C   0  0  0  0  0  0  0  0  0  0  0  0
  151.5557  141.2910  157.1521 N   0  0  0  0  0  0  0  0  0  0  0  0
  151.1047  142.6437  157.4320 C   0  0  0  0  0  0  0  0  0  0  0  0
  152.1025  143.1780  158.4588 C   0  0  0  0  0  0  0  0  0  0  0  0
  152.4929  141.9279  159.2478 C   0  0  0  0  0  0  0  0  0  0  0  0
  152.4194  140.7958  158.2165 C   0  0  0  0  0  0  0  0  0  0  0  0
  149.4862  140.2878  156.5601 N   0  3  0  0  0  0  0  0  0  0  0  0
  148.6762  139.4781  155.8443 C   0  0  0  0  0  0  0  0  0  0  0  0
  146.7945  136.4691  153.2160 N   0  0  0  0  0  0  0  0  0  0  0  0
  145.5353  135.7270  153.1434 C   0  0  1  0  0  0  0  0  0  0  0  0
  144.2895  136.6069  153.0738 C   0  0  0  0  0  0  0  0  0  0  0  0
  143.2475  135.6483  152.4939 C   0  0  0  0  0  0  0  0  0  0  0  0
  143.9849  134.7519  151.5741 N   0  3  2  0  0  0  0  0  0  0  0  0
  143.4814  133.3572  151.5328 C   0  0  0  0  0  0  0  0  0  0  0  0
  144.3029  132.5103  150.5426 C   0  0  0  0  0  0  0  0  0  0  0  0
  145.8266  132.6328  150.7581 C   0  0  0  0  0  0  0  0  0  0  0  0
  146.1800  133.5448  151.9431 C   0  0  0  0  0  0  0  0  0  0  0  0
  145.4417  134.8991  151.8528 C   0  0  2  0  0  0  0  0  0  0  0  0
  148.8690  137.5757  153.0888 H   0  0  0  0  0  0  0  0  0  0  0  0
  151.0341  138.2229  153.7206 H   0  0  0  0  0  0  0  0  0  0  0  0
  152.4530  139.7234  155.0740 H   0  0  0  0  0  0  0  0  0  0  0  0
  151.0873  143.2598  156.5326 H   0  0  0  0  0  0  0  0  0  0  0  0
  150.0984  142.6117  157.8522 H   0  0  0  0  0  0  0  0  0  0  0  0
  152.9794  143.5788  157.9486 H   0  0  0  0  0  0  0  0  0  0  0  0
  151.6866  143.9675  159.0854 H   0  0  0  0  0  0  0  0  0  0  0  0
  153.4738  142.0095  159.7169 H   0  0  0  0  0  0  0  0  0  0  0  0
  151.7594  141.7521  160.0359 H   0  0  0  0  0  0  0  0  0  0  0  0
  152.0380  139.8801  158.6702 H   0  0  0  0  0  0  0  0  0  0  0  0
  153.4055  140.5871  157.8005 H   0  0  0  0  0  0  0  0  0  0  0  0
  147.6452  139.4884  156.1622 H   0  0  0  0  0  0  0  0  0  0  0  0
  147.4127  136.3606  152.4243 H   0  0  0  0  0  0  0  0  0  0  0  0
  145.4461  135.0567  154.0007 H   0  0  0  0  0  0  0  0  0  0  0  0
  143.9957  137.0120  154.0426 H   0  0  0  0  0  0  0  0  0  0  0  0
  144.4502  137.4431  152.3912 H   0  0  0  0  0  0  0  0  0  0  0  0
  142.8054  135.0669  153.3047 H   0  0  0  0  0  0  0  0  0  0  0  0
  142.4398  136.1699  151.9801 H   0  0  0  0  0  0  0  0  0  0  0  0
  143.5288  132.9187  152.5310 H   0  0  0  0  0  0  0  0  0  0  0  0
  142.4305  133.3589  151.2411 H   0  0  0  0  0  0  0  0  0  0  0  0
  143.9999  131.4656  150.6211 H   0  0  0  0  0  0  0  0  0  0  0  0
  144.0624  132.8149  149.5230 H   0  0  0  0  0  0  0  0  0  0  0  0
  146.2653  131.6458  150.9089 H   0  0  0  0  0  0  0  0  0  0  0  0
  146.2849  133.0305  149.8514 H   0  0  0  0  0  0  0  0  0  0  0  0
  145.9196  133.0359  152.8724 H   0  0  0  0  0  0  0  0  0  0  0  0
  147.2577  133.7071  151.9821 H   0  0  0  0  0  0  0  0  0  0  0  0
  145.8495  135.4740  151.0193 H   0  0  0  0  0  0  0  0  0  0  0  0
  143.8528  135.1243  150.6443 H   0  0  0  0  0  0  0  0  0  0  0  0
  149.0717  140.8310  157.3176 H   0  0  0  0  0  0  0  0  0  0  0  0
  1  2  2  0  0  0  0
  2  3  1  0  0  0  0
  2 15  1  0  0  0  0
  3  4  1  0  0  0  0
  3 25  1  0  0  0  0
  4 14  1  0  0  0  0
  4  5  2  0  0  0  0
  5  6  1  0  0  0  0
  5 26  1  0  0  0  0
  6  7  2  0  0  0  0
  6 27  1  0  0  0  0
  7  8  1  0  0  0  0
  7 13  1  0  0  0  0
  8 12  1  0  0  0  0
  8  9  1  0  0  0  0
  9 10  1  0  0  0  0
  9 28  1  0  0  0  0
  9 29  1  0  0  0  0
 10 11  1  0  0  0  0
 10 30  1  0  0  0  0
 10 31  1  0  0  0  0
 11 12  1  0  0  0  0
 11 32  1  0  0  0  0
 11 33  1  0  0  0  0
 12 34  1  0  0  0  0
 12 35  1  0  0  0  0
 13 14  2  0  0  0  0
 13 53  1  0  0  0  0
 14 36  1  0  0  0  0
 15 16  1  0  0  0  0
 15 37  1  0  0  0  0
 16 24  1  0  0  0  0
 16 17  1  0  0  0  0
 16 38  1  0  0  0  0
 17 18  1  0  0  0  0
 17 39  1  0  0  0  0
 17 40  1  0  0  0  0
 18 19  1  0  0  0  0
 18 41  1  0  0  0  0
 18 42  1  0  0  0  0
 19 24  1  0  0  0  0
 19 20  1  0  0  0  0
 19 52  1  0  0  0  0
 20 21  1  0  0  0  0
 20 43  1  0  0  0  0
 20 44  1  0  0  0  0
 21 22  1  0  0  0  0
 21 45  1  0  0  0  0
 21 46  1  0  0  0  0
 22 23  1  0  0  0  0
 22 47  1  0  0  0  0
 22 48  1  0  0  0  0
 23 24  1  0  0  0  0
 23 49  1  0  0  0  0
 23 50  1  0  0  0  0
 24 51  1  0  0  0  0
M  CHG  1  13   1
M  CHG  1  19   1
M  END
> <s_m_source_file>
AV-unprocessed.smi

> <i_m_source_file_index>
1867

> <i_lp_mmshare_version>
43012

> <i_f3d_flags>
0

> <s_epik_input>
W0NIMl0xW0NIMl1bQ0gyXVtDSDJdW0NASF0oTjEyKVtDQEBIXShbQ0gyXVtDSDJdMilbTkhdQyg9TylbTkhdYzNbY0hdW2NIXWMobltjSF0zKU40W0NIMl1bQ0gyXVtDSDJdW0NIMl00

> <s_epik_cmdline>
J2VwaWtfcHl0aG9uJywgJy1waCcsICc3LjAnLCAnLXRuJywgJzgnLCAnLW1hJywgJzIwMCcsICctbWV0YWxfYmluZGluZycsICctaW1hZScsICc8aW5maWxlLm1hZT4nLCAnLW9tYWUnLCAnPG91dGZpbGUubWFlPic=

> <r_lp_tautomer_probability>
0.999994

> <r_epik_Ionization_Penalty>
1.27347

> <r_epik_Ionization_Penalty_Charging>
1.27345

> <r_epik_Ionization_Penalty_Neutral>
1.96458e-05

> <r_epik_State_Penalty>
1.34393

> <r_epik_Charging_Adjusted_Penalty>
2.61738

> <i_epik_Tot_Q>
2

> <i_epik_Tot_abs_Q>
2

> <r_epik_Metal_State_Penalty>
1.41094

> <b_epik_Metal_Only>
0

> <s_lp_Force_Field>
OPLS_2005

> <r_lp_Energy>
84.8883

> <b_lp_Chiralities_Consistent>
1

> <s_lp_Variant>
AV-unprocessed.smi:1867-14

> <Gold.Version>
5.8.1

> <Gold.Id.Protein>
6NUR|6NUR_protein|mol2

> <Gold.PLP.Fitness>
42.6375

> <Gold.PLP.PLP>
-39.2295

> <Gold.PLP.part.hbond>
-2.0000

> <Gold.PLP.part.metal>
0.0000

> <Gold.PLP.part.buried>
-5.1590

> <Gold.PLP.part.nonpolar>
-32.3548

> <Gold.PLP.part.repulsive>
0.0618

> <Gold.PLP.ligand.clash>
0.0000

> <Gold.PLP.ligand.torsion>
1.2108

> <Gold.PLP.Chemscore.Hbond>
1.8800

> <Gold.PLP.Chemscore.CHOScore>
0.0000

> <Gold.PLP.Chemscore.Metal>
0.0000

> <Gold.Chemscore.Hbonds>
donor molecule, donor type, donor heavy atom, donor atom, acceptor molecule, acceptor atom, score
      L1  H     3    25       P1  7948  0.86
      L1  H    15    37       P1  7948  0.99

> <Gold.PLP.Chemscore.Internal.Correction>
0.1897

> <Gold.Rescore>
     Score         DG    S(hbond)    S(metal)    S(lipo)     H(rot)  DE(clash)    DE(int)     intcor
     18.67     -20.89       1.89        0.00      99.64       1.00       0.02       2.20       ----

> <Gold.Chemscore.Fitness>
18.6657

> <Gold.Chemscore.DG>
-20.8933

> <Gold.Chemscore.ZeroCoef>
-5.4800

> <Gold.Chemscore.Hbond>
1.8909

> <Gold.Chemscore.Metal>
0.0000

> <Gold.Chemscore.Lipo>
99.6398

> <Gold.Chemscore.Internal_Hbond>
0.0000

> <Gold.Chemscore.DEClash>
0.0247

> <Gold.Chemscore.DEInternal>
2.2029

> <Gold.Chemscore.Rot>
1.0000

> <Gold.Chemscore.Internal.Correction>
   9.000000E+99

> <Gold.Chemscore.Hbonds>
donor molecule, donor type, donor heavy atom, donor atom, acceptor molecule, acceptor atom, score
      L1  H     3    25       P1  7948  0.85
      L1  H    15    37       P1  7948  0.93

> <Gold.Chemscore.Hbond.Weighted>
-6.3155

> <Gold.Chemscore.Metal.Weighted>
-0.0000

> <Gold.Chemscore.Lipo.Weighted>
-11.6579

> <Gold.Chemscore.Internal_Hbond.Weighted>
0.0000

> <Gold.Chemscore.DEClash.Weighted>
0.0247

> <Gold.Chemscore.DEInternal.Weighted>
2.2029

> <Gold.Chemscore.Rot.Weighted>
2.5600

> <Gold.Chemscore.Internal.Correction.Weighted>
   9.000000E+99

> <Gold.Protein.RotatedTorsions>
[ 6907 6896 6895 6894 ] final  119.02 input  -60.11 | X-H torsion
[ 7974 7965 7964 7962 ] final   51.04 input  175.53 | X-H torsion
[ 8008 7997 7996 7995 ] final   43.89 input   59.86 | X-H torsion
[ 10167 10162 10161 10158 ] final   12.35 input  -65.29 | X-H torsion
[ 10718 10713 10712 10709 ] final -109.23 input   66.30 | X-H torsion
[ 10763 10752 10751 10750 ] final  -52.69 input  -60.55 | X-H torsion
[ 11005 11000 10999 10996 ] final -102.44 input  -57.11 | X-H torsion

> <Gold.Protein.ActiveResidues>
 VAL166  LYS551  ARG553  GLY616  TRP617  ASP618  TYR619  PRO620  LYS621  CYS622 
 ASP623  PHE694  ASN695  SER759  ASP760  ASP761  ALA762  ILE779  LEU786  VAL792 
 PHE793  MET794  SER795  GLU796  ALA797  LYS798  CYS799  TRP800  GLU811  SER814 

> <Gold.Protein.RotatedAtoms>
  152.4502  133.7614  159.6748 H   0  0  0  0  0  0  0  0  0  0  0  0  # atno 6907 bound_to 6896
  150.8411  133.7924  159.3066 H   0  0  0  0  0  0  0  0  0  0  0  0  # atno 6908 bound_to 6896
  151.5548  135.1069  160.0010 H   0  0  0  0  0  0  0  0  0  0  0  0  # atno 6909 bound_to 6896
  145.9953  139.4381  143.0048 H   0  0  0  0  0  0  0  0  0  0  0  0  # atno 7974 bound_to 7965
  155.3103  140.3390  155.4244 H   0  0  0  0  0  0  0  0  0  0  0  0  # atno 8008 bound_to 7997
  156.1959  140.1714  156.8037 H   0  0  0  0  0  0  0  0  0  0  0  0  # atno 8009 bound_to 7997
  154.5498  140.0708  156.8633 H   0  0  0  0  0  0  0  0  0  0  0  0  # atno 8010 bound_to 7997
  140.6073  143.8481  150.7027 H   0  0  0  0  0  0  0  0  0  0  0  0  # atno 10167 bound_to 10162
  156.0526  130.5753  150.8071 H   0  0  0  0  0  0  0  0  0  0  0  0  # atno 10718 bound_to 10713
  154.1468  135.6496  153.4954 H   0  0  0  0  0  0  0  0  0  0  0  0  # atno 10763 bound_to 10752
  153.0149  135.5328  154.6848 H   0  0  0  0  0  0  0  0  0  0  0  0  # atno 10764 bound_to 10752
  154.6125  135.2955  155.0387 H   0  0  0  0  0  0  0  0  0  0  0  0  # atno 10765 bound_to 10752
  141.1189  133.8559  157.1360 H   0  0  0  0  0  0  0  0  0  0  0  0  # atno 11005 bound_to 11000
  145.7569  140.9950  143.1220 LP  0  0  0  0  0  0  0  0  0  0  0  0  # atno 17320 bound_to 7965
  144.6901  139.9283  143.7470 LP  0  0  0  0  0  0  0  0  0  0  0  0  # atno 17321 bound_to 7965
  140.2041  143.3936  152.1769 LP  0  0  0  0  0  0  0  0  0  0  0  0  # atno 17342 bound_to 10162
  139.5335  144.7184  151.4975 LP  0  0  0  0  0  0  0  0  0  0  0  0  # atno 17343 bound_to 10162
  157.5467  131.0942  150.9752 LP  0  0  0  0  0  0  0  0  0  0  0  0  # atno 17370 bound_to 10713
  157.0022  130.5604  149.5312 LP  0  0  0  0  0  0  0  0  0  0  0  0  # atno 17371 bound_to 10713
  140.0131  134.9979  157.0436 LP  0  0  0  0  0  0  0  0  0  0  0  0  # atno 17394 bound_to 11000
  140.4566  134.1527  155.7187 LP  0  0  0  0  0  0  0  0  0  0  0  0  # atno 17395 bound_to 11000

$$$$
