#       Name:                AV-unprocessed.smi:203
#       Creating user name   scv26
#       Creation time:       Thu Mar 26 19:47:28 2020


#       File generated by GOLD software.
#

@<TRIPOS>MOLECULE
AV-unprocessed.smi:203
    67    71     1
SMALL
NO_CHARGES


@<TRIPOS>ATOM
      1 ****        -4.8193   0.6000  -4.8454 O.2            1 S1                 0.0000
      2 ****        -4.1163   0.9021  -3.8841 C.2            1 S1                 0.0000
      3 ****        -2.8301   0.1779  -3.5256 C.3            1 S1                 0.0000
      4 ****        -2.4586   0.7562  -2.1459 C.3            1 S1                 0.0000
      5 ****        -2.5785  -0.2709  -0.9754 C.3            1 S1                 0.0000
      6 ****        -4.0132  -0.8425  -0.8223 C.3            1 S1                 0.0000
      7 ****        -4.1045  -1.8496   0.3318 C.3            1 S1                 0.0000
      8 ****        -3.6149  -1.2006   1.6305 C.3            1 S1                 0.0000
      9 ****        -2.1931  -0.6532   1.4499 C.3            1 S1                 0.0000
     10 ****        -2.1166   0.2684   0.3166 N.3            1 S1                 0.0000
     11 ****        -0.9232   0.9029   0.3128 C.ar           1 S1                 0.0000
     12 ****        -0.9044   2.1883   0.7424 N.ar           1 S1                 0.0000
     13 ****         0.2460   2.8684   0.7596 C.ar           1 S1                 0.0000
     14 ****         1.4650   2.4574   0.4030 N.ar           1 S1                 0.0000
     15 ****         1.4481   1.1608  -0.0203 C.ar           1 S1                 0.0000
     16 ****         0.3060   0.3162  -0.1001 C.ar           1 S1                 0.0000
     17 ****         0.6724  -0.9347  -0.5812 N.2            1 S1                 0.0000
     18 ****         1.9593  -0.8362  -0.7727 C.2            1 S1                 0.0000
     19 ****         2.5106   0.3817  -0.4430 N.pl3          1 S1                 0.0000
     20 ****         3.9099   0.7584  -0.5417 C.3            1 S1                 0.0000
     21 ****         4.5622   1.0771   0.8239 C.3            1 S1                 0.0000
     22 ****         5.9404   1.3101   0.6189 O.3            1 S1                 0.0000
     23 ****         4.3971   0.0248   1.9463 C.3            1 S1                 0.0000
     24 ****         4.7691  -1.4184   1.5982 C.3            1 S1                 0.0000
     25 ****         4.0112  -2.1829   2.6603 C.3            1 S1                 0.0000
     26 ****         2.7201  -1.3755   2.7761 C.3            1 S1                 0.0000
     27 ****         3.0590  -0.0340   2.4332 O.3            1 S1                 0.0000
     28 ****        -3.3559   2.0037  -1.9813 C.3            1 S1                 0.0000
     29 ****        -4.3565   1.8898  -3.0244 N.am           1 S1                 0.0000
     30 ****        -2.9629  -0.9040  -3.5219 H              1 S1                 0.0000
     31 ****        -2.0701   0.4192  -4.2696 H              1 S1                 0.0000
     32 ****        -1.4227   1.0881  -2.2206 H              1 S1                 0.0000
     33 ****        -1.9287  -1.1126  -1.2168 H              1 S1                 0.0000
     34 ****        -4.7251  -0.0371  -0.6404 H              1 S1                 0.0000
     35 ****        -4.3367  -1.3324  -1.7399 H              1 S1                 0.0000
     36 ****        -5.1313  -2.1972   0.4482 H              1 S1                 0.0000
     37 ****        -3.4990  -2.7278   0.1047 H              1 S1                 0.0000
     38 ****        -4.2875  -0.3903   1.9149 H              1 S1                 0.0000
     39 ****        -3.6362  -1.9253   2.4448 H              1 S1                 0.0000
     40 ****        -1.8808  -0.1469   2.3647 H              1 S1                 0.0000
     41 ****        -1.4987  -1.4798   1.2921 H              1 S1                 0.0000
     42 ****         0.1810   3.8875   1.1114 H              1 S1                 0.0000
     43 ****         2.5465  -1.6611  -1.1491 H              1 S1                 0.0000
     44 ****         4.4486  -0.0469  -1.0425 H              1 S1                 0.0000
     45 ****         3.9797   1.6259  -1.1990 H              1 S1                 0.0000
     46 ****         4.1485   2.0168   1.1912 H              1 S1                 0.0000
     47 ****         6.3391   0.5072   0.3204 H              1 S1                 0.0000
     48 ****         5.0016   0.3323   2.8018 H              1 S1                 0.0000
     49 ****         4.4026  -1.7041   0.6132 H              1 S1                 0.0000
     50 ****         5.8439  -1.5989   1.6278 H              1 S1                 0.0000
     51 ****         3.8387  -3.2270   2.3982 H              1 S1                 0.0000
     52 ****         4.5583  -2.1531   3.6035 H              1 S1                 0.0000
     53 ****         1.9782  -1.7376   2.0637 H              1 S1                 0.0000
     54 ****         2.2839  -1.4322   3.7736 H              1 S1                 0.0000
     55 ****        -3.8221   2.0741  -0.9984 H              1 S1                 0.0000
     56 ****        -2.7819   2.9175  -2.1390 H              1 S1                 0.0000
     57 ****        -5.1585   2.5012  -3.0765 H              1 S1                 0.0000
     58 ****        -5.6548   1.1155  -5.0354 LP             1 S1                 0.0000
     59 ****        -4.5559  -0.1614  -5.4378 LP             1 S1                 0.0000
     60 ****        -2.8106   0.9746   0.4566 LP             1 S1                 0.0000
     61 ****        -1.7501   2.6271   1.0460 LP             1 S1                 0.0000
     62 ****         2.2858   3.0273   0.4413 LP             1 S1                 0.0000
     63 ****         0.0852  -1.7277  -0.7433 LP             1 S1                 0.0000
     64 ****         6.3650   1.5988   1.4770 LP             1 S1                 0.0000
     65 ****         6.0629   2.0241  -0.0704 LP             1 S1                 0.0000
     66 ****         2.4345   0.2938   1.7243 LP             1 S1                 0.0000
     67 ****         2.9765   0.5454   3.2440 LP             1 S1                 0.0000
@<TRIPOS>BOND
    1    1    2 2     
    2    2   29 am    
    3    2    3 1     
    4    3    4 1     
    5    3   30 1     
    6    3   31 1     
    7    4    5 1     
    8    4   28 1     
    9    4   32 1     
   10    5   10 1     
   11    5    6 1     
   12    5   33 1     
   13    6    7 1     
   14    6   34 1     
   15    6   35 1     
   16    7    8 1     
   17    7   36 1     
   18    7   37 1     
   19    8    9 1     
   20    8   38 1     
   21    8   39 1     
   22    9   10 1     
   23    9   40 1     
   24    9   41 1     
   25   10   11 1     
   26   11   16 ar    
   27   11   12 ar    
   28   12   13 ar    
   29   13   14 ar    
   30   13   42 1     
   31   14   15 ar    
   32   15   19 1     
   33   15   16 ar    
   34   16   17 1     
   35   17   18 2     
   36   18   19 1     
   37   18   43 1     
   38   19   20 1     
   39   20   21 1     
   40   20   44 1     
   41   20   45 1     
   42   21   22 1     
   43   21   23 1     
   44   21   46 1     
   45   22   47 1     
   46   23   27 1     
   47   23   24 1     
   48   23   48 1     
   49   24   25 1     
   50   24   49 1     
   51   24   50 1     
   52   25   26 1     
   53   25   51 1     
   54   25   52 1     
   55   26   27 1     
   56   26   53 1     
   57   26   54 1     
   58   28   29 1     
   59   28   55 1     
   60   28   56 1     
   61   29   57 1     
   62    1   58 1     
   63    1   59 1     
   64   10   60 1     
   65   12   61 1     
   66   14   62 1     
   67   17   63 1     
   68   22   64 1     
   69   22   65 1     
   70   27   66 1     
   71   27   67 1     
@<TRIPOS>SUBSTRUCTURE
      1 S1             1
@<TRIPOS>SET
LONE_PAIRS      STATIC     ATOMS    <user>   **** ""
10 58 59 60 61 62 63 64 65 66 67
DONOR_HYDROGENS      STATIC     ATOMS    <user>   **** ""
2 47 57
ATOM$BLUE        STATIC     ATOMS    COLORGROUP SYSTEM
10 58 59 60 61 62 63 64 65 66 67
ATOM$RED        STATIC     ATOMS    COLORGROUP SYSTEM
2 47 57
