AV-unprocessed.smi:1006|AV-procd|sdf|4393|dock9
  -GOLD-   22720 2323D 1   1.00000     0.00000
 Structure written by MMmdl.
 46 48  0  0  0  0  0  0  0  0  2 V2000
  141.9114  141.5080  155.3211 C   0  0  0  0  0  0  0  0  0  0  0  0
  143.2045  142.1783  155.7346 C   0  0  0  0  0  0  0  0  0  0  0  0
  143.2752  143.0306  156.8558 C   0  0  0  0  0  0  0  0  0  0  0  0
  144.5289  143.5983  157.1426 C   0  0  0  0  0  0  0  0  0  0  0  0
  144.7011  144.4494  158.2311 N   0  0  0  0  0  0  0  0  0  0  0  0
  145.6073  143.3406  156.3788 N   0  0  0  0  0  0  0  0  0  0  0  0
  145.4725  142.5229  155.3259 C   0  0  0  0  0  0  0  0  0  0  0  0
  146.8919  142.1648  154.3022 S   0  0  0  0  0  0  0  0  0  0  0  0
  147.9585  141.2406  155.4494 C   0  0  0  0  0  0  0  0  0  0  0  0
  149.3715  140.9857  154.8929 C   0  0  1  0  0  0  0  0  0  0  0  0
  149.3672  141.1892  153.4946 O   0  0  0  0  0  0  0  0  0  0  0  0
  150.4450  141.9122  155.5015 C   0  0  0  0  0  0  0  0  0  0  0  0
  151.0331  141.3723  156.7149 N   0  0  0  0  0  0  0  0  0  0  0  0
  151.3313  140.0830  156.9652 C   0  0  0  0  0  0  0  0  0  0  0  0
  151.8508  139.7982  158.1560 N   0  0  0  0  0  0  0  0  0  0  0  0
  151.8961  141.0490  158.7477 C   0  0  0  0  0  0  0  0  0  0  0  0
  152.3339  141.4413  160.0316 C   0  0  0  0  0  0  0  0  0  0  0  0
  152.2768  142.7944  160.4355 C   0  0  0  0  0  0  0  0  0  0  0  0
  152.7519  143.1700  161.8280 C   0  0  0  0  0  0  0  0  0  0  0  0
  151.7789  143.7808  159.5468 C   0  0  0  0  0  0  0  0  0  0  0  0
  151.7017  145.2397  159.9599 C   0  0  0  0  0  0  0  0  0  0  0  0
  151.3456  143.4074  158.2577 C   0  0  0  0  0  0  0  0  0  0  0  0
  151.3999  142.0565  157.8700 C   0  0  0  0  0  0  0  0  0  0  0  0
  144.3128  141.9416  154.9879 N   0  3  0  0  0  0  0  0  0  0  0  0
  141.2721  141.3346  156.1871 H   0  0  0  0  0  0  0  0  0  0  0  0
  142.1043  140.5457  154.8452 H   0  0  0  0  0  0  0  0  0  0  0  0
  141.3700  142.1384  154.6152 H   0  0  0  0  0  0  0  0  0  0  0  0
  142.4067  143.2358  157.4654 H   0  0  0  0  0  0  0  0  0  0  0  0
  143.9363  144.6859  158.8469 H   0  0  0  0  0  0  0  0  0  0  0  0
  145.6081  144.8294  158.4626 H   0  0  0  0  0  0  0  0  0  0  0  0
  148.0211  141.7825  156.3938 H   0  0  0  0  0  0  0  0  0  0  0  0
  147.4648  140.2902  155.6495 H   0  0  0  0  0  0  0  0  0  0  0  0
  149.6487  139.9476  155.0802 H   0  0  0  0  0  0  0  0  0  0  0  0
  149.4726  140.3519  153.0689 H   0  0  0  0  0  0  0  0  0  0  0  0
  151.2449  142.0878  154.7807 H   0  0  0  0  0  0  0  0  0  0  0  0
  150.0177  142.8887  155.7336 H   0  0  0  0  0  0  0  0  0  0  0  0
  151.1504  139.3087  156.2338 H   0  0  0  0  0  0  0  0  0  0  0  0
  152.7110  140.6893  160.7090 H   0  0  0  0  0  0  0  0  0  0  0  0
  153.5464  143.9147  161.7740 H   0  0  0  0  0  0  0  0  0  0  0  0
  153.1432  142.3039  162.3629 H   0  0  0  0  0  0  0  0  0  0  0  0
  151.9294  143.5814  162.4133 H   0  0  0  0  0  0  0  0  0  0  0  0
  151.2413  145.8497  159.1819 H   0  0  0  0  0  0  0  0  0  0  0  0
  152.6998  145.6347  160.1501 H   0  0  0  0  0  0  0  0  0  0  0  0
  151.1063  145.3511  160.8665 H   0  0  0  0  0  0  0  0  0  0  0  0
  150.9639  144.1486  157.5713 H   0  0  0  0  0  0  0  0  0  0  0  0
  144.2569  141.3246  154.1774 H   0  0  0  0  0  0  0  0  0  0  0  0
  1  2  1  0  0  0  0
  1 25  1  0  0  0  0
  1 26  1  0  0  0  0
  1 27  1  0  0  0  0
  2 24  1  0  0  0  0
  2  3  2  0  0  0  0
  3  4  1  0  0  0  0
  3 28  1  0  0  0  0
  4  5  1  0  0  0  0
  4  6  2  0  0  0  0
  5 29  1  0  0  0  0
  5 30  1  0  0  0  0
  6  7  1  0  0  0  0
  7  8  1  0  0  0  0
  7 24  2  0  0  0  0
  8  9  1  0  0  0  0
  9 10  1  0  0  0  0
  9 31  1  0  0  0  0
  9 32  1  0  0  0  0
 10 11  1  0  0  0  0
 10 12  1  0  0  0  0
 10 33  1  0  0  0  0
 11 34  1  0  0  0  0
 12 13  1  0  0  0  0
 12 35  1  0  0  0  0
 12 36  1  0  0  0  0
 13 23  1  0  0  0  0
 13 14  1  0  0  0  0
 14 15  2  0  0  0  0
 14 37  1  0  0  0  0
 15 16  1  0  0  0  0
 16 23  2  0  0  0  0
 16 17  1  0  0  0  0
 17 18  2  0  0  0  0
 17 38  1  0  0  0  0
 18 19  1  0  0  0  0
 18 20  1  0  0  0  0
 19 39  1  0  0  0  0
 19 40  1  0  0  0  0
 19 41  1  0  0  0  0
 20 21  1  0  0  0  0
 20 22  2  0  0  0  0
 21 42  1  0  0  0  0
 21 43  1  0  0  0  0
 21 44  1  0  0  0  0
 22 23  1  0  0  0  0
 22 45  1  0  0  0  0
 24 46  1  0  0  0  0
M  CHG  1  24   1
M  END
> <s_m_source_file>
AV-unprocessed.smi

> <i_m_source_file_index>
1006

> <i_lp_mmshare_version>
43012

> <i_f3d_flags>
0

> <s_epik_input>
W0NIM11jMVtjSF1jKFtOSDJdKW5jKG4xKVNbQ0gyXVtDQEhdKFtPSF0pW0NIMl1uKFtjSF1uMiljKGMyMylbY0hdYyhbQ0gzXSljKFtjSF0zKVtDSDNd

> <s_epik_cmdline>
J2VwaWtfcHl0aG9uJywgJy1waCcsICc3LjAnLCAnLXRuJywgJzgnLCAnLW1hJywgJzIwMCcsICctbWV0YWxfYmluZGluZycsICctaW1hZScsICc8aW5maWxlLm1hZT4nLCAnLW9tYWUnLCAnPG91dGZpbGUubWFlPic=

> <r_lp_tautomer_probability>
0.999762

> <r_epik_Ionization_Penalty>
0.549885

> <r_epik_Ionization_Penalty_Charging>
0.440405

> <r_epik_Ionization_Penalty_Neutral>
0.10948

> <r_epik_State_Penalty>
0.546419

> <r_epik_Charging_Adjusted_Penalty>
0.986823

> <i_epik_Tot_Q>
1

> <i_epik_Tot_abs_Q>
1

> <r_epik_Metal_State_Penalty>
0.699827

> <b_epik_Metal_Only>
0

> <s_lp_Force_Field>
OPLS_2005

> <r_lp_Energy>
7.78967

> <b_lp_Chiralities_Consistent>
1

> <s_lp_Variant>
AV-unprocessed.smi:1006-4

> <Gold.Version>
5.8.1

> <Gold.Id.Protein>
6NUR|6NUR_protein|mol2

> <Gold.PLP.Fitness>
54.3634

> <Gold.PLP.PLP>
-46.5018

> <Gold.PLP.part.hbond>
-4.0217

> <Gold.PLP.part.metal>
0.0000

> <Gold.PLP.part.buried>
-5.5286

> <Gold.PLP.part.nonpolar>
-36.8419

> <Gold.PLP.part.repulsive>
0.1623

> <Gold.PLP.ligand.clash>
0.0000

> <Gold.PLP.ligand.torsion>
1.3376

> <Gold.PLP.Chemscore.Hbond>
3.4960

> <Gold.PLP.Chemscore.CHOScore>
0.0000

> <Gold.PLP.Chemscore.Metal>
0.0000

> <Gold.Chemscore.Hbonds>
donor molecule, donor type, donor heavy atom, donor atom, acceptor molecule, acceptor atom, score
      L1  H    11    34       P1  7957  0.53
      L1  H    24    46       P1 10175  2.00
      P1  H  8011  8017       L1    11  1.00

> <Gold.PLP.Chemscore.Internal.Correction>
0.0488

> <Gold.Rescore>
     Score         DG    S(hbond)    S(metal)    S(lipo)     H(rot)  DE(clash)    DE(int)     intcor
     16.28     -17.98       2.00        0.00     112.92       2.89       0.36       1.34       ----

> <Gold.Chemscore.Fitness>
16.2818

> <Gold.Chemscore.DG>
-17.9803

> <Gold.Chemscore.ZeroCoef>
-5.4800

> <Gold.Chemscore.Hbond>
2.0021

> <Gold.Chemscore.Metal>
0.0000

> <Gold.Chemscore.Lipo>
112.9213

> <Gold.Chemscore.Internal_Hbond>
0.0000

> <Gold.Chemscore.DEClash>
0.3597

> <Gold.Chemscore.DEInternal>
1.3389

> <Gold.Chemscore.Rot>
2.8901

> <Gold.Chemscore.Internal.Correction>
   9.000000E+99

> <Gold.Chemscore.Hbonds>
donor molecule, donor type, donor heavy atom, donor atom, acceptor molecule, acceptor atom, score
      L1  H    11    34       P1  7957  0.52
      L1  H    24    46       P1 10175  0.49
      P1  H  8011  8017       L1    11  0.58

> <Gold.Chemscore.Hbond.Weighted>
-6.6871

> <Gold.Chemscore.Metal.Weighted>
-0.0000

> <Gold.Chemscore.Lipo.Weighted>
-13.2118

> <Gold.Chemscore.Internal_Hbond.Weighted>
0.0000

> <Gold.Chemscore.DEClash.Weighted>
0.3597

> <Gold.Chemscore.DEInternal.Weighted>
1.3389

> <Gold.Chemscore.Rot.Weighted>
7.3986

> <Gold.Chemscore.Internal.Correction.Weighted>
   9.000000E+99

> <Gold.Protein.RotatedTorsions>
[ 6907 6896 6895 6894 ] final  -56.71 input  -60.11 | X-H torsion
[ 7974 7965 7964 7962 ] final   65.53 input  175.53 | X-H torsion
[ 8008 7997 7996 7995 ] final  178.98 input   59.86 | X-H torsion
[ 10167 10162 10161 10158 ] final   86.61 input  -65.29 | X-H torsion
[ 10718 10713 10712 10709 ] final  -68.84 input   66.30 | X-H torsion
[ 10763 10752 10751 10750 ] final   -1.37 input  -60.55 | X-H torsion
[ 11005 11000 10999 10996 ] final -146.67 input  -57.11 | X-H torsion

> <Gold.Protein.ActiveResidues>
 VAL166  LYS551  ARG553  GLY616  TRP617  ASP618  TYR619  PRO620  LYS621  CYS622 
 ASP623  PHE694  ASN695  SER759  ASP760  ASP761  ALA762  ILE779  LEU786  VAL792 
 PHE793  MET794  SER795  GLU796  ALA797  LYS798  CYS799  TRP800  GLU811  SER814 

> <Gold.Protein.RotatedAtoms>
  150.8145  134.7320  159.6717 H   0  0  0  0  0  0  0  0  0  0  0  0  # atno 6907 bound_to 6896
  152.4265  134.5856  159.9970 H   0  0  0  0  0  0  0  0  0  0  0  0  # atno 6908 bound_to 6896
  151.6056  133.3315  159.3092 H   0  0  0  0  0  0  0  0  0  0  0  0  # atno 6909 bound_to 6896
  145.8374  139.3175  143.0951 H   0  0  0  0  0  0  0  0  0  0  0  0  # atno 7974 bound_to 7965
  156.0485  140.1320  157.0077 H   0  0  0  0  0  0  0  0  0  0  0  0  # atno 8008 bound_to 7997
  154.4424  140.1015  156.6412 H   0  0  0  0  0  0  0  0  0  0  0  0  # atno 8009 bound_to 7997
  155.5559  140.3464  155.4482 H   0  0  0  0  0  0  0  0  0  0  0  0  # atno 8010 bound_to 7997
  139.8858  144.6414  150.8793 H   0  0  0  0  0  0  0  0  0  0  0  0  # atno 10167 bound_to 10162
  156.0485  130.4302  150.2060 H   0  0  0  0  0  0  0  0  0  0  0  0  # atno 10718 bound_to 10713
  153.3440  135.6982  153.6843 H   0  0  0  0  0  0  0  0  0  0  0  0  # atno 10763 bound_to 10752
  153.5596  135.3537  155.2794 H   0  0  0  0  0  0  0  0  0  0  0  0  # atno 10764 bound_to 10752
  154.8642  135.4246  154.2660 H   0  0  0  0  0  0  0  0  0  0  0  0  # atno 10765 bound_to 10752
  140.7796  134.3095  157.5050 H   0  0  0  0  0  0  0  0  0  0  0  0  # atno 11005 bound_to 11000
  145.9503  140.8913  143.0262 LP  0  0  0  0  0  0  0  0  0  0  0  0  # atno 17320 bound_to 7965
  144.6735  140.1671  143.7417 LP  0  0  0  0  0  0  0  0  0  0  0  0  # atno 17321 bound_to 7965
  140.7736  143.3549  151.1940 LP  0  0  0  0  0  0  0  0  0  0  0  0  # atno 17342 bound_to 10162
  139.7154  143.9308  152.2965 LP  0  0  0  0  0  0  0  0  0  0  0  0  # atno 17343 bound_to 10162
  157.0146  130.9961  151.3356 LP  0  0  0  0  0  0  0  0  0  0  0  0  # atno 17370 bound_to 10713
  157.5386  130.8105  149.8002 LP  0  0  0  0  0  0  0  0  0  0  0  0  # atno 17371 bound_to 10713
  139.8744  134.9310  156.3517 LP  0  0  0  0  0  0  0  0  0  0  0  0  # atno 17394 bound_to 11000
  140.9496  133.7460  156.0254 LP  0  0  0  0  0  0  0  0  0  0  0  0  # atno 17395 bound_to 11000

$$$$
