AV-unprocessed.smi:628|AV-procd|sdf|3114|dock5
  -GOLD-   22720 0 33D 1   1.00000     0.00000
 Structure written by MMmdl.
 31 32  0  0  0  0  0  0  0  0  2 V2000
  151.7884  141.7131  157.9873 O   0  0  0  0  0  0  0  0  0  0  0  0
  151.1312  142.2490  157.0934 C   0  0  0  0  0  0  0  0  0  0  0  0
  150.5543  141.4349  155.9282 C   0  0  0  0  0  0  0  0  0  0  0  0
  150.9337  140.0323  155.9710 N   0  0  0  0  0  0  0  0  0  0  0  0
  150.7600  139.1340  157.0073 C   0  0  0  0  0  0  0  0  0  0  0  0
  151.2805  137.9593  156.5553 C   0  0  0  0  0  0  0  0  0  0  0  0
  151.3386  136.6630  157.2996 C   0  0  0  0  0  0  0  0  0  0  0  0
  150.9152  136.6325  158.4760 O   0  0  0  0  0  0  0  0  0  0  0  0
  151.8098  135.6619  156.7161 O   0  5  0  0  0  0  0  0  0  0  0  0
  151.7563  138.2054  155.2414 C   0  0  0  0  0  0  0  0  0  0  0  0
  151.5389  139.4664  154.8934 N   0  0  0  0  0  0  0  0  0  0  0  0
  150.8661  143.5640  157.0691 N   0  0  0  0  0  0  0  0  0  0  0  0
  151.3142  144.5310  158.0679 C   0  0  0  0  0  0  0  0  0  0  0  0
  152.7969  144.3221  158.4376 C   0  0  0  0  0  0  0  0  0  0  0  0
  152.8006  143.7385  159.8503 C   0  0  0  0  0  0  0  0  0  0  0  0
  151.5583  144.3362  160.5026 C   0  0  0  0  0  0  0  0  0  0  0  0
  150.5204  144.3714  159.3792 C   0  0  0  0  0  0  0  0  0  0  0  0
  149.4657  141.4991  155.9491 H   0  0  0  0  0  0  0  0  0  0  0  0
  150.8838  141.8655  154.9813 H   0  0  0  0  0  0  0  0  0  0  0  0
  150.2969  139.4019  157.9454 H   0  0  0  0  0  0  0  0  0  0  0  0
  152.2359  137.5319  154.5465 H   0  0  0  0  0  0  0  0  0  0  0  0
  150.3181  143.9225  156.3005 H   0  0  0  0  0  0  0  0  0  0  0  0
  151.1755  145.5426  157.6810 H   0  0  0  0  0  0  0  0  0  0  0  0
  153.3383  143.6891  157.7333 H   0  0  0  0  0  0  0  0  0  0  0  0
  153.3012  145.2893  158.4481 H   0  0  0  0  0  0  0  0  0  0  0  0
  152.7036  142.6533  159.8006 H   0  0  0  0  0  0  0  0  0  0  0  0
  153.7153  143.9677  160.3974 H   0  0  0  0  0  0  0  0  0  0  0  0
  151.2214  143.7651  161.3681 H   0  0  0  0  0  0  0  0  0  0  0  0
  151.7732  145.3520  160.8370 H   0  0  0  0  0  0  0  0  0  0  0  0
  149.7946  145.1729  159.5208 H   0  0  0  0  0  0  0  0  0  0  0  0
  149.9648  143.4319  159.3822 H   0  0  0  0  0  0  0  0  0  0  0  0
  1  2  2  0  0  0  0
  2  3  1  0  0  0  0
  2 12  1  0  0  0  0
  3  4  1  0  0  0  0
  3 18  1  0  0  0  0
  3 19  1  0  0  0  0
  4 11  1  0  0  0  0
  4  5  1  0  0  0  0
  5  6  2  0  0  0  0
  5 20  1  0  0  0  0
  6  7  1  0  0  0  0
  6 10  1  0  0  0  0
  7  8  2  0  0  0  0
  7  9  1  0  0  0  0
 10 11  2  0  0  0  0
 10 21  1  0  0  0  0
 12 13  1  0  0  0  0
 12 22  1  0  0  0  0
 13 17  1  0  0  0  0
 13 14  1  0  0  0  0
 13 23  1  0  0  0  0
 14 15  1  0  0  0  0
 14 24  1  0  0  0  0
 14 25  1  0  0  0  0
 15 16  1  0  0  0  0
 15 26  1  0  0  0  0
 15 27  1  0  0  0  0
 16 17  1  0  0  0  0
 16 28  1  0  0  0  0
 16 29  1  0  0  0  0
 17 30  1  0  0  0  0
 17 31  1  0  0  0  0
M  CHG  1   9  -1
M  END
> <s_m_source_file>
AV-unprocessed.smi

> <i_m_source_file_index>
628

> <i_lp_mmshare_version>
43012

> <i_f3d_flags>
0

> <s_epik_input>
W0NIMl0xW0NIMl1bQ0gyXVtDSDJdW0NIXTFbTkhdQyg9TylbQ0gyXW4yW2NIXWMoW2NIXW4yKUMoPU8pW09IXQ==

> <s_epik_cmdline>
J2VwaWtfcHl0aG9uJywgJy1waCcsICc3LjAnLCAnLXRuJywgJzgnLCAnLW1hJywgJzIwMCcsICctbWV0YWxfYmluZGluZycsICctaW1hZScsICc8aW5maWxlLm1hZT4nLCAnLW9tYWUnLCAnPG91dGZpbGUubWFlPic=

> <r_epik_Ionization_Penalty>
0.000955839

> <r_epik_Ionization_Penalty_Charging>
0.000925564

> <r_epik_Ionization_Penalty_Neutral>
3.02757e-05

> <r_epik_State_Penalty>
0.000600209

> <r_epik_Charging_Adjusted_Penalty>
0.00152577

> <i_epik_Tot_Q>
-1

> <i_epik_Tot_abs_Q>
1

> <r_epik_Metal_State_Penalty>
-0

> <b_epik_Metal_Only>
0

> <s_lp_Force_Field>
OPLS_2005

> <r_lp_Energy>
22.3574

> <b_lp_Chiralities_Consistent>
1

> <s_lp_Variant>
AV-unprocessed.smi:628-1

> <Gold.Version>
5.8.1

> <Gold.Id.Protein>
6NUR|6NUR_protein|mol2

> <Gold.PLP.Fitness>
51.9090

> <Gold.PLP.PLP>
-35.5367

> <Gold.PLP.part.hbond>
-4.0000

> <Gold.PLP.part.metal>
0.0000

> <Gold.PLP.part.buried>
-6.6373

> <Gold.PLP.part.nonpolar>
-26.0386

> <Gold.PLP.part.repulsive>
0.0511

> <Gold.PLP.ligand.clash>
0.0000

> <Gold.PLP.ligand.torsion>
0.2173

> <Gold.PLP.Chemscore.Hbond>
5.6000

> <Gold.PLP.Chemscore.CHOScore>
0.0000

> <Gold.PLP.Chemscore.Metal>
0.0000

> <Gold.Chemscore.Hbonds>
donor molecule, donor type, donor heavy atom, donor atom, acceptor molecule, acceptor atom, score
      L1  H    12    22       P1  8028  1.00
      P1  H  6896  6908       L1     8  1.46
      P1  H  7989  7998       L1    11  1.00
      P1  H 10752 10764       L1     9  1.53

> <Gold.PLP.Chemscore.Internal.Correction>
0.0070

> <Gold.Rescore>
     Score         DG    S(hbond)    S(metal)    S(lipo)     H(rot)  DE(clash)    DE(int)     intcor
     20.77     -23.35       3.63        0.00      84.31       1.61       0.02       2.56       ----

> <Gold.Chemscore.Fitness>
20.7739

> <Gold.Chemscore.DG>
-23.3465

> <Gold.Chemscore.ZeroCoef>
-5.4800

> <Gold.Chemscore.Hbond>
3.6292

> <Gold.Chemscore.Metal>
0.0000

> <Gold.Chemscore.Lipo>
84.3061

> <Gold.Chemscore.Internal_Hbond>
0.0000

> <Gold.Chemscore.DEClash>
0.0164

> <Gold.Chemscore.DEInternal>
2.5562

> <Gold.Chemscore.Rot>
1.6089

> <Gold.Chemscore.Internal.Correction>
   9.000000E+99

> <Gold.Chemscore.Hbonds>
donor molecule, donor type, donor heavy atom, donor atom, acceptor molecule, acceptor atom, score
      L1  H    12    22       P1  8028  0.96
      P1  H  6896  6908       L1     8  0.71
      P1  H  7989  7998       L1    11  0.59
      P1  H 10752 10764       L1     9  0.75

> <Gold.Chemscore.Hbond.Weighted>
-12.1215

> <Gold.Chemscore.Metal.Weighted>
-0.0000

> <Gold.Chemscore.Lipo.Weighted>
-9.8638

> <Gold.Chemscore.Internal_Hbond.Weighted>
0.0000

> <Gold.Chemscore.DEClash.Weighted>
0.0164

> <Gold.Chemscore.DEInternal.Weighted>
2.5562

> <Gold.Chemscore.Rot.Weighted>
4.1188

> <Gold.Chemscore.Internal.Correction.Weighted>
   9.000000E+99

> <Gold.Protein.RotatedTorsions>
[ 6907 6896 6895 6894 ] final -142.03 input  -60.11 | X-H torsion
[ 7974 7965 7964 7962 ] final  -94.72 input  175.53 | X-H torsion
[ 8008 7997 7996 7995 ] final  134.90 input   59.86 | X-H torsion
[ 10167 10162 10161 10158 ] final  -15.12 input  -65.29 | X-H torsion
[ 10718 10713 10712 10709 ] final -153.54 input   66.30 | X-H torsion
[ 10763 10752 10751 10750 ] final  -18.47 input  -60.55 | X-H torsion
[ 11005 11000 10999 10996 ] final  125.12 input  -57.11 | X-H torsion

> <Gold.Protein.ActiveResidues>
 VAL166  LYS551  ARG553  GLY616  TRP617  ASP618  TYR619  PRO620  LYS621  CYS622 
 ASP623  PHE694  ASN695  SER759  ASP760  ASP761  ALA762  ILE779  LEU786  VAL792 
 PHE793  MET794  SER795  GLU796  ALA797  LYS798  CYS799  TRP800  GLU811  SER814 

> <Gold.Protein.RotatedAtoms>
  151.0816  133.5386  159.2620 H   0  0  0  0  0  0  0  0  0  0  0  0  # atno 6907 bound_to 6896
  151.2287  135.0545  159.8989 H   0  0  0  0  0  0  0  0  0  0  0  0  # atno 6908 bound_to 6896
  152.5424  134.0608  159.8205 H   0  0  0  0  0  0  0  0  0  0  0  0  # atno 6909 bound_to 6896
  145.3696  140.9503  143.2455 H   0  0  0  0  0  0  0  0  0  0  0  0  # atno 7974 bound_to 7965
  156.3001  140.2484  156.3493 H   0  0  0  0  0  0  0  0  0  0  0  0  # atno 8008 bound_to 7997
  154.8981  140.0407  157.1897 H   0  0  0  0  0  0  0  0  0  0  0  0  # atno 8009 bound_to 7997
  154.8528  140.2908  155.5591 H   0  0  0  0  0  0  0  0  0  0  0  0  # atno 8010 bound_to 7997
  140.7213  143.5251  150.9587 H   0  0  0  0  0  0  0  0  0  0  0  0  # atno 10167 bound_to 10162
  156.4872  130.8330  151.2555 H   0  0  0  0  0  0  0  0  0  0  0  0  # atno 10718 bound_to 10713
  153.5898  135.7002  153.5428 H   0  0  0  0  0  0  0  0  0  0  0  0  # atno 10763 bound_to 10752
  153.3188  135.4080  155.1399 H   0  0  0  0  0  0  0  0  0  0  0  0  # atno 10764 bound_to 10752
  154.8602  135.3690  154.5429 H   0  0  0  0  0  0  0  0  0  0  0  0  # atno 10765 bound_to 10752
  139.9391  134.9637  156.8511 H   0  0  0  0  0  0  0  0  0  0  0  0  # atno 11005 bound_to 11000
  144.8586  139.5211  143.6823 LP  0  0  0  0  0  0  0  0  0  0  0  0  # atno 17320 bound_to 7965
  146.2891  139.7088  142.9174 LP  0  0  0  0  0  0  0  0  0  0  0  0  # atno 17321 bound_to 7965
  139.8969  143.6883  152.3137 LP  0  0  0  0  0  0  0  0  0  0  0  0  # atno 17342 bound_to 10162
  139.7219  144.7601  151.0941 LP  0  0  0  0  0  0  0  0  0  0  0  0  # atno 17343 bound_to 10162
  157.7477  131.0025  150.3004 LP  0  0  0  0  0  0  0  0  0  0  0  0  # atno 17370 bound_to 10713
  156.3462  130.3823  149.7367 LP  0  0  0  0  0  0  0  0  0  0  0  0  # atno 17371 bound_to 10713
  140.5998  134.0182  155.7533 LP  0  0  0  0  0  0  0  0  0  0  0  0  # atno 17394 bound_to 11000
  141.1018  133.9756  157.3066 LP  0  0  0  0  0  0  0  0  0  0  0  0  # atno 17395 bound_to 11000

$$$$
