#       Name:                AV-unprocessed.smi:2925
#       Creating user name   scv26
#       Creation time:       Fri Mar 27 16:11:27 2020


#       File generated by GOLD software.
#

@<TRIPOS>MOLECULE
AV-unprocessed.smi:2925
    50    51     1
SMALL
NO_CHARGES


@<TRIPOS>ATOM
      1 ****        -1.8414  -1.4507  -2.8861 C.3            1 S1                 0.0000
      2 ****        -2.3689  -2.0272  -1.5638 C.3            1 S1                 0.0000
      3 ****        -2.0978  -1.1321  -0.3365 C.3            1 S1                 0.0000
      4 ****        -0.6563  -0.9781  -0.1380 N.am           1 S1                 0.0000
      5 ****         0.0470   0.1482  -0.3223 C.2            1 S1                 0.0000
      6 ****        -0.4456   1.2154  -0.6898 O.2            1 S1                 0.0000
      7 ****         1.3560  -0.0520  -0.0886 N.am           1 S1                 0.0000
      8 ****         2.3795   0.8910  -0.2686 C.2            1 S1                 0.0000
      9 ****         3.4312   0.5751  -1.0693 C.2            1 S1                 0.0000
     10 ****         3.5095  -0.7558  -1.8008 C.3            1 S1                 0.0000
     11 ****         4.4923   1.5434  -1.2518 C.2            1 S1                 0.0000
     12 ****         4.4201   2.7258  -0.6259 C.2            1 S1                 0.0000
     13 ****         3.3491   3.0474   0.2205 N.am           1 S1                 0.0000
     14 ****         3.3725   4.3586   0.8743 C.3            1 S1                 0.0000
     15 ****         2.3312   2.1749   0.4721 C.2            1 S1                 0.0000
     16 ****         1.4460   2.4535   1.2843 O.2            1 S1                 0.0000
     17 ****        -2.7338  -1.7054   0.9457 C.3            1 S1                 0.0000
     18 ****        -2.4974  -0.8689   2.2054 C.3            1 S1                 0.0000
     19 ****        -3.6444  -1.3121   3.0837 C.3            1 S1                 0.0000
     20 ****        -4.7751  -1.4619   2.0701 C.3            1 S1                 0.0000
     21 ****        -4.1531  -1.7659   0.8238 O.3            1 S1                 0.0000
     22 ****        -2.1146  -2.0930  -3.7233 H              1 S1                 0.0000
     23 ****        -0.7549  -1.3625  -2.8824 H              1 S1                 0.0000
     24 ****        -2.2576  -0.4611  -3.0771 H              1 S1                 0.0000
     25 ****        -3.4435  -2.1823  -1.6650 H              1 S1                 0.0000
     26 ****        -1.9356  -3.0153  -1.4036 H              1 S1                 0.0000
     27 ****        -2.5563  -0.1590  -0.5221 H              1 S1                 0.0000
     28 ****        -0.1546  -1.8028   0.1570 H              1 S1                 0.0000
     29 ****         1.6555  -0.9984   0.0938 H              1 S1                 0.0000
     30 ****         4.4153  -0.8228  -2.4038 H              1 S1                 0.0000
     31 ****         2.6539  -0.8774  -2.4661 H              1 S1                 0.0000
     32 ****         3.5175  -1.5835  -1.0909 H              1 S1                 0.0000
     33 ****         5.3332   1.3234  -1.8936 H              1 S1                 0.0000
     34 ****         5.1783   3.4886  -0.7266 H              1 S1                 0.0000
     35 ****         2.4260   4.8824   0.7306 H              1 S1                 0.0000
     36 ****         4.1581   5.0073   0.4852 H              1 S1                 0.0000
     37 ****         3.5393   4.2445   1.9463 H              1 S1                 0.0000
     38 ****        -2.3729  -2.7201   1.1233 H              1 S1                 0.0000
     39 ****        -1.5210  -1.0436   2.6582 H              1 S1                 0.0000
     40 ****        -2.5867   0.1958   1.9836 H              1 S1                 0.0000
     41 ****        -3.4152  -2.2775   3.5373 H              1 S1                 0.0000
     42 ****        -3.8757  -0.6050   3.8809 H              1 S1                 0.0000
     43 ****        -5.4868  -2.2360   2.3578 H              1 S1                 0.0000
     44 ****        -5.3204  -0.5235   1.9630 H              1 S1                 0.0000
     45 ****        -1.4274   1.2772  -0.8697 LP             1 S1                 0.0000
     46 ****         0.1361   2.0201  -0.8083 LP             1 S1                 0.0000
     47 ****         0.7137   1.7983   1.4701 LP             1 S1                 0.0000
     48 ****         1.4605   3.3345   1.7571 LP             1 S1                 0.0000
     49 ****        -4.4200  -2.6866   0.5388 LP             1 S1                 0.0000
     50 ****        -4.4528  -1.1043   0.1364 LP             1 S1                 0.0000
@<TRIPOS>BOND
    1    1    2 1     
    2    1   22 1     
    3    1   23 1     
    4    1   24 1     
    5    2    3 1     
    6    2   25 1     
    7    2   26 1     
    8    3    4 1     
    9    3   17 1     
   10    3   27 1     
   11    4    5 am    
   12    4   28 1     
   13    5    6 2     
   14    5    7 am    
   15    7    8 1     
   16    7   29 1     
   17    8   15 1     
   18    8    9 2     
   19    9   10 1     
   20    9   11 1     
   21   10   30 1     
   22   10   31 1     
   23   10   32 1     
   24   11   12 2     
   25   11   33 1     
   26   12   13 1     
   27   12   34 1     
   28   13   14 1     
   29   13   15 am    
   30   14   35 1     
   31   14   36 1     
   32   14   37 1     
   33   15   16 2     
   34   17   21 1     
   35   17   18 1     
   36   17   38 1     
   37   18   19 1     
   38   18   39 1     
   39   18   40 1     
   40   19   20 1     
   41   19   41 1     
   42   19   42 1     
   43   20   21 1     
   44   20   43 1     
   45   20   44 1     
   46    6   45 1     
   47    6   46 1     
   48   16   47 1     
   49   16   48 1     
   50   21   49 1     
   51   21   50 1     
@<TRIPOS>SUBSTRUCTURE
      1 S1             1
@<TRIPOS>SET
LONE_PAIRS      STATIC     ATOMS    <user>   **** ""
6 45 46 47 48 49 50
DONOR_HYDROGENS      STATIC     ATOMS    <user>   **** ""
2 28 29
ATOM$BLUE        STATIC     ATOMS    COLORGROUP SYSTEM
6 45 46 47 48 49 50
ATOM$RED        STATIC     ATOMS    COLORGROUP SYSTEM
2 28 29
