AV-unprocessed.smi:153|AV-procd|sdf|1250|dock9
  -GOLD-   2262018483D 1   1.00000     0.00000
 Structure written by MMmdl.
 60 63  0  0  0  0  0  0  0  0  2 V2000
  153.3192  143.1241  159.8654 C   0  0  0  0  0  0  0  0  0  0  0  0
  152.6912  144.0973  158.8523 C   0  0  2  0  0  0  0  0  0  0  0  0
  152.1079  145.1238  159.6571 O   0  0  0  0  0  0  0  0  0  0  0  0
  150.6859  145.0904  159.5876 C   0  0  0  0  0  0  0  0  0  0  0  0
  150.3352  143.7681  158.9133 C   0  0  0  0  0  0  0  0  0  0  0  0
  151.5292  143.5287  158.0049 C   0  0  1  0  0  0  0  0  0  0  0  0
  151.3907  144.3576  156.8625 O   0  0  0  0  0  0  0  0  0  0  0  0
  151.6452  142.0538  157.5269 C   0  0  0  0  0  0  0  0  0  0  0  0
  150.5528  141.6008  156.6721 N   0  0  0  0  0  0  0  0  0  0  0  0
  149.3121  142.1766  156.5244 C   0  0  0  0  0  0  0  0  0  0  0  0
  148.5183  141.5778  155.6808 N   0  0  0  0  0  0  0  0  0  0  0  0
  149.2635  140.5108  155.1906 C   0  0  0  0  0  0  0  0  0  0  0  0
  149.0269  139.4684  154.2399 C   0  0  0  0  0  0  0  0  0  0  0  0
  147.8677  139.2879  153.5423 N   0  0  0  0  0  0  0  0  0  0  0  0
  147.1332  140.4399  153.0341 C   0  0  0  0  0  0  0  0  0  0  0  0
  147.4977  137.9624  153.0362 C   0  0  0  0  0  0  0  0  0  0  0  0
  146.5587  137.1977  153.9915 C   0  0  2  0  0  0  0  0  0  0  0  0
  147.0059  137.4558  155.3076 O   0  0  0  0  0  0  0  0  0  0  0  0
  146.5728  135.6701  153.7615 C   0  0  0  0  0  0  0  0  0  0  0  0
  146.3538  135.2963  152.3419 N   0  3  0  0  0  0  0  0  0  0  0  0
  146.3425  133.8298  152.1117 C   0  0  0  0  0  0  0  0  0  0  0  0
  146.1399  133.5206  150.6185 C   0  0  0  0  0  0  0  0  0  0  0  0
  144.9362  134.1257  150.1637 O   0  0  0  0  0  0  0  0  0  0  0  0
  144.9689  135.5411  150.2967 C   0  0  0  0  0  0  0  0  0  0  0  0
  145.1304  135.9160  151.7794 C   0  0  0  0  0  0  0  0  0  0  0  0
  150.0545  138.6077  154.0103 N   0  0  0  0  0  0  0  0  0  0  0  0
  151.2201  138.7420  154.6466 C   0  0  0  0  0  0  0  0  0  0  0  0
  151.5756  139.6586  155.5452 N   0  0  0  0  0  0  0  0  0  0  0  0
  150.5552  140.5274  155.7952 C   0  0  0  0  0  0  0  0  0  0  0  0
  153.8549  142.3141  159.3790 H   0  0  0  0  0  0  0  0  0  0  0  0
  152.5669  142.6832  160.5194 H   0  0  0  0  0  0  0  0  0  0  0  0
  154.0384  143.6440  160.4987 H   0  0  0  0  0  0  0  0  0  0  0  0
  153.4802  144.5140  158.2241 H   0  0  0  0  0  0  0  0  0  0  0  0
  150.2358  145.1852  160.5759 H   0  0  0  0  0  0  0  0  0  0  0  0
  150.3475  145.9311  158.9807 H   0  0  0  0  0  0  0  0  0  0  0  0
  150.2708  142.9801  159.6649 H   0  0  0  0  0  0  0  0  0  0  0  0
  149.3818  143.8002  158.3844 H   0  0  0  0  0  0  0  0  0  0  0  0
  150.4737  144.4143  156.6411 H   0  0  0  0  0  0  0  0  0  0  0  0
  152.5898  141.8799  157.0111 H   0  0  0  0  0  0  0  0  0  0  0  0
  151.6672  141.3974  158.3977 H   0  0  0  0  0  0  0  0  0  0  0  0
  149.0047  143.0678  157.0483 H   0  0  0  0  0  0  0  0  0  0  0  0
  146.9636  141.1721  153.8241 H   0  0  0  0  0  0  0  0  0  0  0  0
  146.1571  140.1410  152.6512 H   0  0  0  0  0  0  0  0  0  0  0  0
  147.6782  140.9163  152.2191 H   0  0  0  0  0  0  0  0  0  0  0  0
  147.0726  138.0038  152.0332 H   0  0  0  0  0  0  0  0  0  0  0  0
  148.4229  137.3960  152.9223 H   0  0  0  0  0  0  0  0  0  0  0  0
  145.5519  137.6029  153.8965 H   0  0  0  0  0  0  0  0  0  0  0  0
  147.8804  137.1131  155.4078 H   0  0  0  0  0  0  0  0  0  0  0  0
  147.5179  135.2329  154.0815 H   0  0  0  0  0  0  0  0  0  0  0  0
  145.8038  135.2170  154.3897 H   0  0  0  0  0  0  0  0  0  0  0  0
  147.2761  133.3811  152.4490 H   0  0  0  0  0  0  0  0  0  0  0  0
  145.5412  133.3730  152.6952 H   0  0  0  0  0  0  0  0  0  0  0  0
  146.9862  133.8751  150.0280 H   0  0  0  0  0  0  0  0  0  0  0  0
  146.0730  132.4436  150.4638 H   0  0  0  0  0  0  0  0  0  0  0  0
  145.7814  135.9568  149.6987 H   0  0  0  0  0  0  0  0  0  0  0  0
  144.0401  135.9550  149.9036 H   0  0  0  0  0  0  0  0  0  0  0  0
  144.2587  135.5859  152.3466 H   0  0  0  0  0  0  0  0  0  0  0  0
  145.1859  137.0009  151.8775 H   0  0  0  0  0  0  0  0  0  0  0  0
  151.9755  138.0107  154.3995 H   0  0  0  0  0  0  0  0  0  0  0  0
  147.1287  135.6771  151.8182 H   0  0  0  0  0  0  0  0  0  0  0  0
  1  2  1  0  0  0  0
  1 30  1  0  0  0  0
  1 31  1  0  0  0  0
  1 32  1  0  0  0  0
  2  6  1  0  0  0  0
  2  3  1  0  0  0  0
  2 33  1  0  0  0  0
  3  4  1  0  0  0  0
  4  5  1  0  0  0  0
  4 34  1  0  0  0  0
  4 35  1  0  0  0  0
  5  6  1  0  0  0  0
  5 36  1  0  0  0  0
  5 37  1  0  0  0  0
  6  7  1  0  0  0  0
  6  8  1  0  0  0  0
  7 38  1  0  0  0  0
  8  9  1  0  0  0  0
  8 39  1  0  0  0  0
  8 40  1  0  0  0  0
  9 29  1  0  0  0  0
  9 10  1  0  0  0  0
 10 11  2  0  0  0  0
 10 41  1  0  0  0  0
 11 12  1  0  0  0  0
 12 29  2  0  0  0  0
 12 13  1  0  0  0  0
 13 14  1  0  0  0  0
 13 26  2  0  0  0  0
 14 15  1  0  0  0  0
 14 16  1  0  0  0  0
 15 42  1  0  0  0  0
 15 43  1  0  0  0  0
 15 44  1  0  0  0  0
 16 17  1  0  0  0  0
 16 45  1  0  0  0  0
 16 46  1  0  0  0  0
 17 18  1  0  0  0  0
 17 19  1  0  0  0  0
 17 47  1  0  0  0  0
 18 48  1  0  0  0  0
 19 20  1  0  0  0  0
 19 49  1  0  0  0  0
 19 50  1  0  0  0  0
 20 25  1  0  0  0  0
 20 21  1  0  0  0  0
 20 60  1  0  0  0  0
 21 22  1  0  0  0  0
 21 51  1  0  0  0  0
 21 52  1  0  0  0  0
 22 23  1  0  0  0  0
 22 53  1  0  0  0  0
 22 54  1  0  0  0  0
 23 24  1  0  0  0  0
 24 25  1  0  0  0  0
 24 55  1  0  0  0  0
 24 56  1  0  0  0  0
 25 57  1  0  0  0  0
 25 58  1  0  0  0  0
 26 27  1  0  0  0  0
 27 28  2  0  0  0  0
 27 59  1  0  0  0  0
 28 29  1  0  0  0  0
M  CHG  1  20   1
M  END
> <s_m_source_file>
AV-unprocessed.smi

> <i_m_source_file_index>
153

> <i_lp_mmshare_version>
43012

> <i_f3d_flags>
0

> <s_epik_input>
W0NIMl0xW0NIMl1PW0NAQEhdKFtDSDNdKVtDQEBdMShbT0hdKVtDSDJdbihbY0hdbjIpYyhjMjMpbltjSF1uYzNOKFtDSDNdKVtDSDJdW0NASF0oW09IXSlbQ0gyXU40W0NIMl1bQ0gyXU9bQ0gyXVtDSDJdNA==

> <s_epik_cmdline>
J2VwaWtfcHl0aG9uJywgJy1waCcsICc3LjAnLCAnLXRuJywgJzgnLCAnLW1hJywgJzIwMCcsICctbWV0YWxfYmluZGluZycsICctaW1hZScsICc8aW5maWxlLm1hZT4nLCAnLW9tYWUnLCAnPG91dGZpbGUubWFlPic=

> <r_lp_tautomer_probability>
1

> <r_epik_Ionization_Penalty>
0.403509

> <r_epik_Ionization_Penalty_Charging>
0.40072

> <r_epik_Ionization_Penalty_Neutral>
0.00278876

> <r_epik_State_Penalty>
0.400058

> <r_epik_Charging_Adjusted_Penalty>
0.800778

> <i_epik_Tot_Q>
1

> <i_epik_Tot_abs_Q>
1

> <r_epik_Metal_State_Penalty>
0.400321

> <b_epik_Metal_Only>
0

> <s_lp_Force_Field>
OPLS_2005

> <r_lp_Energy>
46.9593

> <b_lp_Chiralities_Consistent>
1

> <s_lp_Variant>
AV-unprocessed.smi:153-1

> <Gold.Version>
5.8.1

> <Gold.Id.Protein>
6NUR|6NUR_protein|mol2

> <Gold.PLP.Fitness>
52.4742

> <Gold.PLP.PLP>
-43.9702

> <Gold.PLP.part.hbond>
-2.0039

> <Gold.PLP.part.metal>
0.0000

> <Gold.PLP.part.buried>
0.6831

> <Gold.PLP.part.nonpolar>
-42.4858

> <Gold.PLP.part.repulsive>
0.6099

> <Gold.PLP.ligand.clash>
0.0000

> <Gold.PLP.ligand.torsion>
1.3110

> <Gold.PLP.Chemscore.Hbond>
3.0000

> <Gold.PLP.Chemscore.CHOScore>
0.6150

> <Gold.PLP.Chemscore.Metal>
0.0000

> <Gold.Chemscore.Hbonds>
donor molecule, donor type, donor heavy atom, donor atom, acceptor molecule, acceptor atom, score
      L1  H     7    38       P1  8028  1.00
      L1  H    20    60       P1  7948  1.89
      L1  C    10    41       P1  8028  0.61

> <Gold.PLP.Chemscore.Internal.Correction>
0.2810

> <Gold.Rescore>
     Score         DG    S(hbond)    S(metal)    S(lipo)     H(rot)  DE(clash)    DE(int)     intcor
     10.08     -15.22       1.97        0.00     106.32       3.62       2.70       2.45       ----

> <Gold.Chemscore.Fitness>
10.0767

> <Gold.Chemscore.DG>
-15.2236

> <Gold.Chemscore.ZeroCoef>
-5.4800

> <Gold.Chemscore.Hbond>
1.9662

> <Gold.Chemscore.Metal>
0.0000

> <Gold.Chemscore.Lipo>
106.3163

> <Gold.Chemscore.Internal_Hbond>
0.0000

> <Gold.Chemscore.DEClash>
2.6965

> <Gold.Chemscore.DEInternal>
2.4504

> <Gold.Chemscore.Rot>
3.6182

> <Gold.Chemscore.Internal.Correction>
   9.000000E+99

> <Gold.Chemscore.Hbonds>
donor molecule, donor type, donor heavy atom, donor atom, acceptor molecule, acceptor atom, score
      L1  H     7    38       P1  8028  0.98
      L1  H    20    60       P1  7948  0.92

> <Gold.Chemscore.Hbond.Weighted>
-6.5671

> <Gold.Chemscore.Metal.Weighted>
-0.0000

> <Gold.Chemscore.Lipo.Weighted>
-12.4390

> <Gold.Chemscore.Internal_Hbond.Weighted>
0.0000

> <Gold.Chemscore.DEClash.Weighted>
2.6965

> <Gold.Chemscore.DEInternal.Weighted>
2.4504

> <Gold.Chemscore.Rot.Weighted>
9.2625

> <Gold.Chemscore.Internal.Correction.Weighted>
   9.000000E+99

> <Gold.Protein.RotatedTorsions>
[ 6907 6896 6895 6894 ] final  -14.15 input  -60.11 | X-H torsion
[ 7974 7965 7964 7962 ] final   83.55 input  175.53 | X-H torsion
[ 8008 7997 7996 7995 ] final  -29.15 input   59.86 | X-H torsion
[ 10167 10162 10161 10158 ] final  -81.02 input  -65.29 | X-H torsion
[ 10718 10713 10712 10709 ] final   30.05 input   66.30 | X-H torsion
[ 10763 10752 10751 10750 ] final  -19.49 input  -60.55 | X-H torsion
[ 11005 11000 10999 10996 ] final  -30.00 input  -57.11 | X-H torsion

> <Gold.Protein.ActiveResidues>
 VAL166  LYS551  ARG553  GLY616  TRP617  ASP618  TYR619  PRO620  LYS621  CYS622 
 ASP623  PHE694  ASN695  SER759  ASP760  ASP761  ALA762  ILE779  LEU786  VAL792 
 PHE793  MET794  SER795  GLU796  ALA797  LYS798  CYS799  TRP800  GLU811  SER814 

> <Gold.Protein.RotatedAtoms>
  151.3439  135.0869  159.9379 H   0  0  0  0  0  0  0  0  0  0  0  0  # atno 6907 bound_to 6896
  152.5204  133.9420  159.7641 H   0  0  0  0  0  0  0  0  0  0  0  0  # atno 6908 bound_to 6896
  150.9782  133.6219  159.2756 H   0  0  0  0  0  0  0  0  0  0  0  0  # atno 6909 bound_to 6896
  145.6104  139.2367  143.2195 H   0  0  0  0  0  0  0  0  0  0  0  0  # atno 7974 bound_to 7965
  154.4302  140.1826  156.1202 H   0  0  0  0  0  0  0  0  0  0  0  0  # atno 8008 bound_to 7997
  156.0149  140.3347  155.6953 H   0  0  0  0  0  0  0  0  0  0  0  0  # atno 8009 bound_to 7997
  155.6059  140.0645  157.2711 H   0  0  0  0  0  0  0  0  0  0  0  0  # atno 8010 bound_to 7997
  140.4450  143.2502  151.8572 H   0  0  0  0  0  0  0  0  0  0  0  0  # atno 10167 bound_to 10162
  157.2545  130.7131  149.6422 H   0  0  0  0  0  0  0  0  0  0  0  0  # atno 10718 bound_to 10713
  153.6056  135.6998  153.5367 H   0  0  0  0  0  0  0  0  0  0  0  0  # atno 10763 bound_to 10752
  153.3060  135.4115  155.1294 H   0  0  0  0  0  0  0  0  0  0  0  0  # atno 10764 bound_to 10752
  154.8574  135.3660  154.5592 H   0  0  0  0  0  0  0  0  0  0  0  0  # atno 10765 bound_to 10752
  140.9345  133.7317  156.0984 H   0  0  0  0  0  0  0  0  0  0  0  0  # atno 11005 bound_to 11000
  146.1509  140.6927  142.9322 LP  0  0  0  0  0  0  0  0  0  0  0  0  # atno 17320 bound_to 7965
  144.7272  140.4562  143.6964 LP  0  0  0  0  0  0  0  0  0  0  0  0  # atno 17321 bound_to 7965
  139.4792  144.5186  151.8833 LP  0  0  0  0  0  0  0  0  0  0  0  0  # atno 17342 bound_to 10162
  140.4274  144.2161  150.5887 LP  0  0  0  0  0  0  0  0  0  0  0  0  # atno 17343 bound_to 10162
  155.9665  130.4417  150.5350 LP  0  0  0  0  0  0  0  0  0  0  0  0  # atno 17370 bound_to 10713
  157.3242  131.0687  151.1909 LP  0  0  0  0  0  0  0  0  0  0  0  0  # atno 17371 bound_to 10713
  140.7818  134.3717  157.5485 LP  0  0  0  0  0  0  0  0  0  0  0  0  # atno 17394 bound_to 11000
  139.8804  134.9086  156.2972 LP  0  0  0  0  0  0  0  0  0  0  0  0  # atno 17395 bound_to 11000

$$$$
