AV-unprocessed.smi:338|AV-procd|sdf|2377|dock3
  -GOLD-   2262022303D 1   1.00000     0.00000
 Structure written by MMmdl.
 42 44  0  0  0  0  0  0  0  0  2 V2000
  144.5228  144.7859  152.3824 C   0  0  0  0  0  0  0  0  0  0  0  0
  143.6327  144.5358  153.5986 C   0  0  0  0  0  0  0  0  0  0  0  0
  142.6921  145.3012  153.8082 O   0  0  0  0  0  0  0  0  0  0  0  0
  143.9540  143.3677  154.4681 C   0  0  0  0  0  0  0  0  0  0  0  0
  143.1077  142.9807  155.5332 C   0  0  0  0  0  0  0  0  0  0  0  0
  143.4365  141.8725  156.3349 C   0  0  0  0  0  0  0  0  0  0  0  0
  144.6110  141.1414  156.0817 C   0  0  0  0  0  0  0  0  0  0  0  0
  145.4706  141.5057  155.0271 C   0  0  0  0  0  0  0  0  0  0  0  0
  146.5995  140.7348  154.8494 O   0  0  0  0  0  0  0  0  0  0  0  0
  147.6785  141.2792  154.1009 C   0  0  0  0  0  0  0  0  0  0  0  0
  148.9995  140.8285  154.7403 C   0  0  1  0  0  0  0  0  0  0  0  0
  149.9683  140.6743  153.7218 O   0  0  0  0  0  0  0  0  0  0  0  0
  149.5133  141.8275  155.7963 C   0  0  0  0  0  0  0  0  0  0  0  0
  150.5738  141.2649  156.6414 N   0  0  0  0  0  0  0  0  0  0  0  0
  151.1711  140.0432  156.6006 C   0  0  0  0  0  0  0  0  0  0  0  0
  152.0945  140.0041  157.6013 N   0  3  0  0  0  0  0  0  0  0  0  0
  152.0864  141.2186  158.2913 C   0  0  0  0  0  0  0  0  0  0  0  0
  152.8374  141.6564  159.3778 C   0  0  0  0  0  0  0  0  0  0  0  0
  152.5773  142.9628  159.8417 C   0  0  0  0  0  0  0  0  0  0  0  0
  151.6032  143.7798  159.2309 C   0  0  0  0  0  0  0  0  0  0  0  0
  150.8475  143.3259  158.1297 C   0  0  0  0  0  0  0  0  0  0  0  0
  151.1115  142.0335  157.6782 C   0  0  0  0  0  0  0  0  0  0  0  0
  145.1317  142.6231  154.2226 C   0  0  0  0  0  0  0  0  0  0  0  0
  145.5484  144.9850  152.6939 H   0  0  0  0  0  0  0  0  0  0  0  0
  144.1650  145.6477  151.8183 H   0  0  0  0  0  0  0  0  0  0  0  0
  144.5176  143.9203  151.7200 H   0  0  0  0  0  0  0  0  0  0  0  0
  142.1984  143.5191  155.7544 H   0  0  0  0  0  0  0  0  0  0  0  0
  142.7857  141.5823  157.1465 H   0  0  0  0  0  0  0  0  0  0  0  0
  144.8549  140.2926  156.7035 H   0  0  0  0  0  0  0  0  0  0  0  0
  147.6257  140.9141  153.0737 H   0  0  0  0  0  0  0  0  0  0  0  0
  147.6251  142.3692  154.0780 H   0  0  0  0  0  0  0  0  0  0  0  0
  148.8516  139.8505  155.1993 H   0  0  0  0  0  0  0  0  0  0  0  0
  149.6763  139.9970  153.1304 H   0  0  0  0  0  0  0  0  0  0  0  0
  149.9169  142.7179  155.3121 H   0  0  0  0  0  0  0  0  0  0  0  0
  148.7038  142.1673  156.4436 H   0  0  0  0  0  0  0  0  0  0  0  0
  150.9496  139.2481  155.9032 H   0  0  0  0  0  0  0  0  0  0  0  0
  153.5836  141.0330  159.8481 H   0  0  0  0  0  0  0  0  0  0  0  0
  153.1357  143.3459  160.6835 H   0  0  0  0  0  0  0  0  0  0  0  0
  151.4316  144.7750  159.6148 H   0  0  0  0  0  0  0  0  0  0  0  0
  150.1026  143.9572  157.6679 H   0  0  0  0  0  0  0  0  0  0  0  0
  145.7725  142.9225  153.4073 H   0  0  0  0  0  0  0  0  0  0  0  0
  152.6841  139.2053  157.7973 H   0  0  0  0  0  0  0  0  0  0  0  0
  1  2  1  0  0  0  0
  1 24  1  0  0  0  0
  1 25  1  0  0  0  0
  1 26  1  0  0  0  0
  2  3  2  0  0  0  0
  2  4  1  0  0  0  0
  4 23  1  0  0  0  0
  4  5  2  0  0  0  0
  5  6  1  0  0  0  0
  5 27  1  0  0  0  0
  6  7  2  0  0  0  0
  6 28  1  0  0  0  0
  7  8  1  0  0  0  0
  7 29  1  0  0  0  0
  8  9  1  0  0  0  0
  8 23  2  0  0  0  0
  9 10  1  0  0  0  0
 10 11  1  0  0  0  0
 10 30  1  0  0  0  0
 10 31  1  0  0  0  0
 11 12  1  0  0  0  0
 11 13  1  0  0  0  0
 11 32  1  0  0  0  0
 12 33  1  0  0  0  0
 13 14  1  0  0  0  0
 13 34  1  0  0  0  0
 13 35  1  0  0  0  0
 14 22  1  0  0  0  0
 14 15  1  0  0  0  0
 15 16  2  0  0  0  0
 15 36  1  0  0  0  0
 16 17  1  0  0  0  0
 16 42  1  0  0  0  0
 17 22  2  0  0  0  0
 17 18  1  0  0  0  0
 18 19  2  0  0  0  0
 18 37  1  0  0  0  0
 19 20  1  0  0  0  0
 19 38  1  0  0  0  0
 20 21  2  0  0  0  0
 20 39  1  0  0  0  0
 21 22  1  0  0  0  0
 21 40  1  0  0  0  0
 23 41  1  0  0  0  0
M  CHG  1  16   1
M  END
> <s_m_source_file>
AV-unprocessed.smi

> <i_m_source_file_index>
338

> <i_lp_mmshare_version>
43012

> <i_f3d_flags>
0

> <s_epik_input>
W0NIM11DKD1PKWMxW2NIXVtjSF1bY0hdYyhbY0hdMSlPW0NIMl1bQ0BIXShbT0hdKVtDSDJdbihbY0hdbjIpYyhjMjMpW2NIXVtjSF1bY0hdW2NIXTM=

> <s_epik_cmdline>
J2VwaWtfcHl0aG9uJywgJy1waCcsICc3LjAnLCAnLXRuJywgJzgnLCAnLW1hJywgJzIwMCcsICctbWV0YWxfYmluZGluZycsICctaW1hZScsICc8aW5maWxlLm1hZT4nLCAnLW9tYWUnLCAnPG91dGZpbGUubWFlPic=

> <r_lp_tautomer_probability>
0.99995

> <r_epik_Ionization_Penalty>
1.35015

> <r_epik_Ionization_Penalty_Charging>
1.35015

> <r_epik_Ionization_Penalty_Neutral>
2.3993e-06

> <r_epik_State_Penalty>
1.42814

> <r_epik_Charging_Adjusted_Penalty>
2.77829

> <i_epik_Tot_Q>
1

> <i_epik_Tot_abs_Q>
1

> <r_epik_Metal_State_Penalty>
5.46522

> <b_epik_Metal_Only>
0

> <s_lp_Force_Field>
OPLS_2005

> <r_lp_Energy>
25.8652

> <b_lp_Chiralities_Consistent>
1

> <s_lp_Variant>
AV-unprocessed.smi:338-4

> <Gold.Version>
5.8.1

> <Gold.Id.Protein>
6NUR|6NUR_protein|mol2

> <Gold.PLP.Fitness>
53.9380

> <Gold.PLP.PLP>
-50.9901

> <Gold.PLP.part.hbond>
-4.2715

> <Gold.PLP.part.metal>
0.0000

> <Gold.PLP.part.buried>
-0.2005

> <Gold.PLP.part.nonpolar>
-45.7745

> <Gold.PLP.part.repulsive>
0.2749

> <Gold.PLP.ligand.clash>
0.0000

> <Gold.PLP.ligand.torsion>
1.0542

> <Gold.PLP.Chemscore.Hbond>
1.6425

> <Gold.PLP.Chemscore.CHOScore>
0.0000

> <Gold.PLP.Chemscore.Metal>
0.0000

> <Gold.Chemscore.Hbonds>
donor molecule, donor type, donor heavy atom, donor atom, acceptor molecule, acceptor atom, score
      L1  H    12    33       P1  7957  0.56
      P1  H  7989  7998       L1    12  0.51
      P1  H  8011  8017       L1    12  0.45

> <Gold.PLP.Chemscore.Internal.Correction>
0.1289

> <Gold.Rescore>
     Score         DG    S(hbond)    S(metal)    S(lipo)     H(rot)  DE(clash)    DE(int)     intcor
     12.66     -15.30       0.82        0.00     114.81       2.48       1.14       1.51       ----

> <Gold.Chemscore.Fitness>
12.6579

> <Gold.Chemscore.DG>
-15.3031

> <Gold.Chemscore.ZeroCoef>
-5.4800

> <Gold.Chemscore.Hbond>
0.8231

> <Gold.Chemscore.Metal>
0.0000

> <Gold.Chemscore.Lipo>
114.8142

> <Gold.Chemscore.Internal_Hbond>
0.0000

> <Gold.Chemscore.DEClash>
1.1362

> <Gold.Chemscore.DEInternal>
1.5089

> <Gold.Chemscore.Rot>
2.4842

> <Gold.Chemscore.Internal.Correction>
   9.000000E+99

> <Gold.Chemscore.Hbonds>
donor molecule, donor type, donor heavy atom, donor atom, acceptor molecule, acceptor atom, score
      L1  H    12    33       P1  7957  0.55
      P1  H  7989  7998       L1    12  0.31
      P1  H  8011  8017       L1    12  0.06

> <Gold.Chemscore.Hbond.Weighted>
-2.7492

> <Gold.Chemscore.Metal.Weighted>
-0.0000

> <Gold.Chemscore.Lipo.Weighted>
-13.4333

> <Gold.Chemscore.Internal_Hbond.Weighted>
0.0000

> <Gold.Chemscore.DEClash.Weighted>
1.1362

> <Gold.Chemscore.DEInternal.Weighted>
1.5089

> <Gold.Chemscore.Rot.Weighted>
6.3594

> <Gold.Chemscore.Internal.Correction.Weighted>
   9.000000E+99

> <Gold.Protein.RotatedTorsions>
[ 6907 6896 6895 6894 ] final   45.38 input  -60.11 | X-H torsion
[ 7974 7965 7964 7962 ] final   -5.85 input  175.53 | X-H torsion
[ 8008 7997 7996 7995 ] final  150.13 input   59.86 | X-H torsion
[ 10167 10162 10161 10158 ] final   91.67 input  -65.29 | X-H torsion
[ 10718 10713 10712 10709 ] final -132.02 input   66.30 | X-H torsion
[ 10763 10752 10751 10750 ] final  -99.45 input  -60.55 | X-H torsion
[ 11005 11000 10999 10996 ] final   69.11 input  -57.11 | X-H torsion

> <Gold.Protein.ActiveResidues>
 VAL166  LYS551  ARG553  GLY616  TRP617  ASP618  TYR619  PRO620  LYS621  CYS622 
 ASP623  PHE694  ASN695  SER759  ASP760  ASP761  ALA762  ILE779  LEU786  VAL792 
 PHE793  MET794  SER795  GLU796  ALA797  LYS798  CYS799  TRP800  GLU811  SER814 

> <Gold.Protein.RotatedAtoms>
  152.2438  134.8202  160.0456 H   0  0  0  0  0  0  0  0  0  0  0  0  # atno 6907 bound_to 6896
  151.8907  133.3510  159.3805 H   0  0  0  0  0  0  0  0  0  0  0  0  # atno 6908 bound_to 6896
  150.7062  134.4853  159.5534 H   0  0  0  0  0  0  0  0  0  0  0  0  # atno 6909 bound_to 6896
  146.2344  140.2082  142.8335 H   0  0  0  0  0  0  0  0  0  0  0  0  # atno 7974 bound_to 7965
  156.2728  140.2083  156.5968 H   0  0  0  0  0  0  0  0  0  0  0  0  # atno 8008 bound_to 7997
  154.6938  140.0527  157.0414 H   0  0  0  0  0  0  0  0  0  0  0  0  # atno 8009 bound_to 7997
  155.0829  140.3188  155.4599 H   0  0  0  0  0  0  0  0  0  0  0  0  # atno 8010 bound_to 7997
  139.8352  144.6668  150.9350 H   0  0  0  0  0  0  0  0  0  0  0  0  # atno 10167 bound_to 10162
  156.2303  130.7033  151.0851 H   0  0  0  0  0  0  0  0  0  0  0  0  # atno 10718 bound_to 10713
  154.7498  135.4972  153.9269 H   0  0  0  0  0  0  0  0  0  0  0  0  # atno 10763 bound_to 10752
  153.1131  135.6714  153.9473 H   0  0  0  0  0  0  0  0  0  0  0  0  # atno 10764 bound_to 10752
  153.9226  135.3086  155.3426 H   0  0  0  0  0  0  0  0  0  0  0  0  # atno 10765 bound_to 10752
  139.9672  134.6960  156.0520 H   0  0  0  0  0  0  0  0  0  0  0  0  # atno 11005 bound_to 11000
  144.9727  140.8384  143.5445 LP  0  0  0  0  0  0  0  0  0  0  0  0  # atno 17320 bound_to 7965
  145.2066  139.2225  143.5165 LP  0  0  0  0  0  0  0  0  0  0  0  0  # atno 17321 bound_to 7965
  140.7803  143.3963  151.1223 LP  0  0  0  0  0  0  0  0  0  0  0  0  # atno 17342 bound_to 10162
  139.7614  143.8630  152.3101 LP  0  0  0  0  0  0  0  0  0  0  0  0  # atno 17343 bound_to 10162
  157.7130  131.0724  150.6432 LP  0  0  0  0  0  0  0  0  0  0  0  0  # atno 17370 bound_to 10713
  156.6499  130.4482  149.5723 LP  0  0  0  0  0  0  0  0  0  0  0  0  # atno 17371 bound_to 10713
  141.1352  133.6577  156.3574 LP  0  0  0  0  0  0  0  0  0  0  0  0  # atno 17394 bound_to 11000
  140.5370  134.6157  157.5368 LP  0  0  0  0  0  0  0  0  0  0  0  0  # atno 17395 bound_to 11000

$$$$
