#       Name:                AV-unprocessed.smi:2153
#       Creating user name   scv26
#       Creation time:       Fri Mar 27 11:54:32 2020


#       File generated by GOLD software.
#

@<TRIPOS>MOLECULE
AV-unprocessed.smi:2153
    56    57     1
SMALL
NO_CHARGES


@<TRIPOS>ATOM
      1 ****        -3.1505   0.4549   3.8522 C.3            1 S1                 0.0000
      2 ****        -3.5679   0.8372   2.4228 C.3            1 S1                 0.0000
      3 ****        -5.0777   1.1463   2.3628 C.3            1 S1                 0.0000
      4 ****        -5.5262   1.5254   0.9435 C.3            1 S1                 0.0000
      5 ****        -5.1619   0.4237  -0.0608 C.3            1 S1                 0.0000
      6 ****        -3.6582   0.1162  -0.0188 C.3            1 S1                 0.0000
      7 ****        -3.1942  -0.2634   1.4037 C.3            1 S1                 0.0000
      8 ****        -1.7793  -0.4073   1.4133 O.3            1 S1                 0.0000
      9 ****        -1.3156  -1.6870   1.0070 C.3            1 S1                 0.0000
     10 ****         0.2165  -1.6872   1.0169 C.3            1 S1                 0.0000
     11 ****         0.7363  -0.7956  -0.0107 N.am           1 S1                 0.0000
     12 ****         2.0387  -0.5826  -0.2420 C.2            1 S1                 0.0000
     13 ****         2.9341  -1.1296   0.4036 O.2            1 S1                 0.0000
     14 ****         2.3647   0.4123  -1.3650 C.3            1 S1                 0.0000
     15 ****         3.7864   0.4311  -1.7350 N.am           1 S1                 0.0000
     16 ****         4.6222   1.3824  -1.1786 C.2            1 S1                 0.0000
     17 ****         5.9417   1.4685  -1.4543 C.2            1 S1                 0.0000
     18 ****         6.5729   0.5354  -2.3787 C.2            1 S1                 0.0000
     19 ****         7.7690   0.5752  -2.6711 O.2            1 S1                 0.0000
     20 ****         5.6999  -0.4311  -2.9283 N.am           1 S1                 0.0000
     21 ****         6.2882  -1.3756  -3.8553 C.3            1 S1                 0.0000
     22 ****         4.3173  -0.5145  -2.6399 C.2            1 S1                 0.0000
     23 ****         3.5859  -1.3685  -3.1462 O.2            1 S1                 0.0000
     24 ****        -3.6454  -0.4604   4.1780 H              1 S1                 0.0000
     25 ****        -3.4090   1.2429   4.5600 H              1 S1                 0.0000
     26 ****        -2.0745   0.2940   3.9232 H              1 S1                 0.0000
     27 ****        -3.0295   1.7468   2.1524 H              1 S1                 0.0000
     28 ****        -5.6455   0.2784   2.7012 H              1 S1                 0.0000
     29 ****        -5.3202   1.9584   3.0490 H              1 S1                 0.0000
     30 ****        -6.6021   1.7023   0.9275 H              1 S1                 0.0000
     31 ****        -5.0538   2.4631   0.6479 H              1 S1                 0.0000
     32 ****        -5.7275  -0.4810   0.1655 H              1 S1                 0.0000
     33 ****        -5.4516   0.7274  -1.0671 H              1 S1                 0.0000
     34 ****        -3.4373  -0.6859  -0.7224 H              1 S1                 0.0000
     35 ****        -3.1011   0.9886  -0.3630 H              1 S1                 0.0000
     36 ****        -3.6730  -1.1957   1.7110 H              1 S1                 0.0000
     37 ****        -1.6847  -2.4435   1.7009 H              1 S1                 0.0000
     38 ****        -1.6845  -1.9475   0.0146 H              1 S1                 0.0000
     39 ****         0.5868  -1.3831   1.9971 H              1 S1                 0.0000
     40 ****         0.5850  -2.6972   0.8316 H              1 S1                 0.0000
     41 ****         0.0602  -0.3032  -0.5765 H              1 S1                 0.0000
     42 ****         1.7489   0.1873  -2.2376 H              1 S1                 0.0000
     43 ****         2.0571   1.4070  -1.0392 H              1 S1                 0.0000
     44 ****         4.2004   2.0945  -0.4841 H              1 S1                 0.0000
     45 ****         6.5378   2.2371  -0.9846 H              1 S1                 0.0000
     46 ****         5.5737  -2.1443  -4.1472 H              1 S1                 0.0000
     47 ****         7.1351  -1.8453  -3.3518 H              1 S1                 0.0000
     48 ****         6.6105  -0.8072  -4.7294 H              1 S1                 0.0000
     49 ****        -1.4542  -0.2380   2.3438 LP             1 S1                 0.0000
     50 ****        -1.3914   0.2764   0.7952 LP             1 S1                 0.0000
     51 ****         2.7028  -1.7661   1.1394 LP             1 S1                 0.0000
     52 ****         3.8923  -0.9371   0.1919 LP             1 S1                 0.0000
     53 ****         8.3595   1.2740  -2.2672 LP             1 S1                 0.0000
     54 ****         8.1495  -0.0913  -3.3122 LP             1 S1                 0.0000
     55 ****         2.6130  -1.3933  -2.9165 LP             1 S1                 0.0000
     56 ****         3.9658  -2.0362  -3.7864 LP             1 S1                 0.0000
@<TRIPOS>BOND
    1    1    2 1     
    2    1   24 1     
    3    1   25 1     
    4    1   26 1     
    5    2    7 1     
    6    2    3 1     
    7    2   27 1     
    8    3    4 1     
    9    3   28 1     
   10    3   29 1     
   11    4    5 1     
   12    4   30 1     
   13    4   31 1     
   14    5    6 1     
   15    5   32 1     
   16    5   33 1     
   17    6    7 1     
   18    6   34 1     
   19    6   35 1     
   20    7    8 1     
   21    7   36 1     
   22    8    9 1     
   23    9   10 1     
   24    9   37 1     
   25    9   38 1     
   26   10   11 1     
   27   10   39 1     
   28   10   40 1     
   29   11   12 am    
   30   11   41 1     
   31   12   13 2     
   32   12   14 1     
   33   14   15 1     
   34   14   42 1     
   35   14   43 1     
   36   15   22 am    
   37   15   16 1     
   38   16   17 2     
   39   16   44 1     
   40   17   18 1     
   41   17   45 1     
   42   18   19 2     
   43   18   20 am    
   44   20   21 1     
   45   20   22 am    
   46   21   46 1     
   47   21   47 1     
   48   21   48 1     
   49   22   23 2     
   50    8   49 1     
   51    8   50 1     
   52   13   51 1     
   53   13   52 1     
   54   19   53 1     
   55   19   54 1     
   56   23   55 1     
   57   23   56 1     
@<TRIPOS>SUBSTRUCTURE
      1 S1             1
@<TRIPOS>SET
LONE_PAIRS      STATIC     ATOMS    <user>   **** ""
8 49 50 51 52 53 54 55 56
DONOR_HYDROGENS      STATIC     ATOMS    <user>   **** ""
1 41
ATOM$BLUE        STATIC     ATOMS    COLORGROUP SYSTEM
8 49 50 51 52 53 54 55 56
ATOM$RED        STATIC     ATOMS    COLORGROUP SYSTEM
1 41
