AV-unprocessed.smi:2353|AV-procd|sdf|9381|dock2
  -GOLD-   2272013 13D 1   1.00000     0.00000
 Structure written by MMmdl.
 45 47  0  0  0  0  0  0  0  0  1 V2000
  153.3310  139.6232  159.8546 C   0  0  0  0  0  0  0  0  0  0  0  0
  152.3039  140.1635  158.8809 C   0  0  0  0  0  0  0  0  0  0  0  0
  151.4159  141.1821  159.2768 C   0  0  0  0  0  0  0  0  0  0  0  0
  150.4639  141.6761  158.3673 C   0  0  0  0  0  0  0  0  0  0  0  0
  150.3932  141.1560  157.0583 C   0  0  0  0  0  0  0  0  0  0  0  0
  149.3610  141.7031  156.0905 C   0  0  0  0  0  0  0  0  0  0  0  0
  151.2790  140.1331  156.6470 C   0  0  0  0  0  0  0  0  0  0  0  0
  151.1575  139.6706  155.3526 O   0  0  0  0  0  0  0  0  0  0  0  0
  151.8722  138.5004  154.9776 C   0  0  0  0  0  0  0  0  0  0  0  0
  150.8606  137.3935  154.6332 C   0  0  1  0  0  0  0  0  0  0  0  0
  151.5368  136.4615  153.8121 O   0  0  0  0  0  0  0  0  0  0  0  0
  150.3630  136.6529  155.8946 C   0  0  0  0  0  0  0  0  0  0  0  0
  150.3941  135.1951  155.7217 N   0  0  0  0  0  0  0  0  0  0  0  0
  149.4214  134.7069  154.8651 N   0  0  0  0  0  0  0  0  0  0  0  0
  149.3409  133.4408  154.6096 C   0  0  0  0  0  0  0  0  0  0  0  0
  148.3499  132.8621  153.7248 N   0  0  0  0  0  0  0  0  0  0  0  0
  147.4731  133.6964  153.0339 C   0  0  0  0  0  0  0  0  0  0  0  0
  146.6662  132.8634  152.2907 C   0  0  0  0  0  0  0  0  0  0  0  0
  147.0266  131.5336  152.5075 N   0  0  0  0  0  0  0  0  0  0  0  0
  148.0330  131.6085  153.3695 C   0  0  0  0  0  0  0  0  0  0  0  0
  150.2766  132.5141  155.2236 C   0  0  0  0  0  0  0  0  0  0  0  0
  151.2219  132.9997  156.0567 C   0  0  0  0  0  0  0  0  0  0  0  0
  151.3297  134.4271  156.3548 C   0  0  0  0  0  0  0  0  0  0  0  0
  152.1876  134.8943  157.1028 O   0  0  0  0  0  0  0  0  0  0  0  0
  152.2341  139.6414  157.5735 C   0  0  0  0  0  0  0  0  0  0  0  0
  153.4227  140.2651  160.7313 H   0  0  0  0  0  0  0  0  0  0  0  0
  154.3102  139.5589  159.3791 H   0  0  0  0  0  0  0  0  0  0  0  0
  153.0442  138.6258  160.1882 H   0  0  0  0  0  0  0  0  0  0  0  0
  151.4599  141.5877  160.2769 H   0  0  0  0  0  0  0  0  0  0  0  0
  149.7875  142.4583  158.6794 H   0  0  0  0  0  0  0  0  0  0  0  0
  149.8546  142.2069  155.2593 H   0  0  0  0  0  0  0  0  0  0  0  0
  148.6974  142.4192  156.5762 H   0  0  0  0  0  0  0  0  0  0  0  0
  148.7495  140.8945  155.6891 H   0  0  0  0  0  0  0  0  0  0  0  0
  152.5445  138.6864  154.1378 H   0  0  0  0  0  0  0  0  0  0  0  0
  152.4796  138.1893  155.8291 H   0  0  0  0  0  0  0  0  0  0  0  0
  150.0162  137.8262  154.0942 H   0  0  0  0  0  0  0  0  0  0  0  0
  150.9838  136.2541  153.0740 H   0  0  0  0  0  0  0  0  0  0  0  0
  150.9122  136.9730  156.7825 H   0  0  0  0  0  0  0  0  0  0  0  0
  149.3280  136.9355  156.0950 H   0  0  0  0  0  0  0  0  0  0  0  0
  147.4795  134.7742  153.1124 H   0  0  0  0  0  0  0  0  0  0  0  0
  145.8579  133.1168  151.6206 H   0  0  0  0  0  0  0  0  0  0  0  0
  148.5398  130.7305  153.7417 H   0  0  0  0  0  0  0  0  0  0  0  0
  150.2245  131.4549  155.0236 H   0  0  0  0  0  0  0  0  0  0  0  0
  151.9207  132.3159  156.5160 H   0  0  0  0  0  0  0  0  0  0  0  0
  152.9274  138.8597  157.3030 H   0  0  0  0  0  0  0  0  0  0  0  0
  1  2  1  0  0  0  0
  1 26  1  0  0  0  0
  1 27  1  0  0  0  0
  1 28  1  0  0  0  0
  2 25  1  0  0  0  0
  2  3  2  0  0  0  0
  3  4  1  0  0  0  0
  3 29  1  0  0  0  0
  4  5  2  0  0  0  0
  4 30  1  0  0  0  0
  5  6  1  0  0  0  0
  5  7  1  0  0  0  0
  6 31  1  0  0  0  0
  6 32  1  0  0  0  0
  6 33  1  0  0  0  0
  7  8  1  0  0  0  0
  7 25  2  0  0  0  0
  8  9  1  0  0  0  0
  9 10  1  0  0  0  0
  9 34  1  0  0  0  0
  9 35  1  0  0  0  0
 10 11  1  0  0  0  0
 10 12  1  0  0  0  0
 10 36  1  0  0  0  0
 11 37  1  0  0  0  0
 12 13  1  0  0  0  0
 12 38  1  0  0  0  0
 12 39  1  0  0  0  0
 13 23  1  0  0  0  0
 13 14  1  0  0  0  0
 14 15  2  0  0  0  0
 15 16  1  0  0  0  0
 15 21  1  0  0  0  0
 16 20  1  0  0  0  0
 16 17  1  0  0  0  0
 17 18  2  0  0  0  0
 17 40  1  0  0  0  0
 18 19  1  0  0  0  0
 18 41  1  0  0  0  0
 19 20  2  0  0  0  0
 20 42  1  0  0  0  0
 21 22  2  0  0  0  0
 21 43  1  0  0  0  0
 22 23  1  0  0  0  0
 22 44  1  0  0  0  0
 23 24  2  0  0  0  0
 25 45  1  0  0  0  0
M  END
> <s_m_source_file>
AV-unprocessed.smi

> <i_m_source_file_index>
2353

> <i_lp_mmshare_version>
43012

> <i_f3d_flags>
0

> <s_epik_input>
W0NIM11jMVtjSF1bY0hdYyhbQ0gzXSljKFtjSF0xKU9bQ0gyXVtDQEhdKFtPSF0pW0NIMl1uMm5jKFtjSF1bY0hdYzI9TyktbjNbY0hdW2NIXW5bY0hdMw==

> <s_epik_cmdline>
J2VwaWtfcHl0aG9uJywgJy1waCcsICc3LjAnLCAnLXRuJywgJzgnLCAnLW1hJywgJzIwMCcsICctbWV0YWxfYmluZGluZycsICctaW1hZScsICc8aW5maWxlLm1hZT4nLCAnLW9tYWUnLCAnPG91dGZpbGUubWFlPic=

> <r_lp_tautomer_probability>
1

> <r_epik_Ionization_Penalty>
0.03707

> <r_epik_Ionization_Penalty_Charging>
0.0370699

> <r_epik_Ionization_Penalty_Neutral>
1.17174e-07

> <r_epik_State_Penalty>
0.0310055

> <r_epik_Charging_Adjusted_Penalty>
0.0680754

> <i_epik_Tot_Q>
0

> <i_epik_Tot_abs_Q>
0

> <r_epik_Metal_State_Penalty>
0.0291724

> <b_epik_Metal_Only>
0

> <s_lp_Force_Field>
OPLS_2005

> <r_lp_Energy>
35.5456

> <b_lp_Chiralities_Consistent>
1

> <s_lp_Variant>
AV-unprocessed.smi:2353-2

> <Gold.Version>
5.8.1

> <Gold.Id.Protein>
6NUR|6NUR_protein|mol2

> <Gold.PLP.Fitness>
53.3414

> <Gold.PLP.PLP>
-44.1990

> <Gold.PLP.part.hbond>
-3.7394

> <Gold.PLP.part.metal>
0.0000

> <Gold.PLP.part.buried>
-1.7336

> <Gold.PLP.part.nonpolar>
-40.1408

> <Gold.PLP.part.repulsive>
0.9952

> <Gold.PLP.ligand.clash>
0.0000

> <Gold.PLP.ligand.torsion>
1.4961

> <Gold.PLP.Chemscore.Hbond>
3.0000

> <Gold.PLP.Chemscore.CHOScore>
1.0000

> <Gold.PLP.Chemscore.Metal>
0.0000

> <Gold.Chemscore.Hbonds>
donor molecule, donor type, donor heavy atom, donor atom, acceptor molecule, acceptor atom, score
      L1  H    11    37       P1  7949  0.68
      P1  H  7989  7998       L1     8  0.35
      P1  H 10752 10765       L1    11  1.00
      L1  C    17    40       P1  7948  0.87

> <Gold.PLP.Chemscore.Internal.Correction>
0.1347

> <Gold.Rescore>
     Score         DG    S(hbond)    S(metal)    S(lipo)     H(rot)  DE(clash)    DE(int)     intcor
     15.33     -18.06       2.54        0.00      92.01       2.60       1.28       1.45       ----

> <Gold.Chemscore.Fitness>
15.3343

> <Gold.Chemscore.DG>
-18.0632

> <Gold.Chemscore.ZeroCoef>
-5.4800

> <Gold.Chemscore.Hbond>
2.5359

> <Gold.Chemscore.Metal>
0.0000

> <Gold.Chemscore.Lipo>
92.0148

> <Gold.Chemscore.Internal_Hbond>
0.0000

> <Gold.Chemscore.DEClash>
1.2752

> <Gold.Chemscore.DEInternal>
1.4537

> <Gold.Chemscore.Rot>
2.5986

> <Gold.Chemscore.Internal.Correction>
   9.000000E+99

> <Gold.Chemscore.Hbonds>
donor molecule, donor type, donor heavy atom, donor atom, acceptor molecule, acceptor atom, score
      L1  H    11    37       P1  7949  0.13
      P1  H  7989  7998       L1     8  0.05
      P1  H 10752 10765       L1    11  0.99

> <Gold.Chemscore.Hbond.Weighted>
-8.4699

> <Gold.Chemscore.Metal.Weighted>
-0.0000

> <Gold.Chemscore.Lipo.Weighted>
-10.7657

> <Gold.Chemscore.Internal_Hbond.Weighted>
0.0000

> <Gold.Chemscore.DEClash.Weighted>
1.2752

> <Gold.Chemscore.DEInternal.Weighted>
1.4537

> <Gold.Chemscore.Rot.Weighted>
6.6524

> <Gold.Chemscore.Internal.Correction.Weighted>
   9.000000E+99

> <Gold.Protein.RotatedTorsions>
[ 6907 6896 6895 6894 ] final  112.66 input  -60.11 | X-H torsion
[ 7974 7965 7964 7962 ] final  126.71 input  175.53 | X-H torsion
[ 8008 7997 7996 7995 ] final   91.14 input   59.86 | X-H torsion
[ 10167 10162 10161 10158 ] final -175.74 input  -65.29 | X-H torsion
[ 10718 10713 10712 10709 ] final -128.33 input   66.30 | X-H torsion
[ 10763 10752 10751 10750 ] final  164.29 input  -60.55 | X-H torsion
[ 11005 11000 10999 10996 ] final  110.00 input  -57.11 | X-H torsion

> <Gold.Protein.ActiveResidues>
 VAL166  LYS551  ARG553  GLY616  TRP617  ASP618  TYR619  PRO620  LYS621  CYS622 
 ASP623  PHE694  ASN695  SER759  ASP760  ASP761  ALA762  ILE779  LEU786  VAL792 
 PHE793  MET794  SER795  GLU796  ALA797  LYS798  CYS799  TRP800  GLU811  SER814 

> <Gold.Protein.RotatedAtoms>
  152.4904  133.8484  159.7188 H   0  0  0  0  0  0  0  0  0  0  0  0  # atno 6907 bound_to 6896
  150.9028  133.7087  159.2881 H   0  0  0  0  0  0  0  0  0  0  0  0  # atno 6908 bound_to 6896
  151.4522  135.1035  159.9753 H   0  0  0  0  0  0  0  0  0  0  0  0  # atno 6909 bound_to 6896
  145.0586  139.3823  143.5017 H   0  0  0  0  0  0  0  0  0  0  0  0  # atno 7974 bound_to 7965
  156.0203  140.3341  155.7032 H   0  0  0  0  0  0  0  0  0  0  0  0  # atno 8008 bound_to 7997
  155.6032  140.0658  157.2745 H   0  0  0  0  0  0  0  0  0  0  0  0  # atno 8009 bound_to 7997
  154.4313  140.1806  156.1183 H   0  0  0  0  0  0  0  0  0  0  0  0  # atno 8010 bound_to 7997
  139.5565  144.1976  152.1168 H   0  0  0  0  0  0  0  0  0  0  0  0  # atno 10167 bound_to 10162
  156.1941  130.6814  151.0460 H   0  0  0  0  0  0  0  0  0  0  0  0  # atno 10718 bound_to 10713
  154.3067  135.2758  155.2585 H   0  0  0  0  0  0  0  0  0  0  0  0  # atno 10763 bound_to 10752
  154.4999  135.5811  153.6526 H   0  0  0  0  0  0  0  0  0  0  0  0  # atno 10764 bound_to 10752
  152.9893  135.6155  154.3241 H   0  0  0  0  0  0  0  0  0  0  0  0  # atno 10765 bound_to 10752
  139.8873  134.9473  156.6211 H   0  0  0  0  0  0  0  0  0  0  0  0  # atno 11005 bound_to 11000
  146.3523  140.0273  142.8653 LP  0  0  0  0  0  0  0  0  0  0  0  0  # atno 17320 bound_to 7965
  145.1437  140.9585  143.4473 LP  0  0  0  0  0  0  0  0  0  0  0  0  # atno 17321 bound_to 7965
  140.1481  144.5140  150.6704 LP  0  0  0  0  0  0  0  0  0  0  0  0  # atno 17342 bound_to 10162
  140.6839  143.2340  151.5313 LP  0  0  0  0  0  0  0  0  0  0  0  0  # atno 17343 bound_to 10162
  157.6947  131.0798  150.7005 LP  0  0  0  0  0  0  0  0  0  0  0  0  # atno 17370 bound_to 10713
  156.7062  130.4638  149.5559 LP  0  0  0  0  0  0  0  0  0  0  0  0  # atno 17371 bound_to 10713
  140.7738  133.8716  155.8513 LP  0  0  0  0  0  0  0  0  0  0  0  0  # atno 17394 bound_to 11000
  140.9819  134.1394  157.4487 LP  0  0  0  0  0  0  0  0  0  0  0  0  # atno 17395 bound_to 11000

$$$$
