AV-unprocessed.smi:193|AV-procd|sdf|1511|dock8
  -GOLD-   2262019343D 1   1.00000     0.00000
 Structure written by MMmdl.
 62 66  0  0  0  0  0  0  0  0  2 V2000
  149.8482  140.5345  154.5397 C   0  0  0  0  0  0  0  0  0  0  0  0
  149.0615  141.4096  155.5292 C   0  0  1  0  0  0  0  0  0  0  0  0
  147.7934  140.6581  155.9833 C   0  0  0  0  0  0  0  0  0  0  0  0
  146.7228  141.5280  156.4751 N   0  0  0  0  0  0  0  0  0  0  0  0
  145.4492  141.0546  156.4472 C   0  0  0  0  0  0  0  0  0  0  0  0
  145.1932  139.8271  156.9731 N   0  0  0  0  0  0  0  0  0  0  0  0
  143.9517  139.3336  156.9695 C   0  0  0  0  0  0  0  0  0  0  0  0
  142.8356  139.8889  156.4954 N   0  0  0  0  0  0  0  0  0  0  0  0
  143.0841  141.1167  155.9570 C   0  0  0  0  0  0  0  0  0  0  0  0
  144.3484  141.7689  155.8901 C   0  0  0  0  0  0  0  0  0  0  0  0
  144.2090  142.9986  155.2558 N   0  0  0  0  0  0  0  0  0  0  0  0
  142.9360  143.0741  154.9777 C   0  0  0  0  0  0  0  0  0  0  0  0
  142.1851  141.9898  155.3703 N   0  0  0  0  0  0  0  0  0  0  0  0
  140.7529  141.8104  155.1876 C   0  0  0  0  0  0  0  0  0  0  0  0
  140.3832  140.8525  154.0280 C   0  0  0  0  0  0  0  0  0  0  0  0
  140.8675  141.4255  152.8255 O   0  0  0  0  0  0  0  0  0  0  0  0
  141.0664  139.4842  154.2238 C   0  0  0  0  0  0  0  0  0  0  0  0
  140.5959  138.4460  153.1897 C   0  0  0  0  0  0  0  0  0  0  0  0
  139.1792  138.3270  153.2290 O   0  0  0  0  0  0  0  0  0  0  0  0
  138.5157  139.5350  152.8781 C   0  0  0  0  0  0  0  0  0  0  0  0
  138.8593  140.6422  153.8905 C   0  0  0  0  0  0  0  0  0  0  0  0
  146.9865  142.7525  157.2301 C   0  0  0  0  0  0  0  0  0  0  0  0
  148.1686  142.6317  158.2017 C   0  0  0  0  0  0  0  0  0  0  0  0
  149.4570  142.9198  157.5277 N   0  3  1  0  0  0  0  0  0  0  0  0
  150.4778  143.4041  158.4847 C   0  0  1  0  0  0  0  0  0  0  0  0
  151.5755  144.2174  157.8380 C   0  0  0  0  0  0  0  0  0  0  0  0
  150.4992  144.9086  158.6469 C   0  0  2  0  0  0  0  0  0  0  0  0
  150.8365  145.5373  159.9810 C   0  0  0  0  0  0  0  0  0  0  0  0
  149.9689  141.7851  156.7209 C   0  0  0  0  0  0  0  0  0  0  0  0
  150.1702  139.6013  155.0030 H   0  0  0  0  0  0  0  0  0  0  0  0
  150.7374  141.0496  154.1746 H   0  0  0  0  0  0  0  0  0  0  0  0
  149.2421  140.2812  153.6692 H   0  0  0  0  0  0  0  0  0  0  0  0
  148.7755  142.3139  154.9898 H   0  0  0  0  0  0  0  0  0  0  0  0
  147.3993  140.1060  155.1283 H   0  0  0  0  0  0  0  0  0  0  0  0
  148.0395  139.9130  156.7409 H   0  0  0  0  0  0  0  0  0  0  0  0
  143.8360  138.3543  157.4101 H   0  0  0  0  0  0  0  0  0  0  0  0
  142.5049  143.9296  154.4779 H   0  0  0  0  0  0  0  0  0  0  0  0
  140.3327  141.4485  156.1271 H   0  0  0  0  0  0  0  0  0  0  0  0
  140.3088  142.7919  155.0175 H   0  0  0  0  0  0  0  0  0  0  0  0
  141.0028  140.7328  152.1971 H   0  0  0  0  0  0  0  0  0  0  0  0
  142.1515  139.5885  154.1831 H   0  0  0  0  0  0  0  0  0  0  0  0
  140.8342  139.1055  155.2201 H   0  0  0  0  0  0  0  0  0  0  0  0
  140.9229  138.7141  152.1840 H   0  0  0  0  0  0  0  0  0  0  0  0
  141.0344  137.4736  153.4144 H   0  0  0  0  0  0  0  0  0  0  0  0
  138.7878  139.8311  151.8640 H   0  0  0  0  0  0  0  0  0  0  0  0
  137.4406  139.3552  152.8748 H   0  0  0  0  0  0  0  0  0  0  0  0
  138.4467  140.3627  154.8608 H   0  0  0  0  0  0  0  0  0  0  0  0
  138.3619  141.5687  153.6014 H   0  0  0  0  0  0  0  0  0  0  0  0
  147.1278  143.5878  156.5435 H   0  0  0  0  0  0  0  0  0  0  0  0
  146.1099  142.9977  157.8305 H   0  0  0  0  0  0  0  0  0  0  0  0
  148.0194  143.3811  158.9804 H   0  0  0  0  0  0  0  0  0  0  0  0
  148.1867  141.6672  158.7119 H   0  0  0  0  0  0  0  0  0  0  0  0
  150.7001  142.7496  159.3260 H   0  0  0  0  0  0  0  0  0  0  0  0
  152.5700  144.1513  158.2750 H   0  0  0  0  0  0  0  0  0  0  0  0
  151.5527  144.3512  156.7580 H   0  0  0  0  0  0  0  0  0  0  0  0
  149.7646  145.4732  158.0749 H   0  0  0  0  0  0  0  0  0  0  0  0
  151.5744  144.9387  160.5162 H   0  0  0  0  0  0  0  0  0  0  0  0
  149.9396  145.6143  160.5956 H   0  0  0  0  0  0  0  0  0  0  0  0
  151.2427  146.5379  159.8310 H   0  0  0  0  0  0  0  0  0  0  0  0
  150.1425  140.9195  157.3625 H   0  0  0  0  0  0  0  0  0  0  0  0
  150.9467  142.0737  156.3326 H   0  0  0  0  0  0  0  0  0  0  0  0
  149.2875  143.6845  156.8902 H   0  0  0  0  0  0  0  0  0  0  0  0
  1  2  1  0  0  0  0
  1 30  1  0  0  0  0
  1 31  1  0  0  0  0
  1 32  1  0  0  0  0
  2 29  1  0  0  0  0
  2  3  1  0  0  0  0
  2 33  1  0  0  0  0
  3  4  1  0  0  0  0
  3 34  1  0  0  0  0
  3 35  1  0  0  0  0
  4  5  1  0  0  0  0
  4 22  1  0  0  0  0
  5 10  1  0  0  0  0
  5  6  2  0  0  0  0
  6  7  1  0  0  0  0
  7  8  2  0  0  0  0
  7 36  1  0  0  0  0
  8  9  1  0  0  0  0
  9 13  1  0  0  0  0
  9 10  2  0  0  0  0
 10 11  1  0  0  0  0
 11 12  2  0  0  0  0
 12 13  1  0  0  0  0
 12 37  1  0  0  0  0
 13 14  1  0  0  0  0
 14 15  1  0  0  0  0
 14 38  1  0  0  0  0
 14 39  1  0  0  0  0
 15 21  1  0  0  0  0
 15 16  1  0  0  0  0
 15 17  1  0  0  0  0
 16 40  1  0  0  0  0
 17 18  1  0  0  0  0
 17 41  1  0  0  0  0
 17 42  1  0  0  0  0
 18 19  1  0  0  0  0
 18 43  1  0  0  0  0
 18 44  1  0  0  0  0
 19 20  1  0  0  0  0
 20 21  1  0  0  0  0
 20 45  1  0  0  0  0
 20 46  1  0  0  0  0
 21 47  1  0  0  0  0
 21 48  1  0  0  0  0
 22 23  1  0  0  0  0
 22 49  1  0  0  0  0
 22 50  1  0  0  0  0
 23 24  1  0  0  0  0
 23 51  1  0  0  0  0
 23 52  1  0  0  0  0
 24 25  1  0  0  0  0
 24 29  1  0  0  0  0
 24 62  1  0  0  0  0
 25 27  1  0  0  0  0
 25 26  1  0  0  0  0
 25 53  1  0  0  0  0
 26 27  1  0  0  0  0
 26 54  1  0  0  0  0
 26 55  1  0  0  0  0
 27 28  1  0  0  0  0
 27 56  1  0  0  0  0
 28 57  1  0  0  0  0
 28 58  1  0  0  0  0
 28 59  1  0  0  0  0
 29 60  1  0  0  0  0
 29 61  1  0  0  0  0
M  CHG  1  24   1
M  END
> <s_m_source_file>
AV-unprocessed.smi

> <i_m_source_file_index>
193

> <i_lp_mmshare_version>
43012

> <i_f3d_flags>
0

> <s_epik_input>
W0NIM11bQ0BASF0xW0NIMl1bQ0BIXTFOKFtDSDJdMilbQ0gyXVtDSDJdTihbQ0gyXVtDQEhdMltDSDNdKWMobltjSF1uMyljKGMzNCluW2NIXW40W0NIMl1DNShbT0hdKVtDSDJdW0NIMl1PW0NIMl1bQ0gyXTU=

> <s_epik_cmdline>
J2VwaWtfcHl0aG9uJywgJy1waCcsICc3LjAnLCAnLXRuJywgJzgnLCAnLW1hJywgJzIwMCcsICctbWV0YWxfYmluZGluZycsICctaW1hZScsICc8aW5maWxlLm1hZT4nLCAnLW9tYWUnLCAnPG91dGZpbGUubWFlPic=

> <r_lp_tautomer_probability>
1

> <r_epik_Ionization_Penalty>
0.0540825

> <r_epik_Ionization_Penalty_Charging>
0.0538476

> <r_epik_Ionization_Penalty_Neutral>
0.000234891

> <r_epik_State_Penalty>
0.0200719

> <r_epik_Charging_Adjusted_Penalty>
0.0739194

> <i_epik_Tot_Q>
1

> <i_epik_Tot_abs_Q>
1

> <r_epik_Metal_State_Penalty>
0.0199414

> <b_epik_Metal_Only>
0

> <s_lp_Force_Field>
OPLS_2005

> <r_lp_Energy>
53.3477

> <b_lp_Chiralities_Consistent>
1

> <s_lp_Variant>
AV-unprocessed.smi:193-16

> <Gold.Version>
5.8.1

> <Gold.Id.Protein>
6NUR|6NUR_protein|mol2

> <Gold.PLP.Fitness>
46.1554

> <Gold.PLP.PLP>
-36.6642

> <Gold.PLP.part.hbond>
-3.5831

> <Gold.PLP.part.metal>
0.0000

> <Gold.PLP.part.buried>
-1.8725

> <Gold.PLP.part.nonpolar>
-30.5988

> <Gold.PLP.part.repulsive>
0.2685

> <Gold.PLP.ligand.clash>
0.0000

> <Gold.PLP.ligand.torsion>
1.9035

> <Gold.PLP.Chemscore.Hbond>
4.0000

> <Gold.PLP.Chemscore.CHOScore>
0.0000

> <Gold.PLP.Chemscore.Metal>
0.0000

> <Gold.Chemscore.Hbonds>
donor molecule, donor type, donor heavy atom, donor atom, acceptor molecule, acceptor atom, score
      L1  H    16    40       P1 10160  0.48
      L1  H    24    62       P1  8028  2.00
      P1  H 10162 10167       L1    16  0.55
      L1  C    12    37       P1 10174  0.07

> <Gold.PLP.Chemscore.Internal.Correction>
1.2981

> <Gold.Rescore>
     Score         DG    S(hbond)    S(metal)    S(lipo)     H(rot)  DE(clash)    DE(int)     intcor
     15.85     -19.17       2.25        0.00      95.08       1.93       0.22       3.10       ----

> <Gold.Chemscore.Fitness>
15.8463

> <Gold.Chemscore.DG>
-19.1711

> <Gold.Chemscore.ZeroCoef>
-5.4800

> <Gold.Chemscore.Hbond>
2.2470

> <Gold.Chemscore.Metal>
0.0000

> <Gold.Chemscore.Lipo>
95.0804

> <Gold.Chemscore.Internal_Hbond>
0.0000

> <Gold.Chemscore.DEClash>
0.2201

> <Gold.Chemscore.DEInternal>
3.1047

> <Gold.Chemscore.Rot>
1.9290

> <Gold.Chemscore.Internal.Correction>
   9.000000E+99

> <Gold.Chemscore.Hbonds>
donor molecule, donor type, donor heavy atom, donor atom, acceptor molecule, acceptor atom, score
      L1  H    16    40       P1 10160  0.48
      L1  H    24    62       P1  8028  0.82
      P1  H 10162 10167       L1    16  0.52

> <Gold.Chemscore.Hbond.Weighted>
-7.5050

> <Gold.Chemscore.Metal.Weighted>
-0.0000

> <Gold.Chemscore.Lipo.Weighted>
-11.1244

> <Gold.Chemscore.Internal_Hbond.Weighted>
0.0000

> <Gold.Chemscore.DEClash.Weighted>
0.2201

> <Gold.Chemscore.DEInternal.Weighted>
3.1047

> <Gold.Chemscore.Rot.Weighted>
4.9383

> <Gold.Chemscore.Internal.Correction.Weighted>
   9.000000E+99

> <Gold.Protein.RotatedTorsions>
[ 6907 6896 6895 6894 ] final -155.18 input  -60.11 | X-H torsion
[ 7974 7965 7964 7962 ] final  -42.28 input  175.53 | X-H torsion
[ 8008 7997 7996 7995 ] final  101.17 input   59.86 | X-H torsion
[ 10167 10162 10161 10158 ] final -108.03 input  -65.29 | X-H torsion
[ 10718 10713 10712 10709 ] final    0.23 input   66.30 | X-H torsion
[ 10763 10752 10751 10750 ] final   41.79 input  -60.55 | X-H torsion
[ 11005 11000 10999 10996 ] final  175.63 input  -57.11 | X-H torsion

> <Gold.Protein.ActiveResidues>
 VAL166  LYS551  ARG553  GLY616  TRP617  ASP618  TYR619  PRO620  LYS621  CYS622 
 ASP623  PHE694  ASN695  SER759  ASP760  ASP761  ALA762  ILE779  LEU786  VAL792 
 PHE793  MET794  SER795  GLU796  ALA797  LYS798  CYS799  TRP800  GLU811  SER814 

> <Gold.Protein.RotatedAtoms>
  151.2686  133.4266  159.2619 H   0  0  0  0  0  0  0  0  0  0  0  0  # atno 6907 bound_to 6896
  151.0465  134.9644  159.8199 H   0  0  0  0  0  0  0  0  0  0  0  0  # atno 6908 bound_to 6896
  152.5375  134.2642  159.8999 H   0  0  0  0  0  0  0  0  0  0  0  0  # atno 6909 bound_to 6896
  146.0130  140.6941  142.9215 H   0  0  0  0  0  0  0  0  0  0  0  0  # atno 7974 bound_to 7965
  156.1274  140.3202  155.8297 H   0  0  0  0  0  0  0  0  0  0  0  0  # atno 8008 bound_to 7997
  155.4395  140.0524  157.3029 H   0  0  0  0  0  0  0  0  0  0  0  0  # atno 8009 bound_to 7997
  154.4873  140.2078  155.9641 H   0  0  0  0  0  0  0  0  0  0  0  0  # atno 8010 bound_to 7997
  140.1706  143.4046  152.1357 H   0  0  0  0  0  0  0  0  0  0  0  0  # atno 10167 bound_to 10162
  156.8303  130.5486  149.5687 H   0  0  0  0  0  0  0  0  0  0  0  0  # atno 10718 bound_to 10713
  152.9899  135.6151  154.2845 H   0  0  0  0  0  0  0  0  0  0  0  0  # atno 10763 bound_to 10752
  154.2573  135.2783  155.2794 H   0  0  0  0  0  0  0  0  0  0  0  0  # atno 10764 bound_to 10752
  154.5236  135.5808  153.6758 H   0  0  0  0  0  0  0  0  0  0  0  0  # atno 10765 bound_to 10752
  140.3643  134.7085  157.4351 H   0  0  0  0  0  0  0  0  0  0  0  0  # atno 11005 bound_to 11000
  144.6960  140.3432  143.7195 LP  0  0  0  0  0  0  0  0  0  0  0  0  # atno 17320 bound_to 7965
  145.7312  139.1737  143.2429 LP  0  0  0  0  0  0  0  0  0  0  0  0  # atno 17321 bound_to 7965
  139.5340  144.7190  151.4958 LP  0  0  0  0  0  0  0  0  0  0  0  0  # atno 17342 bound_to 10162
  140.6585  143.8549  150.6861 LP  0  0  0  0  0  0  0  0  0  0  0  0  # atno 17343 bound_to 10162
  156.0938  130.5916  150.9778 LP  0  0  0  0  0  0  0  0  0  0  0  0  # atno 17370 bound_to 10713
  157.6410  131.0910  150.8251 LP  0  0  0  0  0  0  0  0  0  0  0  0  # atno 17371 bound_to 10713
  140.0602  134.6007  155.8758 LP  0  0  0  0  0  0  0  0  0  0  0  0  # atno 17394 bound_to 11000
  141.1974  133.6596  156.5742 LP  0  0  0  0  0  0  0  0  0  0  0  0  # atno 17395 bound_to 11000

$$$$
