AV-unprocessed.smi:1093|AV-procd|sdf|4739|dock2
  -GOLD-   22720 3273D 1   1.00000     0.00000
 Structure written by MMmdl.
 48 49  0  0  0  0  0  0  0  0  3 V2000
  145.2159  133.0826  150.8336 C   0  0  0  0  0  0  0  0  0  0  0  0
  146.4959  133.9144  151.0023 C   0  0  0  0  0  0  0  0  0  0  0  0
  146.2760  135.1397  151.8112 N   0  3  2  0  0  0  0  0  0  0  0  0
  145.3180  134.9135  152.9249 C   0  0  0  0  0  0  0  0  0  0  0  0
  145.2142  136.1503  153.8341 C   0  0  0  0  0  0  0  0  0  0  0  0
  144.8552  137.4095  153.0280 C   0  0  0  0  0  0  0  0  0  0  0  0
  145.8286  137.6056  151.8526 C   0  0  1  0  0  0  0  0  0  0  0  0
  147.1493  137.9832  152.3578 N   0  0  0  0  0  0  0  0  0  0  0  0
  147.3952  138.9834  153.2163 C   0  0  0  0  0  0  0  0  0  0  0  0
  146.5208  139.7320  153.6503 O   0  0  0  0  0  0  0  0  0  0  0  0
  148.7043  139.0592  153.5122 N   0  0  0  0  0  0  0  0  0  0  0  0
  149.3672  139.9528  154.3979 C   0  0  0  0  0  0  0  0  0  0  0  0
  150.4334  139.4421  155.1673 C   0  0  0  0  0  0  0  0  0  0  0  0
  151.1144  140.2825  156.0714 C   0  0  0  0  0  0  0  0  0  0  0  0
  150.7198  141.6357  156.2100 C   0  0  0  0  0  0  0  0  0  0  0  0
  151.3500  142.5382  157.0939 N   0  0  0  0  0  0  0  0  0  0  0  0
  151.3117  143.9699  156.8177 C   0  0  0  0  0  0  0  0  0  0  0  0
  152.0022  142.0383  158.2972 C   0  0  0  0  0  0  0  0  0  0  0  0
  149.6833  142.0782  155.4567 N   0  3  0  0  0  0  0  0  0  0  0  0
  149.0044  141.3089  154.5784 C   0  0  0  0  0  0  0  0  0  0  0  0
  145.8831  136.3205  150.9963 C   0  0  0  0  0  0  0  0  0  0  0  0
  145.3905  132.2471  150.1552 H   0  0  0  0  0  0  0  0  0  0  0  0
  144.4074  133.6827  150.4152 H   0  0  0  0  0  0  0  0  0  0  0  0
  144.8702  132.6621  151.7774 H   0  0  0  0  0  0  0  0  0  0  0  0
  147.2931  133.3129  151.4413 H   0  0  0  0  0  0  0  0  0  0  0  0
  146.8372  134.1999  150.0064 H   0  0  0  0  0  0  0  0  0  0  0  0
  144.3374  134.6634  152.5167 H   0  0  0  0  0  0  0  0  0  0  0  0
  145.6394  134.0590  153.5219 H   0  0  0  0  0  0  0  0  0  0  0  0
  144.4647  135.9800  154.6076 H   0  0  0  0  0  0  0  0  0  0  0  0
  146.1607  136.3011  154.3548 H   0  0  0  0  0  0  0  0  0  0  0  0
  143.8397  137.3108  152.6423 H   0  0  0  0  0  0  0  0  0  0  0  0
  144.8518  138.2869  153.6761 H   0  0  0  0  0  0  0  0  0  0  0  0
  145.4563  138.4256  151.2359 H   0  0  0  0  0  0  0  0  0  0  0  0
  147.9284  137.4164  152.0556 H   0  0  0  0  0  0  0  0  0  0  0  0
  149.3060  138.4119  153.0242 H   0  0  0  0  0  0  0  0  0  0  0  0
  150.7352  138.4095  155.0660 H   0  0  0  0  0  0  0  0  0  0  0  0
  151.9309  139.8716  156.6461 H   0  0  0  0  0  0  0  0  0  0  0  0
  150.2823  144.3286  156.7924 H   0  0  0  0  0  0  0  0  0  0  0  0
  151.7794  144.1874  155.8570 H   0  0  0  0  0  0  0  0  0  0  0  0
  151.8437  144.5363  157.5822 H   0  0  0  0  0  0  0  0  0  0  0  0
  152.8114  141.3543  158.0398 H   0  0  0  0  0  0  0  0  0  0  0  0
  151.2866  141.5115  158.9288 H   0  0  0  0  0  0  0  0  0  0  0  0
  152.4287  142.8512  158.8848 H   0  0  0  0  0  0  0  0  0  0  0  0
  148.1957  141.8135  154.0720 H   0  0  0  0  0  0  0  0  0  0  0  0
  146.5776  136.4631  150.1695 H   0  0  0  0  0  0  0  0  0  0  0  0
  144.9075  136.1357  150.5437 H   0  0  0  0  0  0  0  0  0  0  0  0
  147.1630  135.3602  152.2405 H   0  0  0  0  0  0  0  0  0  0  0  0
  149.3944  143.0509  155.5614 H   0  0  0  0  0  0  0  0  0  0  0  0
  1  2  1  0  0  0  0
  1 22  1  0  0  0  0
  1 23  1  0  0  0  0
  1 24  1  0  0  0  0
  2  3  1  0  0  0  0
  2 25  1  0  0  0  0
  2 26  1  0  0  0  0
  3 21  1  0  0  0  0
  3  4  1  0  0  0  0
  3 47  1  0  0  0  0
  4  5  1  0  0  0  0
  4 27  1  0  0  0  0
  4 28  1  0  0  0  0
  5  6  1  0  0  0  0
  5 29  1  0  0  0  0
  5 30  1  0  0  0  0
  6  7  1  0  0  0  0
  6 31  1  0  0  0  0
  6 32  1  0  0  0  0
  7  8  1  0  0  0  0
  7 21  1  0  0  0  0
  7 33  1  0  0  0  0
  8  9  1  0  0  0  0
  8 34  1  0  0  0  0
  9 10  2  0  0  0  0
  9 11  1  0  0  0  0
 11 12  1  0  0  0  0
 11 35  1  0  0  0  0
 12 20  1  0  0  0  0
 12 13  2  0  0  0  0
 13 14  1  0  0  0  0
 13 36  1  0  0  0  0
 14 15  2  0  0  0  0
 14 37  1  0  0  0  0
 15 16  1  0  0  0  0
 15 19  1  0  0  0  0
 16 17  1  0  0  0  0
 16 18  1  0  0  0  0
 17 38  1  0  0  0  0
 17 39  1  0  0  0  0
 17 40  1  0  0  0  0
 18 41  1  0  0  0  0
 18 42  1  0  0  0  0
 18 43  1  0  0  0  0
 19 20  2  0  0  0  0
 19 48  1  0  0  0  0
 20 44  1  0  0  0  0
 21 45  1  0  0  0  0
 21 46  1  0  0  0  0
M  CHG  1   3   1
M  CHG  1  19   1
M  END
> <s_m_source_file>
AV-unprocessed.smi

> <i_m_source_file_index>
1093

> <i_lp_mmshare_version>
43012

> <i_f3d_flags>
0

> <s_epik_input>
W0NIM11bQ0gyXU4xW0NIMl1bQ0gyXVtDSDJdW0NASF0oW0NIMl0xKVtOSF1DKD1PKVtOSF1jMltjSF1bY0hdYyhOKFtDSDNdKVtDSDNdKW5bY0hdMg==

> <s_epik_cmdline>
J2VwaWtfcHl0aG9uJywgJy1waCcsICc3LjAnLCAnLXRuJywgJzgnLCAnLW1hJywgJzIwMCcsICctbWV0YWxfYmluZGluZycsICctaW1hZScsICc8aW5maWxlLm1hZT4nLCAnLW9tYWUnLCAnPG91dGZpbGUubWFlPic=

> <r_lp_tautomer_probability>
0.999994

> <r_epik_Ionization_Penalty>
0.346711

> <r_epik_Ionization_Penalty_Charging>
0.346691

> <r_epik_Ionization_Penalty_Neutral>
1.93006e-05

> <r_epik_State_Penalty>
0.339838

> <r_epik_Charging_Adjusted_Penalty>
0.68653

> <i_epik_Tot_Q>
2

> <i_epik_Tot_abs_Q>
2

> <r_epik_Metal_State_Penalty>
0.600835

> <b_epik_Metal_Only>
0

> <s_lp_Force_Field>
OPLS_2005

> <r_lp_Energy>
35.5707

> <b_lp_Chiralities_Consistent>
1

> <s_lp_Variant>
AV-unprocessed.smi:1093-2

> <Gold.Version>
5.8.1

> <Gold.Id.Protein>
6NUR|6NUR_protein|mol2

> <Gold.PLP.Fitness>
48.6653

> <Gold.PLP.PLP>
-36.3146

> <Gold.PLP.part.hbond>
-4.2509

> <Gold.PLP.part.metal>
0.0000

> <Gold.PLP.part.buried>
-0.2010

> <Gold.PLP.part.nonpolar>
-31.4304

> <Gold.PLP.part.repulsive>
0.5548

> <Gold.PLP.ligand.clash>
0.0000

> <Gold.PLP.ligand.torsion>
0.9317

> <Gold.PLP.Chemscore.Hbond>
4.7280

> <Gold.PLP.Chemscore.CHOScore>
0.0000

> <Gold.PLP.Chemscore.Metal>
0.0000

> <Gold.Chemscore.Hbonds>
donor molecule, donor type, donor heavy atom, donor atom, acceptor molecule, acceptor atom, score
      L1  H     3    47       P1  7948  1.66
      L1  H     8    34       P1  7948  1.00
      L1  H    19    48       P1  8028  2.00

> <Gold.PLP.Chemscore.Internal.Correction>
0.0301

> <Gold.Rescore>
     Score         DG    S(hbond)    S(metal)    S(lipo)     H(rot)  DE(clash)    DE(int)     intcor
     18.38     -21.53       2.78        0.00      84.07       1.19       0.49       2.66       ----

> <Gold.Chemscore.Fitness>
18.3813

> <Gold.Chemscore.DG>
-21.5298

> <Gold.Chemscore.ZeroCoef>
-5.4800

> <Gold.Chemscore.Hbond>
2.7761

> <Gold.Chemscore.Metal>
0.0000

> <Gold.Chemscore.Lipo>
84.0730

> <Gold.Chemscore.Internal_Hbond>
0.0000

> <Gold.Chemscore.DEClash>
0.4931

> <Gold.Chemscore.DEInternal>
2.6555

> <Gold.Chemscore.Rot>
1.1949

> <Gold.Chemscore.Internal.Correction>
   9.000000E+99

> <Gold.Chemscore.Hbonds>
donor molecule, donor type, donor heavy atom, donor atom, acceptor molecule, acceptor atom, score
      L1  H     3    47       P1  7948  0.78
      L1  H     8    34       P1  7948  0.96
      L1  H    11    35       P1  7948  0.03
      L1  H    19    48       P1  8028  1.00

> <Gold.Chemscore.Hbond.Weighted>
-9.2723

> <Gold.Chemscore.Metal.Weighted>
-0.0000

> <Gold.Chemscore.Lipo.Weighted>
-9.8365

> <Gold.Chemscore.Internal_Hbond.Weighted>
0.0000

> <Gold.Chemscore.DEClash.Weighted>
0.4931

> <Gold.Chemscore.DEInternal.Weighted>
2.6555

> <Gold.Chemscore.Rot.Weighted>
3.0590

> <Gold.Chemscore.Internal.Correction.Weighted>
   9.000000E+99

> <Gold.Protein.RotatedTorsions>
[ 6907 6896 6895 6894 ] final   61.88 input  -60.11 | X-H torsion
[ 7974 7965 7964 7962 ] final -152.05 input  175.53 | X-H torsion
[ 8008 7997 7996 7995 ] final -125.88 input   59.86 | X-H torsion
[ 10167 10162 10161 10158 ] final   86.48 input  -65.29 | X-H torsion
[ 10718 10713 10712 10709 ] final   49.88 input   66.30 | X-H torsion
[ 10763 10752 10751 10750 ] final    3.38 input  -60.55 | X-H torsion
[ 11005 11000 10999 10996 ] final -173.25 input  -57.11 | X-H torsion

> <Gold.Protein.ActiveResidues>
 VAL166  LYS551  ARG553  GLY616  TRP617  ASP618  TYR619  PRO620  LYS621  CYS622 
 ASP623  PHE694  ASN695  SER759  ASP760  ASP761  ALA762  ILE779  LEU786  VAL792 
 PHE793  MET794  SER795  GLU796  ALA797  LYS798  CYS799  TRP800  GLU811  SER814 

> <Gold.Protein.RotatedAtoms>
  152.4126  134.6098  160.0022 H   0  0  0  0  0  0  0  0  0  0  0  0  # atno 6907 bound_to 6896
  151.6271  133.3329  159.3108 H   0  0  0  0  0  0  0  0  0  0  0  0  # atno 6908 bound_to 6896
  150.8016  134.7153  159.6672 H   0  0  0  0  0  0  0  0  0  0  0  0  # atno 6909 bound_to 6896
  144.7815  140.4715  143.5836 H   0  0  0  0  0  0  0  0  0  0  0  0  # atno 7974 bound_to 7965
  155.2205  140.0422  157.2947 H   0  0  0  0  0  0  0  0  0  0  0  0  # atno 8008 bound_to 7997
  154.5952  140.2437  155.7837 H   0  0  0  0  0  0  0  0  0  0  0  0  # atno 8009 bound_to 7997
  156.2286  140.2946  156.0138 H   0  0  0  0  0  0  0  0  0  0  0  0  # atno 8010 bound_to 7997
  139.8871  144.6407  150.8779 H   0  0  0  0  0  0  0  0  0  0  0  0  # atno 10167 bound_to 10162
  157.4830  130.8327  149.8115 H   0  0  0  0  0  0  0  0  0  0  0  0  # atno 10718 bound_to 10713
  153.2840  135.6943  153.7357 H   0  0  0  0  0  0  0  0  0  0  0  0  # atno 10763 bound_to 10752
  153.6333  135.3406  155.3049 H   0  0  0  0  0  0  0  0  0  0  0  0  # atno 10764 bound_to 10752
  154.8504  135.4414  154.1903 H   0  0  0  0  0  0  0  0  0  0  0  0  # atno 10765 bound_to 10752
  140.4878  134.6014  157.4943 H   0  0  0  0  0  0  0  0  0  0  0  0  # atno 11005 bound_to 11000
  145.6036  139.1506  143.3115 LP  0  0  0  0  0  0  0  0  0  0  0  0  # atno 17320 bound_to 7965
  146.2026  140.6156  142.9095 LP  0  0  0  0  0  0  0  0  0  0  0  0  # atno 17321 bound_to 7965
  140.7734  143.3540  151.1959 LP  0  0  0  0  0  0  0  0  0  0  0  0  # atno 17342 bound_to 10162
  139.7143  143.9325  152.2960 LP  0  0  0  0  0  0  0  0  0  0  0  0  # atno 17343 bound_to 10162
  156.0132  130.3824  150.2196 LP  0  0  0  0  0  0  0  0  0  0  0  0  # atno 17370 bound_to 10713
  157.0383  131.0027  151.3291 LP  0  0  0  0  0  0  0  0  0  0  0  0  # atno 17371 bound_to 10713
  139.9787  134.7172  155.9900 LP  0  0  0  0  0  0  0  0  0  0  0  0  # atno 17394 bound_to 11000
  141.1499  133.6550  156.3982 LP  0  0  0  0  0  0  0  0  0  0  0  0  # atno 17395 bound_to 11000

$$$$
