AV-unprocessed.smi:2761|AV-procd|sdf|10635|dock2
  -GOLD-   2272015 83D 1   1.00000     0.00000
 Structure written by MMmdl.
 26 27  0  0  0  0  0  0  0  0  2 V2000
  154.3890  141.2788  160.3741 O   0  0  0  0  0  0  0  0  0  0  0  0
  153.2438  141.0918  159.9570 C   0  0  0  0  0  0  0  0  0  0  0  0
  152.6392  139.8881  159.8603 N   0  0  0  0  0  0  0  0  0  0  0  0
  153.1577  138.6300  160.1826 C   0  0  0  0  0  0  0  0  0  0  0  0
  154.0564  138.6791  161.3073 C   0  0  0  0  0  0  0  0  0  0  0  0
  154.6167  137.5169  161.7095 C   0  0  0  0  0  0  0  0  0  0  0  0
  154.3211  136.2538  161.0282 C   0  0  0  0  0  0  0  0  0  0  0  0
  154.8528  135.2209  161.4289 O   0  0  0  0  0  0  0  0  0  0  0  0
  153.4564  136.2831  159.9646 N   0  5  0  0  0  0  0  0  0  0  0  0
  152.8636  137.5376  159.5453 N   0  0  0  0  0  0  0  0  0  0  0  0
  152.3839  142.2874  159.5210 C   0  0  1  0  0  0  0  0  0  0  0  0
  153.1287  143.6401  159.6118 C   0  0  0  0  0  0  0  0  0  0  0  0
  152.2739  144.6792  159.1523 O   0  0  0  0  0  0  0  0  0  0  0  0
  151.8782  144.4656  157.8047 C   0  0  0  0  0  0  0  0  0  0  0  0
  151.1258  143.1284  157.7123 C   0  0  0  0  0  0  0  0  0  0  0  0
  151.9765  142.0858  158.1696 O   0  0  0  0  0  0  0  0  0  0  0  0
  151.6946  139.9098  159.5058 H   0  0  0  0  0  0  0  0  0  0  0  0
  154.2983  139.5906  161.8340 H   0  0  0  0  0  0  0  0  0  0  0  0
  155.2959  137.5178  162.5493 H   0  0  0  0  0  0  0  0  0  0  0  0
  151.5017  142.3105  160.1633 H   0  0  0  0  0  0  0  0  0  0  0  0
  153.4083  143.8580  160.6431 H   0  0  0  0  0  0  0  0  0  0  0  0
  154.0484  143.6276  159.0238 H   0  0  0  0  0  0  0  0  0  0  0  0
  151.2342  145.2859  157.4876 H   0  0  0  0  0  0  0  0  0  0  0  0
  152.7506  144.4684  157.1494 H   0  0  0  0  0  0  0  0  0  0  0  0
  150.2096  143.1550  158.3038 H   0  0  0  0  0  0  0  0  0  0  0  0
  150.8375  142.9262  156.6807 H   0  0  0  0  0  0  0  0  0  0  0  0
  1  2  2  0  0  0  0
  2  3  1  0  0  0  0
  2 11  1  0  0  0  0
  3 17  1  0  0  0  0
  3  4  1  0  0  0  0
  4  5  1  0  0  0  0
  4 10  2  0  0  0  0
  5  6  2  0  0  0  0
  5 18  1  0  0  0  0
  6  7  1  0  0  0  0
  6 19  1  0  0  0  0
  7  8  2  0  0  0  0
  7  9  1  0  0  0  0
  9 10  1  0  0  0  0
 11 16  1  0  0  0  0
 11 12  1  0  0  0  0
 11 20  1  0  0  0  0
 12 13  1  0  0  0  0
 12 21  1  0  0  0  0
 12 22  1  0  0  0  0
 13 14  1  0  0  0  0
 14 15  1  0  0  0  0
 14 23  1  0  0  0  0
 14 24  1  0  0  0  0
 15 16  1  0  0  0  0
 15 25  1  0  0  0  0
 15 26  1  0  0  0  0
M  CHG  1   9  -1
M  END
> <s_m_source_file>
AV-unprocessed.smi

> <i_m_source_file_index>
2761

> <i_lp_mmshare_version>
43012

> <i_f3d_flags>
0

> <s_epik_input>
TzFbQ0gyXVtDSDJdT1tDSDJdW0NASF0xQyg9TylbTkhdYzJbY0hdW2NIXWMoW09IXSlubjI=

> <s_epik_cmdline>
J2VwaWtfcHl0aG9uJywgJy1waCcsICc3LjAnLCAnLXRuJywgJzgnLCAnLW1hJywgJzIwMCcsICctbWV0YWxfYmluZGluZycsICctaW1hZScsICc8aW5maWxlLm1hZT4nLCAnLW9tYWUnLCAnPG91dGZpbGUubWFlPic=

> <r_lp_tautomer_probability>
1

> <r_epik_Ionization_Penalty>
4.21844

> <r_epik_Ionization_Penalty_Charging>
0.119247

> <r_epik_Ionization_Penalty_Neutral>
4.0992

> <r_epik_State_Penalty>
4.09486

> <r_epik_Charging_Adjusted_Penalty>
4.2141

> <i_epik_Tot_Q>
-1

> <i_epik_Tot_abs_Q>
1

> <r_epik_Metal_State_Penalty>
0.651223

> <b_epik_Metal_Only>
1

> <s_lp_Force_Field>
OPLS_2005

> <r_lp_Energy>
28.3135

> <b_lp_Chiralities_Consistent>
1

> <s_lp_Variant>
AV-unprocessed.smi:2761-4

> <Gold.Version>
5.8.1

> <Gold.Id.Protein>
6NUR|6NUR_protein|mol2

> <Gold.PLP.Fitness>
32.1915

> <Gold.PLP.PLP>
-26.6792

> <Gold.PLP.part.hbond>
-1.0000

> <Gold.PLP.part.metal>
0.0000

> <Gold.PLP.part.buried>
-4.4184

> <Gold.PLP.part.nonpolar>
-21.0908

> <Gold.PLP.part.repulsive>
0.1275

> <Gold.PLP.ligand.clash>
0.0000

> <Gold.PLP.ligand.torsion>
0.2448

> <Gold.PLP.Chemscore.Hbond>
2.0000

> <Gold.PLP.Chemscore.CHOScore>
0.0000

> <Gold.PLP.Chemscore.Metal>
0.0000

> <Gold.Chemscore.Hbonds>
donor molecule, donor type, donor heavy atom, donor atom, acceptor molecule, acceptor atom, score
      P1  H  6896  6908       L1     9  2.00

> <Gold.PLP.Chemscore.Internal.Correction>
0.0020

> <Gold.Rescore>
     Score         DG    S(hbond)    S(metal)    S(lipo)     H(rot)  DE(clash)    DE(int)     intcor
     11.38     -13.18       0.93        0.00      61.10       1.00       0.08       1.72       ----

> <Gold.Chemscore.Fitness>
11.3849

> <Gold.Chemscore.DG>
-13.1814

> <Gold.Chemscore.ZeroCoef>
-5.4800

> <Gold.Chemscore.Hbond>
0.9318

> <Gold.Chemscore.Metal>
0.0000

> <Gold.Chemscore.Lipo>
61.1048

> <Gold.Chemscore.Internal_Hbond>
0.0000

> <Gold.Chemscore.DEClash>
0.0795

> <Gold.Chemscore.DEInternal>
1.7171

> <Gold.Chemscore.Rot>
1.0000

> <Gold.Chemscore.Internal.Correction>
   9.000000E+99

> <Gold.Chemscore.Hbonds>
donor molecule, donor type, donor heavy atom, donor atom, acceptor molecule, acceptor atom, score
      P1  H  6896  6908       L1     9  0.69

> <Gold.Chemscore.Hbond.Weighted>
-3.1122

> <Gold.Chemscore.Metal.Weighted>
-0.0000

> <Gold.Chemscore.Lipo.Weighted>
-7.1493

> <Gold.Chemscore.Internal_Hbond.Weighted>
0.0000

> <Gold.Chemscore.DEClash.Weighted>
0.0795

> <Gold.Chemscore.DEInternal.Weighted>
1.7171

> <Gold.Chemscore.Rot.Weighted>
2.5600

> <Gold.Chemscore.Internal.Correction.Weighted>
   9.000000E+99

> <Gold.Protein.RotatedTorsions>
[ 6907 6896 6895 6894 ] final  -75.80 input  -60.11 | X-H torsion
[ 7974 7965 7964 7962 ] final   38.95 input  175.53 | X-H torsion
[ 8008 7997 7996 7995 ] final -151.14 input   59.86 | X-H torsion
[ 10167 10162 10161 10158 ] final   22.45 input  -65.29 | X-H torsion
[ 10718 10713 10712 10709 ] final  -33.90 input   66.30 | X-H torsion
[ 10763 10752 10751 10750 ] final -158.16 input  -60.55 | X-H torsion
[ 11005 11000 10999 10996 ] final  106.29 input  -57.11 | X-H torsion

> <Gold.Protein.ActiveResidues>
 VAL166  LYS551  ARG553  GLY616  TRP617  ASP618  TYR619  PRO620  LYS621  CYS622 
 ASP623  PHE694  ASN695  SER759  ASP760  ASP761  ALA762  ILE779  LEU786  VAL792 
 PHE793  MET794  SER795  GLU796  ALA797  LYS798  CYS799  TRP800  GLU811  SER814 

> <Gold.Protein.RotatedAtoms>
  150.7047  134.4667  159.5405 H   0  0  0  0  0  0  0  0  0  0  0  0  # atno 6907 bound_to 6896
  152.2331  134.8299  160.0480 H   0  0  0  0  0  0  0  0  0  0  0  0  # atno 6908 bound_to 6896
  151.9108  133.3525  159.3900 H   0  0  0  0  0  0  0  0  0  0  0  0  # atno 6909 bound_to 6896
  146.1022  139.5711  142.9406 H   0  0  0  0  0  0  0  0  0  0  0  0  # atno 7974 bound_to 7965
  155.6346  140.0695  157.2638 H   0  0  0  0  0  0  0  0  0  0  0  0  # atno 8008 bound_to 7997
  154.4198  140.1761  156.1557 H   0  0  0  0  0  0  0  0  0  0  0  0  # atno 8009 bound_to 7997
  155.9905  140.3345  155.6752 H   0  0  0  0  0  0  0  0  0  0  0  0  # atno 8010 bound_to 7997
  140.5347  143.9780  150.6485 H   0  0  0  0  0  0  0  0  0  0  0  0  # atno 10167 bound_to 10162
  156.3570  130.4317  149.7655 H   0  0  0  0  0  0  0  0  0  0  0  0  # atno 10718 bound_to 10713
  154.7579  135.3109  154.8435 H   0  0  0  0  0  0  0  0  0  0  0  0  # atno 10763 bound_to 10752
  153.9204  135.6796  153.4752 H   0  0  0  0  0  0  0  0  0  0  0  0  # atno 10764 bound_to 10752
  153.1177  135.4837  154.9074 H   0  0  0  0  0  0  0  0  0  0  0  0  # atno 10765 bound_to 10752
  139.8812  134.9364  156.5643 H   0  0  0  0  0  0  0  0  0  0  0  0  # atno 11005 bound_to 11000
  145.5831  141.0380  143.2111 LP  0  0  0  0  0  0  0  0  0  0  0  0  # atno 17320 bound_to 7965
  144.7442  139.7365  143.7299 LP  0  0  0  0  0  0  0  0  0  0  0  0  # atno 17321 bound_to 7965
  140.3165  143.3164  152.0827 LP  0  0  0  0  0  0  0  0  0  0  0  0  # atno 17342 bound_to 10162
  139.4967  144.6602  151.6482 LP  0  0  0  0  0  0  0  0  0  0  0  0  # atno 17343 bound_to 10162
  156.4834  130.8051  151.3065 LP  0  0  0  0  0  0  0  0  0  0  0  0  # atno 17370 bound_to 10713
  157.7469  130.9998  150.2904 LP  0  0  0  0  0  0  0  0  0  0  0  0  # atno 17371 bound_to 10713
  140.8145  133.8402  155.8840 LP  0  0  0  0  0  0  0  0  0  0  0  0  # atno 17394 bound_to 11000
  140.9475  134.1821  157.4752 LP  0  0  0  0  0  0  0  0  0  0  0  0  # atno 17395 bound_to 11000

$$$$
