AV-unprocessed.smi:3335|AV-procd|sdf|12852|dock5
  -GOLD-   2272019243D 1   1.00000     0.00000
 Structure written by MMmdl.
 46 47  0  0  0  0  0  0  0  0  1 V2000
  152.5388  144.3361  158.7413 C   0  0  0  0  0  0  0  0  0  0  0  0
  151.9637  143.0315  158.2707 C   0  0  0  0  0  0  0  0  0  0  0  0
  151.1447  142.7956  157.1301 C   0  0  0  0  0  0  0  0  0  0  0  0
  150.8031  141.5248  156.9968 N   0  0  0  0  0  0  0  0  0  0  0  0
  151.3916  140.9024  158.0430 N   0  0  0  0  0  0  0  0  0  0  0  0
  151.2330  139.4653  158.2299 C   0  0  1  0  0  0  0  0  0  0  0  0
  152.1634  138.9776  159.3581 C   0  0  0  0  0  0  0  0  0  0  0  0
  149.7516  139.0628  158.4651 C   0  0  1  0  0  0  0  0  0  0  0  0
  148.7952  139.5899  157.3741 C   0  0  0  0  0  0  0  0  0  0  0  0
  149.6799  137.5998  158.4889 N   0  0  0  0  0  0  0  0  0  0  0  0
  148.3371  137.0293  158.7160 C   0  0  1  0  0  0  0  0  0  0  0  0
  147.6380  136.8204  157.3639 C   0  0  0  0  0  0  0  0  0  0  0  0
  148.3686  135.6960  159.4971 C   0  0  0  0  0  0  0  0  0  0  0  0
  148.9467  134.7295  158.9962 O   0  0  0  0  0  0  0  0  0  0  0  0
  147.7674  135.6169  160.7040 N   0  0  0  0  0  0  0  0  0  0  0  0
  147.0544  136.7377  161.3151 C   0  0  0  0  0  0  0  0  0  0  0  0
  146.3455  136.1635  162.5417 C   0  0  0  0  0  0  0  0  0  0  0  0
  147.1831  134.9505  162.9199 C   0  0  0  0  0  0  0  0  0  0  0  0
  147.7391  134.4504  161.5866 C   0  0  0  0  0  0  0  0  0  0  0  0
  152.0962  141.7913  158.8280 C   0  0  0  0  0  0  0  0  0  0  0  0
  152.3203  145.1496  158.0489 H   0  0  0  0  0  0  0  0  0  0  0  0
  153.6229  144.2837  158.8430 H   0  0  0  0  0  0  0  0  0  0  0  0
  152.1378  144.6245  159.7130 H   0  0  0  0  0  0  0  0  0  0  0  0
  150.7899  143.5070  156.3990 H   0  0  0  0  0  0  0  0  0  0  0  0
  151.5675  138.9972  157.3024 H   0  0  0  0  0  0  0  0  0  0  0  0
  152.1620  137.8905  159.4375 H   0  0  0  0  0  0  0  0  0  0  0  0
  151.8626  139.3784  160.3266 H   0  0  0  0  0  0  0  0  0  0  0  0
  153.1933  139.2866  159.1761 H   0  0  0  0  0  0  0  0  0  0  0  0
  149.4441  139.4847  159.4222 H   0  0  0  0  0  0  0  0  0  0  0  0
  148.7845  140.6792  157.3404 H   0  0  0  0  0  0  0  0  0  0  0  0
  147.7657  139.2788  157.5481 H   0  0  0  0  0  0  0  0  0  0  0  0
  149.0873  139.2318  156.3864 H   0  0  0  0  0  0  0  0  0  0  0  0
  150.3337  137.2494  159.1747 H   0  0  0  0  0  0  0  0  0  0  0  0
  147.7585  137.7676  159.2673 H   0  0  0  0  0  0  0  0  0  0  0  0
  146.6275  136.4312  157.4936 H   0  0  0  0  0  0  0  0  0  0  0  0
  148.1855  136.1185  156.7332 H   0  0  0  0  0  0  0  0  0  0  0  0
  147.5561  137.7607  156.8180 H   0  0  0  0  0  0  0  0  0  0  0  0
  147.7774  137.4991  161.6122 H   0  0  0  0  0  0  0  0  0  0  0  0
  146.3430  137.1962  160.6260 H   0  0  0  0  0  0  0  0  0  0  0  0
  146.2536  136.8851  163.3540 H   0  0  0  0  0  0  0  0  0  0  0  0
  145.3406  135.8409  162.2662 H   0  0  0  0  0  0  0  0  0  0  0  0
  148.0058  135.2620  163.5647 H   0  0  0  0  0  0  0  0  0  0  0  0
  146.6117  134.1895  163.4518 H   0  0  0  0  0  0  0  0  0  0  0  0
  147.0778  133.6957  161.1585 H   0  0  0  0  0  0  0  0  0  0  0  0
  148.7266  134.0066  161.7198 H   0  0  0  0  0  0  0  0  0  0  0  0
  152.6303  141.4711  159.7102 H   0  0  0  0  0  0  0  0  0  0  0  0
  1  2  1  0  0  0  0
  1 21  1  0  0  0  0
  1 22  1  0  0  0  0
  1 23  1  0  0  0  0
  2 20  2  0  0  0  0
  2  3  1  0  0  0  0
  3  4  2  0  0  0  0
  3 24  1  0  0  0  0
  4  5  1  0  0  0  0
  5  6  1  0  0  0  0
  5 20  1  0  0  0  0
  6  7  1  0  0  0  0
  6  8  1  0  0  0  0
  6 25  1  0  0  0  0
  7 26  1  0  0  0  0
  7 27  1  0  0  0  0
  7 28  1  0  0  0  0
  8  9  1  0  0  0  0
  8 10  1  0  0  0  0
  8 29  1  0  0  0  0
  9 30  1  0  0  0  0
  9 31  1  0  0  0  0
  9 32  1  0  0  0  0
 10 11  1  0  0  0  0
 10 33  1  0  0  0  0
 11 12  1  0  0  0  0
 11 13  1  0  0  0  0
 11 34  1  0  0  0  0
 12 35  1  0  0  0  0
 12 36  1  0  0  0  0
 12 37  1  0  0  0  0
 13 14  2  0  0  0  0
 13 15  1  0  0  0  0
 15 19  1  0  0  0  0
 15 16  1  0  0  0  0
 16 17  1  0  0  0  0
 16 38  1  0  0  0  0
 16 39  1  0  0  0  0
 17 18  1  0  0  0  0
 17 40  1  0  0  0  0
 17 41  1  0  0  0  0
 18 19  1  0  0  0  0
 18 42  1  0  0  0  0
 18 43  1  0  0  0  0
 19 44  1  0  0  0  0
 19 45  1  0  0  0  0
 20 46  1  0  0  0  0
M  END
> <s_m_source_file>
AV-unprocessed.smi

> <i_m_source_file_index>
3335

> <i_lp_mmshare_version>
43012

> <i_f3d_flags>
0

> <s_epik_input>
W0NIM11jMVtjSF1ubihbY0hdMSlbQ0BIXShbQ0gzXSlbQ0BIXShbQ0gzXSlbTkhdW0NASF0oW0NIM10pQyg9TylOMltDSDJdW0NIMl1bQ0gyXVtDSDJdMg==

> <s_epik_cmdline>
J2VwaWtfcHl0aG9uJywgJy1waCcsICc3LjAnLCAnLXRuJywgJzgnLCAnLW1hJywgJzIwMCcsICctbWV0YWxfYmluZGluZycsICctaW1hZScsICc8aW5maWxlLm1hZT4nLCAnLW9tYWUnLCAnPG91dGZpbGUubWFlPic=

> <r_lp_tautomer_probability>
1

> <r_epik_Ionization_Penalty>
0.918803

> <r_epik_Ionization_Penalty_Charging>
0

> <r_epik_Ionization_Penalty_Neutral>
0.918803

> <r_epik_State_Penalty>
0.958258

> <r_epik_Charging_Adjusted_Penalty>
0.958258

> <i_epik_Tot_Q>
0

> <i_epik_Tot_abs_Q>
0

> <r_epik_Metal_State_Penalty>
0.956786

> <b_epik_Metal_Only>
0

> <s_lp_Force_Field>
OPLS_2005

> <r_lp_Energy>
36.4187

> <b_lp_Chiralities_Consistent>
1

> <s_lp_Variant>
AV-unprocessed.smi:3335-16

> <Gold.Version>
5.8.1

> <Gold.Id.Protein>
6NUR|6NUR_protein|mol2

> <Gold.PLP.Fitness>
40.6205

> <Gold.PLP.PLP>
-35.4829

> <Gold.PLP.part.hbond>
-1.0000

> <Gold.PLP.part.metal>
0.0000

> <Gold.PLP.part.buried>
-5.8321

> <Gold.PLP.part.nonpolar>
-29.0102

> <Gold.PLP.part.repulsive>
0.0535

> <Gold.PLP.ligand.clash>
0.0000

> <Gold.PLP.ligand.torsion>
0.5072

> <Gold.PLP.Chemscore.Hbond>
1.0000

> <Gold.PLP.Chemscore.CHOScore>
1.0000

> <Gold.PLP.Chemscore.Metal>
0.0000

> <Gold.Chemscore.Hbonds>
donor molecule, donor type, donor heavy atom, donor atom, acceptor molecule, acceptor atom, score
      P1  H  6896  6907       L1    14  1.00
      L1  C     3    24       P1  8028  1.00

> <Gold.PLP.Chemscore.Internal.Correction>
0.1520

> <Gold.Rescore>
     Score         DG    S(hbond)    S(metal)    S(lipo)     H(rot)  DE(clash)    DE(int)     intcor
     13.95     -16.00       0.99        0.00      96.95       1.62       0.02       2.03       ----

> <Gold.Chemscore.Fitness>
13.9453

> <Gold.Chemscore.DG>
-15.9955

> <Gold.Chemscore.ZeroCoef>
-5.4800

> <Gold.Chemscore.Hbond>
0.9941

> <Gold.Chemscore.Metal>
0.0000

> <Gold.Chemscore.Lipo>
96.9523

> <Gold.Chemscore.Internal_Hbond>
0.0000

> <Gold.Chemscore.DEClash>
0.0162

> <Gold.Chemscore.DEInternal>
2.0340

> <Gold.Chemscore.Rot>
1.6204

> <Gold.Chemscore.Internal.Correction>
   9.000000E+99

> <Gold.Chemscore.Hbonds>
donor molecule, donor type, donor heavy atom, donor atom, acceptor molecule, acceptor atom, score
      P1  H  6896  6907       L1    14  0.99

> <Gold.Chemscore.Hbond.Weighted>
-3.3203

> <Gold.Chemscore.Metal.Weighted>
-0.0000

> <Gold.Chemscore.Lipo.Weighted>
-11.3434

> <Gold.Chemscore.Internal_Hbond.Weighted>
0.0000

> <Gold.Chemscore.DEClash.Weighted>
0.0162

> <Gold.Chemscore.DEInternal.Weighted>
2.0340

> <Gold.Chemscore.Rot.Weighted>
4.1482

> <Gold.Chemscore.Internal.Correction.Weighted>
   9.000000E+99

> <Gold.Protein.RotatedTorsions>
[ 6907 6896 6895 6894 ] final  -90.41 input  -60.11 | X-H torsion
[ 7974 7965 7964 7962 ] final -170.67 input  175.53 | X-H torsion
[ 8008 7997 7996 7995 ] final  -79.06 input   59.86 | X-H torsion
[ 10167 10162 10161 10158 ] final  169.07 input  -65.29 | X-H torsion
[ 10718 10713 10712 10709 ] final   30.53 input   66.30 | X-H torsion
[ 10763 10752 10751 10750 ] final   28.09 input  -60.55 | X-H torsion
[ 11005 11000 10999 10996 ] final  102.88 input  -57.11 | X-H torsion

> <Gold.Protein.ActiveResidues>
 VAL166  LYS551  ARG553  GLY616  TRP617  ASP618  TYR619  PRO620  LYS621  CYS622 
 ASP623  PHE694  ASN695  SER759  ASP760  ASP761  ALA762  ILE779  LEU786  VAL792 
 PHE793  MET794  SER795  GLU796  ALA797  LYS798  CYS799  TRP800  GLU811  SER814 

> <Gold.Protein.RotatedAtoms>
  150.6881  134.2437  159.4482 H   0  0  0  0  0  0  0  0  0  0  0  0  # atno 6907 bound_to 6896
  152.0379  134.9726  160.0583 H   0  0  0  0  0  0  0  0  0  0  0  0  # atno 6908 bound_to 6896
  152.1240  133.4334  159.4726 H   0  0  0  0  0  0  0  0  0  0  0  0  # atno 6909 bound_to 6896
  144.7167  140.2037  143.6335 H   0  0  0  0  0  0  0  0  0  0  0  0  # atno 7974 bound_to 7965
  154.5749  140.0684  156.9019 H   0  0  0  0  0  0  0  0  0  0  0  0  # atno 8008 bound_to 7997
  155.2567  140.3355  155.4259 H   0  0  0  0  0  0  0  0  0  0  0  0  # atno 8009 bound_to 7997
  156.2146  140.1773  156.7603 H   0  0  0  0  0  0  0  0  0  0  0  0  # atno 8010 bound_to 7997
  139.4983  144.3746  151.9687 H   0  0  0  0  0  0  0  0  0  0  0  0  # atno 10167 bound_to 10162
  157.2607  130.7160  149.6452 H   0  0  0  0  0  0  0  0  0  0  0  0  # atno 10718 bound_to 10713
  153.0514  135.6521  154.0685 H   0  0  0  0  0  0  0  0  0  0  0  0  # atno 10763 bound_to 10752
  154.0373  135.2906  155.3361 H   0  0  0  0  0  0  0  0  0  0  0  0  # atno 10764 bound_to 10752
  154.6804  135.5322  153.8322 H   0  0  0  0  0  0  0  0  0  0  0  0  # atno 10765 bound_to 10752
  139.8780  134.9241  156.5125 H   0  0  0  0  0  0  0  0  0  0  0  0  # atno 11005 bound_to 11000
  145.8656  139.2245  143.1691 LP  0  0  0  0  0  0  0  0  0  0  0  0  # atno 17320 bound_to 7965
  146.0133  140.8415  142.9960 LP  0  0  0  0  0  0  0  0  0  0  0  0  # atno 17321 bound_to 7965
  140.3183  144.3458  150.6016 LP  0  0  0  0  0  0  0  0  0  0  0  0  # atno 17342 bound_to 10162
  140.5743  143.2178  151.7542 LP  0  0  0  0  0  0  0  0  0  0  0  0  # atno 17343 bound_to 10162
  155.9664  130.4398  150.5274 LP  0  0  0  0  0  0  0  0  0  0  0  0  # atno 17370 bound_to 10713
  157.3178  131.0676  151.1954 LP  0  0  0  0  0  0  0  0  0  0  0  0  # atno 17371 bound_to 10713
  140.8510  133.8132  155.9168 LP  0  0  0  0  0  0  0  0  0  0  0  0  # atno 17394 bound_to 11000
  140.9145  134.2219  157.4965 LP  0  0  0  0  0  0  0  0  0  0  0  0  # atno 17395 bound_to 11000

$$$$
