#       Name:                AV-unprocessed.smi:3181
#       Creating user name   scv26
#       Creation time:       Fri Mar 27 17:58:55 2020


#       File generated by GOLD software.
#

@<TRIPOS>MOLECULE
AV-unprocessed.smi:3181
    44    45     1
SMALL
NO_CHARGES


@<TRIPOS>ATOM
      1 ****        -1.7950  -2.2954  -1.7039 C.3            1 S1                 0.0000
      2 ****        -1.3499  -1.4619  -0.4910 C.3            1 S1                 0.0000
      3 ****        -1.8247  -2.0559   0.8524 C.3            1 S1                 0.0000
      4 ****        -3.2670  -2.1964   0.9287 N.pl3          1 S1                 0.0000
      5 ****        -4.2148  -1.2882   1.1661 C.2            1 S1                 0.0000
      6 ****        -5.4441  -1.7838   1.1586 N.2            1 S1                 0.0000
      7 ****        -5.1608  -3.0948   0.8979 C.2            1 S1                 0.0000
      8 ****        -3.8700  -3.3952   0.7524 N.2            1 S1                 0.0000
      9 ****         0.1258  -1.3411  -0.4931 N.4            1 S1                 1.0000
     10 ****         0.6711   0.0340  -0.4191 C.3            1 S1                 0.0000
     11 ****         0.3968   0.6900   0.9499 C.3            1 S1                 0.0000
     12 ****         1.0280   2.0881   1.0449 C.3            1 S1                 0.0000
     13 ****         2.5411   2.0492   0.7541 C.3            1 S1                 0.0000
     14 ****         3.1927   3.4307   0.9300 C.3            1 S1                 0.0000
     15 ****         2.8406   1.3984  -0.6206 C.3            1 S1                 0.0000
     16 ****         2.4639   2.2741  -1.8327 C.3            1 S1                 0.0000
     17 ****         2.1867   0.0028  -0.7009 C.3            1 S1                 0.0000
     18 ****        -2.8814  -2.3354  -1.7870 H              1 S1                 0.0000
     19 ****        -1.4279  -3.3200  -1.6380 H              1 S1                 0.0000
     20 ****        -1.4185  -1.8657  -2.6329 H              1 S1                 0.0000
     21 ****        -1.7914  -0.4708  -0.6062 H              1 S1                 0.0000
     22 ****        -1.3685  -3.0340   1.0154 H              1 S1                 0.0000
     23 ****        -1.5070  -1.4266   1.6841 H              1 S1                 0.0000
     24 ****        -4.0019  -0.2446   1.3458 H              1 S1                 0.0000
     25 ****        -5.9282  -3.8501   0.8135 H              1 S1                 0.0000
     26 ****         0.5032  -1.8905   0.2657 H              1 S1                 0.0000
     27 ****         0.1875   0.6219  -1.2002 H              1 S1                 0.0000
     28 ****        -0.6753   0.7760   1.1274 H              1 S1                 0.0000
     29 ****         0.7925   0.0594   1.7472 H              1 S1                 0.0000
     30 ****         0.5287   2.7644   0.3504 H              1 S1                 0.0000
     31 ****         0.8532   2.4947   2.0417 H              1 S1                 0.0000
     32 ****         2.9914   1.4042   1.5104 H              1 S1                 0.0000
     33 ****         2.7434   4.1769   0.2745 H              1 S1                 0.0000
     34 ****         4.2605   3.3925   0.7134 H              1 S1                 0.0000
     35 ****         3.0787   3.7873   1.9541 H              1 S1                 0.0000
     36 ****         3.9194   1.2457  -0.6795 H              1 S1                 0.0000
     37 ****         1.4084   2.5440  -1.8358 H              1 S1                 0.0000
     38 ****         2.6721   1.7529  -2.7676 H              1 S1                 0.0000
     39 ****         3.0414   3.1980  -1.8523 H              1 S1                 0.0000
     40 ****         2.6715  -0.6545   0.0227 H              1 S1                 0.0000
     41 ****         2.3769  -0.4392  -1.6800 H              1 S1                 0.0000
     42 ****         0.4523  -1.7402  -1.3616 H              1 S1                 0.0000
     43 ****        -6.3236  -1.3300   1.3021 LP             1 S1                 0.0000
     44 ****        -3.4523  -4.2834   0.5611 LP             1 S1                 0.0000
@<TRIPOS>BOND
    1    1    2 1     
    2    1   18 1     
    3    1   19 1     
    4    1   20 1     
    5    2    3 1     
    6    2    9 1     
    7    2   21 1     
    8    3    4 1     
    9    3   22 1     
   10    3   23 1     
   11    4    8 1     
   12    4    5 1     
   13    5    6 2     
   14    5   24 1     
   15    6    7 1     
   16    7    8 2     
   17    7   25 1     
   18    9   10 1     
   19    9   26 1     
   20    9   42 1     
   21   10   17 1     
   22   10   11 1     
   23   10   27 1     
   24   11   12 1     
   25   11   28 1     
   26   11   29 1     
   27   12   13 1     
   28   12   30 1     
   29   12   31 1     
   30   13   14 1     
   31   13   15 1     
   32   13   32 1     
   33   14   33 1     
   34   14   34 1     
   35   14   35 1     
   36   15   16 1     
   37   15   17 1     
   38   15   36 1     
   39   16   37 1     
   40   16   38 1     
   41   16   39 1     
   42   17   40 1     
   43   17   41 1     
   44    6   43 1     
   45    8   44 1     
@<TRIPOS>SUBSTRUCTURE
      1 S1             1
@<TRIPOS>SET
LONE_PAIRS      STATIC     ATOMS    <user>   **** ""
2 43 44
DONOR_HYDROGENS      STATIC     ATOMS    <user>   **** ""
2 26 42
ATOM$BLUE        STATIC     ATOMS    COLORGROUP SYSTEM
2 43 44
ATOM$RED        STATIC     ATOMS    COLORGROUP SYSTEM
2 26 42
