AV-unprocessed.smi:1100|AV-procd|sdf|4762|dock3
  -GOLD-   22720 3303D 1   1.00000     0.00000
 Structure written by MMmdl.
 44 45  0  0  0  0  0  0  0  0  2 V2000
  146.3767  141.3045  155.0092 C   0  0  0  0  0  0  0  0  0  0  0  0
  146.8098  140.7085  153.6468 C   0  0  1  0  0  0  0  0  0  0  0  0
  148.3591  140.6027  153.5808 C   0  0  0  0  0  0  0  0  0  0  0  0
  149.0422  141.6040  154.3957 N   0  0  0  0  0  0  0  0  0  0  0  0
  149.6584  141.3563  155.5604 C   0  0  0  0  0  0  0  0  0  0  0  0
  149.6930  140.2388  156.0750 O   0  0  0  0  0  0  0  0  0  0  0  0
  150.2143  142.4767  156.0586 N   0  0  0  0  0  0  0  0  0  0  0  0
  150.9995  142.6444  157.2095 C   0  0  0  0  0  0  0  0  0  0  0  0
  151.6517  141.4726  157.7545 C   0  0  0  0  0  0  0  0  0  0  0  0
  152.4121  141.5487  158.8640 C   0  0  0  0  0  0  0  0  0  0  0  0
  152.6134  142.8165  159.5695 C   0  0  0  0  0  0  0  0  0  0  0  0
  153.3103  142.9023  160.5811 O   0  0  0  0  0  0  0  0  0  0  0  0
  151.9766  143.8967  159.0319 N   0  0  0  0  0  0  0  0  0  0  0  0
  152.1086  145.2090  159.6703 C   0  0  0  0  0  0  0  0  0  0  0  0
  151.1836  143.8084  157.8713 C   0  0  0  0  0  0  0  0  0  0  0  0
  146.1700  139.3831  153.3540 N   0  3  0  0  0  0  0  0  0  0  0  0
  146.6347  138.7240  152.1010 C   0  0  0  0  0  0  0  0  0  0  0  0
  145.9178  137.3820  151.8732 C   0  0  0  0  0  0  0  0  0  0  0  0
  146.1126  136.5329  152.9935 O   0  0  0  0  0  0  0  0  0  0  0  0
  145.5660  137.1003  154.1738 C   0  0  0  0  0  0  0  0  0  0  0  0
  146.2834  138.4234  154.4876 C   0  0  0  0  0  0  0  0  0  0  0  0
  146.8883  142.2419  155.2261 H   0  0  0  0  0  0  0  0  0  0  0  0
  146.5914  140.6188  155.8294 H   0  0  0  0  0  0  0  0  0  0  0  0
  145.3138  141.5444  155.0323 H   0  0  0  0  0  0  0  0  0  0  0  0
  146.4716  141.4044  152.8772 H   0  0  0  0  0  0  0  0  0  0  0  0
  148.6750  139.6186  153.9284 H   0  0  0  0  0  0  0  0  0  0  0  0
  148.7365  140.7009  152.5641 H   0  0  0  0  0  0  0  0  0  0  0  0
  149.0547  142.5497  154.0423 H   0  0  0  0  0  0  0  0  0  0  0  0
  150.0581  143.3232  155.5311 H   0  0  0  0  0  0  0  0  0  0  0  0
  151.5301  140.5167  157.2662 H   0  0  0  0  0  0  0  0  0  0  0  0
  152.8847  140.6549  159.2441 H   0  0  0  0  0  0  0  0  0  0  0  0
  151.5143  145.9807  159.1800 H   0  0  0  0  0  0  0  0  0  0  0  0
  153.1484  145.5386  159.6526 H   0  0  0  0  0  0  0  0  0  0  0  0
  151.7831  145.1654  160.7107 H   0  0  0  0  0  0  0  0  0  0  0  0
  150.7427  144.7483  157.5812 H   0  0  0  0  0  0  0  0  0  0  0  0
  146.4309  139.3489  151.2323 H   0  0  0  0  0  0  0  0  0  0  0  0
  147.7138  138.5693  152.1486 H   0  0  0  0  0  0  0  0  0  0  0  0
  144.8518  137.5348  151.6968 H   0  0  0  0  0  0  0  0  0  0  0  0
  146.3183  136.8903  150.9862 H   0  0  0  0  0  0  0  0  0  0  0  0
  144.4917  137.2544  154.0592 H   0  0  0  0  0  0  0  0  0  0  0  0
  145.6998  136.3970  154.9961 H   0  0  0  0  0  0  0  0  0  0  0  0
  147.3368  138.2303  154.6977 H   0  0  0  0  0  0  0  0  0  0  0  0
  145.8506  138.8300  155.3989 H   0  0  0  0  0  0  0  0  0  0  0  0
  145.1856  139.5663  153.2216 H   0  0  0  0  0  0  0  0  0  0  0  0
  1  2  1  0  0  0  0
  1 22  1  0  0  0  0
  1 23  1  0  0  0  0
  1 24  1  0  0  0  0
  2  3  1  0  0  0  0
  2 16  1  0  0  0  0
  2 25  1  0  0  0  0
  3  4  1  0  0  0  0
  3 26  1  0  0  0  0
  3 27  1  0  0  0  0
  4  5  1  0  0  0  0
  4 28  1  0  0  0  0
  5  6  2  0  0  0  0
  5  7  1  0  0  0  0
  7  8  1  0  0  0  0
  7 29  1  0  0  0  0
  8 15  2  0  0  0  0
  8  9  1  0  0  0  0
  9 10  2  0  0  0  0
  9 30  1  0  0  0  0
 10 11  1  0  0  0  0
 10 31  1  0  0  0  0
 11 12  2  0  0  0  0
 11 13  1  0  0  0  0
 13 14  1  0  0  0  0
 13 15  1  0  0  0  0
 14 32  1  0  0  0  0
 14 33  1  0  0  0  0
 14 34  1  0  0  0  0
 15 35  1  0  0  0  0
 16 21  1  0  0  0  0
 16 17  1  0  0  0  0
 16 44  1  0  0  0  0
 17 18  1  0  0  0  0
 17 36  1  0  0  0  0
 17 37  1  0  0  0  0
 18 19  1  0  0  0  0
 18 38  1  0  0  0  0
 18 39  1  0  0  0  0
 19 20  1  0  0  0  0
 20 21  1  0  0  0  0
 20 40  1  0  0  0  0
 20 41  1  0  0  0  0
 21 42  1  0  0  0  0
 21 43  1  0  0  0  0
M  CHG  1  16   1
M  END
> <s_m_source_file>
AV-unprocessed.smi

> <i_m_source_file_index>
1100

> <i_lp_mmshare_version>
43012

> <i_f3d_flags>
0

> <s_epik_input>
W0NIMl0xW0NIMl1PW0NIMl1bQ0gyXU4xW0NASF0oW0NIM10pW0NIMl1bTkhdQyg9TylbTkhdYzJbY0hdW2NIXWMoPU8pbihbQ0gzXSlbY0hdMg==

> <s_epik_cmdline>
J2VwaWtfcHl0aG9uJywgJy1waCcsICc3LjAnLCAnLXRuJywgJzgnLCAnLW1hJywgJzIwMCcsICctbWV0YWxfYmluZGluZycsICctaW1hZScsICc8aW5maWxlLm1hZT4nLCAnLW9tYWUnLCAnPG91dGZpbGUubWFlPic=

> <r_lp_tautomer_probability>
1

> <r_epik_Ionization_Penalty>
0.602556

> <r_epik_Ionization_Penalty_Charging>
0.602536

> <r_epik_Ionization_Penalty_Neutral>
1.99507e-05

> <r_epik_State_Penalty>
0.617039

> <r_epik_Charging_Adjusted_Penalty>
1.21958

> <i_epik_Tot_Q>
1

> <i_epik_Tot_abs_Q>
1

> <r_epik_Metal_State_Penalty>
0.619464

> <b_epik_Metal_Only>
0

> <s_lp_Force_Field>
OPLS_2005

> <r_lp_Energy>
33.6123

> <b_lp_Chiralities_Consistent>
1

> <s_lp_Variant>
AV-unprocessed.smi:1100-4

> <Gold.Version>
5.8.1

> <Gold.Id.Protein>
6NUR|6NUR_protein|mol2

> <Gold.PLP.Fitness>
46.6187

> <Gold.PLP.PLP>
-37.9074

> <Gold.PLP.part.hbond>
-2.0000

> <Gold.PLP.part.metal>
0.0000

> <Gold.PLP.part.buried>
-2.3232

> <Gold.PLP.part.nonpolar>
-35.8610

> <Gold.PLP.part.repulsive>
1.2564

> <Gold.PLP.ligand.clash>
0.0000

> <Gold.PLP.ligand.torsion>
0.6341

> <Gold.PLP.Chemscore.Hbond>
2.7200

> <Gold.PLP.Chemscore.CHOScore>
0.5870

> <Gold.PLP.Chemscore.Metal>
0.0000

> <Gold.Chemscore.Hbonds>
donor molecule, donor type, donor heavy atom, donor atom, acceptor molecule, acceptor atom, score
      L1  H     7    29       P1  8028  0.72
      L1  H    16    44       P1 10175  2.00
      L1  C    15    35       P1  8028  0.59

> <Gold.PLP.Chemscore.Internal.Correction>
0.0586

> <Gold.Rescore>
     Score         DG    S(hbond)    S(metal)    S(lipo)     H(rot)  DE(clash)    DE(int)     intcor
     19.03     -21.35       2.90        0.00      86.61       1.54       0.22       2.10       ----

> <Gold.Chemscore.Fitness>
19.0309

> <Gold.Chemscore.DG>
-21.3532

> <Gold.Chemscore.ZeroCoef>
-5.4800

> <Gold.Chemscore.Hbond>
2.8988

> <Gold.Chemscore.Metal>
0.0000

> <Gold.Chemscore.Lipo>
86.6077

> <Gold.Chemscore.Internal_Hbond>
0.0000

> <Gold.Chemscore.DEClash>
0.2174

> <Gold.Chemscore.DEInternal>
2.1050

> <Gold.Chemscore.Rot>
1.5398

> <Gold.Chemscore.Internal.Correction>
   9.000000E+99

> <Gold.Chemscore.Hbonds>
donor molecule, donor type, donor heavy atom, donor atom, acceptor molecule, acceptor atom, score
      L1  H     7    29       P1  8028  0.72
      L1  H    16    44       P1 10175  0.98

> <Gold.Chemscore.Hbond.Weighted>
-9.6821

> <Gold.Chemscore.Metal.Weighted>
-0.0000

> <Gold.Chemscore.Lipo.Weighted>
-10.1331

> <Gold.Chemscore.Internal_Hbond.Weighted>
0.0000

> <Gold.Chemscore.DEClash.Weighted>
0.2174

> <Gold.Chemscore.DEInternal.Weighted>
2.1050

> <Gold.Chemscore.Rot.Weighted>
3.9420

> <Gold.Chemscore.Internal.Correction.Weighted>
   9.000000E+99

> <Gold.Protein.RotatedTorsions>
[ 6907 6896 6895 6894 ] final  165.40 input  -60.11 | X-H torsion
[ 7974 7965 7964 7962 ] final  169.11 input  175.53 | X-H torsion
[ 8008 7997 7996 7995 ] final  179.85 input   59.86 | X-H torsion
[ 10167 10162 10161 10158 ] final  -20.47 input  -65.29 | X-H torsion
[ 10718 10713 10712 10709 ] final   42.46 input   66.30 | X-H torsion
[ 10763 10752 10751 10750 ] final   44.88 input  -60.55 | X-H torsion
[ 11005 11000 10999 10996 ] final   29.77 input  -57.11 | X-H torsion

> <Gold.Protein.ActiveResidues>
 VAL166  LYS551  ARG553  GLY616  TRP617  ASP618  TYR619  PRO620  LYS621  CYS622 
 ASP623  PHE694  ASN695  SER759  ASP760  ASP761  ALA762  ILE779  LEU786  VAL792 
 PHE793  MET794  SER795  GLU796  ALA797  LYS798  CYS799  TRP800  GLU811  SER814 

> <Gold.Protein.RotatedAtoms>
  151.8951  133.3525  159.3811 H   0  0  0  0  0  0  0  0  0  0  0  0  # atno 6907 bound_to 6896
  150.7094  134.4885  159.5513 H   0  0  0  0  0  0  0  0  0  0  0  0  # atno 6908 bound_to 6896
  152.2462  134.8179  160.0504 H   0  0  0  0  0  0  0  0  0  0  0  0  # atno 6909 bound_to 6896
  144.7366  139.9007  143.6409 H   0  0  0  0  0  0  0  0  0  0  0  0  # atno 7974 bound_to 7965
  156.0387  140.1298  157.0180 H   0  0  0  0  0  0  0  0  0  0  0  0  # atno 8008 bound_to 7997
  154.4381  140.1035  156.6275 H   0  0  0  0  0  0  0  0  0  0  0  0  # atno 8009 bound_to 7997
  155.5699  140.3466  155.4515 H   0  0  0  0  0  0  0  0  0  0  0  0  # atno 8010 bound_to 7997
  140.7276  143.4720  151.0234 H   0  0  0  0  0  0  0  0  0  0  0  0  # atno 10167 bound_to 10162
  157.4050  130.7882  149.7381 H   0  0  0  0  0  0  0  0  0  0  0  0  # atno 10718 bound_to 10713
  152.9833  135.6057  154.3346 H   0  0  0  0  0  0  0  0  0  0  0  0  # atno 10763 bound_to 10752
  154.3047  135.2772  155.2596 H   0  0  0  0  0  0  0  0  0  0  0  0  # atno 10764 bound_to 10752
  154.4832  135.5911  153.6461 H   0  0  0  0  0  0  0  0  0  0  0  0  # atno 10765 bound_to 10752
  140.3014  134.2752  155.7753 H   0  0  0  0  0  0  0  0  0  0  0  0  # atno 11005 bound_to 11000
  146.1074  139.4075  143.0309 LP  0  0  0  0  0  0  0  0  0  0  0  0  # atno 17320 bound_to 7965
  145.7492  140.9979  143.1259 LP  0  0  0  0  0  0  0  0  0  0  0  0  # atno 17321 bound_to 7965
  139.8412  143.7561  152.3180 LP  0  0  0  0  0  0  0  0  0  0  0  0  # atno 17342 bound_to 10162
  139.7710  144.7476  151.0224 LP  0  0  0  0  0  0  0  0  0  0  0  0  # atno 17343 bound_to 10162
  155.9834  130.4001  150.3366 LP  0  0  0  0  0  0  0  0  0  0  0  0  # atno 17370 bound_to 10713
  157.1497  131.0318  151.2890 LP  0  0  0  0  0  0  0  0  0  0  0  0  # atno 17371 bound_to 10713
  141.2127  133.7648  156.9772 LP  0  0  0  0  0  0  0  0  0  0  0  0  # atno 17394 bound_to 11000
  140.1106  134.9479  157.2060 LP  0  0  0  0  0  0  0  0  0  0  0  0  # atno 17395 bound_to 11000

$$$$
