AV-unprocessed.smi:2826|AV-procd|sdf|10894|dock4
  -GOLD-   2272015343D 1   1.00000     0.00000
 Structure written by MMmdl.
 50 51  0  0  0  0  0  0  0  0  1 V2000
  149.3712  128.5173  153.1486 C   0  0  0  0  0  0  0  0  0  0  0  0
  149.8267  129.2296  154.2936 O   0  0  0  0  0  0  0  0  0  0  0  0
  149.7921  130.6086  154.2632 C   0  0  0  0  0  0  0  0  0  0  0  0
  150.4183  131.3219  155.3032 C   0  0  0  0  0  0  0  0  0  0  0  0
  150.3874  132.7285  155.2771 C   0  0  0  0  0  0  0  0  0  0  0  0
  149.7381  133.3843  154.2038 C   0  0  0  0  0  0  0  0  0  0  0  0
  149.6379  134.8005  154.1050 N   0  0  0  0  0  0  0  0  0  0  0  0
  150.4303  135.7309  154.6640 C   0  0  0  0  0  0  0  0  0  0  0  0
  151.4177  135.4975  155.3611 O   0  0  0  0  0  0  0  0  0  0  0  0
  150.0249  136.9687  154.3465 N   0  0  0  0  0  0  0  0  0  0  0  0
  150.6800  138.2013  154.7746 C   0  0  2  0  0  0  0  0  0  0  0  0
  152.1671  138.1649  154.3957 C   0  0  0  0  0  0  0  0  0  0  0  0
  152.8988  139.3897  154.9660 C   0  0  0  0  0  0  0  0  0  0  0  0
  152.7187  139.4490  156.3769 O   0  0  0  0  0  0  0  0  0  0  0  0
  151.3574  139.6172  156.7661 C   0  0  2  0  0  0  0  0  0  0  0  0
  151.3002  139.7830  158.2962 C   0  0  0  0  0  0  0  0  0  0  0  0
  152.0082  141.0436  158.8390 C   0  0  0  0  0  0  0  0  0  0  0  0
  152.4191  140.8423  160.3057 C   0  0  0  0  0  0  0  0  0  0  0  0
  151.1494  142.3118  158.6956 C   0  0  0  0  0  0  0  0  0  0  0  0
  150.5476  138.3940  156.2951 C   0  0  0  0  0  0  0  0  0  0  0  0
  149.1246  132.5774  153.2151 C   0  0  0  0  0  0  0  0  0  0  0  0
  148.3872  133.1905  152.0375 C   0  0  0  0  0  0  0  0  0  0  0  0
  149.1537  131.2267  153.2397 N   0  0  0  0  0  0  0  0  0  0  0  0
  149.4668  127.4465  153.3284 H   0  0  0  0  0  0  0  0  0  0  0  0
  149.9653  128.7583  152.2660 H   0  0  0  0  0  0  0  0  0  0  0  0
  148.3206  128.7252  152.9413 H   0  0  0  0  0  0  0  0  0  0  0  0
  150.9095  130.7992  156.1105 H   0  0  0  0  0  0  0  0  0  0  0  0
  150.8476  133.2747  156.0858 H   0  0  0  0  0  0  0  0  0  0  0  0
  148.9235  135.1421  153.4789 H   0  0  0  0  0  0  0  0  0  0  0  0
  149.2067  137.0675  153.7637 H   0  0  0  0  0  0  0  0  0  0  0  0
  150.2186  139.0502  154.2659 H   0  0  0  0  0  0  0  0  0  0  0  0
  152.6293  137.2579  154.7884 H   0  0  0  0  0  0  0  0  0  0  0  0
  152.2825  138.1318  153.3118 H   0  0  0  0  0  0  0  0  0  0  0  0
  153.9652  139.3227  154.7503 H   0  0  0  0  0  0  0  0  0  0  0  0
  152.5386  140.3098  154.5033 H   0  0  0  0  0  0  0  0  0  0  0  0
  150.9520  140.5094  156.2879 H   0  0  0  0  0  0  0  0  0  0  0  0
  150.2587  139.7920  158.6205 H   0  0  0  0  0  0  0  0  0  0  0  0
  151.7466  138.8986  158.7530 H   0  0  0  0  0  0  0  0  0  0  0  0
  152.9256  141.1945  158.2690 H   0  0  0  0  0  0  0  0  0  0  0  0
  151.5486  140.6858  160.9434 H   0  0  0  0  0  0  0  0  0  0  0  0
  152.9591  141.7100  160.6860 H   0  0  0  0  0  0  0  0  0  0  0  0
  153.0731  139.9769  160.4166 H   0  0  0  0  0  0  0  0  0  0  0  0
  150.1918  142.2013  159.2051 H   0  0  0  0  0  0  0  0  0  0  0  0
  150.9480  142.5480  157.6513 H   0  0  0  0  0  0  0  0  0  0  0  0
  151.6551  143.1768  159.1257 H   0  0  0  0  0  0  0  0  0  0  0  0
  149.4986  138.5148  156.5689 H   0  0  0  0  0  0  0  0  0  0  0  0
  150.9036  137.5013  156.8118 H   0  0  0  0  0  0  0  0  0  0  0  0
  149.0490  133.8516  151.4773 H   0  0  0  0  0  0  0  0  0  0  0  0
  147.5331  133.7711  152.3864 H   0  0  0  0  0  0  0  0  0  0  0  0
  148.0185  132.4254  151.3527 H   0  0  0  0  0  0  0  0  0  0  0  0
  1  2  1  0  0  0  0
  1 24  1  0  0  0  0
  1 25  1  0  0  0  0
  1 26  1  0  0  0  0
  2  3  1  0  0  0  0
  3 23  1  0  0  0  0
  3  4  2  0  0  0  0
  4  5  1  0  0  0  0
  4 27  1  0  0  0  0
  5  6  2  0  0  0  0
  5 28  1  0  0  0  0
  6  7  1  0  0  0  0
  6 21  1  0  0  0  0
  7  8  1  0  0  0  0
  7 29  1  0  0  0  0
  8  9  2  0  0  0  0
  8 10  1  0  0  0  0
 10 11  1  0  0  0  0
 10 30  1  0  0  0  0
 11 20  1  0  0  0  0
 11 12  1  0  0  0  0
 11 31  1  0  0  0  0
 12 13  1  0  0  0  0
 12 32  1  0  0  0  0
 12 33  1  0  0  0  0
 13 14  1  0  0  0  0
 13 34  1  0  0  0  0
 13 35  1  0  0  0  0
 14 15  1  0  0  0  0
 15 16  1  0  0  0  0
 15 20  1  0  0  0  0
 15 36  1  0  0  0  0
 16 17  1  0  0  0  0
 16 37  1  0  0  0  0
 16 38  1  0  0  0  0
 17 18  1  0  0  0  0
 17 19  1  0  0  0  0
 17 39  1  0  0  0  0
 18 40  1  0  0  0  0
 18 41  1  0  0  0  0
 18 42  1  0  0  0  0
 19 43  1  0  0  0  0
 19 44  1  0  0  0  0
 19 45  1  0  0  0  0
 20 46  1  0  0  0  0
 20 47  1  0  0  0  0
 21 22  1  0  0  0  0
 21 23  2  0  0  0  0
 22 48  1  0  0  0  0
 22 49  1  0  0  0  0
 22 50  1  0  0  0  0
M  END
> <s_m_source_file>
AV-unprocessed.smi

> <i_m_source_file_index>
2826

> <i_lp_mmshare_version>
43012

> <i_f3d_flags>
0

> <s_epik_input>
W0NIM11PYzFbY0hdW2NIXWMoYyhuMSlbQ0gzXSlbTkhdQyg9TylbTkhdW0NAQEhdMltDSDJdW0NIMl1PW0NASF0oW0NIMl0yKVtDSDJdW0NIXShbQ0gzXSlbQ0gzXQ==

> <s_epik_cmdline>
J2VwaWtfcHl0aG9uJywgJy1waCcsICc3LjAnLCAnLXRuJywgJzgnLCAnLW1hJywgJzIwMCcsICctbWV0YWxfYmluZGluZycsICctaW1hZScsICc8aW5maWxlLm1hZT4nLCAnLW9tYWUnLCAnPG91dGZpbGUubWFlPic=

> <r_lp_tautomer_probability>
1

> <r_epik_Ionization_Penalty>
0.000249977

> <r_epik_Ionization_Penalty_Charging>
0

> <r_epik_Ionization_Penalty_Neutral>
0.000249977

> <r_epik_State_Penalty>
-0

> <r_epik_Charging_Adjusted_Penalty>
0

> <i_epik_Tot_Q>
0

> <i_epik_Tot_abs_Q>
0

> <r_epik_Metal_State_Penalty>
-0

> <b_epik_Metal_Only>
0

> <s_lp_Force_Field>
OPLS_2005

> <r_lp_Energy>
13.3689

> <b_lp_Chiralities_Consistent>
1

> <s_lp_Variant>
AV-unprocessed.smi:2826-3

> <Gold.Version>
5.8.1

> <Gold.Id.Protein>
6NUR|6NUR_protein|mol2

> <Gold.PLP.Fitness>
45.8950

> <Gold.PLP.PLP>
-38.9152

> <Gold.PLP.part.hbond>
-4.1115

> <Gold.PLP.part.metal>
0.0000

> <Gold.PLP.part.buried>
-1.5104

> <Gold.PLP.part.nonpolar>
-33.4696

> <Gold.PLP.part.repulsive>
0.2798

> <Gold.PLP.ligand.clash>
0.0000

> <Gold.PLP.ligand.torsion>
0.4669

> <Gold.PLP.Chemscore.Hbond>
2.6183

> <Gold.PLP.Chemscore.CHOScore>
0.0000

> <Gold.PLP.Chemscore.Metal>
0.0000

> <Gold.Chemscore.Hbonds>
donor molecule, donor type, donor heavy atom, donor atom, acceptor molecule, acceptor atom, score
      L1  H     7    29       P1  7948  0.66
      L1  H    10    30       P1  7948  0.44
      P1  H  7997  8008       L1    14  0.30
      P1  H 10752 10765       L1     9  1.00

> <Gold.PLP.Chemscore.Internal.Correction>
0.0587

> <Gold.Rescore>
     Score         DG    S(hbond)    S(metal)    S(lipo)     H(rot)  DE(clash)    DE(int)     intcor
     15.18     -19.62       1.91        0.00      99.24       1.51       1.99       2.45       ----

> <Gold.Chemscore.Fitness>
15.1826

> <Gold.Chemscore.DG>
-19.6227

> <Gold.Chemscore.ZeroCoef>
-5.4800

> <Gold.Chemscore.Hbond>
1.9119

> <Gold.Chemscore.Metal>
0.0000

> <Gold.Chemscore.Lipo>
99.2434

> <Gold.Chemscore.Internal_Hbond>
0.0000

> <Gold.Chemscore.DEClash>
1.9882

> <Gold.Chemscore.DEInternal>
2.4519

> <Gold.Chemscore.Rot>
1.5057

> <Gold.Chemscore.Internal.Correction>
   9.000000E+99

> <Gold.Chemscore.Hbonds>
donor molecule, donor type, donor heavy atom, donor atom, acceptor molecule, acceptor atom, score
      L1  H     7    29       P1  7948  0.36
      L1  H    10    30       P1  7948  0.43
      P1  H 10752 10765       L1     9  0.98

> <Gold.Chemscore.Hbond.Weighted>
-6.3859

> <Gold.Chemscore.Metal.Weighted>
-0.0000

> <Gold.Chemscore.Lipo.Weighted>
-11.6115

> <Gold.Chemscore.Internal_Hbond.Weighted>
0.0000

> <Gold.Chemscore.DEClash.Weighted>
1.9882

> <Gold.Chemscore.DEInternal.Weighted>
2.4519

> <Gold.Chemscore.Rot.Weighted>
3.8547

> <Gold.Chemscore.Internal.Correction.Weighted>
   9.000000E+99

> <Gold.Protein.RotatedTorsions>
[ 6907 6896 6895 6894 ] final  133.12 input  -60.11 | X-H torsion
[ 7974 7965 7964 7962 ] final -147.16 input  175.53 | X-H torsion
[ 8008 7997 7996 7995 ] final  -48.89 input   59.86 | X-H torsion
[ 10167 10162 10161 10158 ] final   13.39 input  -65.29 | X-H torsion
[ 10718 10713 10712 10709 ] final  106.08 input   66.30 | X-H torsion
[ 10763 10752 10751 10750 ] final -171.69 input  -60.55 | X-H torsion
[ 11005 11000 10999 10996 ] final -114.62 input  -57.11 | X-H torsion

> <Gold.Protein.ActiveResidues>
 VAL166  LYS551  ARG553  GLY616  TRP617  ASP618  TYR619  PRO620  LYS621  CYS622 
 ASP623  PHE694  ASN695  SER759  ASP760  ASP761  ALA762  ILE779  LEU786  VAL792 
 PHE793  MET794  SER795  GLU796  ALA797  LYS798  CYS799  TRP800  GLU811  SER814 

> <Gold.Protein.RotatedAtoms>
  152.3253  133.5898  159.5771 H   0  0  0  0  0  0  0  0  0  0  0  0  # atno 6907 bound_to 6896
  150.7393  133.9950  159.3628 H   0  0  0  0  0  0  0  0  0  0  0  0  # atno 6908 bound_to 6896
  151.7830  135.0757  160.0427 H   0  0  0  0  0  0  0  0  0  0  0  0  # atno 6909 bound_to 6896
  144.8111  140.5362  143.5642 H   0  0  0  0  0  0  0  0  0  0  0  0  # atno 7974 bound_to 7965
  154.4035  140.1310  156.4413 H   0  0  0  0  0  0  0  0  0  0  0  0  # atno 8008 bound_to 7997
  155.7456  140.3489  155.5105 H   0  0  0  0  0  0  0  0  0  0  0  0  # atno 8009 bound_to 7997
  155.8998  140.1017  157.1348 H   0  0  0  0  0  0  0  0  0  0  0  0  # atno 8010 bound_to 7997
  140.6005  143.8613  150.6961 H   0  0  0  0  0  0  0  0  0  0  0  0  # atno 10167 bound_to 10162
  157.6681  131.0842  150.5953 H   0  0  0  0  0  0  0  0  0  0  0  0  # atno 10718 bound_to 10713
  154.6277  135.2883  155.0253 H   0  0  0  0  0  0  0  0  0  0  0  0  # atno 10763 bound_to 10752
  154.1425  135.6516  153.4949 H   0  0  0  0  0  0  0  0  0  0  0  0  # atno 10764 bound_to 10752
  153.0265  135.5336  154.7092 H   0  0  0  0  0  0  0  0  0  0  0  0  # atno 10765 bound_to 10752
  141.0540  133.9642  157.2786 H   0  0  0  0  0  0  0  0  0  0  0  0  # atno 11005 bound_to 11000
  145.5321  139.1475  143.3494 LP  0  0  0  0  0  0  0  0  0  0  0  0  # atno 17320 bound_to 7965
  146.2410  140.5462  142.8934 LP  0  0  0  0  0  0  0  0  0  0  0  0  # atno 17321 bound_to 7965
  140.2158  143.3847  152.1682 LP  0  0  0  0  0  0  0  0  0  0  0  0  # atno 17342 bound_to 10162
  139.5288  144.7134  151.5131 LP  0  0  0  0  0  0  0  0  0  0  0  0  # atno 17343 bound_to 10162
  156.6254  130.4417  149.5806 LP  0  0  0  0  0  0  0  0  0  0  0  0  # atno 17370 bound_to 10713
  156.2323  130.6802  151.1476 LP  0  0  0  0  0  0  0  0  0  0  0  0  # atno 17371 bound_to 10713
  139.9374  135.0195  156.8601 LP  0  0  0  0  0  0  0  0  0  0  0  0  # atno 17394 bound_to 11000
  140.6000  134.0181  155.7533 LP  0  0  0  0  0  0  0  0  0  0  0  0  # atno 17395 bound_to 11000

$$$$
