AV-unprocessed.smi:716|AV-procd|sdf|3486|dock10
  -GOLD-   22720 0483D 1   1.00000     0.00000
 Structure written by MMmdl.
 48 50  0  0  0  0  0  0  0  0  1 V2000
  151.6736  143.9064  159.4741 C   0  0  0  0  0  0  0  0  0  0  0  0
  151.9863  143.8884  157.9764 C   0  0  0  0  0  0  0  0  0  0  0  0
  151.7677  142.5793  157.4773 O   0  0  0  0  0  0  0  0  0  0  0  0
  150.4575  142.3955  156.9544 C   0  0  2  0  0  0  0  0  0  0  0  0
  149.4434  142.0218  158.0432 C   0  0  0  0  0  0  0  0  0  0  0  0
  149.8563  140.5701  157.7974 C   0  0  1  0  0  0  0  0  0  0  0  0
  148.7303  139.6498  157.8901 N   0  0  0  0  0  0  0  0  0  0  0  0
  148.8201  138.3706  158.2799 C   0  0  0  0  0  0  0  0  0  0  0  0
  149.8694  137.8454  158.6504 O   0  0  0  0  0  0  0  0  0  0  0  0
  147.5263  137.5528  158.2333 C   0  0  0  0  0  0  0  0  0  0  0  0
  147.3524  136.7630  159.4593 N   0  0  0  0  0  0  0  0  0  0  0  0
  146.3839  137.2573  160.3179 N   0  0  0  0  0  0  0  0  0  0  0  0
  146.1530  136.6937  161.4580 C   0  0  0  0  0  0  0  0  0  0  0  0
  145.0969  137.3020  162.3322 C   0  0  0  0  0  0  0  0  0  0  0  0
  146.9115  135.5180  161.8403 C   0  0  0  0  0  0  0  0  0  0  0  0
  147.8529  135.0359  161.0011 C   0  0  0  0  0  0  0  0  0  0  0  0
  148.1322  135.6700  159.7149 C   0  0  0  0  0  0  0  0  0  0  0  0
  148.9993  135.2674  158.9395 O   0  0  0  0  0  0  0  0  0  0  0  0
  150.2589  140.9820  156.3540 C   0  0  0  0  0  0  0  0  0  0  0  0
  149.2237  140.8643  155.2263 C   0  0  0  0  0  0  0  0  0  0  0  0
  149.5107  139.5694  154.4614 C   0  0  0  0  0  0  0  0  0  0  0  0
  150.9635  139.2092  154.7774 C   0  0  0  0  0  0  0  0  0  0  0  0
  151.4727  140.2954  155.7296 C   0  0  0  0  0  0  0  0  0  0  0  0
  151.8264  144.9017  159.8920 H   0  0  0  0  0  0  0  0  0  0  0  0
  152.3164  143.2123  160.0159 H   0  0  0  0  0  0  0  0  0  0  0  0
  150.6382  143.6205  159.6605 H   0  0  0  0  0  0  0  0  0  0  0  0
  151.3523  144.6083  157.4577 H   0  0  0  0  0  0  0  0  0  0  0  0
  153.0234  144.1827  157.8091 H   0  0  0  0  0  0  0  0  0  0  0  0
  150.1380  143.2009  156.2909 H   0  0  0  0  0  0  0  0  0  0  0  0
  149.6680  142.3936  159.0430 H   0  0  0  0  0  0  0  0  0  0  0  0
  148.4141  142.2411  157.7532 H   0  0  0  0  0  0  0  0  0  0  0  0
  150.7140  140.2874  158.4126 H   0  0  0  0  0  0  0  0  0  0  0  0
  147.8274  139.9972  157.6000 H   0  0  0  0  0  0  0  0  0  0  0  0
  146.6841  138.2356  158.1069 H   0  0  0  0  0  0  0  0  0  0  0  0
  147.5186  136.9171  157.3457 H   0  0  0  0  0  0  0  0  0  0  0  0
  144.9975  136.7552  163.2701 H   0  0  0  0  0  0  0  0  0  0  0  0
  144.1266  137.2912  161.8351 H   0  0  0  0  0  0  0  0  0  0  0  0
  145.3426  138.3364  162.5742 H   0  0  0  0  0  0  0  0  0  0  0  0
  146.7180  135.0383  162.7884 H   0  0  0  0  0  0  0  0  0  0  0  0
  148.4173  134.1604  161.2866 H   0  0  0  0  0  0  0  0  0  0  0  0
  148.1936  140.8956  155.5824 H   0  0  0  0  0  0  0  0  0  0  0  0
  149.3328  141.7056  154.5408 H   0  0  0  0  0  0  0  0  0  0  0  0
  148.8526  138.7708  154.8015 H   0  0  0  0  0  0  0  0  0  0  0  0
  149.3432  139.6930  153.3912 H   0  0  0  0  0  0  0  0  0  0  0  0
  151.0071  138.2308  155.2571 H   0  0  0  0  0  0  0  0  0  0  0  0
  151.5740  139.1558  153.8755 H   0  0  0  0  0  0  0  0  0  0  0  0
  152.0573  141.0218  155.1637 H   0  0  0  0  0  0  0  0  0  0  0  0
  152.1416  139.8749  156.4814 H   0  0  0  0  0  0  0  0  0  0  0  0
  1  2  1  0  0  0  0
  1 24  1  0  0  0  0
  1 25  1  0  0  0  0
  1 26  1  0  0  0  0
  2  3  1  0  0  0  0
  2 27  1  0  0  0  0
  2 28  1  0  0  0  0
  3  4  1  0  0  0  0
  4 19  1  0  0  0  0
  4  5  1  0  0  0  0
  4 29  1  0  0  0  0
  5  6  1  0  0  0  0
  5 30  1  0  0  0  0
  5 31  1  0  0  0  0
  6  7  1  0  0  0  0
  6 19  1  0  0  0  0
  6 32  1  0  0  0  0
  7  8  1  0  0  0  0
  7 33  1  0  0  0  0
  8  9  2  0  0  0  0
  8 10  1  0  0  0  0
 10 11  1  0  0  0  0
 10 34  1  0  0  0  0
 10 35  1  0  0  0  0
 11 17  1  0  0  0  0
 11 12  1  0  0  0  0
 12 13  2  0  0  0  0
 13 14  1  0  0  0  0
 13 15  1  0  0  0  0
 14 36  1  0  0  0  0
 14 37  1  0  0  0  0
 14 38  1  0  0  0  0
 15 16  2  0  0  0  0
 15 39  1  0  0  0  0
 16 17  1  0  0  0  0
 16 40  1  0  0  0  0
 17 18  2  0  0  0  0
 19 23  1  0  0  0  0
 19 20  1  0  0  0  0
 20 21  1  0  0  0  0
 20 41  1  0  0  0  0
 20 42  1  0  0  0  0
 21 22  1  0  0  0  0
 21 43  1  0  0  0  0
 21 44  1  0  0  0  0
 22 23  1  0  0  0  0
 22 45  1  0  0  0  0
 22 46  1  0  0  0  0
 23 47  1  0  0  0  0
 23 48  1  0  0  0  0
M  END
> <s_m_source_file>
AV-unprocessed.smi

> <i_m_source_file_index>
716

> <i_lp_mmshare_version>
43012

> <i_f3d_flags>
0

> <s_epik_input>
W0NIMl0xW0NIMl1bQ0gyXVtDSDJdQzEyW0NASF0oT1tDSDJdW0NIM10pW0NIMl1bQ0BIXTJbTkhdQyg9TylbQ0gyXW4zbmMoW0NIM10pW2NIXVtjSF1jMz1P

> <s_epik_cmdline>
J2VwaWtfcHl0aG9uJywgJy1waCcsICc3LjAnLCAnLXRuJywgJzgnLCAnLW1hJywgJzIwMCcsICctbWV0YWxfYmluZGluZycsICctaW1hZScsICc8aW5maWxlLm1hZT4nLCAnLW9tYWUnLCAnPG91dGZpbGUubWFlPic=

> <r_lp_tautomer_probability>
1

> <r_epik_Ionization_Penalty>
4.75561e-08

> <r_epik_Ionization_Penalty_Charging>
2.86617e-08

> <r_epik_Ionization_Penalty_Neutral>
1.88944e-08

> <r_epik_State_Penalty>
-0

> <r_epik_Charging_Adjusted_Penalty>
2.86617e-08

> <i_epik_Tot_Q>
0

> <i_epik_Tot_abs_Q>
0

> <r_epik_Metal_State_Penalty>
-0

> <b_epik_Metal_Only>
0

> <s_lp_Force_Field>
OPLS_2005

> <r_lp_Energy>
50.4804

> <b_lp_Chiralities_Consistent>
1

> <s_lp_Variant>
AV-unprocessed.smi:716-1

> <Gold.Version>
5.8.1

> <Gold.Id.Protein>
6NUR|6NUR_protein|mol2

> <Gold.PLP.Fitness>
42.2069

> <Gold.PLP.PLP>
-37.6854

> <Gold.PLP.part.hbond>
-2.0000

> <Gold.PLP.part.metal>
0.0000

> <Gold.PLP.part.buried>
-3.1801

> <Gold.PLP.part.nonpolar>
-34.1026

> <Gold.PLP.part.repulsive>
0.2215

> <Gold.PLP.ligand.clash>
0.0000

> <Gold.PLP.ligand.torsion>
0.9146

> <Gold.PLP.Chemscore.Hbond>
2.0000

> <Gold.PLP.Chemscore.CHOScore>
0.0000

> <Gold.PLP.Chemscore.Metal>
0.0000

> <Gold.Chemscore.Hbonds>
donor molecule, donor type, donor heavy atom, donor atom, acceptor molecule, acceptor atom, score
      P1  H  6896  6907       L1    18  1.00
      P1  H  6934  6947       L1    12  1.00

> <Gold.PLP.Chemscore.Internal.Correction>
0.3506

> <Gold.Rescore>
     Score         DG    S(hbond)    S(metal)    S(lipo)     H(rot)  DE(clash)    DE(int)     intcor
     12.65     -16.52       1.11        0.00     100.55       1.73       0.36       3.51       ----

> <Gold.Chemscore.Fitness>
12.6505

> <Gold.Chemscore.DG>
-16.5218

> <Gold.Chemscore.ZeroCoef>
-5.4800

> <Gold.Chemscore.Hbond>
1.1134

> <Gold.Chemscore.Metal>
0.0000

> <Gold.Chemscore.Lipo>
100.5493

> <Gold.Chemscore.Internal_Hbond>
0.0000

> <Gold.Chemscore.DEClash>
0.3602

> <Gold.Chemscore.DEInternal>
3.5111

> <Gold.Chemscore.Rot>
1.7348

> <Gold.Chemscore.Internal.Correction>
   9.000000E+99

> <Gold.Chemscore.Hbonds>
donor molecule, donor type, donor heavy atom, donor atom, acceptor molecule, acceptor atom, score
      P1  H  6896  6907       L1    18  0.99
      P1  H  6934  6947       L1    12  0.11

> <Gold.Chemscore.Hbond.Weighted>
-3.7187

> <Gold.Chemscore.Metal.Weighted>
-0.0000

> <Gold.Chemscore.Lipo.Weighted>
-11.7643

> <Gold.Chemscore.Internal_Hbond.Weighted>
0.0000

> <Gold.Chemscore.DEClash.Weighted>
0.3602

> <Gold.Chemscore.DEInternal.Weighted>
3.5111

> <Gold.Chemscore.Rot.Weighted>
4.4411

> <Gold.Chemscore.Internal.Correction.Weighted>
   9.000000E+99

> <Gold.Protein.RotatedTorsions>
[ 6907 6896 6895 6894 ] final  -73.23 input  -60.11 | X-H torsion
[ 7974 7965 7964 7962 ] final   83.70 input  175.53 | X-H torsion
[ 8008 7997 7996 7995 ] final -169.87 input   59.86 | X-H torsion
[ 10167 10162 10161 10158 ] final  172.03 input  -65.29 | X-H torsion
[ 10718 10713 10712 10709 ] final  -46.23 input   66.30 | X-H torsion
[ 10763 10752 10751 10750 ] final  118.88 input  -60.55 | X-H torsion
[ 11005 11000 10999 10996 ] final   97.19 input  -57.11 | X-H torsion

> <Gold.Protein.ActiveResidues>
 VAL166  LYS551  ARG553  GLY616  TRP617  ASP618  TYR619  PRO620  LYS621  CYS622 
 ASP623  PHE694  ASN695  SER759  ASP760  ASP761  ALA762  ILE779  LEU786  VAL792 
 PHE793  MET794  SER795  GLU796  ALA797  LYS798  CYS799  TRP800  GLU811  SER814 

> <Gold.Protein.RotatedAtoms>
  150.7138  134.5047  159.5578 H   0  0  0  0  0  0  0  0  0  0  0  0  # atno 6907 bound_to 6896
  152.2637  134.8004  160.0435 H   0  0  0  0  0  0  0  0  0  0  0  0  # atno 6908 bound_to 6896
  151.8708  133.3440  159.3771 H   0  0  0  0  0  0  0  0  0  0  0  0  # atno 6909 bound_to 6896
  145.6085  139.2364  143.2206 H   0  0  0  0  0  0  0  0  0  0  0  0  # atno 7974 bound_to 7965
  155.9107  140.1057  157.1281 H   0  0  0  0  0  0  0  0  0  0  0  0  # atno 8008 bound_to 7997
  154.4039  140.1275  156.4618 H   0  0  0  0  0  0  0  0  0  0  0  0  # atno 8009 bound_to 7997
  155.7313  140.3468  155.5063 H   0  0  0  0  0  0  0  0  0  0  0  0  # atno 8010 bound_to 7997
  139.5064  144.3419  152.0009 H   0  0  0  0  0  0  0  0  0  0  0  0  # atno 10167 bound_to 10162
  156.2203  130.4166  149.9001 H   0  0  0  0  0  0  0  0  0  0  0  0  # atno 10718 bound_to 10713
  153.5745  135.3496  155.2851 H   0  0  0  0  0  0  0  0  0  0  0  0  # atno 10763 bound_to 10752
  154.8677  135.4167  154.2688 H   0  0  0  0  0  0  0  0  0  0  0  0  # atno 10764 bound_to 10752
  153.3461  135.7052  153.6896 H   0  0  0  0  0  0  0  0  0  0  0  0  # atno 10765 bound_to 10752
  139.8777  134.8988  156.4270 H   0  0  0  0  0  0  0  0  0  0  0  0  # atno 11005 bound_to 11000
  146.1522  140.6908  142.9316 LP  0  0  0  0  0  0  0  0  0  0  0  0  # atno 17320 bound_to 7965
  144.7280  140.4584  143.6959 LP  0  0  0  0  0  0  0  0  0  0  0  0  # atno 17321 bound_to 7965
  140.2857  144.3810  150.6104 LP  0  0  0  0  0  0  0  0  0  0  0  0  # atno 17342 bound_to 10162
  140.5985  143.2167  151.7119 LP  0  0  0  0  0  0  0  0  0  0  0  0  # atno 17343 bound_to 10162
  156.6650  130.8797  151.3553 LP  0  0  0  0  0  0  0  0  0  0  0  0  # atno 17370 bound_to 10713
  157.7084  130.9412  150.1007 LP  0  0  0  0  0  0  0  0  0  0  0  0  # atno 17371 bound_to 10713
  140.9093  133.7723  155.9773 LP  0  0  0  0  0  0  0  0  0  0  0  0  # atno 17394 bound_to 11000
  140.8564  134.2893  157.5253 LP  0  0  0  0  0  0  0  0  0  0  0  0  # atno 17395 bound_to 11000

$$$$
