AV-unprocessed.smi:2618|AV-procd|sdf|10218|dock1
  -GOLD-   2272014223D 1   1.00000     0.00000
 Structure written by MMmdl.
 39 40  0  0  0  0  0  0  0  0  1 V2000
  145.4345  142.4354  155.0448 C   0  0  0  0  0  0  0  0  0  0  0  0
  146.4385  141.4371  154.9993 O   0  0  0  0  0  0  0  0  0  0  0  0
  147.6918  141.9445  154.5687 C   0  0  0  0  0  0  0  0  0  0  0  0
  148.6120  140.7893  154.1435 C   0  0  0  0  0  0  0  0  0  0  0  0
  149.7576  140.5878  155.0987 C   0  0  0  0  0  0  0  0  0  0  0  0
  150.0412  141.4204  156.0296 N   0  0  0  0  0  0  0  0  0  0  0  0
  151.0927  141.0040  156.7353 N   0  0  0  0  0  0  0  0  0  0  0  0
  151.6574  141.7506  157.7755 C   0  0  0  0  0  0  0  0  0  0  0  0
  152.5957  141.1673  158.5320 N   0  0  0  0  0  0  0  0  0  0  0  0
  153.1379  141.8935  159.5330 C   0  0  0  0  0  0  0  0  0  0  0  0
  154.1943  141.2113  160.3753 C   0  0  0  0  0  0  0  0  0  0  0  0
  152.7459  143.2240  159.7811 C   0  0  0  0  0  0  0  0  0  0  0  0
  151.7557  143.7451  158.9245 C   0  0  0  0  0  0  0  0  0  0  0  0
  151.2389  145.1592  159.0816 C   0  0  0  0  0  0  0  0  0  0  0  0
  151.2167  143.0081  157.9293 N   0  0  0  0  0  0  0  0  0  0  0  0
  151.5486  139.6747  156.3012 C   0  0  1  0  0  0  0  0  0  0  0  0
  152.8995  139.5967  155.8753 O   0  0  0  0  0  0  0  0  0  0  0  0
  151.3031  138.5780  157.3756 C   0  0  0  0  0  0  0  0  0  0  0  0
  150.0418  138.6299  157.8078 F   0  0  0  0  0  0  0  0  0  0  0  0
  151.5081  137.3687  156.8505 F   0  0  0  0  0  0  0  0  0  0  0  0
  152.1044  138.7180  158.4309 F   0  0  0  0  0  0  0  0  0  0  0  0
  150.6854  139.4263  155.0568 C   0  0  0  0  0  0  0  0  0  0  0  0
  144.4975  141.9967  155.3877 H   0  0  0  0  0  0  0  0  0  0  0  0
  145.2624  142.8666  154.0576 H   0  0  0  0  0  0  0  0  0  0  0  0
  145.7043  143.2355  155.7353 H   0  0  0  0  0  0  0  0  0  0  0  0
  147.5609  142.6529  153.7483 H   0  0  0  0  0  0  0  0  0  0  0  0
  148.1559  142.4896  155.3920 H   0  0  0  0  0  0  0  0  0  0  0  0
  148.0197  139.8744  154.0948 H   0  0  0  0  0  0  0  0  0  0  0  0
  148.9917  140.9586  153.1356 H   0  0  0  0  0  0  0  0  0  0  0  0
  154.2722  141.6809  161.3561 H   0  0  0  0  0  0  0  0  0  0  0  0
  155.1655  141.2765  159.8843 H   0  0  0  0  0  0  0  0  0  0  0  0
  153.9523  140.1580  160.5225 H   0  0  0  0  0  0  0  0  0  0  0  0
  153.1787  143.8089  160.5795 H   0  0  0  0  0  0  0  0  0  0  0  0
  151.9367  145.7683  159.6571 H   0  0  0  0  0  0  0  0  0  0  0  0
  150.2797  145.1530  159.5998 H   0  0  0  0  0  0  0  0  0  0  0  0
  151.1014  145.6302  158.1076 H   0  0  0  0  0  0  0  0  0  0  0  0
  153.1601  138.6887  155.8726 H   0  0  0  0  0  0  0  0  0  0  0  0
  150.1362  138.4854  155.0990 H   0  0  0  0  0  0  0  0  0  0  0  0
  151.2630  139.4403  154.1315 H   0  0  0  0  0  0  0  0  0  0  0  0
  1  2  1  0  0  0  0
  1 23  1  0  0  0  0
  1 24  1  0  0  0  0
  1 25  1  0  0  0  0
  2  3  1  0  0  0  0
  3  4  1  0  0  0  0
  3 26  1  0  0  0  0
  3 27  1  0  0  0  0
  4  5  1  0  0  0  0
  4 28  1  0  0  0  0
  4 29  1  0  0  0  0
  5 22  1  0  0  0  0
  5  6  2  0  0  0  0
  6  7  1  0  0  0  0
  7  8  1  0  0  0  0
  7 16  1  0  0  0  0
  8 15  1  0  0  0  0
  8  9  2  0  0  0  0
  9 10  1  0  0  0  0
 10 11  1  0  0  0  0
 10 12  2  0  0  0  0
 11 30  1  0  0  0  0
 11 31  1  0  0  0  0
 11 32  1  0  0  0  0
 12 13  1  0  0  0  0
 12 33  1  0  0  0  0
 13 14  1  0  0  0  0
 13 15  2  0  0  0  0
 14 34  1  0  0  0  0
 14 35  1  0  0  0  0
 14 36  1  0  0  0  0
 16 17  1  0  0  0  0
 16 18  1  0  0  0  0
 16 22  1  0  0  0  0
 17 37  1  0  0  0  0
 18 19  1  0  0  0  0
 18 20  1  0  0  0  0
 18 21  1  0  0  0  0
 22 38  1  0  0  0  0
 22 39  1  0  0  0  0
M  END
> <s_m_source_file>
AV-unprocessed.smi

> <i_m_source_file_index>
2618

> <i_lp_mmshare_version>
43012

> <i_f3d_flags>
0

> <s_epik_input>
W0NIM11PW0NIMl1bQ0gyXUMoW0NIMl0xKT1OTihbQ0BAXTEoW09IXSlDKEYpKEYpRiljMm5jKFtDSDNdKVtjSF1jKG4yKVtDSDNd

> <s_epik_cmdline>
J2VwaWtfcHl0aG9uJywgJy1waCcsICc3LjAnLCAnLXRuJywgJzgnLCAnLW1hJywgJzIwMCcsICctbWV0YWxfYmluZGluZycsICctaW1hZScsICc8aW5maWxlLm1hZT4nLCAnLW9tYWUnLCAnPG91dGZpbGUubWFlPic=

> <r_lp_tautomer_probability>
1

> <r_epik_Ionization_Penalty>
0.0648608

> <r_epik_Ionization_Penalty_Charging>
0

> <r_epik_Ionization_Penalty_Neutral>
0.0648608

> <r_epik_State_Penalty>
0.0551477

> <r_epik_Charging_Adjusted_Penalty>
0.0551477

> <i_epik_Tot_Q>
0

> <i_epik_Tot_abs_Q>
0

> <r_epik_Metal_State_Penalty>
0.0550619

> <b_epik_Metal_Only>
0

> <s_epik_Chemistry_Notes>
This compound has an imine and may undergo hydrolysis.

> <s_lp_Force_Field>
OPLS_2005

> <r_lp_Energy>
16.027

> <b_lp_Chiralities_Consistent>
1

> <s_lp_Variant>
AV-unprocessed.smi:2618-1

> <Gold.Version>
5.8.1

> <Gold.Id.Protein>
6NUR|6NUR_protein|mol2

> <Gold.PLP.Fitness>
45.3046

> <Gold.PLP.PLP>
-43.4942

> <Gold.PLP.part.hbond>
-1.0000

> <Gold.PLP.part.metal>
0.0000

> <Gold.PLP.part.buried>
-4.0141

> <Gold.PLP.part.nonpolar>
-38.8899

> <Gold.PLP.part.repulsive>
0.3121

> <Gold.PLP.ligand.clash>
0.0000

> <Gold.PLP.ligand.torsion>
0.6406

> <Gold.PLP.Chemscore.Hbond>
1.0000

> <Gold.PLP.Chemscore.CHOScore>
0.0000

> <Gold.PLP.Chemscore.Metal>
0.0000

> <Gold.Chemscore.Hbonds>
donor molecule, donor type, donor heavy atom, donor atom, acceptor molecule, acceptor atom, score
      P1  H  7997  8010       L1    17  0.64

> <Gold.PLP.Chemscore.Internal.Correction>
0.0916

> <Gold.Rescore>
     Score         DG    S(hbond)    S(metal)    S(lipo)     H(rot)  DE(clash)    DE(int)     intcor
     11.58     -14.24       0.88        0.00      94.39       2.03       0.20       2.47       ----

> <Gold.Chemscore.Fitness>
11.5789

> <Gold.Chemscore.DG>
-14.2396

> <Gold.Chemscore.ZeroCoef>
-5.4800

> <Gold.Chemscore.Hbond>
0.8751

> <Gold.Chemscore.Metal>
0.0000

> <Gold.Chemscore.Lipo>
94.3920

> <Gold.Chemscore.Internal_Hbond>
0.0000

> <Gold.Chemscore.DEClash>
0.1953

> <Gold.Chemscore.DEInternal>
2.4653

> <Gold.Chemscore.Rot>
2.0340

> <Gold.Chemscore.Internal.Correction>
   9.000000E+99

> <Gold.Chemscore.Hbonds>
donor molecule, donor type, donor heavy atom, donor atom, acceptor molecule, acceptor atom, score
      P1  H  7997  8010       L1    17  0.05

> <Gold.Chemscore.Hbond.Weighted>
-2.9228

> <Gold.Chemscore.Metal.Weighted>
-0.0000

> <Gold.Chemscore.Lipo.Weighted>
-11.0439

> <Gold.Chemscore.Internal_Hbond.Weighted>
0.0000

> <Gold.Chemscore.DEClash.Weighted>
0.1953

> <Gold.Chemscore.DEInternal.Weighted>
2.4653

> <Gold.Chemscore.Rot.Weighted>
5.2071

> <Gold.Chemscore.Internal.Correction.Weighted>
   9.000000E+99

> <Gold.Protein.RotatedTorsions>
[ 6907 6896 6895 6894 ] final  -98.27 input  -60.11 | X-H torsion
[ 7974 7965 7964 7962 ] final   27.41 input  175.53 | X-H torsion
[ 8008 7997 7996 7995 ] final   65.13 input   59.86 | X-H torsion
[ 10167 10162 10161 10158 ] final   78.92 input  -65.29 | X-H torsion
[ 10718 10713 10712 10709 ] final  -61.88 input   66.30 | X-H torsion
[ 10763 10752 10751 10750 ] final  178.48 input  -60.55 | X-H torsion
[ 11005 11000 10999 10996 ] final  -74.25 input  -57.11 | X-H torsion

> <Gold.Protein.ActiveResidues>
 VAL166  LYS551  ARG553  GLY616  TRP617  ASP618  TYR619  PRO620  LYS621  CYS622 
 ASP623  PHE694  ASN695  SER759  ASP760  ASP761  ALA762  ILE779  LEU786  VAL792 
 PHE793  MET794  SER795  GLU796  ALA797  LYS798  CYS799  TRP800  GLU811  SER814 

> <Gold.Protein.RotatedAtoms>
  150.7041  134.1220  159.4038 H   0  0  0  0  0  0  0  0  0  0  0  0  # atno 6907 bound_to 6896
  151.9206  135.0297  160.0531 H   0  0  0  0  0  0  0  0  0  0  0  0  # atno 6908 bound_to 6896
  152.2259  133.4984  159.5225 H   0  0  0  0  0  0  0  0  0  0  0  0  # atno 6909 bound_to 6896
  146.1785  139.7195  142.8917 H   0  0  0  0  0  0  0  0  0  0  0  0  # atno 7974 bound_to 7965
  155.6568  140.3497  155.4768 H   0  0  0  0  0  0  0  0  0  0  0  0  # atno 8008 bound_to 7997
  155.9801  140.1173  157.0757 H   0  0  0  0  0  0  0  0  0  0  0  0  # atno 8009 bound_to 7997
  154.4189  140.1140  156.5410 H   0  0  0  0  0  0  0  0  0  0  0  0  # atno 8010 bound_to 7997
  139.9658  144.5929  150.8030 H   0  0  0  0  0  0  0  0  0  0  0  0  # atno 10167 bound_to 10162
  156.0892  130.4203  150.1056 H   0  0  0  0  0  0  0  0  0  0  0  0  # atno 10718 bound_to 10713
  154.5081  135.2787  155.1365 H   0  0  0  0  0  0  0  0  0  0  0  0  # atno 10763 bound_to 10752
  154.2971  135.6255  153.5413 H   0  0  0  0  0  0  0  0  0  0  0  0  # atno 10764 bound_to 10752
  152.9914  135.5688  154.5540 H   0  0  0  0  0  0  0  0  0  0  0  0  # atno 10765 bound_to 10752
  141.1633  133.6905  156.7336 H   0  0  0  0  0  0  0  0  0  0  0  0  # atno 11005 bound_to 11000
  145.4142  141.0400  143.3000 LP  0  0  0  0  0  0  0  0  0  0  0  0  # atno 17320 bound_to 7965
  144.8276  139.5683  143.6958 LP  0  0  0  0  0  0  0  0  0  0  0  0  # atno 17321 bound_to 7965
  140.7538  143.3015  151.3067 LP  0  0  0  0  0  0  0  0  0  0  0  0  # atno 17342 bound_to 10162
  139.6519  144.0347  152.2632 LP  0  0  0  0  0  0  0  0  0  0  0  0  # atno 17343 bound_to 10162
  156.9070  130.9639  151.3568 LP  0  0  0  0  0  0  0  0  0  0  0  0  # atno 17370 bound_to 10713
  157.6036  130.8531  149.8841 LP  0  0  0  0  0  0  0  0  0  0  0  0  # atno 17371 bound_to 10713
  140.2727  134.8379  157.3862 LP  0  0  0  0  0  0  0  0  0  0  0  0  # atno 17394 bound_to 11000
  140.1506  134.4854  155.7964 LP  0  0  0  0  0  0  0  0  0  0  0  0  # atno 17395 bound_to 11000

$$$$
