AV-unprocessed.smi:837|AV-procd|sdf|3898|dock5
  -GOLD-   22720 1353D 1   1.00000     0.00000
 Structure written by MMmdl.
 50 52  0  0  0  0  0  0  0  0  2 V2000
  152.6266  140.9077  159.5383 C   0  0  0  0  0  0  0  0  0  0  0  0
  152.5328  142.3939  159.1319 C   0  0  2  0  0  0  0  0  0  0  0  0
  152.2061  143.2754  160.3572 C   0  0  0  0  0  0  0  0  0  0  0  0
  152.1988  144.7690  159.9973 C   0  0  0  0  0  0  0  0  0  0  0  0
  151.2230  145.0669  158.8504 C   0  0  0  0  0  0  0  0  0  0  0  0
  151.5325  144.2001  157.6171 C   0  0  0  0  0  0  0  0  0  0  0  0
  151.5729  142.6838  157.9342 C   0  0  1  0  0  0  0  0  0  0  0  0
  151.9784  141.9482  156.7489 N   0  0  0  0  0  0  0  0  0  0  0  0
  151.0382  141.1078  156.3013 C   0  0  0  0  0  0  0  0  0  0  0  0
  151.1534  140.3700  155.3234 O   0  0  0  0  0  0  0  0  0  0  0  0
  149.9667  141.2043  157.1075 N   0  0  0  0  0  0  0  0  0  0  0  0
  148.7526  140.3917  156.9611 C   0  0  0  0  0  0  0  0  0  0  0  0
  147.5842  141.1801  156.3540 C   0  0  0  0  0  0  0  0  0  0  0  0
  147.6893  141.7120  155.2482 O   0  0  0  0  0  0  0  0  0  0  0  0
  146.4690  141.2462  157.0961 N   0  0  0  0  0  0  0  0  0  0  0  0
  145.2543  141.9677  156.7267 C   0  0  0  0  0  0  0  0  0  0  0  0
  145.3081  143.4682  157.0826 C   0  0  0  0  0  0  0  0  0  0  0  0
  144.5468  144.3529  156.1099 C   0  0  0  0  0  0  0  0  0  0  0  0
  144.3117  145.7142  156.4069 C   0  0  0  0  0  0  0  0  0  0  0  0
  143.5909  146.5077  155.4908 C   0  0  0  0  0  0  0  0  0  0  0  0
  143.1242  145.9235  154.2957 C   0  0  0  0  0  0  0  0  0  0  0  0
  143.3707  144.6190  154.0441 N   0  3  0  0  0  0  0  0  0  0  0  0
  144.0555  143.8250  154.8967 C   0  0  0  0  0  0  0  0  0  0  0  0
  150.1712  142.0903  158.0921 C   0  0  0  0  0  0  0  0  0  0  0  0
  149.3843  142.3831  158.9925 O   0  0  0  0  0  0  0  0  0  0  0  0
  151.6799  140.5330  159.9285 H   0  0  0  0  0  0  0  0  0  0  0  0
  153.3762  140.7661  160.3172 H   0  0  0  0  0  0  0  0  0  0  0  0
  152.9144  140.2760  158.6979 H   0  0  0  0  0  0  0  0  0  0  0  0
  153.5341  142.6775  158.8035 H   0  0  0  0  0  0  0  0  0  0  0  0
  151.2419  142.9950  160.7816 H   0  0  0  0  0  0  0  0  0  0  0  0
  152.9417  143.1017  161.1434 H   0  0  0  0  0  0  0  0  0  0  0  0
  151.9318  145.3605  160.8734 H   0  0  0  0  0  0  0  0  0  0  0  0
  153.2043  145.0798  159.7104 H   0  0  0  0  0  0  0  0  0  0  0  0
  150.1995  144.8977  159.1849 H   0  0  0  0  0  0  0  0  0  0  0  0
  151.2816  146.1220  158.5817 H   0  0  0  0  0  0  0  0  0  0  0  0
  150.7971  144.4085  156.8382 H   0  0  0  0  0  0  0  0  0  0  0  0
  152.4955  144.5059  157.2053 H   0  0  0  0  0  0  0  0  0  0  0  0
  152.8853  142.0651  156.3207 H   0  0  0  0  0  0  0  0  0  0  0  0
  148.9464  139.5210  156.3324 H   0  0  0  0  0  0  0  0  0  0  0  0
  148.4609  139.9955  157.9357 H   0  0  0  0  0  0  0  0  0  0  0  0
  146.4650  140.7710  157.9872 H   0  0  0  0  0  0  0  0  0  0  0  0
  145.0475  141.8359  155.6637 H   0  0  0  0  0  0  0  0  0  0  0  0
  144.4270  141.4999  157.2607 H   0  0  0  0  0  0  0  0  0  0  0  0
  144.9112  143.6237  158.0865 H   0  0  0  0  0  0  0  0  0  0  0  0
  146.3470  143.7977  157.1205 H   0  0  0  0  0  0  0  0  0  0  0  0
  144.6709  146.1456  157.3303 H   0  0  0  0  0  0  0  0  0  0  0  0
  143.3963  147.5487  155.7048 H   0  0  0  0  0  0  0  0  0  0  0  0
  142.5651  146.4557  153.5400 H   0  0  0  0  0  0  0  0  0  0  0  0
  144.1850  142.7984  154.5861 H   0  0  0  0  0  0  0  0  0  0  0  0
  143.0241  144.2158  153.1732 H   0  0  0  0  0  0  0  0  0  0  0  0
  1  2  1  0  0  0  0
  1 26  1  0  0  0  0
  1 27  1  0  0  0  0
  1 28  1  0  0  0  0
  2  7  1  0  0  0  0
  2  3  1  0  0  0  0
  2 29  1  0  0  0  0
  3  4  1  0  0  0  0
  3 30  1  0  0  0  0
  3 31  1  0  0  0  0
  4  5  1  0  0  0  0
  4 32  1  0  0  0  0
  4 33  1  0  0  0  0
  5  6  1  0  0  0  0
  5 34  1  0  0  0  0
  5 35  1  0  0  0  0
  6  7  1  0  0  0  0
  6 36  1  0  0  0  0
  6 37  1  0  0  0  0
  7 24  1  0  0  0  0
  7  8  1  0  0  0  0
  8  9  1  0  0  0  0
  8 38  1  0  0  0  0
  9 10  2  0  0  0  0
  9 11  1  0  0  0  0
 11 12  1  0  0  0  0
 11 24  1  0  0  0  0
 12 13  1  0  0  0  0
 12 39  1  0  0  0  0
 12 40  1  0  0  0  0
 13 14  2  0  0  0  0
 13 15  1  0  0  0  0
 15 16  1  0  0  0  0
 15 41  1  0  0  0  0
 16 17  1  0  0  0  0
 16 42  1  0  0  0  0
 16 43  1  0  0  0  0
 17 18  1  0  0  0  0
 17 44  1  0  0  0  0
 17 45  1  0  0  0  0
 18 23  1  0  0  0  0
 18 19  2  0  0  0  0
 19 20  1  0  0  0  0
 19 46  1  0  0  0  0
 20 21  2  0  0  0  0
 20 47  1  0  0  0  0
 21 22  1  0  0  0  0
 21 48  1  0  0  0  0
 22 23  2  0  0  0  0
 22 50  1  0  0  0  0
 23 49  1  0  0  0  0
 24 25  2  0  0  0  0
M  CHG  1  22   1
M  END
> <s_m_source_file>
AV-unprocessed.smi

> <i_m_source_file_index>
837

> <i_lp_mmshare_version>
43012

> <i_f3d_flags>
0

> <s_epik_input>
W0NIMl0xW0NIMl1bQ0gyXVtDSDJdW0NAQEhdKFtDSDNdKVtDQEBdMTJbTkhdQyg9TylOKEMyPU8pW0NIMl1DKD1PKVtOSF1bQ0gyXVtDSDJdYzNbY0hdW2NIXVtjSF1uW2NIXTM=

> <s_epik_cmdline>
J2VwaWtfcHl0aG9uJywgJy1waCcsICc3LjAnLCAnLXRuJywgJzgnLCAnLW1hJywgJzIwMCcsICctbWV0YWxfYmluZGluZycsICctaW1hZScsICc8aW5maWxlLm1hZT4nLCAnLW9tYWUnLCAnPG91dGZpbGUubWFlPic=

> <r_lp_tautomer_probability>
1

> <r_epik_Ionization_Penalty>
2.28139

> <r_epik_Ionization_Penalty_Charging>
2.28135

> <r_epik_Ionization_Penalty_Neutral>
4.65525e-05

> <r_epik_State_Penalty>
2.43066

> <r_epik_Charging_Adjusted_Penalty>
4.71201

> <i_epik_Tot_Q>
1

> <i_epik_Tot_abs_Q>
1

> <r_epik_Metal_State_Penalty>
2.4646

> <b_epik_Metal_Only>
0

> <s_lp_Force_Field>
OPLS_2005

> <r_lp_Energy>
25.0324

> <b_lp_Chiralities_Consistent>
1

> <s_lp_Variant>
AV-unprocessed.smi:837-7

> <Gold.Version>
5.8.1

> <Gold.Id.Protein>
6NUR|6NUR_protein|mol2

> <Gold.PLP.Fitness>
47.5920

> <Gold.PLP.PLP>
-40.3189

> <Gold.PLP.part.hbond>
-3.0000

> <Gold.PLP.part.metal>
0.0000

> <Gold.PLP.part.buried>
-2.7529

> <Gold.PLP.part.nonpolar>
-36.3811

> <Gold.PLP.part.repulsive>
0.4828

> <Gold.PLP.ligand.clash>
0.0000

> <Gold.PLP.ligand.torsion>
0.7120

> <Gold.PLP.Chemscore.Hbond>
2.8880

> <Gold.PLP.Chemscore.CHOScore>
0.0000

> <Gold.PLP.Chemscore.Metal>
0.0000

> <Gold.Chemscore.Hbonds>
donor molecule, donor type, donor heavy atom, donor atom, acceptor molecule, acceptor atom, score
      L1  H    22    50       P1 10174  1.89
      P1  H  7989  7998       L1    10  1.00

> <Gold.PLP.Chemscore.Internal.Correction>
0.0332

> <Gold.Rescore>
     Score         DG    S(hbond)    S(metal)    S(lipo)     H(rot)  DE(clash)    DE(int)     intcor
     17.22     -19.78       1.86        0.00     112.08       1.96       1.88       0.68       ----

> <Gold.Chemscore.Fitness>
17.2166

> <Gold.Chemscore.DG>
-19.7804

> <Gold.Chemscore.ZeroCoef>
-5.4800

> <Gold.Chemscore.Hbond>
1.8606

> <Gold.Chemscore.Metal>
0.0000

> <Gold.Chemscore.Lipo>
112.0799

> <Gold.Chemscore.Internal_Hbond>
0.0000

> <Gold.Chemscore.DEClash>
1.8824

> <Gold.Chemscore.DEInternal>
0.6814

> <Gold.Chemscore.Rot>
1.9638

> <Gold.Chemscore.Internal.Correction>
   9.000000E+99

> <Gold.Chemscore.Hbonds>
donor molecule, donor type, donor heavy atom, donor atom, acceptor molecule, acceptor atom, score
      L1  H    22    50       P1 10174  0.85
      P1  H  7989  7998       L1    10  0.93

> <Gold.Chemscore.Hbond.Weighted>
-6.2144

> <Gold.Chemscore.Metal.Weighted>
-0.0000

> <Gold.Chemscore.Lipo.Weighted>
-13.1133

> <Gold.Chemscore.Internal_Hbond.Weighted>
0.0000

> <Gold.Chemscore.DEClash.Weighted>
1.8824

> <Gold.Chemscore.DEInternal.Weighted>
0.6814

> <Gold.Chemscore.Rot.Weighted>
5.0274

> <Gold.Chemscore.Internal.Correction.Weighted>
   9.000000E+99

> <Gold.Protein.RotatedTorsions>
[ 6907 6896 6895 6894 ] final  -50.81 input  -60.11 | X-H torsion
[ 7974 7965 7964 7962 ] final -142.06 input  175.53 | X-H torsion
[ 8008 7997 7996 7995 ] final  113.76 input   59.86 | X-H torsion
[ 10167 10162 10161 10158 ] final  135.59 input  -65.29 | X-H torsion
[ 10718 10713 10712 10709 ] final   93.70 input   66.30 | X-H torsion
[ 10763 10752 10751 10750 ] final -100.26 input  -60.55 | X-H torsion
[ 11005 11000 10999 10996 ] final -154.12 input  -57.11 | X-H torsion

> <Gold.Protein.ActiveResidues>
 VAL166  LYS551  ARG553  GLY616  TRP617  ASP618  TYR619  PRO620  LYS621  CYS622 
 ASP623  PHE694  ASN695  SER759  ASP760  ASP761  ALA762  ILE779  LEU786  VAL792 
 PHE793  MET794  SER795  GLU796  ALA797  LYS798  CYS799  TRP800  GLU811  SER814 

> <Gold.Protein.RotatedAtoms>
  150.8671  134.8037  159.7126 H   0  0  0  0  0  0  0  0  0  0  0  0  # atno 6907 bound_to 6896
  152.4689  134.5006  159.9733 H   0  0  0  0  0  0  0  0  0  0  0  0  # atno 6908 bound_to 6896
  151.5100  133.3448  159.2919 H   0  0  0  0  0  0  0  0  0  0  0  0  # atno 6909 bound_to 6896
  144.8472  140.6004  143.5414 H   0  0  0  0  0  0  0  0  0  0  0  0  # atno 7974 bound_to 7965
  156.2278  140.2973  156.0112 H   0  0  0  0  0  0  0  0  0  0  0  0  # atno 8008 bound_to 7997
  155.2308  140.0419  157.2979 H   0  0  0  0  0  0  0  0  0  0  0  0  # atno 8009 bound_to 7997
  154.5945  140.2410  155.7883 H   0  0  0  0  0  0  0  0  0  0  0  0  # atno 8010 bound_to 7997
  139.5211  144.6509  151.5305 H   0  0  0  0  0  0  0  0  0  0  0  0  # atno 10167 bound_to 10162
  157.6953  131.0487  150.4073 H   0  0  0  0  0  0  0  0  0  0  0  0  # atno 10718 bound_to 10713
  154.7565  135.4941  153.9384 H   0  0  0  0  0  0  0  0  0  0  0  0  # atno 10763 bound_to 10752
  153.1201  135.6730  153.9357 H   0  0  0  0  0  0  0  0  0  0  0  0  # atno 10764 bound_to 10752
  153.9092  135.3101  155.3427 H   0  0  0  0  0  0  0  0  0  0  0  0  # atno 10765 bound_to 10752
  140.7008  134.3940  157.5210 H   0  0  0  0  0  0  0  0  0  0  0  0  # atno 11005 bound_to 11000
  145.4574  139.1516  143.3885 LP  0  0  0  0  0  0  0  0  0  0  0  0  # atno 17320 bound_to 7965
  146.2754  140.4702  142.8797 LP  0  0  0  0  0  0  0  0  0  0  0  0  # atno 17321 bound_to 7965
  140.6313  143.9070  150.6608 LP  0  0  0  0  0  0  0  0  0  0  0  0  # atno 17342 bound_to 10162
  140.2375  143.3689  152.1514 LP  0  0  0  0  0  0  0  0  0  0  0  0  # atno 17343 bound_to 10162
  156.4461  130.4001  149.6666 LP  0  0  0  0  0  0  0  0  0  0  0  0  # atno 17370 bound_to 10713
  156.3832  130.7590  151.2584 LP  0  0  0  0  0  0  0  0  0  0  0  0  # atno 17371 bound_to 10713
  139.8897  134.8823  156.2406 LP  0  0  0  0  0  0  0  0  0  0  0  0  # atno 17394 bound_to 11000
  141.0165  133.7065  156.1198 LP  0  0  0  0  0  0  0  0  0  0  0  0  # atno 17395 bound_to 11000

$$$$
