AV-unprocessed.smi:3049|AV-procd|sdf|11629|dock2
  -GOLD-   2272017 13D 1   1.00000     0.00000
 Structure written by MMmdl.
 53 54  0  0  0  0  0  0  0  0  1 V2000
  151.5539  141.1708  158.7205 C   0  0  0  0  0  0  0  0  0  0  0  0
  150.7803  141.7574  157.5316 C   0  0  0  0  0  0  0  0  0  0  0  0
  150.3915  140.7112  156.4620 C   0  0  0  0  0  0  0  0  0  0  0  0
  151.6278  139.9453  155.9261 C   0  0  0  0  0  0  0  0  0  0  0  0
  151.3174  138.9802  154.7698 C   0  0  0  0  0  0  0  0  0  0  0  0
  149.6024  141.4038  155.3260 C   0  0  0  0  0  0  0  0  0  0  0  0
  150.1766  142.2720  154.6662 O   0  0  0  0  0  0  0  0  0  0  0  0
  148.3292  141.0242  155.0514 N   0  0  0  0  0  0  0  0  0  0  0  0
  147.6371  141.4206  153.8197 C   0  0  0  0  0  0  0  0  0  0  0  0
  147.5149  140.1813  152.9131 C   0  0  0  0  0  0  0  0  0  0  0  0
  146.8050  139.0155  153.6377 C   0  0  0  0  0  0  0  0  0  0  0  0
  146.8901  137.8078  152.8222 N   0  0  0  0  0  0  0  0  0  0  0  0
  145.8429  137.1056  152.3658 C   0  0  0  0  0  0  0  0  0  0  0  0
  144.6738  137.4079  152.6035 O   0  0  0  0  0  0  0  0  0  0  0  0
  146.2544  136.0542  151.6323 N   0  0  0  0  0  0  0  0  0  0  0  0
  145.4933  135.0861  150.9596 C   0  0  0  0  0  0  0  0  0  0  0  0
  144.3497  135.3188  150.2799 C   0  0  0  0  0  0  0  0  0  0  0  0
  143.6659  134.2845  149.6353 N   0  0  0  0  0  0  0  0  0  0  0  0
  144.0682  132.9934  149.6243 C   0  0  0  0  0  0  0  0  0  0  0  0
  143.4113  132.1401  149.0304 O   0  0  0  0  0  0  0  0  0  0  0  0
  145.3126  132.7133  150.3582 C   0  0  0  0  0  0  0  0  0  0  0  0
  145.8197  131.2825  150.3883 C   0  0  0  0  0  0  0  0  0  0  0  0
  145.9708  133.7159  150.9837 C   0  0  0  0  0  0  0  0  0  0  0  0
  147.4029  138.7678  155.0433 C   0  0  0  0  0  0  0  0  0  0  0  0
  147.5143  140.0847  155.8305 C   0  0  0  0  0  0  0  0  0  0  0  0
  142.8167  134.5317  149.1481 H   0  0  0  0  0  0  0  0  0  0  0  0
  151.7490  141.9394  159.4686 H   0  0  0  0  0  0  0  0  0  0  0  0
  152.5167  140.7617  158.4158 H   0  0  0  0  0  0  0  0  0  0  0  0
  150.9873  140.3751  159.2047 H   0  0  0  0  0  0  0  0  0  0  0  0
  149.8823  142.2363  157.9257 H   0  0  0  0  0  0  0  0  0  0  0  0
  151.3669  142.5556  157.0747 H   0  0  0  0  0  0  0  0  0  0  0  0
  149.7635  139.9518  156.9245 H   0  0  0  0  0  0  0  0  0  0  0  0
  152.4052  140.6458  155.6175 H   0  0  0  0  0  0  0  0  0  0  0  0
  152.0674  139.3601  156.7331 H   0  0  0  0  0  0  0  0  0  0  0  0
  152.2109  138.4262  154.4810 H   0  0  0  0  0  0  0  0  0  0  0  0
  150.9603  139.5065  153.8845 H   0  0  0  0  0  0  0  0  0  0  0  0
  150.5564  138.2543  155.0574 H   0  0  0  0  0  0  0  0  0  0  0  0
  146.6474  141.8102  154.0625 H   0  0  0  0  0  0  0  0  0  0  0  0
  148.1461  142.2218  153.2824 H   0  0  0  0  0  0  0  0  0  0  0  0
  146.9756  140.4393  152.0010 H   0  0  0  0  0  0  0  0  0  0  0  0
  148.5141  139.8703  152.6032 H   0  0  0  0  0  0  0  0  0  0  0  0
  145.7564  139.2952  153.7564 H   0  0  0  0  0  0  0  0  0  0  0  0
  147.8169  137.4884  152.5818 H   0  0  0  0  0  0  0  0  0  0  0  0
  147.2533  135.9398  151.5427 H   0  0  0  0  0  0  0  0  0  0  0  0
  143.8633  136.2735  150.1593 H   0  0  0  0  0  0  0  0  0  0  0  0
  146.7496  131.2012  150.9520 H   0  0  0  0  0  0  0  0  0  0  0  0
  146.0069  130.9227  149.3760 H   0  0  0  0  0  0  0  0  0  0  0  0
  145.0837  130.6272  150.8554 H   0  0  0  0  0  0  0  0  0  0  0  0
  146.8818  133.4919  151.5196 H   0  0  0  0  0  0  0  0  0  0  0  0
  146.7870  138.0566  155.5949 H   0  0  0  0  0  0  0  0  0  0  0  0
  148.3928  138.3171  154.9542 H   0  0  0  0  0  0  0  0  0  0  0  0
  147.8851  139.9119  156.8394 H   0  0  0  0  0  0  0  0  0  0  0  0
  146.5193  140.5086  155.9741 H   0  0  0  0  0  0  0  0  0  0  0  0
  1  2  1  0  0  0  0
  1 27  1  0  0  0  0
  1 28  1  0  0  0  0
  1 29  1  0  0  0  0
  2  3  1  0  0  0  0
  2 30  1  0  0  0  0
  2 31  1  0  0  0  0
  3  4  1  0  0  0  0
  3  6  1  0  0  0  0
  3 32  1  0  0  0  0
  4  5  1  0  0  0  0
  4 33  1  0  0  0  0
  4 34  1  0  0  0  0
  5 35  1  0  0  0  0
  5 36  1  0  0  0  0
  5 37  1  0  0  0  0
  6  7  2  0  0  0  0
  6  8  1  0  0  0  0
  8 25  1  0  0  0  0
  8  9  1  0  0  0  0
  9 10  1  0  0  0  0
  9 38  1  0  0  0  0
  9 39  1  0  0  0  0
 10 11  1  0  0  0  0
 10 40  1  0  0  0  0
 10 41  1  0  0  0  0
 11 12  1  0  0  0  0
 11 24  1  0  0  0  0
 11 42  1  0  0  0  0
 12 13  1  0  0  0  0
 12 43  1  0  0  0  0
 13 14  2  0  0  0  0
 13 15  1  0  0  0  0
 15 16  1  0  0  0  0
 15 44  1  0  0  0  0
 16 23  1  0  0  0  0
 16 17  2  0  0  0  0
 17 18  1  0  0  0  0
 17 45  1  0  0  0  0
 18 26  1  0  0  0  0
 18 19  1  0  0  0  0
 19 20  2  0  0  0  0
 19 21  1  0  0  0  0
 21 22  1  0  0  0  0
 21 23  2  0  0  0  0
 22 46  1  0  0  0  0
 22 47  1  0  0  0  0
 22 48  1  0  0  0  0
 23 49  1  0  0  0  0
 24 25  1  0  0  0  0
 24 50  1  0  0  0  0
 24 51  1  0  0  0  0
 25 52  1  0  0  0  0
 25 53  1  0  0  0  0
M  END
> <s_m_source_file>
AV-unprocessed.smi

> <i_m_source_file_index>
3049

> <i_lp_mmshare_version>
43012

> <i_f3d_flags>
0

> <s_epik_input>
W0NIM11bQ0gyXVtDSF0oW0NIMl1bQ0gzXSlDKD1PKU4xW0NIMl1bQ0gyXVtDSF0oW0NIMl1bQ0gyXTEpW05IXUMoPU8pW05IXWMyW2NIXVtuSF1jKD1PKWMoW0NIM10pW2NIXTI=

> <s_epik_cmdline>
J2VwaWtfcHl0aG9uJywgJy1waCcsICc3LjAnLCAnLXRuJywgJzgnLCAnLW1hJywgJzIwMCcsICctbWV0YWxfYmluZGluZycsICctaW1hZScsICc8aW5maWxlLm1hZT4nLCAnLW9tYWUnLCAnPG91dGZpbGUubWFlPic=

> <r_lp_tautomer_probability>
1

> <r_epik_Ionization_Penalty>
4.67669e-05

> <r_epik_Ionization_Penalty_Charging>
2.70095e-05

> <r_epik_Ionization_Penalty_Neutral>
1.97573e-05

> <r_epik_State_Penalty>
-0

> <r_epik_Charging_Adjusted_Penalty>
2.70095e-05

> <i_epik_Tot_Q>
0

> <i_epik_Tot_abs_Q>
0

> <r_epik_Metal_State_Penalty>
0.0201042

> <b_epik_Metal_Only>
0

> <s_lp_Force_Field>
OPLS_2005

> <r_lp_Energy>
36.2408

> <b_lp_Chiralities_Consistent>
1

> <s_lp_Variant>
AV-unprocessed.smi:3049-1

> <Gold.Version>
5.8.1

> <Gold.Id.Protein>
6NUR|6NUR_protein|mol2

> <Gold.PLP.Fitness>
53.8303

> <Gold.PLP.PLP>
-40.5434

> <Gold.PLP.part.hbond>
-6.6816

> <Gold.PLP.part.metal>
0.0000

> <Gold.PLP.part.buried>
3.7786

> <Gold.PLP.part.nonpolar>
-39.0500

> <Gold.PLP.part.repulsive>
2.3027

> <Gold.PLP.ligand.clash>
0.0000

> <Gold.PLP.ligand.torsion>
0.3987

> <Gold.PLP.Chemscore.Hbond>
3.6124

> <Gold.PLP.Chemscore.CHOScore>
1.0000

> <Gold.PLP.Chemscore.Metal>
0.0000

> <Gold.Chemscore.Hbonds>
donor molecule, donor type, donor heavy atom, donor atom, acceptor molecule, acceptor atom, score
      L1  H    12    43       P1  7948  1.00
      L1  H    15    44       P1  7948  1.00
      L1  H    18    26       P1 10186  0.72
      P1  H  7989  7998       L1     7  0.01
      P1  H  8011  8017       L1     7  0.02
      P1  H 10785 10796       L1    20  0.94
      L1  C    17    45       P1 10171  1.00

> <Gold.PLP.Chemscore.Internal.Correction>
0.2469

> <Gold.Rescore>
     Score         DG    S(hbond)    S(metal)    S(lipo)     H(rot)  DE(clash)    DE(int)     intcor
     21.80     -24.26       3.83        0.00      85.45       1.57       1.98       0.48       ----

> <Gold.Chemscore.Fitness>
21.7985

> <Gold.Chemscore.DG>
-24.2585

> <Gold.Chemscore.ZeroCoef>
-5.4800

> <Gold.Chemscore.Hbond>
3.8288

> <Gold.Chemscore.Metal>
0.0000

> <Gold.Chemscore.Lipo>
85.4483

> <Gold.Chemscore.Internal_Hbond>
0.0000

> <Gold.Chemscore.DEClash>
1.9754

> <Gold.Chemscore.DEInternal>
0.4847

> <Gold.Chemscore.Rot>
1.5653

> <Gold.Chemscore.Internal.Correction>
   9.000000E+99

> <Gold.Chemscore.Hbonds>
donor molecule, donor type, donor heavy atom, donor atom, acceptor molecule, acceptor atom, score
      L1  H    12    43       P1  7948  0.96
      L1  H    15    44       P1  7948  0.99
      L1  H    18    26       P1 10186  0.72
      P1  H  7989  7998       L1     7  0.01
      P1  H  8011  8017       L1     7  0.03
      P1  H 10785 10796       L1    20  0.85

> <Gold.Chemscore.Hbond.Weighted>
-12.7883

> <Gold.Chemscore.Metal.Weighted>
-0.0000

> <Gold.Chemscore.Lipo.Weighted>
-9.9974

> <Gold.Chemscore.Internal_Hbond.Weighted>
0.0000

> <Gold.Chemscore.DEClash.Weighted>
1.9754

> <Gold.Chemscore.DEInternal.Weighted>
0.4847

> <Gold.Chemscore.Rot.Weighted>
4.0072

> <Gold.Chemscore.Internal.Correction.Weighted>
   9.000000E+99

> <Gold.Protein.RotatedTorsions>
[ 6907 6896 6895 6894 ] final  -17.24 input  -60.11 | X-H torsion
[ 7974 7965 7964 7962 ] final  130.38 input  175.53 | X-H torsion
[ 8008 7997 7996 7995 ] final -108.29 input   59.86 | X-H torsion
[ 10167 10162 10161 10158 ] final -176.85 input  -65.29 | X-H torsion
[ 10718 10713 10712 10709 ] final  153.22 input   66.30 | X-H torsion
[ 10763 10752 10751 10750 ] final   98.54 input  -60.55 | X-H torsion
[ 11005 11000 10999 10996 ] final   28.29 input  -57.11 | X-H torsion

> <Gold.Protein.ActiveResidues>
 VAL166  LYS551  ARG553  GLY616  TRP617  ASP618  TYR619  PRO620  LYS621  CYS622 
 ASP623  PHE694  ASN695  SER759  ASP760  ASP761  ALA762  ILE779  LEU786  VAL792 
 PHE793  MET794  SER795  GLU796  ALA797  LYS798  CYS799  TRP800  GLU811  SER814 

> <Gold.Protein.RotatedAtoms>
  151.2964  135.0756  159.9222 H   0  0  0  0  0  0  0  0  0  0  0  0  # atno 6907 bound_to 6896
  152.5306  133.9878  159.7847 H   0  0  0  0  0  0  0  0  0  0  0  0  # atno 6908 bound_to 6896
  151.0157  133.5872  159.2707 H   0  0  0  0  0  0  0  0  0  0  0  0  # atno 6909 bound_to 6896
  145.0185  139.4154  143.5209 H   0  0  0  0  0  0  0  0  0  0  0  0  # atno 7974 bound_to 7965
  154.9421  140.0402  157.2102 H   0  0  0  0  0  0  0  0  0  0  0  0  # atno 8008 bound_to 7997
  154.8059  140.2859  155.5866 H   0  0  0  0  0  0  0  0  0  0  0  0  # atno 8009 bound_to 7997
  156.2966  140.2546  156.2937 H   0  0  0  0  0  0  0  0  0  0  0  0  # atno 8010 bound_to 7997
  139.5509  144.2111  152.1075 H   0  0  0  0  0  0  0  0  0  0  0  0  # atno 10167 bound_to 10162
  157.2476  131.0772  151.1751 H   0  0  0  0  0  0  0  0  0  0  0  0  # atno 10718 bound_to 10713
  153.2903  135.4145  155.1160 H   0  0  0  0  0  0  0  0  0  0  0  0  # atno 10763 bound_to 10752
  154.8518  135.3516  154.5990 H   0  0  0  0  0  0  0  0  0  0  0  0  # atno 10764 bound_to 10752
  153.6413  135.7057  153.5298 H   0  0  0  0  0  0  0  0  0  0  0  0  # atno 10765 bound_to 10752
  140.3172  134.2584  155.7723 H   0  0  0  0  0  0  0  0  0  0  0  0  # atno 11005 bound_to 11000
  146.3481  139.9669  142.8711 LP  0  0  0  0  0  0  0  0  0  0  0  0  # atno 17320 bound_to 7965
  145.1927  140.9819  143.4201 LP  0  0  0  0  0  0  0  0  0  0  0  0  # atno 17321 bound_to 7965
  140.1607  144.5029  150.6634 LP  0  0  0  0  0  0  0  0  0  0  0  0  # atno 17342 bound_to 10162
  140.6771  143.2310  151.5478 LP  0  0  0  0  0  0  0  0  0  0  0  0  # atno 17343 bound_to 10162
  157.3312  130.6986  149.6325 LP  0  0  0  0  0  0  0  0  0  0  0  0  # atno 17370 bound_to 10713
  155.9667  130.4307  150.4887 LP  0  0  0  0  0  0  0  0  0  0  0  0  # atno 17371 bound_to 10713
  141.2095  133.7747  156.9993 LP  0  0  0  0  0  0  0  0  0  0  0  0  # atno 17394 bound_to 11000
  140.0973  134.9556  157.1869 LP  0  0  0  0  0  0  0  0  0  0  0  0  # atno 17395 bound_to 11000

$$$$
