AV-unprocessed.smi:3293|AV-procd|sdf|12631|dock7
  -GOLD-   2272018563D 1   1.00000     0.00000
 Structure written by MMmdl.
 44 45  0  0  0  0  0  0  0  0  2 V2000
  150.6667  138.3735  153.8319 C   0  0  0  0  0  0  0  0  0  0  0  0
  150.0612  139.5804  154.5293 C   0  0  0  0  0  0  0  0  0  0  0  0
  150.6963  140.1328  155.5805 C   0  0  0  0  0  0  0  0  0  0  0  0
  150.2270  141.3742  156.3030 C   0  0  0  0  0  0  0  0  0  0  0  0
  149.2860  142.1980  155.4211 C   0  0  0  0  0  0  0  0  0  0  0  0
  148.1722  141.3247  154.8207 C   0  0  1  0  0  0  0  0  0  0  0  0
  147.2031  142.2126  154.0167 C   0  0  0  0  0  0  0  0  0  0  0  0
  148.7339  140.1391  153.9761 C   0  0  2  0  0  0  0  0  0  0  0  0
  147.6462  139.0444  153.8113 C   0  0  0  0  0  0  0  0  0  0  0  0
  147.5784  138.4979  152.4402 N   0  3  0  0  0  0  0  0  0  0  0  0
  146.2047  138.2662  151.9536 C   0  0  0  0  0  0  0  0  0  0  0  0
  146.1632  137.1194  150.9352 C   0  0  0  0  0  0  0  0  0  0  0  0
  145.1762  136.0604  151.3399 C   0  0  0  0  0  0  0  0  0  0  0  0
  144.2149  136.1176  152.3894 C   0  0  0  0  0  0  0  0  0  0  0  0
  143.4884  135.0162  152.4821 N   0  0  0  0  0  0  0  0  0  0  0  0
  143.9579  134.2195  151.5004 N   0  0  0  0  0  0  0  0  0  0  0  0
  143.3790  132.9071  151.3079 C   0  0  0  0  0  0  0  0  0  0  0  0
  144.9789  134.8215  150.7971 C   0  0  0  0  0  0  0  0  0  0  0  0
  150.7230  138.5413  152.7562 H   0  0  0  0  0  0  0  0  0  0  0  0
  150.0776  137.4768  154.0220 H   0  0  0  0  0  0  0  0  0  0  0  0
  151.6785  138.1772  154.1881 H   0  0  0  0  0  0  0  0  0  0  0  0
  151.6119  139.6937  155.9495 H   0  0  0  0  0  0  0  0  0  0  0  0
  149.7324  141.0753  157.2277 H   0  0  0  0  0  0  0  0  0  0  0  0
  151.0925  141.9761  156.5811 H   0  0  0  0  0  0  0  0  0  0  0  0
  148.8593  143.0111  156.0095 H   0  0  0  0  0  0  0  0  0  0  0  0
  149.8569  142.6658  154.6175 H   0  0  0  0  0  0  0  0  0  0  0  0
  147.6156  140.9061  155.6610 H   0  0  0  0  0  0  0  0  0  0  0  0
  147.7006  142.6614  153.1563 H   0  0  0  0  0  0  0  0  0  0  0  0
  146.8183  143.0258  154.6329 H   0  0  0  0  0  0  0  0  0  0  0  0
  146.3398  141.6608  153.6480 H   0  0  0  0  0  0  0  0  0  0  0  0
  148.9754  140.5340  152.9880 H   0  0  0  0  0  0  0  0  0  0  0  0
  147.8300  138.2363  154.5209 H   0  0  0  0  0  0  0  0  0  0  0  0
  146.6570  139.4348  154.0446 H   0  0  0  0  0  0  0  0  0  0  0  0
  148.0416  139.1411  151.8142 H   0  0  0  0  0  0  0  0  0  0  0  0
  145.5600  138.0332  152.8023 H   0  0  0  0  0  0  0  0  0  0  0  0
  145.8249  139.1831  151.5005 H   0  0  0  0  0  0  0  0  0  0  0  0
  145.9105  137.5181  149.9521 H   0  0  0  0  0  0  0  0  0  0  0  0
  147.1612  136.6909  150.8338 H   0  0  0  0  0  0  0  0  0  0  0  0
  144.0228  136.9242  153.0815 H   0  0  0  0  0  0  0  0  0  0  0  0
  143.7137  132.4873  150.3589 H   0  0  0  0  0  0  0  0  0  0  0  0
  142.2909  132.9775  151.2985 H   0  0  0  0  0  0  0  0  0  0  0  0
  143.6888  132.2468  152.1182 H   0  0  0  0  0  0  0  0  0  0  0  0
  145.4734  134.3250  149.9751 H   0  0  0  0  0  0  0  0  0  0  0  0
  148.0740  137.6179  152.4241 H   0  0  0  0  0  0  0  0  0  0  0  0
  1  2  1  0  0  0  0
  1 19  1  0  0  0  0
  1 20  1  0  0  0  0
  1 21  1  0  0  0  0
  2  8  1  0  0  0  0
  2  3  2  0  0  0  0
  3  4  1  0  0  0  0
  3 22  1  0  0  0  0
  4  5  1  0  0  0  0
  4 23  1  0  0  0  0
  4 24  1  0  0  0  0
  5  6  1  0  0  0  0
  5 25  1  0  0  0  0
  5 26  1  0  0  0  0
  6  7  1  0  0  0  0
  6  8  1  0  0  0  0
  6 27  1  0  0  0  0
  7 28  1  0  0  0  0
  7 29  1  0  0  0  0
  7 30  1  0  0  0  0
  8  9  1  0  0  0  0
  8 31  1  0  0  0  0
  9 10  1  0  0  0  0
  9 32  1  0  0  0  0
  9 33  1  0  0  0  0
 10 11  1  0  0  0  0
 10 34  1  0  0  0  0
 10 44  1  0  0  0  0
 11 12  1  0  0  0  0
 11 35  1  0  0  0  0
 11 36  1  0  0  0  0
 12 13  1  0  0  0  0
 12 37  1  0  0  0  0
 12 38  1  0  0  0  0
 13 18  2  0  0  0  0
 13 14  1  0  0  0  0
 14 15  2  0  0  0  0
 14 39  1  0  0  0  0
 15 16  1  0  0  0  0
 16 17  1  0  0  0  0
 16 18  1  0  0  0  0
 17 40  1  0  0  0  0
 17 41  1  0  0  0  0
 17 42  1  0  0  0  0
 18 43  1  0  0  0  0
M  CHG  1  10   1
M  END
> <s_m_source_file>
AV-unprocessed.smi

> <i_m_source_file_index>
3293

> <i_lp_mmshare_version>
43012

> <i_f3d_flags>
0

> <s_epik_input>
W0NIM11DMT1bQ0hdW0NIMl1bQ0gyXVtDQEBIXShbQ0gzXSlbQ0BIXTFbQ0gyXVtOSF1bQ0gyXVtDSDJdYzJbY0hdbm4oW0NIM10pW2NIXTI=

> <s_epik_cmdline>
J2VwaWtfcHl0aG9uJywgJy1waCcsICc3LjAnLCAnLXRuJywgJzgnLCAnLW1hJywgJzIwMCcsICctbWV0YWxfYmluZGluZycsICctaW1hZScsICc8aW5maWxlLm1hZT4nLCAnLW9tYWUnLCAnPG91dGZpbGUubWFlPic=

> <r_lp_tautomer_probability>
1

> <r_epik_Ionization_Penalty>
0.000598621

> <r_epik_Ionization_Penalty_Charging>
0.000582095

> <r_epik_Ionization_Penalty_Neutral>
1.65262e-05

> <r_epik_State_Penalty>
-0

> <r_epik_Charging_Adjusted_Penalty>
0.000582095

> <i_epik_Tot_Q>
1

> <i_epik_Tot_abs_Q>
1

> <r_epik_Metal_State_Penalty>
-0

> <b_epik_Metal_Only>
0

> <s_lp_Force_Field>
OPLS_2005

> <r_lp_Energy>
11.8092

> <b_lp_Chiralities_Consistent>
1

> <s_lp_Variant>
AV-unprocessed.smi:3293-3

> <Gold.Version>
5.8.1

> <Gold.Id.Protein>
6NUR|6NUR_protein|mol2

> <Gold.PLP.Fitness>
45.5073

> <Gold.PLP.PLP>
-36.3752

> <Gold.PLP.part.hbond>
-2.0000

> <Gold.PLP.part.metal>
0.0000

> <Gold.PLP.part.buried>
4.9415

> <Gold.PLP.part.nonpolar>
-39.9490

> <Gold.PLP.part.repulsive>
0.2184

> <Gold.PLP.ligand.clash>
0.0000

> <Gold.PLP.ligand.torsion>
1.4612

> <Gold.PLP.Chemscore.Hbond>
3.0000

> <Gold.PLP.Chemscore.CHOScore>
1.0000

> <Gold.PLP.Chemscore.Metal>
0.0000

> <Gold.Chemscore.Hbonds>
donor molecule, donor type, donor heavy atom, donor atom, acceptor molecule, acceptor atom, score
      L1  H    10    34       P1  7957  1.00
      L1  H    10    44       P1  7948  2.00
      L1  C    18    43       P1  7921  1.00

> <Gold.PLP.Chemscore.Internal.Correction>
0.0544

> <Gold.Rescore>
     Score         DG    S(hbond)    S(metal)    S(lipo)     H(rot)  DE(clash)    DE(int)     intcor
     15.65     -19.65       1.92        0.00      98.68       1.48       2.60       1.40       ----

> <Gold.Chemscore.Fitness>
15.6515

> <Gold.Chemscore.DG>
-19.6514

> <Gold.Chemscore.ZeroCoef>
-5.4800

> <Gold.Chemscore.Hbond>
1.9241

> <Gold.Chemscore.Metal>
0.0000

> <Gold.Chemscore.Lipo>
98.6799

> <Gold.Chemscore.Internal_Hbond>
0.0000

> <Gold.Chemscore.DEClash>
2.5963

> <Gold.Chemscore.DEInternal>
1.4035

> <Gold.Chemscore.Rot>
1.4847

> <Gold.Chemscore.Internal.Correction>
   9.000000E+99

> <Gold.Chemscore.Hbonds>
donor molecule, donor type, donor heavy atom, donor atom, acceptor molecule, acceptor atom, score
      L1  H    10    34       P1  7957  0.95
      L1  H    10    44       P1  7948  1.00

> <Gold.Chemscore.Hbond.Weighted>
-6.4266

> <Gold.Chemscore.Metal.Weighted>
-0.0000

> <Gold.Chemscore.Lipo.Weighted>
-11.5455

> <Gold.Chemscore.Internal_Hbond.Weighted>
0.0000

> <Gold.Chemscore.DEClash.Weighted>
2.5963

> <Gold.Chemscore.DEInternal.Weighted>
1.4035

> <Gold.Chemscore.Rot.Weighted>
3.8008

> <Gold.Chemscore.Internal.Correction.Weighted>
   9.000000E+99

> <Gold.Protein.RotatedTorsions>
[ 6907 6896 6895 6894 ] final -130.43 input  -60.11 | X-H torsion
[ 7974 7965 7964 7962 ] final  153.78 input  175.53 | X-H torsion
[ 8008 7997 7996 7995 ] final  -30.24 input   59.86 | X-H torsion
[ 10167 10162 10161 10158 ] final  -97.48 input  -65.29 | X-H torsion
[ 10718 10713 10712 10709 ] final  -54.85 input   66.30 | X-H torsion
[ 10763 10752 10751 10750 ] final   35.73 input  -60.55 | X-H torsion
[ 11005 11000 10999 10996 ] final  153.49 input  -57.11 | X-H torsion

> <Gold.Protein.ActiveResidues>
 VAL166  LYS551  ARG553  GLY616  TRP617  ASP618  TYR619  PRO620  LYS621  CYS622 
 ASP623  PHE694  ASN695  SER759  ASP760  ASP761  ALA762  ILE779  LEU786  VAL792 
 PHE793  MET794  SER795  GLU796  ALA797  LYS798  CYS799  TRP800  GLU811  SER814 

> <Gold.Protein.RotatedAtoms>
  150.9396  133.6671  159.2793 H   0  0  0  0  0  0  0  0  0  0  0  0  # atno 6907 bound_to 6896
  151.4065  135.0977  159.9581 H   0  0  0  0  0  0  0  0  0  0  0  0  # atno 6908 bound_to 6896
  152.5063  133.8879  159.7434 H   0  0  0  0  0  0  0  0  0  0  0  0  # atno 6909 bound_to 6896
  144.8132  139.6846  143.6133 H   0  0  0  0  0  0  0  0  0  0  0  0  # atno 7974 bound_to 7965
  154.4258  140.1796  156.1376 H   0  0  0  0  0  0  0  0  0  0  0  0  # atno 8008 bound_to 7997
  156.0018  140.3359  155.6828 H   0  0  0  0  0  0  0  0  0  0  0  0  # atno 8009 bound_to 7997
  155.6233  140.0662  157.2662 H   0  0  0  0  0  0  0  0  0  0  0  0  # atno 8010 bound_to 7997
  140.2830  143.3270  152.0422 H   0  0  0  0  0  0  0  0  0  0  0  0  # atno 10167 bound_to 10162
  156.1416  130.4154  150.0093 H   0  0  0  0  0  0  0  0  0  0  0  0  # atno 10718 bound_to 10713
  153.0107  135.6325  154.1873 H   0  0  0  0  0  0  0  0  0  0  0  0  # atno 10763 bound_to 10752
  154.1615  135.2823  155.3109 H   0  0  0  0  0  0  0  0  0  0  0  0  # atno 10764 bound_to 10752
  154.5978  135.5597  153.7403 H   0  0  0  0  0  0  0  0  0  0  0  0  # atno 10765 bound_to 10752
  140.1403  134.8743  157.2321 H   0  0  0  0  0  0  0  0  0  0  0  0  # atno 11005 bound_to 11000
  146.2432  139.6045  142.9477 LP  0  0  0  0  0  0  0  0  0  0  0  0  # atno 17320 bound_to 7965
  145.5276  141.0429  143.2401 LP  0  0  0  0  0  0  0  0  0  0  0  0  # atno 17321 bound_to 7965
  139.4957  144.6578  151.6532 LP  0  0  0  0  0  0  0  0  0  0  0  0  # atno 17342 bound_to 10162
  140.5796  143.9969  150.6261 LP  0  0  0  0  0  0  0  0  0  0  0  0  # atno 17343 bound_to 10162
  156.7977  130.9279  151.3646 LP  0  0  0  0  0  0  0  0  0  0  0  0  # atno 17370 bound_to 10713
  157.6581  130.8942  149.9771 LP  0  0  0  0  0  0  0  0  0  0  0  0  # atno 17371 bound_to 10713
  140.2731  134.3437  155.7367 LP  0  0  0  0  0  0  0  0  0  0  0  0  # atno 17394 bound_to 11000
  141.2185  133.7435  156.9252 LP  0  0  0  0  0  0  0  0  0  0  0  0  # atno 17395 bound_to 11000

$$$$
