AV-unprocessed.smi:193|AV-procd|sdf|1516|dock1
  -GOLD-   2262019353D 1   1.00000     0.00000
 Structure written by MMmdl.
 61 65  0  0  0  0  0  0  0  0  1 V2000
  147.1207  140.7757  153.1108 C   0  0  0  0  0  0  0  0  0  0  0  0
  147.8030  139.8649  154.1416 C   0  0  2  0  0  0  0  0  0  0  0  0
  146.8336  139.5271  155.2941 C   0  0  0  0  0  0  0  0  0  0  0  0
  147.1855  138.2574  155.9346 N   0  0  0  0  0  0  0  0  0  0  0  0
  146.7724  137.0968  155.3471 C   0  0  0  0  0  0  0  0  0  0  0  0
  147.2986  135.9344  155.8175 N   0  0  0  0  0  0  0  0  0  0  0  0
  146.9498  134.7584  155.2911 C   0  0  0  0  0  0  0  0  0  0  0  0
  146.0994  134.5122  154.2958 N   0  0  0  0  0  0  0  0  0  0  0  0
  145.5606  135.6662  153.8114 C   0  0  0  0  0  0  0  0  0  0  0  0
  145.8331  136.9886  154.2730 C   0  0  0  0  0  0  0  0  0  0  0  0
  145.0692  137.8925  153.5398 N   0  0  0  0  0  0  0  0  0  0  0  0
  144.3989  137.1555  152.6991 C   0  0  0  0  0  0  0  0  0  0  0  0
  144.6437  135.8057  152.7837 N   0  0  0  0  0  0  0  0  0  0  0  0
  144.0399  134.7584  151.9734 C   0  0  0  0  0  0  0  0  0  0  0  0
  144.7726  134.4875  150.6299 C   0  0  0  0  0  0  0  0  0  0  0  0
  144.7247  135.6784  149.8669 O   0  0  0  0  0  0  0  0  0  0  0  0
  146.2579  134.1421  150.8549 C   0  0  0  0  0  0  0  0  0  0  0  0
  146.4305  132.7137  151.4041 C   0  0  0  0  0  0  0  0  0  0  0  0
  145.8077  131.7750  150.5332 O   0  0  0  0  0  0  0  0  0  0  0  0
  144.4059  131.9812  150.3935 C   0  0  0  0  0  0  0  0  0  0  0  0
  144.1411  133.3661  149.7778 C   0  0  0  0  0  0  0  0  0  0  0  0
  148.3432  138.2753  156.8199 C   0  0  0  0  0  0  0  0  0  0  0  0
  149.6477  138.6275  156.0827 C   0  0  0  0  0  0  0  0  0  0  0  0
  149.6893  140.0725  155.8816 N   0  0  0  0  0  0  0  0  0  0  0  0
  151.0593  140.5563  155.9878 C   0  0  2  0  0  0  0  0  0  0  0  0
  151.8258  140.2215  157.2480 C   0  0  0  0  0  0  0  0  0  0  0  0
  151.3776  141.6421  157.0004 C   0  0  2  0  0  0  0  0  0  0  0  0
  150.3252  142.2736  157.8918 C   0  0  0  0  0  0  0  0  0  0  0  0
  149.1491  140.4956  154.5854 C   0  0  0  0  0  0  0  0  0  0  0  0
  146.8336  141.7302  153.5535 H   0  0  0  0  0  0  0  0  0  0  0  0
  146.2197  140.3104  152.7101 H   0  0  0  0  0  0  0  0  0  0  0  0
  147.7834  140.9827  152.2700 H   0  0  0  0  0  0  0  0  0  0  0  0
  148.0309  138.9353  153.6175 H   0  0  0  0  0  0  0  0  0  0  0  0
  146.8481  140.3239  156.0389 H   0  0  0  0  0  0  0  0  0  0  0  0
  145.8070  139.5013  154.9291 H   0  0  0  0  0  0  0  0  0  0  0  0
  147.4210  133.8908  155.7291 H   0  0  0  0  0  0  0  0  0  0  0  0
  143.7080  137.5804  151.9856 H   0  0  0  0  0  0  0  0  0  0  0  0
  144.0049  133.8462  152.5706 H   0  0  0  0  0  0  0  0  0  0  0  0
  143.0009  135.0363  151.7991 H   0  0  0  0  0  0  0  0  0  0  0  0
  145.2970  135.5821  149.1212 H   0  0  0  0  0  0  0  0  0  0  0  0
  146.7988  134.2114  149.9097 H   0  0  0  0  0  0  0  0  0  0  0  0
  146.7238  134.8642  151.5266 H   0  0  0  0  0  0  0  0  0  0  0  0
  147.4904  132.4705  151.4767 H   0  0  0  0  0  0  0  0  0  0  0  0
  146.0202  132.6208  152.4101 H   0  0  0  0  0  0  0  0  0  0  0  0
  144.0029  131.2031  149.7452 H   0  0  0  0  0  0  0  0  0  0  0  0
  143.9107  131.8735  151.3591 H   0  0  0  0  0  0  0  0  0  0  0  0
  143.0724  133.5240  149.6354 H   0  0  0  0  0  0  0  0  0  0  0  0
  144.5769  133.3796  148.7776 H   0  0  0  0  0  0  0  0  0  0  0  0
  148.1612  138.9975  157.6170 H   0  0  0  0  0  0  0  0  0  0  0  0
  148.4389  137.3181  157.3306 H   0  0  0  0  0  0  0  0  0  0  0  0
  150.4717  138.3308  156.7328 H   0  0  0  0  0  0  0  0  0  0  0  0
  149.7778  138.0787  155.1492 H   0  0  0  0  0  0  0  0  0  0  0  0
  151.6640  140.5785  155.0825 H   0  0  0  0  0  0  0  0  0  0  0  0
  151.3095  139.6545  158.0207 H   0  0  0  0  0  0  0  0  0  0  0  0
  152.8877  140.0066  157.1470 H   0  0  0  0  0  0  0  0  0  0  0  0
  152.1576  142.3400  156.7020 H   0  0  0  0  0  0  0  0  0  0  0  0
  149.5833  141.5395  158.2076 H   0  0  0  0  0  0  0  0  0  0  0  0
  149.8167  143.0771  157.3593 H   0  0  0  0  0  0  0  0  0  0  0  0
  150.7946  142.6915  158.7821 H   0  0  0  0  0  0  0  0  0  0  0  0
  149.8856  140.3000  153.8043 H   0  0  0  0  0  0  0  0  0  0  0  0
  149.0390  141.5796  154.6284 H   0  0  0  0  0  0  0  0  0  0  0  0
  1  2  1  0  0  0  0
  1 30  1  0  0  0  0
  1 31  1  0  0  0  0
  1 32  1  0  0  0  0
  2 29  1  0  0  0  0
  2  3  1  0  0  0  0
  2 33  1  0  0  0  0
  3  4  1  0  0  0  0
  3 34  1  0  0  0  0
  3 35  1  0  0  0  0
  4  5  1  0  0  0  0
  4 22  1  0  0  0  0
  5 10  1  0  0  0  0
  5  6  2  0  0  0  0
  6  7  1  0  0  0  0
  7  8  2  0  0  0  0
  7 36  1  0  0  0  0
  8  9  1  0  0  0  0
  9 13  1  0  0  0  0
  9 10  2  0  0  0  0
 10 11  1  0  0  0  0
 11 12  2  0  0  0  0
 12 13  1  0  0  0  0
 12 37  1  0  0  0  0
 13 14  1  0  0  0  0
 14 15  1  0  0  0  0
 14 38  1  0  0  0  0
 14 39  1  0  0  0  0
 15 21  1  0  0  0  0
 15 16  1  0  0  0  0
 15 17  1  0  0  0  0
 16 40  1  0  0  0  0
 17 18  1  0  0  0  0
 17 41  1  0  0  0  0
 17 42  1  0  0  0  0
 18 19  1  0  0  0  0
 18 43  1  0  0  0  0
 18 44  1  0  0  0  0
 19 20  1  0  0  0  0
 20 21  1  0  0  0  0
 20 45  1  0  0  0  0
 20 46  1  0  0  0  0
 21 47  1  0  0  0  0
 21 48  1  0  0  0  0
 22 23  1  0  0  0  0
 22 49  1  0  0  0  0
 22 50  1  0  0  0  0
 23 24  1  0  0  0  0
 23 51  1  0  0  0  0
 23 52  1  0  0  0  0
 24 25  1  0  0  0  0
 24 29  1  0  0  0  0
 25 27  1  0  0  0  0
 25 26  1  0  0  0  0
 25 53  1  0  0  0  0
 26 27  1  0  0  0  0
 26 54  1  0  0  0  0
 26 55  1  0  0  0  0
 27 28  1  0  0  0  0
 27 56  1  0  0  0  0
 28 57  1  0  0  0  0
 28 58  1  0  0  0  0
 28 59  1  0  0  0  0
 29 60  1  0  0  0  0
 29 61  1  0  0  0  0
M  END
> <s_m_source_file>
AV-unprocessed.smi

> <i_m_source_file_index>
193

> <i_lp_mmshare_version>
43012

> <i_f3d_flags>
0

> <s_epik_input>
W0NIM11bQ0BASF0xW0NIMl1bQ0BIXTFOKFtDSDJdMilbQ0gyXVtDSDJdTihbQ0gyXVtDQEhdMltDSDNdKWMobltjSF1uMyljKGMzNCluW2NIXW40W0NIMl1DNShbT0hdKVtDSDJdW0NIMl1PW0NIMl1bQ0gyXTU=

> <s_epik_cmdline>
J2VwaWtfcHl0aG9uJywgJy1waCcsICc3LjAnLCAnLXRuJywgJzgnLCAnLW1hJywgJzIwMCcsICctbWV0YWxfYmluZGluZycsICctaW1hZScsICc8aW5maWxlLm1hZT4nLCAnLW9tYWUnLCAnPG91dGZpbGUubWFlPic=

> <r_lp_tautomer_probability>
1

> <r_epik_Ionization_Penalty>
1.45227

> <r_epik_Ionization_Penalty_Charging>
0

> <r_epik_Ionization_Penalty_Neutral>
1.45227

> <r_epik_State_Penalty>
2.02377

> <r_epik_Charging_Adjusted_Penalty>
2.02377

> <i_epik_Tot_Q>
0

> <i_epik_Tot_abs_Q>
0

> <r_epik_Metal_State_Penalty>
2.01937

> <b_epik_Metal_Only>
0

> <s_lp_Force_Field>
OPLS_2005

> <r_lp_Energy>
54.596

> <b_lp_Chiralities_Consistent>
1

> <s_lp_Variant>
AV-unprocessed.smi:193-21

> <Gold.Version>
5.8.1

> <Gold.Id.Protein>
6NUR|6NUR_protein|mol2

> <Gold.PLP.Fitness>
42.1519

> <Gold.PLP.PLP>
-36.8752

> <Gold.PLP.part.hbond>
-2.0000

> <Gold.PLP.part.metal>
0.0000

> <Gold.PLP.part.buried>
-5.5526

> <Gold.PLP.part.nonpolar>
-28.5832

> <Gold.PLP.part.repulsive>
1.1009

> <Gold.PLP.ligand.clash>
0.0000

> <Gold.PLP.ligand.torsion>
1.1638

> <Gold.PLP.Chemscore.Hbond>
1.0000

> <Gold.PLP.Chemscore.CHOScore>
1.0856

> <Gold.PLP.Chemscore.Metal>
0.0000

> <Gold.Chemscore.Hbonds>
donor molecule, donor type, donor heavy atom, donor atom, acceptor molecule, acceptor atom, score
      L1  H    16    40       P1  7921  1.00
      L1  C    12    37       P1 10171  1.00
      L1  C    12    37       P1 10175  0.06

> <Gold.PLP.Chemscore.Internal.Correction>
1.3477

> <Gold.Rescore>
     Score         DG    S(hbond)    S(metal)    S(lipo)     H(rot)  DE(clash)    DE(int)     intcor
     12.84     -15.22       1.00        0.00      96.45       1.91       0.03       2.35       ----

> <Gold.Chemscore.Fitness>
12.8429

> <Gold.Chemscore.DG>
-15.2228

> <Gold.Chemscore.ZeroCoef>
-5.4800

> <Gold.Chemscore.Hbond>
0.9999

> <Gold.Chemscore.Metal>
0.0000

> <Gold.Chemscore.Lipo>
96.4482

> <Gold.Chemscore.Internal_Hbond>
0.0000

> <Gold.Chemscore.DEClash>
0.0319

> <Gold.Chemscore.DEInternal>
2.3480

> <Gold.Chemscore.Rot>
1.9068

> <Gold.Chemscore.Internal.Correction>
   9.000000E+99

> <Gold.Chemscore.Hbonds>
donor molecule, donor type, donor heavy atom, donor atom, acceptor molecule, acceptor atom, score
      L1  H    16    40       P1  7921  1.00

> <Gold.Chemscore.Hbond.Weighted>
-3.3398

> <Gold.Chemscore.Metal.Weighted>
-0.0000

> <Gold.Chemscore.Lipo.Weighted>
-11.2844

> <Gold.Chemscore.Internal_Hbond.Weighted>
0.0000

> <Gold.Chemscore.DEClash.Weighted>
0.0319

> <Gold.Chemscore.DEInternal.Weighted>
2.3480

> <Gold.Chemscore.Rot.Weighted>
4.8814

> <Gold.Chemscore.Internal.Correction.Weighted>
   9.000000E+99

> <Gold.Protein.RotatedTorsions>
[ 6907 6896 6895 6894 ] final  109.98 input  -60.11 | X-H torsion
[ 7974 7965 7964 7962 ] final  136.63 input  175.53 | X-H torsion
[ 8008 7997 7996 7995 ] final   42.06 input   59.86 | X-H torsion
[ 10167 10162 10161 10158 ] final  147.22 input  -65.29 | X-H torsion
[ 10718 10713 10712 10709 ] final  114.81 input   66.30 | X-H torsion
[ 10763 10752 10751 10750 ] final  -39.61 input  -60.55 | X-H torsion
[ 11005 11000 10999 10996 ] final  -21.97 input  -57.11 | X-H torsion

> <Gold.Protein.ActiveResidues>
 VAL166  LYS551  ARG553  GLY616  TRP617  ASP618  TYR619  PRO620  LYS621  CYS622 
 ASP623  PHE694  ASN695  SER759  ASP760  ASP761  ALA762  ILE779  LEU786  VAL792 
 PHE793  MET794  SER795  GLU796  ALA797  LYS798  CYS799  TRP800  GLU811  SER814 

> <Gold.Protein.RotatedAtoms>
  152.5041  133.8866  159.7372 H   0  0  0  0  0  0  0  0  0  0  0  0  # atno 6907 bound_to 6896
  150.9315  133.6753  159.2816 H   0  0  0  0  0  0  0  0  0  0  0  0  # atno 6908 bound_to 6896
  151.4095  135.0987  159.9633 H   0  0  0  0  0  0  0  0  0  0  0  0  # atno 6909 bound_to 6896
  144.9546  139.4779  143.5509 H   0  0  0  0  0  0  0  0  0  0  0  0  # atno 7974 bound_to 7965
  155.2798  140.3371  155.4259 H   0  0  0  0  0  0  0  0  0  0  0  0  # atno 8008 bound_to 7997
  156.2095  140.1764  156.7768 H   0  0  0  0  0  0  0  0  0  0  0  0  # atno 8009 bound_to 7997
  154.5666  140.0677  156.8885 H   0  0  0  0  0  0  0  0  0  0  0  0  # atno 8010 bound_to 7997
  139.4894  144.5771  151.6943 H   0  0  0  0  0  0  0  0  0  0  0  0  # atno 10167 bound_to 10162
  157.6259  131.1004  150.7240 H   0  0  0  0  0  0  0  0  0  0  0  0  # atno 10718 bound_to 10713
  153.9323  135.6770  153.4745 H   0  0  0  0  0  0  0  0  0  0  0  0  # atno 10763 bound_to 10752
  153.0973  135.4845  154.8800 H   0  0  0  0  0  0  0  0  0  0  0  0  # atno 10764 bound_to 10752
  154.7422  135.3163  154.8666 H   0  0  0  0  0  0  0  0  0  0  0  0  # atno 10765 bound_to 10752
  140.8612  133.7787  156.0077 H   0  0  0  0  0  0  0  0  0  0  0  0  # atno 11005 bound_to 11000
  146.3333  139.8655  142.8849 LP  0  0  0  0  0  0  0  0  0  0  0  0  # atno 17320 bound_to 7965
  145.2791  141.0133  143.3727 LP  0  0  0  0  0  0  0  0  0  0  0  0  # atno 17321 bound_to 7965
  140.5370  144.0640  150.6074 LP  0  0  0  0  0  0  0  0  0  0  0  0  # atno 17342 bound_to 10162
  140.3649  143.2887  152.0343 LP  0  0  0  0  0  0  0  0  0  0  0  0  # atno 17343 bound_to 10162
  156.7588  130.4792  149.5441 LP  0  0  0  0  0  0  0  0  0  0  0  0  # atno 17370 bound_to 10713
  156.1431  130.6258  151.0494 LP  0  0  0  0  0  0  0  0  0  0  0  0  # atno 17371 bound_to 10713
  140.8680  134.2760  157.5204 LP  0  0  0  0  0  0  0  0  0  0  0  0  # atno 17394 bound_to 11000
  139.8707  134.9553  156.4201 LP  0  0  0  0  0  0  0  0  0  0  0  0  # atno 17395 bound_to 11000

$$$$
