AV-unprocessed.smi:2330|AV-procd|sdf|9310|dock10
  -GOLD-   2272012533D 1   1.00000     0.00000
 Structure written by MMmdl.
 42 43  0  0  0  0  0  0  0  0  1 V2000
  151.4971  145.6218  160.0213 C   0  0  0  0  0  0  0  0  0  0  0  0
  151.7585  144.1398  160.3267 C   0  0  2  0  0  0  0  0  0  0  0  0
  152.5800  143.9663  161.6184 C   0  0  0  0  0  0  0  0  0  0  0  0
  152.8469  142.4842  161.9265 C   0  0  0  0  0  0  0  0  0  0  0  0
  153.5405  141.7765  160.7445 C   0  0  1  0  0  0  0  0  0  0  0  0
  153.7104  140.3548  161.0290 N   0  0  0  0  0  0  0  0  0  0  0  0
  154.0122  139.4172  160.1202 C   0  0  0  0  0  0  0  0  0  0  0  0
  154.1492  139.6387  158.9169 O   0  0  0  0  0  0  0  0  0  0  0  0
  154.1740  138.2126  160.6842 N   0  0  0  0  0  0  0  0  0  0  0  0
  154.5945  137.0059  159.9768 C   0  0  0  0  0  0  0  0  0  0  0  0
  155.4279  136.0501  160.8602 C   0  0  2  0  0  0  0  0  0  0  0  0
  155.6456  134.6744  160.2140 C   0  0  0  0  0  0  0  0  0  0  0  0
  154.9115  135.9423  162.2635 C   0  0  0  0  0  0  0  0  0  0  0  0
  154.5962  136.9967  163.0228 N   0  0  0  0  0  0  0  0  0  0  0  0
  154.1599  136.6274  164.2975 C   0  0  0  0  0  0  0  0  0  0  0  0
  154.1535  135.2712  164.5023 C   0  0  0  0  0  0  0  0  0  0  0  0
  154.6956  134.4030  163.0926 S   0  0  0  0  0  0  0  0  0  0  0  0
  152.7235  141.9520  159.4516 C   0  0  0  0  0  0  0  0  0  0  0  0
  152.4593  143.4359  159.1489 C   0  0  0  0  0  0  0  0  0  0  0  0
  152.4294  146.1652  159.8642 H   0  0  0  0  0  0  0  0  0  0  0  0
  150.9651  146.1036  160.8419 H   0  0  0  0  0  0  0  0  0  0  0  0
  150.8891  145.7360  159.1233 H   0  0  0  0  0  0  0  0  0  0  0  0
  150.7898  143.6605  160.4771 H   0  0  0  0  0  0  0  0  0  0  0  0
  153.5306  144.4932  161.5246 H   0  0  0  0  0  0  0  0  0  0  0  0
  152.0560  144.4235  162.4583 H   0  0  0  0  0  0  0  0  0  0  0  0
  153.4594  142.4052  162.8256 H   0  0  0  0  0  0  0  0  0  0  0  0
  151.9027  141.9866  162.1532 H   0  0  0  0  0  0  0  0  0  0  0  0
  154.5225  142.2278  160.5888 H   0  0  0  0  0  0  0  0  0  0  0  0
  153.6223  140.0712  161.9938 H   0  0  0  0  0  0  0  0  0  0  0  0
  154.0409  138.1309  161.6816 H   0  0  0  0  0  0  0  0  0  0  0  0
  153.6890  136.4969  159.6456 H   0  0  0  0  0  0  0  0  0  0  0  0
  155.1452  137.2735  159.0737 H   0  0  0  0  0  0  0  0  0  0  0  0
  156.4206  136.4942  160.9438 H   0  0  0  0  0  0  0  0  0  0  0  0
  156.3219  134.0629  160.8120 H   0  0  0  0  0  0  0  0  0  0  0  0
  156.0814  134.7729  159.2194 H   0  0  0  0  0  0  0  0  0  0  0  0
  154.7057  134.1311  160.1121 H   0  0  0  0  0  0  0  0  0  0  0  0
  153.8735  137.3973  164.9988 H   0  0  0  0  0  0  0  0  0  0  0  0
  153.8643  134.7329  165.3926 H   0  0  0  0  0  0  0  0  0  0  0  0
  153.2498  141.4959  158.6123 H   0  0  0  0  0  0  0  0  0  0  0  0
  151.7707  141.4277  159.5406 H   0  0  0  0  0  0  0  0  0  0  0  0
  151.8505  143.5210  158.2481 H   0  0  0  0  0  0  0  0  0  0  0  0
  153.4042  143.9355  158.9304 H   0  0  0  0  0  0  0  0  0  0  0  0
  1  2  1  0  0  0  0
  1 20  1  0  0  0  0
  1 21  1  0  0  0  0
  1 22  1  0  0  0  0
  2 19  1  0  0  0  0
  2  3  1  0  0  0  0
  2 23  1  0  0  0  0
  3  4  1  0  0  0  0
  3 24  1  0  0  0  0
  3 25  1  0  0  0  0
  4  5  1  0  0  0  0
  4 26  1  0  0  0  0
  4 27  1  0  0  0  0
  5  6  1  0  0  0  0
  5 18  1  0  0  0  0
  5 28  1  0  0  0  0
  6  7  1  0  0  0  0
  6 29  1  0  0  0  0
  7  8  2  0  0  0  0
  7  9  1  0  0  0  0
  9 10  1  0  0  0  0
  9 30  1  0  0  0  0
 10 11  1  0  0  0  0
 10 31  1  0  0  0  0
 10 32  1  0  0  0  0
 11 12  1  0  0  0  0
 11 13  1  0  0  0  0
 11 33  1  0  0  0  0
 12 34  1  0  0  0  0
 12 35  1  0  0  0  0
 12 36  1  0  0  0  0
 13 17  1  0  0  0  0
 13 14  2  0  0  0  0
 14 15  1  0  0  0  0
 15 16  2  0  0  0  0
 15 37  1  0  0  0  0
 16 17  1  0  0  0  0
 16 38  1  0  0  0  0
 18 19  1  0  0  0  0
 18 39  1  0  0  0  0
 18 40  1  0  0  0  0
 19 41  1  0  0  0  0
 19 42  1  0  0  0  0
M  END
> <s_m_source_file>
AV-unprocessed.smi

> <i_m_source_file_index>
2330

> <i_lp_mmshare_version>
43012

> <i_f3d_flags>
0

> <s_epik_input>
W0NIM11bQ0BASF0xW0NIMl1bQ0gyXVtDQEhdKFtDSDJdW0NIMl0xKVtOSF1DKD1PKVtOSF1bQ0gyXVtDQEhdKFtDSDNdKWMybltjSF1bY0hdczI=

> <s_epik_cmdline>
J2VwaWtfcHl0aG9uJywgJy1waCcsICc3LjAnLCAnLXRuJywgJzgnLCAnLW1hJywgJzIwMCcsICctbWV0YWxfYmluZGluZycsICctaW1hZScsICc8aW5maWxlLm1hZT4nLCAnLW9tYWUnLCAnPG91dGZpbGUubWFlPic=

> <r_lp_tautomer_probability>
1

> <r_epik_Ionization_Penalty>
0.000331107

> <r_epik_Ionization_Penalty_Charging>
0

> <r_epik_Ionization_Penalty_Neutral>
0.000331107

> <r_epik_State_Penalty>
-0

> <r_epik_Charging_Adjusted_Penalty>
0

> <i_epik_Tot_Q>
0

> <i_epik_Tot_abs_Q>
0

> <r_epik_Metal_State_Penalty>
-0

> <b_epik_Metal_Only>
0

> <s_lp_Force_Field>
OPLS_2005

> <r_lp_Energy>
-1.82221

> <b_lp_Chiralities_Consistent>
1

> <s_lp_Variant>
AV-unprocessed.smi:2330-1

> <Gold.Version>
5.8.1

> <Gold.Id.Protein>
6NUR|6NUR_protein|mol2

> <Gold.PLP.Fitness>
45.2854

> <Gold.PLP.PLP>
-43.4922

> <Gold.PLP.part.hbond>
-1.0000

> <Gold.PLP.part.metal>
0.0000

> <Gold.PLP.part.buried>
-5.2810

> <Gold.PLP.part.nonpolar>
-37.1815

> <Gold.PLP.part.repulsive>
0.0519

> <Gold.PLP.ligand.clash>
0.0000

> <Gold.PLP.ligand.torsion>
0.6623

> <Gold.PLP.Chemscore.Hbond>
1.0000

> <Gold.PLP.Chemscore.CHOScore>
0.0000

> <Gold.PLP.Chemscore.Metal>
0.0000

> <Gold.Chemscore.Hbonds>
donor molecule, donor type, donor heavy atom, donor atom, acceptor molecule, acceptor atom, score
      P1  H  7997  8009       L1     8  1.00

> <Gold.PLP.Chemscore.Internal.Correction>
0.1178

> <Gold.Rescore>
     Score         DG    S(hbond)    S(metal)    S(lipo)     H(rot)  DE(clash)    DE(int)     intcor
     15.84     -18.87       1.00        0.00     117.69       1.45       0.01       3.02       ----

> <Gold.Chemscore.Fitness>
15.8437

> <Gold.Chemscore.DG>
-18.8668

> <Gold.Chemscore.ZeroCoef>
-5.4800

> <Gold.Chemscore.Hbond>
0.9995

> <Gold.Chemscore.Metal>
0.0000

> <Gold.Chemscore.Lipo>
117.6886

> <Gold.Chemscore.Internal_Hbond>
0.0000

> <Gold.Chemscore.DEClash>
0.0060

> <Gold.Chemscore.DEInternal>
3.0171

> <Gold.Chemscore.Rot>
1.4536

> <Gold.Chemscore.Internal.Correction>
   9.000000E+99

> <Gold.Chemscore.Hbonds>
donor molecule, donor type, donor heavy atom, donor atom, acceptor molecule, acceptor atom, score
      P1  H  7997  8009       L1     8  1.00

> <Gold.Chemscore.Hbond.Weighted>
-3.3384

> <Gold.Chemscore.Metal.Weighted>
-0.0000

> <Gold.Chemscore.Lipo.Weighted>
-13.7696

> <Gold.Chemscore.Internal_Hbond.Weighted>
0.0000

> <Gold.Chemscore.DEClash.Weighted>
0.0060

> <Gold.Chemscore.DEInternal.Weighted>
3.0171

> <Gold.Chemscore.Rot.Weighted>
3.7212

> <Gold.Chemscore.Internal.Correction.Weighted>
   9.000000E+99

> <Gold.Protein.RotatedTorsions>
[ 6907 6896 6895 6894 ] final  101.17 input  -60.11 | X-H torsion
[ 7974 7965 7964 7962 ] final -100.90 input  175.53 | X-H torsion
[ 8008 7997 7996 7995 ] final  128.79 input   59.86 | X-H torsion
[ 10167 10162 10161 10158 ] final  -76.67 input  -65.29 | X-H torsion
[ 10718 10713 10712 10709 ] final -122.45 input   66.30 | X-H torsion
[ 10763 10752 10751 10750 ] final  162.35 input  -60.55 | X-H torsion
[ 11005 11000 10999 10996 ] final  102.34 input  -57.11 | X-H torsion

> <Gold.Protein.ActiveResidues>
 VAL166  LYS551  ARG553  GLY616  TRP617  ASP618  TYR619  PRO620  LYS621  CYS622 
 ASP623  PHE694  ASN695  SER759  ASP760  ASP761  ALA762  ILE779  LEU786  VAL792 
 PHE793  MET794  SER795  GLU796  ALA797  LYS798  CYS799  TRP800  GLU811  SER814 

> <Gold.Protein.RotatedAtoms>
  152.5355  134.0166  159.7962 H   0  0  0  0  0  0  0  0  0  0  0  0  # atno 6907 bound_to 6896
  151.0359  133.5741  159.2663 H   0  0  0  0  0  0  0  0  0  0  0  0  # atno 6908 bound_to 6896
  151.2728  135.0697  159.9194 H   0  0  0  0  0  0  0  0  0  0  0  0  # atno 6909 bound_to 6896
  145.2885  140.9346  143.2891 H   0  0  0  0  0  0  0  0  0  0  0  0  # atno 7974 bound_to 7965
  156.2922  140.2636  156.2492 H   0  0  0  0  0  0  0  0  0  0  0  0  # atno 8008 bound_to 7997
  154.9899  140.0389  157.2333 H   0  0  0  0  0  0  0  0  0  0  0  0  # atno 8009 bound_to 7997
  154.7695  140.2775  155.6154 H   0  0  0  0  0  0  0  0  0  0  0  0  # atno 8010 bound_to 7997
  140.4837  143.2396  151.8018 H   0  0  0  0  0  0  0  0  0  0  0  0  # atno 10167 bound_to 10162
  156.1419  130.6472  150.9784 H   0  0  0  0  0  0  0  0  0  0  0  0  # atno 10718 bound_to 10713
  154.2770  135.2764  155.2714 H   0  0  0  0  0  0  0  0  0  0  0  0  # atno 10763 bound_to 10752
  154.5252  135.5745  153.6716 H   0  0  0  0  0  0  0  0  0  0  0  0  # atno 10764 bound_to 10752
  152.9935  135.6214  154.2927 H   0  0  0  0  0  0  0  0  0  0  0  0  # atno 10765 bound_to 10752
  139.8777  134.9220  156.5043 H   0  0  0  0  0  0  0  0  0  0  0  0  # atno 11005 bound_to 11000
  144.9192  139.4432  143.6549 LP  0  0  0  0  0  0  0  0  0  0  0  0  # atno 17320 bound_to 7965
  146.3193  139.8044  142.8959 LP  0  0  0  0  0  0  0  0  0  0  0  0  # atno 17321 bound_to 7965
  139.4838  144.4740  151.9390 LP  0  0  0  0  0  0  0  0  0  0  0  0  # atno 17342 bound_to 10162
  140.3825  144.2718  150.5907 LP  0  0  0  0  0  0  0  0  0  0  0  0  # atno 17343 bound_to 10162
  157.6583  131.0885  150.7896 LP  0  0  0  0  0  0  0  0  0  0  0  0  # atno 17370 bound_to 10713
  156.7971  130.4909  149.5375 LP  0  0  0  0  0  0  0  0  0  0  0  0  # atno 17371 bound_to 10713
  140.8567  133.8091  155.9223 LP  0  0  0  0  0  0  0  0  0  0  0  0  # atno 17394 bound_to 11000
  140.9090  134.2284  157.4997 LP  0  0  0  0  0  0  0  0  0  0  0  0  # atno 17395 bound_to 11000

$$$$
