#       Name:                AV-unprocessed.smi:99
#       Creating user name   scv26
#       Creation time:       Thu Mar 26 17:36:25 2020


#       File generated by GOLD software.
#

@<TRIPOS>MOLECULE
AV-unprocessed.smi:99
    65    68     1
SMALL
NO_CHARGES


@<TRIPOS>ATOM
      1 ****        -3.5905  -0.0923   1.5819 O.2            1 S1                 0.0000
      2 ****        -2.5484   0.5615   1.6584 C.2            1 S1                 0.0000
      3 ****        -1.3221   0.0082   1.7072 O.3            1 S1                 0.0000
      4 ****        -1.1611  -1.3940   1.5609 C.3            1 S1                 0.0000
      5 ****         0.3199  -1.7157   1.2938 C.3            1 S1                 0.0000
      6 ****         0.4783  -3.1340   1.3624 O.3            1 S1                 0.0000
      7 ****         0.8013  -3.6799   0.1114 C.3            1 S1                 0.0000
      8 ****         2.2443  -4.1441   0.1162 N.am           1 S1                 0.0000
      9 ****         3.1599  -3.6411   1.0266 C.2            1 S1                 0.0000
     10 ****         4.4462  -4.0467   1.0273 C.2            1 S1                 0.0000
     11 ****         4.8863  -5.0366   0.0488 C.2            1 S1                 0.0000
     12 ****         6.0588  -5.4059   0.0618 O.2            1 S1                 0.0000
     13 ****         3.9692  -5.5099  -0.8432 N.pl3          1 S1                -1.0000
     14 ****         2.6680  -5.0976  -0.8499 C.2            1 S1                 0.0000
     15 ****         1.8364  -5.5073  -1.6601 O.2            1 S1                 0.0000
     16 ****         0.6038  -2.5804  -0.9398 C.3            1 S1                 0.0000
     17 ****        -0.7004  -2.6488  -1.4845 O.3            1 S1                 0.0000
     18 ****         0.8367  -1.3358  -0.0994 C.3            1 S1                 0.0000
     19 ****         0.2687  -0.1577  -0.6628 O.3            1 S1                 0.0000
     20 ****         0.9819   0.6473  -1.4764 C.2            1 S1                 0.0000
     21 ****         2.1471   0.4276  -1.8126 O.2            1 S1                 0.0000
     22 ****         0.2130   1.8496  -1.9079 C.ar           1 S1                 0.0000
     23 ****         0.8797   2.8942  -2.5891 C.ar           1 S1                 0.0000
     24 ****         0.1807   4.0502  -2.9882 C.ar           1 S1                 0.0000
     25 ****        -1.1937   4.1743  -2.7128 C.ar           1 S1                 0.0000
     26 ****        -1.8702   3.1377  -2.0441 C.ar           1 S1                 0.0000
     27 ****        -1.1731   1.9801  -1.6478 C.ar           1 S1                 0.0000
     28 ****        -2.5089   2.0523   1.6764 C.ar           1 S1                 0.0000
     29 ****        -3.7168   2.7793   1.5640 C.ar           1 S1                 0.0000
     30 ****        -3.7074   4.1876   1.5489 C.ar           1 S1                 0.0000
     31 ****        -2.4901   4.8861   1.6469 C.ar           1 S1                 0.0000
     32 ****        -1.2818   4.1747   1.7628 C.ar           1 S1                 0.0000
     33 ****        -1.2892   2.7664   1.7788 C.ar           1 S1                 0.0000
     34 ****        -1.4880  -1.8795   2.4810 H              1 S1                 0.0000
     35 ****        -1.7866  -1.7748   0.7531 H              1 S1                 0.0000
     36 ****         0.9332  -1.2502   2.0662 H              1 S1                 0.0000
     37 ****         0.2072  -4.5799  -0.0576 H              1 S1                 0.0000
     38 ****         2.8566  -2.9052   1.7552 H              1 S1                 0.0000
     39 ****         5.1460  -3.6421   1.7436 H              1 S1                 0.0000
     40 ****         1.3246  -2.6682  -1.7538 H              1 S1                 0.0000
     41 ****        -1.3230  -2.6269  -0.7744 H              1 S1                 0.0000
     42 ****         1.9151  -1.2058   0.0049 H              1 S1                 0.0000
     43 ****         1.9360   2.8234  -2.8056 H              1 S1                 0.0000
     44 ****         0.7009   4.8438  -3.5038 H              1 S1                 0.0000
     45 ****        -1.7287   5.0622  -3.0160 H              1 S1                 0.0000
     46 ****        -2.9253   3.2297  -1.8324 H              1 S1                 0.0000
     47 ****        -1.7229   1.2010  -1.1410 H              1 S1                 0.0000
     48 ****        -4.6634   2.2649   1.4803 H              1 S1                 0.0000
     49 ****        -4.6356   4.7323   1.4582 H              1 S1                 0.0000
     50 ****        -2.4831   5.9661   1.6320 H              1 S1                 0.0000
     51 ****        -0.3463   4.7095   1.8355 H              1 S1                 0.0000
     52 ****        -0.3428   2.2520   1.8604 H              1 S1                 0.0000
     53 ****        -3.5531  -1.0912   1.5528 LP             1 S1                 0.0000
     54 ****        -4.4734   0.3761   1.5489 LP             1 S1                 0.0000
     55 ****        -0.3773  -3.5408   1.6825 LP             1 S1                 0.0000
     56 ****         1.2111  -3.3476   2.0084 LP             1 S1                 0.0000
     57 ****         6.6943  -5.0289   0.7355 LP             1 S1                 0.0000
     58 ****         6.3770  -6.0833  -0.6014 LP             1 S1                 0.0000
     59 ****         4.2619  -6.1861  -1.5194 LP             1 S1                 0.0000
     60 ****         0.8959  -5.1692  -1.6256 LP             1 S1                 0.0000
     61 ****         2.1014  -6.1782  -2.3527 LP             1 S1                 0.0000
     62 ****        -0.8065  -3.4990  -2.0002 LP             1 S1                 0.0000
     63 ****        -0.8537  -1.8693  -2.0918 LP             1 S1                 0.0000
     64 ****         2.6186  -0.3884  -1.4782 LP             1 S1                 0.0000
     65 ****         2.6210   1.0653  -2.4198 LP             1 S1                 0.0000
@<TRIPOS>BOND
    1    1    2 2     
    2    2    3 1     
    3    2   28 1     
    4    3    4 1     
    5    4    5 1     
    6    4   34 1     
    7    4   35 1     
    8    5   18 1     
    9    5    6 1     
   10    5   36 1     
   11    6    7 1     
   12    7    8 1     
   13    7   16 1     
   14    7   37 1     
   15    8   14 am    
   16    8    9 1     
   17    9   10 2     
   18    9   38 1     
   19   10   11 1     
   20   10   39 1     
   21   11   12 2     
   22   11   13 1     
   23   13   14 1     
   24   14   15 2     
   25   16   17 1     
   26   16   18 1     
   27   16   40 1     
   28   17   41 1     
   29   18   19 1     
   30   18   42 1     
   31   19   20 1     
   32   20   21 2     
   33   20   22 1     
   34   22   27 ar    
   35   22   23 ar    
   36   23   24 ar    
   37   23   43 1     
   38   24   25 ar    
   39   24   44 1     
   40   25   26 ar    
   41   25   45 1     
   42   26   27 ar    
   43   26   46 1     
   44   27   47 1     
   45   28   33 ar    
   46   28   29 ar    
   47   29   30 ar    
   48   29   48 1     
   49   30   31 ar    
   50   30   49 1     
   51   31   32 ar    
   52   31   50 1     
   53   32   33 ar    
   54   32   51 1     
   55   33   52 1     
   56    1   53 1     
   57    1   54 1     
   58    6   55 1     
   59    6   56 1     
   60   12   57 1     
   61   12   58 1     
   62   13   59 1     
   63   15   60 1     
   64   15   61 1     
   65   17   62 1     
   66   17   63 1     
   67   21   64 1     
   68   21   65 1     
@<TRIPOS>SUBSTRUCTURE
      1 S1             1
@<TRIPOS>SET
LONE_PAIRS      STATIC     ATOMS    <user>   **** ""
13 53 54 55 56 57 58 59 60 61 62 63 64 65
DONOR_HYDROGENS      STATIC     ATOMS    <user>   **** ""
1 41
ATOM$BLUE        STATIC     ATOMS    COLORGROUP SYSTEM
13 53 54 55 56 57 58 59 60 61 62 63 64 65
ATOM$RED        STATIC     ATOMS    COLORGROUP SYSTEM
1 41
