AV-unprocessed.smi:26|AV-procd|sdf|183|dock4
  -GOLD-   2262015443D 1   1.00000     0.00000
 Structure written by MMmdl.
 58 61  0  0  0  0  0  0  0  0  1 V2000
  145.9689  138.5346  155.1956 C   0  0  0  0  0  0  0  0  0  0  0  0
  147.3554  137.9786  155.1236 C   0  0  0  0  0  0  0  0  0  0  0  0
  148.5413  138.6492  155.1232 C   0  0  0  0  0  0  0  0  0  0  0  0
  149.5977  137.7028  155.0470 C   0  0  0  0  0  0  0  0  0  0  0  0
  151.0600  137.9645  155.0060 C   0  0  0  0  0  0  0  0  0  0  0  0
  151.9057  137.0719  154.9298 O   0  0  0  0  0  0  0  0  0  0  0  0
  151.4739  139.4474  155.0541 C   0  0  0  0  0  0  0  0  0  0  0  0
  151.6364  139.9554  156.4113 N   0  0  0  0  0  0  0  0  0  0  0  0
  152.4310  139.1995  157.3091 C   0  0  0  0  0  0  0  0  0  0  0  0
  152.9789  138.1478  156.9742 O   0  0  0  0  0  0  0  0  0  0  0  0
  152.5537  139.7780  158.6419 C   0  0  0  0  0  0  0  0  0  0  0  0
  153.2909  139.1505  159.5739 F   0  0  0  0  0  0  0  0  0  0  0  0
  151.9407  140.9390  158.9571 C   0  0  0  0  0  0  0  0  0  0  0  0
  151.1599  141.6528  158.0659 N   0  0  0  0  0  0  0  0  0  0  0  0
  150.5665  142.9724  158.5100 C   0  0  2  0  0  0  0  0  0  0  0  0
  151.1358  144.1915  157.7687 C   0  0  0  0  0  0  0  0  0  0  0  0
  151.1266  145.2328  158.8668 C   0  0  0  0  0  0  0  0  0  0  0  0
  151.4505  144.3964  160.1001 C   0  0  0  0  0  0  0  0  0  0  0  0
  150.8051  143.1454  159.8771 O   0  0  0  0  0  0  0  0  0  0  0  0
  151.0128  141.1845  156.7385 C   0  0  0  0  0  0  0  0  0  0  0  0
  150.3790  141.8265  155.8994 O   0  0  0  0  0  0  0  0  0  0  0  0
  149.0266  136.4504  155.0141 C   0  0  0  0  0  0  0  0  0  0  0  0
  149.6884  135.1008  154.9499 C   0  0  0  0  0  0  0  0  0  0  0  0
  147.6337  136.6162  155.0355 N   0  0  0  0  0  0  0  0  0  0  0  0
  146.6061  135.5638  154.9952 C   0  0  2  0  0  0  0  0  0  0  0  0
  146.8832  134.4692  156.0453 C   0  0  0  0  0  0  0  0  0  0  0  0
  146.3198  135.0826  153.5695 C   0  0  0  0  0  0  0  0  0  0  0  0
  145.8118  136.0045  152.6263 C   0  0  0  0  0  0  0  0  0  0  0  0
  145.5265  135.6002  151.3081 C   0  0  0  0  0  0  0  0  0  0  0  0
  145.7409  134.2650  150.9198 C   0  0  0  0  0  0  0  0  0  0  0  0
  146.2395  133.3360  151.8520 C   0  0  0  0  0  0  0  0  0  0  0  0
  146.5248  133.7402  153.1708 C   0  0  0  0  0  0  0  0  0  0  0  0
  145.9917  139.6142  155.3453 H   0  0  0  0  0  0  0  0  0  0  0  0
  145.4131  138.0982  156.0255 H   0  0  0  0  0  0  0  0  0  0  0  0
  145.4228  138.3406  154.2723 H   0  0  0  0  0  0  0  0  0  0  0  0
  148.6363  139.7240  155.1716 H   0  0  0  0  0  0  0  0  0  0  0  0
  152.4118  139.6071  154.5199 H   0  0  0  0  0  0  0  0  0  0  0  0
  150.7419  140.0749  154.5437 H   0  0  0  0  0  0  0  0  0  0  0  0
  152.0717  141.3212  159.9591 H   0  0  0  0  0  0  0  0  0  0  0  0
  149.4890  142.8818  158.3669 H   0  0  0  0  0  0  0  0  0  0  0  0
  152.1515  144.0130  157.4186 H   0  0  0  0  0  0  0  0  0  0  0  0
  150.5132  144.4546  156.9135 H   0  0  0  0  0  0  0  0  0  0  0  0
  151.8397  146.0401  158.6986 H   0  0  0  0  0  0  0  0  0  0  0  0
  150.1311  145.6683  158.9610 H   0  0  0  0  0  0  0  0  0  0  0  0
  152.5260  144.2400  160.1850 H   0  0  0  0  0  0  0  0  0  0  0  0
  151.1054  144.8617  161.0236 H   0  0  0  0  0  0  0  0  0  0  0  0
  150.1121  134.9297  153.9605 H   0  0  0  0  0  0  0  0  0  0  0  0
  149.0162  134.2772  155.1668 H   0  0  0  0  0  0  0  0  0  0  0  0
  150.4958  135.0309  155.6784 H   0  0  0  0  0  0  0  0  0  0  0  0
  145.6581  136.0082  155.2928 H   0  0  0  0  0  0  0  0  0  0  0  0
  146.0486  133.7712  156.1143 H   0  0  0  0  0  0  0  0  0  0  0  0
  147.0128  134.9109  157.0338 H   0  0  0  0  0  0  0  0  0  0  0  0
  147.7821  133.8937  155.8297 H   0  0  0  0  0  0  0  0  0  0  0  0
  145.6405  137.0318  152.9137 H   0  0  0  0  0  0  0  0  0  0  0  0
  145.1420  136.3153  150.5956 H   0  0  0  0  0  0  0  0  0  0  0  0
  145.5221  133.9535  149.9090 H   0  0  0  0  0  0  0  0  0  0  0  0
  146.4026  132.3102  151.5559 H   0  0  0  0  0  0  0  0  0  0  0  0
  146.9064  133.0046  153.8621 H   0  0  0  0  0  0  0  0  0  0  0  0
  1  2  1  0  0  0  0
  1 33  1  0  0  0  0
  1 34  1  0  0  0  0
  1 35  1  0  0  0  0
  2 24  1  0  0  0  0
  2  3  2  0  0  0  0
  3  4  1  0  0  0  0
  3 36  1  0  0  0  0
  4  5  1  0  0  0  0
  4 22  2  0  0  0  0
  5  6  2  0  0  0  0
  5  7  1  0  0  0  0
  7  8  1  0  0  0  0
  7 37  1  0  0  0  0
  7 38  1  0  0  0  0
  8 20  1  0  0  0  0
  8  9  1  0  0  0  0
  9 10  2  0  0  0  0
  9 11  1  0  0  0  0
 11 12  1  0  0  0  0
 11 13  2  0  0  0  0
 13 14  1  0  0  0  0
 13 39  1  0  0  0  0
 14 15  1  0  0  0  0
 14 20  1  0  0  0  0
 15 19  1  0  0  0  0
 15 16  1  0  0  0  0
 15 40  1  0  0  0  0
 16 17  1  0  0  0  0
 16 41  1  0  0  0  0
 16 42  1  0  0  0  0
 17 18  1  0  0  0  0
 17 43  1  0  0  0  0
 17 44  1  0  0  0  0
 18 19  1  0  0  0  0
 18 45  1  0  0  0  0
 18 46  1  0  0  0  0
 20 21  2  0  0  0  0
 22 23  1  0  0  0  0
 22 24  1  0  0  0  0
 23 47  1  0  0  0  0
 23 48  1  0  0  0  0
 23 49  1  0  0  0  0
 24 25  1  0  0  0  0
 25 26  1  0  0  0  0
 25 27  1  0  0  0  0
 25 50  1  0  0  0  0
 26 51  1  0  0  0  0
 26 52  1  0  0  0  0
 26 53  1  0  0  0  0
 27 32  1  0  0  0  0
 27 28  2  0  0  0  0
 28 29  1  0  0  0  0
 28 54  1  0  0  0  0
 29 30  2  0  0  0  0
 29 55  1  0  0  0  0
 30 31  1  0  0  0  0
 30 56  1  0  0  0  0
 31 32  2  0  0  0  0
 31 57  1  0  0  0  0
 32 58  1  0  0  0  0
M  END
> <s_m_source_file>
AV-unprocessed.smi

> <i_m_source_file_index>
26

> <i_lp_mmshare_version>
43012

> <i_f3d_flags>
0

> <s_epik_input>
W2NIXTFbY0hdW2NIXVtjSF1bY0hdYzFbQ0BASF0oW0NIM10pbjJjKFtDSDNdKWMoW2NIXWMyW0NIM10pQyg9TylbQ0gyXW4zYyg9TyljKEYpW2NIXW4oYzM9TylbQ0BASF00W0NIMl1bQ0gyXVtDSDJdTzQ=

> <s_epik_cmdline>
J2VwaWtfcHl0aG9uJywgJy1waCcsICc3LjAnLCAnLXRuJywgJzgnLCAnLW1hJywgJzIwMCcsICctbWV0YWxfYmluZGluZycsICctaW1hZScsICc8aW5maWxlLm1hZT4nLCAnLW9tYWUnLCAnPG91dGZpbGUubWFlPic=

> <r_lp_tautomer_probability>
1

> <r_epik_Ionization_Penalty>
5.02402e-09

> <r_epik_Ionization_Penalty_Charging>
5.01743e-09

> <r_epik_Ionization_Penalty_Neutral>
6.58831e-12

> <r_epik_State_Penalty>
-0

> <r_epik_Charging_Adjusted_Penalty>
5.01743e-09

> <i_epik_Tot_Q>
0

> <i_epik_Tot_abs_Q>
0

> <r_epik_Metal_State_Penalty>
-0

> <b_epik_Metal_Only>
0

> <s_epik_Chemistry_Notes>
This compound contains an acetal/aminal-like group ( X-CH(R)-Y where X, Y are N, S, or O) that may be acid/base labile, releasing an aldehyde.

> <s_lp_Force_Field>
OPLS_2005

> <r_lp_Energy>
45.9461

> <b_lp_Chiralities_Consistent>
1

> <s_lp_Variant>
AV-unprocessed.smi:26-1

> <Gold.Version>
5.8.1

> <Gold.Id.Protein>
6NUR|6NUR_protein|mol2

> <Gold.PLP.Fitness>
50.8766

> <Gold.PLP.PLP>
-49.6601

> <Gold.PLP.part.hbond>
-1.7187

> <Gold.PLP.part.metal>
0.0000

> <Gold.PLP.part.buried>
-4.4815

> <Gold.PLP.part.nonpolar>
-42.9409

> <Gold.PLP.part.repulsive>
0.2073

> <Gold.PLP.ligand.clash>
0.0000

> <Gold.PLP.ligand.torsion>
1.0582

> <Gold.PLP.Chemscore.Hbond>
1.0000

> <Gold.PLP.Chemscore.CHOScore>
0.0000

> <Gold.PLP.Chemscore.Metal>
0.0000

> <Gold.Chemscore.Hbonds>
donor molecule, donor type, donor heavy atom, donor atom, acceptor molecule, acceptor atom, score
      P1  H 10752 10765       L1     6  0.98

> <Gold.PLP.Chemscore.Internal.Correction>
0.3328

> <Gold.Rescore>
     Score         DG    S(hbond)    S(metal)    S(lipo)     H(rot)  DE(clash)    DE(int)     intcor
     10.99     -15.94       0.99        0.00     101.24       1.84       0.08       4.86       ----

> <Gold.Chemscore.Fitness>
10.9932

> <Gold.Chemscore.DG>
-15.9387

> <Gold.Chemscore.ZeroCoef>
-5.4800

> <Gold.Chemscore.Hbond>
0.9920

> <Gold.Chemscore.Metal>
0.0000

> <Gold.Chemscore.Lipo>
101.2432

> <Gold.Chemscore.Internal_Hbond>
0.0000

> <Gold.Chemscore.DEClash>
0.0834

> <Gold.Chemscore.DEInternal>
4.8621

> <Gold.Chemscore.Rot>
1.8359

> <Gold.Chemscore.Internal.Correction>
   9.000000E+99

> <Gold.Chemscore.Hbonds>
donor molecule, donor type, donor heavy atom, donor atom, acceptor molecule, acceptor atom, score
      P1  H 10752 10765       L1     6  0.93

> <Gold.Chemscore.Hbond.Weighted>
-3.3133

> <Gold.Chemscore.Metal.Weighted>
-0.0000

> <Gold.Chemscore.Lipo.Weighted>
-11.8455

> <Gold.Chemscore.Internal_Hbond.Weighted>
0.0000

> <Gold.Chemscore.DEClash.Weighted>
0.0834

> <Gold.Chemscore.DEInternal.Weighted>
4.8621

> <Gold.Chemscore.Rot.Weighted>
4.7000

> <Gold.Chemscore.Internal.Correction.Weighted>
   9.000000E+99

> <Gold.Protein.RotatedTorsions>
[ 6907 6896 6895 6894 ] final   74.66 input  -60.11 | X-H torsion
[ 7974 7965 7964 7962 ] final  150.05 input  175.53 | X-H torsion
[ 8008 7997 7996 7995 ] final   68.01 input   59.86 | X-H torsion
[ 10167 10162 10161 10158 ] final  -43.81 input  -65.29 | X-H torsion
[ 10718 10713 10712 10709 ] final -153.21 input   66.30 | X-H torsion
[ 10763 10752 10751 10750 ] final -176.03 input  -60.55 | X-H torsion
[ 11005 11000 10999 10996 ] final   99.23 input  -57.11 | X-H torsion

> <Gold.Protein.ActiveResidues>
 VAL166  LYS551  ARG553  GLY616  TRP617  ASP618  TYR619  PRO620  LYS621  CYS622 
 ASP623  PHE694  ASN695  SER759  ASP760  ASP761  ALA762  ILE779  LEU786  VAL792 
 PHE793  MET794  SER795  GLU796  ALA797  LYS798  CYS799  TRP800  GLU811  SER814 

> <Gold.Protein.RotatedAtoms>
  152.4987  134.4237  159.9488 H   0  0  0  0  0  0  0  0  0  0  0  0  # atno 6907 bound_to 6896
  151.4211  133.3692  159.2764 H   0  0  0  0  0  0  0  0  0  0  0  0  # atno 6908 bound_to 6896
  150.9221  134.8661  159.7555 H   0  0  0  0  0  0  0  0  0  0  0  0  # atno 6909 bound_to 6896
  144.8392  139.6359  143.6024 H   0  0  0  0  0  0  0  0  0  0  0  0  # atno 7974 bound_to 7965
  155.7017  140.3495  155.4936 H   0  0  0  0  0  0  0  0  0  0  0  0  # atno 8008 bound_to 7997
  155.9434  140.1106  157.1059 H   0  0  0  0  0  0  0  0  0  0  0  0  # atno 8009 bound_to 7997
  154.4107  140.1208  156.4944 H   0  0  0  0  0  0  0  0  0  0  0  0  # atno 8010 bound_to 7997
  140.6920  143.2963  151.3405 H   0  0  0  0  0  0  0  0  0  0  0  0  # atno 10167 bound_to 10162
  156.4827  130.8311  151.2537 H   0  0  0  0  0  0  0  0  0  0  0  0  # atno 10718 bound_to 10713
  154.5773  135.2833  155.0768 H   0  0  0  0  0  0  0  0  0  0  0  0  # atno 10763 bound_to 10752
  154.2117  135.6406  153.5121 H   0  0  0  0  0  0  0  0  0  0  0  0  # atno 10764 bound_to 10752
  153.0076  135.5493  154.6416 H   0  0  0  0  0  0  0  0  0  0  0  0  # atno 10765 bound_to 10752
  139.8771  134.9086  156.4575 H   0  0  0  0  0  0  0  0  0  0  0  0  # atno 11005 bound_to 11000
  146.2687  139.6583  142.9311 LP  0  0  0  0  0  0  0  0  0  0  0  0  # atno 17320 bound_to 7965
  145.4729  141.0436  143.2688 LP  0  0  0  0  0  0  0  0  0  0  0  0  # atno 17321 bound_to 7965
  139.6333  144.0678  152.2495 LP  0  0  0  0  0  0  0  0  0  0  0  0  # atno 17342 bound_to 10162
  140.0160  144.6189  150.7607 LP  0  0  0  0  0  0  0  0  0  0  0  0  # atno 17343 bound_to 10162
  157.7481  131.0039  150.3057 LP  0  0  0  0  0  0  0  0  0  0  0  0  # atno 17370 bound_to 10713
  156.3505  130.3830  149.7333 LP  0  0  0  0  0  0  0  0  0  0  0  0  # atno 17371 bound_to 10713
  140.8888  133.7863  155.9548 LP  0  0  0  0  0  0  0  0  0  0  0  0  # atno 17394 bound_to 11000
  140.8776  134.2651  157.5160 LP  0  0  0  0  0  0  0  0  0  0  0  0  # atno 17395 bound_to 11000

$$$$
