AV-unprocessed.smi:3096|AV-procd|sdf|11797|dock6
  -GOLD-   2272017173D 1   1.00000     0.00000
 Structure written by MMmdl.
 33 33  0  0  0  0  0  0  0  0  2 V2000
  152.8343  138.6760  155.0152 C   0  0  0  0  0  0  0  0  0  0  0  0
  151.6497  138.7047  154.3800 C   0  0  0  0  0  0  0  0  0  0  0  0
  150.2687  138.6016  155.0115 C   0  0  0  0  0  0  0  0  0  0  0  0
  149.4631  139.8139  154.7871 N   0  0  0  0  0  0  0  0  0  0  0  0
  149.6681  141.0192  155.3549 C   0  0  0  0  0  0  0  0  0  0  0  0
  148.8611  142.0536  155.0488 N   0  3  0  0  0  0  0  0  0  0  0  0
  147.7301  142.0069  154.1145 C   0  0  0  0  0  0  0  0  0  0  0  0
  150.6766  141.1893  156.2310 N   0  0  0  0  0  0  0  0  0  0  0  0
  151.0153  142.4315  156.9384 C   0  0  0  0  0  0  0  0  0  0  0  0
  151.9319  142.1616  158.1415 C   0  0  0  0  0  0  0  0  0  0  0  0
  151.9008  143.2447  159.1074 N   0  0  0  0  0  0  0  0  0  0  0  0
  152.0876  144.5932  158.8884 C   0  0  0  0  0  0  0  0  0  0  0  0
  151.9592  145.2219  160.0937 C   0  0  0  0  0  0  0  0  0  0  0  0
  151.6916  144.1604  161.0024 C   0  0  0  0  0  0  0  0  0  0  0  0
  151.6567  142.9779  160.4093 N   0  0  0  0  0  0  0  0  0  0  0  0
  152.9125  138.5707  156.0873 H   0  0  0  0  0  0  0  0  0  0  0  0
  153.7557  138.7591  154.4578 H   0  0  0  0  0  0  0  0  0  0  0  0
  151.6524  138.8136  153.3052 H   0  0  0  0  0  0  0  0  0  0  0  0
  149.7475  137.7456  154.5827 H   0  0  0  0  0  0  0  0  0  0  0  0
  150.3681  138.4181  156.0816 H   0  0  0  0  0  0  0  0  0  0  0  0
  148.6943  139.7213  154.1388 H   0  0  0  0  0  0  0  0  0  0  0  0
  147.2519  142.9845  154.0539 H   0  0  0  0  0  0  0  0  0  0  0  0
  146.9897  141.2801  154.4488 H   0  0  0  0  0  0  0  0  0  0  0  0
  148.0707  141.7263  153.1177 H   0  0  0  0  0  0  0  0  0  0  0  0
  151.2451  140.3851  156.4576 H   0  0  0  0  0  0  0  0  0  0  0  0
  151.5245  143.0952  156.2392 H   0  0  0  0  0  0  0  0  0  0  0  0
  150.1010  142.9357  157.2532 H   0  0  0  0  0  0  0  0  0  0  0  0
  151.6499  141.2331  158.6407 H   0  0  0  0  0  0  0  0  0  0  0  0
  152.9603  142.0316  157.8027 H   0  0  0  0  0  0  0  0  0  0  0  0
  152.2931  144.9889  157.9046 H   0  0  0  0  0  0  0  0  0  0  0  0
  152.0435  146.2794  160.2955 H   0  0  0  0  0  0  0  0  0  0  0  0
  151.5222  144.2138  162.0677 H   0  0  0  0  0  0  0  0  0  0  0  0
  149.0377  142.9431  155.4937 H   0  0  0  0  0  0  0  0  0  0  0  0
  1  2  2  0  0  0  0
  1 16  1  0  0  0  0
  1 17  1  0  0  0  0
  2  3  1  0  0  0  0
  2 18  1  0  0  0  0
  3  4  1  0  0  0  0
  3 19  1  0  0  0  0
  3 20  1  0  0  0  0
  4  5  1  0  0  0  0
  4 21  1  0  0  0  0
  5  6  2  0  0  0  0
  5  8  1  0  0  0  0
  6  7  1  0  0  0  0
  6 33  1  0  0  0  0
  7 22  1  0  0  0  0
  7 23  1  0  0  0  0
  7 24  1  0  0  0  0
  8  9  1  0  0  0  0
  8 25  1  0  0  0  0
  9 10  1  0  0  0  0
  9 26  1  0  0  0  0
  9 27  1  0  0  0  0
 10 11  1  0  0  0  0
 10 28  1  0  0  0  0
 10 29  1  0  0  0  0
 11 15  1  0  0  0  0
 11 12  1  0  0  0  0
 12 13  2  0  0  0  0
 12 30  1  0  0  0  0
 13 14  1  0  0  0  0
 13 31  1  0  0  0  0
 14 15  2  0  0  0  0
 14 32  1  0  0  0  0
M  CHG  1   6   1
M  END
> <s_m_source_file>
AV-unprocessed.smi

> <i_m_source_file_index>
3096

> <i_lp_mmshare_version>
43012

> <i_f3d_flags>
0

> <s_epik_input>
W0NIMl09W0NIXVtDSDJdW05IXS9DKD1OL1tDSDNdKVtOSF1bQ0gyXVtDSDJdbjFbY0hdW2NIXVtjSF1uMQ==

> <s_epik_cmdline>
J2VwaWtfcHl0aG9uJywgJy1waCcsICc3LjAnLCAnLXRuJywgJzgnLCAnLW1hJywgJzIwMCcsICctbWV0YWxfYmluZGluZycsICctaW1hZScsICc8aW5maWxlLm1hZT4nLCAnLW9tYWUnLCAnPG91dGZpbGUubWFlPic=

> <r_lp_tautomer_probability>
1

> <r_epik_Ionization_Penalty>
5.14269e-05

> <r_epik_Ionization_Penalty_Charging>
1.55211e-07

> <r_epik_Ionization_Penalty_Neutral>
5.12717e-05

> <r_epik_State_Penalty>
-0

> <r_epik_Charging_Adjusted_Penalty>
1.55211e-07

> <i_epik_Tot_Q>
1

> <i_epik_Tot_abs_Q>
1

> <r_epik_Metal_State_Penalty>
-0

> <b_epik_Metal_Only>
0

> <s_epik_Chemistry_Notes>
This compound has an imine and may undergo hydrolysis.

> <s_lp_Force_Field>
OPLS_2005

> <r_lp_Energy>
6.72739

> <b_lp_Chiralities_Consistent>
1

> <s_lp_Variant>
AV-unprocessed.smi:3096-2

> <Gold.Version>
5.8.1

> <Gold.Id.Protein>
6NUR|6NUR_protein|mol2

> <Gold.PLP.Fitness>
43.2814

> <Gold.PLP.PLP>
-37.9323

> <Gold.PLP.part.hbond>
-1.6608

> <Gold.PLP.part.metal>
0.0000

> <Gold.PLP.part.buried>
-6.1707

> <Gold.PLP.part.nonpolar>
-30.4104

> <Gold.PLP.part.repulsive>
0.4388

> <Gold.PLP.ligand.clash>
0.0000

> <Gold.PLP.ligand.torsion>
0.3275

> <Gold.PLP.Chemscore.Hbond>
2.0000

> <Gold.PLP.Chemscore.CHOScore>
0.0000

> <Gold.PLP.Chemscore.Metal>
0.0000

> <Gold.Chemscore.Hbonds>
donor molecule, donor type, donor heavy atom, donor atom, acceptor molecule, acceptor atom, score
      L1  H     6    33       P1  8028  2.00

> <Gold.PLP.Chemscore.Internal.Correction>
0.0040

> <Gold.Rescore>
     Score         DG    S(hbond)    S(metal)    S(lipo)     H(rot)  DE(clash)    DE(int)     intcor
     13.98     -14.17       0.99        0.00      87.34       1.89       0.01       0.18       ----

> <Gold.Chemscore.Fitness>
13.9798

> <Gold.Chemscore.DG>
-14.1685

> <Gold.Chemscore.ZeroCoef>
-5.4800

> <Gold.Chemscore.Hbond>
0.9898

> <Gold.Chemscore.Metal>
0.0000

> <Gold.Chemscore.Lipo>
87.3402

> <Gold.Chemscore.Internal_Hbond>
0.0000

> <Gold.Chemscore.DEClash>
0.0089

> <Gold.Chemscore.DEInternal>
0.1798

> <Gold.Chemscore.Rot>
1.8891

> <Gold.Chemscore.Internal.Correction>
   9.000000E+99

> <Gold.Chemscore.Hbonds>
donor molecule, donor type, donor heavy atom, donor atom, acceptor molecule, acceptor atom, score
      L1  H     6    33       P1  8028  0.97

> <Gold.Chemscore.Hbond.Weighted>
-3.3058

> <Gold.Chemscore.Metal.Weighted>
-0.0000

> <Gold.Chemscore.Lipo.Weighted>
-10.2188

> <Gold.Chemscore.Internal_Hbond.Weighted>
0.0000

> <Gold.Chemscore.DEClash.Weighted>
0.0089

> <Gold.Chemscore.DEInternal.Weighted>
0.1798

> <Gold.Chemscore.Rot.Weighted>
4.8361

> <Gold.Chemscore.Internal.Correction.Weighted>
   9.000000E+99

> <Gold.Protein.RotatedTorsions>
[ 6907 6896 6895 6894 ] final  -51.31 input  -60.11 | X-H torsion
[ 7974 7965 7964 7962 ] final  124.02 input  175.53 | X-H torsion
[ 8008 7997 7996 7995 ] final  -36.47 input   59.86 | X-H torsion
[ 10167 10162 10161 10158 ] final   41.01 input  -65.29 | X-H torsion
[ 10718 10713 10712 10709 ] final   73.85 input   66.30 | X-H torsion
[ 10763 10752 10751 10750 ] final -173.69 input  -60.55 | X-H torsion
[ 11005 11000 10999 10996 ] final -114.19 input  -57.11 | X-H torsion

> <Gold.Protein.ActiveResidues>
 VAL166  LYS551  ARG553  GLY616  TRP617  ASP618  TYR619  PRO620  LYS621  CYS622 
 ASP623  PHE694  ASN695  SER759  ASP760  ASP761  ALA762  ILE779  LEU786  VAL792 
 PHE793  MET794  SER795  GLU796  ALA797  LYS798  CYS799  TRP800  GLU811  SER814 

> <Gold.Protein.RotatedAtoms>
  150.8623  134.7978  159.7092 H   0  0  0  0  0  0  0  0  0  0  0  0  # atno 6907 bound_to 6896
  152.4656  134.5079  159.9755 H   0  0  0  0  0  0  0  0  0  0  0  0  # atno 6908 bound_to 6896
  151.5181  133.3433  159.2932 H   0  0  0  0  0  0  0  0  0  0  0  0  # atno 6909 bound_to 6896
  145.0892  139.3599  143.4869 H   0  0  0  0  0  0  0  0  0  0  0  0  # atno 7974 bound_to 7965
  154.4072  140.1630  156.2379 H   0  0  0  0  0  0  0  0  0  0  0  0  # atno 8008 bound_to 7997
  155.9227  140.3420  155.6162 H   0  0  0  0  0  0  0  0  0  0  0  0  # atno 8009 bound_to 7997
  155.7203  140.0767  157.2324 H   0  0  0  0  0  0  0  0  0  0  0  0  # atno 8010 bound_to 7997
  140.3685  144.2136  150.6134 H   0  0  0  0  0  0  0  0  0  0  0  0  # atno 10167 bound_to 10162
  157.6566  130.9649  150.1128 H   0  0  0  0  0  0  0  0  0  0  0  0  # atno 10718 bound_to 10713
  154.6049  135.2858  155.0495 H   0  0  0  0  0  0  0  0  0  0  0  0  # atno 10763 bound_to 10752
  154.1746  135.6467  153.5022 H   0  0  0  0  0  0  0  0  0  0  0  0  # atno 10764 bound_to 10752
  153.0171  135.5409  154.6782 H   0  0  0  0  0  0  0  0  0  0  0  0  # atno 10765 bound_to 10752
  141.0567  133.9601  157.2741 H   0  0  0  0  0  0  0  0  0  0  0  0  # atno 11005 bound_to 11000
  146.3531  140.0719  142.8623 LP  0  0  0  0  0  0  0  0  0  0  0  0  # atno 17320 bound_to 7965
  145.1086  140.9391  143.4670 LP  0  0  0  0  0  0  0  0  0  0  0  0  # atno 17321 bound_to 7965
  140.5057  143.2305  151.8612 LP  0  0  0  0  0  0  0  0  0  0  0  0  # atno 17342 bound_to 10162
  139.4806  144.5008  151.9062 LP  0  0  0  0  0  0  0  0  0  0  0  0  # atno 17343 bound_to 10162
  156.2020  130.3661  149.8776 LP  0  0  0  0  0  0  0  0  0  0  0  0  # atno 17370 bound_to 10713
  156.6677  130.8808  151.3557 LP  0  0  0  0  0  0  0  0  0  0  0  0  # atno 17371 bound_to 10713
  139.9396  135.0192  156.8667 LP  0  0  0  0  0  0  0  0  0  0  0  0  # atno 17394 bound_to 11000
  140.5950  134.0226  155.7514 LP  0  0  0  0  0  0  0  0  0  0  0  0  # atno 17395 bound_to 11000

$$$$
