AV-unprocessed.smi:1426|AV-procd|sdf|5806|dock8
  -GOLD-   22720 5463D 1   1.00000     0.00000
 Structure written by MMmdl.
 43 45  0  0  0  0  0  0  0  0  1 V2000
  150.2493  133.5752  155.4216 O   0  0  0  0  0  0  0  0  0  0  0  0
  149.7386  134.2696  154.5427 C   0  0  0  0  0  0  0  0  0  0  0  0
  149.9468  135.5884  154.4234 N   0  0  0  0  0  0  0  0  0  0  0  0
  150.7681  136.4002  155.3160 C   0  0  0  0  0  0  0  0  0  0  0  0
  150.7124  137.8927  154.9394 C   0  0  1  0  0  0  0  0  0  0  0  0
  150.2331  138.8208  156.0394 C   0  0  0  0  0  0  0  0  0  0  0  0
  150.7397  140.1755  155.5543 C   0  0  0  0  0  0  0  0  0  0  0  0
  151.9258  139.9064  154.8119 O   0  0  0  0  0  0  0  0  0  0  0  0
  152.0775  138.5027  154.6244 C   0  0  0  0  0  0  0  0  0  0  0  0
  148.8879  133.8276  153.6018 N   0  0  0  0  0  0  0  0  0  0  0  0
  148.3626  132.5143  153.4381 C   0  0  0  0  0  0  0  0  0  0  0  0
  148.8694  131.3994  154.1491 C   0  0  0  0  0  0  0  0  0  0  0  0
  148.3071  130.1300  153.9265 C   0  0  0  0  0  0  0  0  0  0  0  0
  147.2625  130.0173  152.9925 C   0  0  0  0  0  0  0  0  0  0  0  0
  146.7814  131.0654  152.2940 N   0  0  0  0  0  0  0  0  0  0  0  0
  147.3142  132.2940  152.5051 C   0  0  0  0  0  0  0  0  0  0  0  0
  146.8164  133.3647  151.7344 N   0  0  0  0  0  0  0  0  0  0  0  0
  145.9556  132.9336  150.6362 C   0  0  0  0  0  0  0  0  0  0  0  0
  144.8380  133.9728  150.5268 C   0  0  0  0  0  0  0  0  0  0  0  0
  144.7315  134.5127  151.9476 C   0  0  0  0  0  0  0  0  0  0  0  0
  146.1854  134.4938  152.4161 C   0  0  0  0  0  0  0  0  0  0  0  0
  149.4821  136.0739  153.6701 H   0  0  0  0  0  0  0  0  0  0  0  0
  150.4758  136.2535  156.3573 H   0  0  0  0  0  0  0  0  0  0  0  0
  151.7955  136.0440  155.2364 H   0  0  0  0  0  0  0  0  0  0  0  0
  150.0672  138.0225  154.0687 H   0  0  0  0  0  0  0  0  0  0  0  0
  149.1522  138.8008  156.1809 H   0  0  0  0  0  0  0  0  0  0  0  0
  150.7064  138.5624  156.9879 H   0  0  0  0  0  0  0  0  0  0  0  0
  150.0108  140.6364  154.8866 H   0  0  0  0  0  0  0  0  0  0  0  0
  150.9307  140.8664  156.3757 H   0  0  0  0  0  0  0  0  0  0  0  0
  152.8329  138.1428  155.3243 H   0  0  0  0  0  0  0  0  0  0  0  0
  152.4157  138.2708  153.6142 H   0  0  0  0  0  0  0  0  0  0  0  0
  148.4785  134.5324  153.0064 H   0  0  0  0  0  0  0  0  0  0  0  0
  149.6861  131.4934  154.8483 H   0  0  0  0  0  0  0  0  0  0  0  0
  148.6720  129.2626  154.4562 H   0  0  0  0  0  0  0  0  0  0  0  0
  146.8075  129.0584  152.7931 H   0  0  0  0  0  0  0  0  0  0  0  0
  146.5177  132.8549  149.7051 H   0  0  0  0  0  0  0  0  0  0  0  0
  145.5302  131.9518  150.8525 H   0  0  0  0  0  0  0  0  0  0  0  0
  145.1402  134.7736  149.8502 H   0  0  0  0  0  0  0  0  0  0  0  0
  143.9022  133.5522  150.1575 H   0  0  0  0  0  0  0  0  0  0  0  0
  144.2817  135.5047  151.9974 H   0  0  0  0  0  0  0  0  0  0  0  0
  144.1338  133.8355  152.5596 H   0  0  0  0  0  0  0  0  0  0  0  0
  146.2623  134.4630  153.5033 H   0  0  0  0  0  0  0  0  0  0  0  0
  146.6923  135.4022  152.0893 H   0  0  0  0  0  0  0  0  0  0  0  0
  1  2  2  0  0  0  0
  2  3  1  0  0  0  0
  2 10  1  0  0  0  0
  3  4  1  0  0  0  0
  3 22  1  0  0  0  0
  4  5  1  0  0  0  0
  4 23  1  0  0  0  0
  4 24  1  0  0  0  0
  5  9  1  0  0  0  0
  5  6  1  0  0  0  0
  5 25  1  0  0  0  0
  6  7  1  0  0  0  0
  6 26  1  0  0  0  0
  6 27  1  0  0  0  0
  7  8  1  0  0  0  0
  7 28  1  0  0  0  0
  7 29  1  0  0  0  0
  8  9  1  0  0  0  0
  9 30  1  0  0  0  0
  9 31  1  0  0  0  0
 10 11  1  0  0  0  0
 10 32  1  0  0  0  0
 11 16  1  0  0  0  0
 11 12  2  0  0  0  0
 12 13  1  0  0  0  0
 12 33  1  0  0  0  0
 13 14  2  0  0  0  0
 13 34  1  0  0  0  0
 14 15  1  0  0  0  0
 14 35  1  0  0  0  0
 15 16  2  0  0  0  0
 16 17  1  0  0  0  0
 17 21  1  0  0  0  0
 17 18  1  0  0  0  0
 18 19  1  0  0  0  0
 18 36  1  0  0  0  0
 18 37  1  0  0  0  0
 19 20  1  0  0  0  0
 19 38  1  0  0  0  0
 19 39  1  0  0  0  0
 20 21  1  0  0  0  0
 20 40  1  0  0  0  0
 20 41  1  0  0  0  0
 21 42  1  0  0  0  0
 21 43  1  0  0  0  0
M  END
> <s_m_source_file>
AV-unprocessed.smi

> <i_m_source_file_index>
1426

> <i_lp_mmshare_version>
43012

> <i_f3d_flags>
0

> <s_epik_input>
W0NIMl0xT1tDSDJdW0NIMl1bQ0BIXTFbQ0gyXVtOSF1DKD1PKVtOSF1jMltjSF1bY0hdW2NIXW5jMk4zW0NIMl1bQ0gyXVtDSDJdW0NIMl0z

> <s_epik_cmdline>
J2VwaWtfcHl0aG9uJywgJy1waCcsICc3LjAnLCAnLXRuJywgJzgnLCAnLW1hJywgJzIwMCcsICctbWV0YWxfYmluZGluZycsICctaW1hZScsICc8aW5maWxlLm1hZT4nLCAnLW9tYWUnLCAnPG91dGZpbGUubWFlPic=

> <r_lp_tautomer_probability>
1

> <r_epik_Ionization_Penalty>
0.0999657

> <r_epik_Ionization_Penalty_Charging>
0

> <r_epik_Ionization_Penalty_Neutral>
0.0999657

> <r_epik_State_Penalty>
0.0894442

> <r_epik_Charging_Adjusted_Penalty>
0.0894442

> <i_epik_Tot_Q>
0

> <i_epik_Tot_abs_Q>
0

> <r_epik_Metal_State_Penalty>
0.076486

> <b_epik_Metal_Only>
0

> <s_lp_Force_Field>
OPLS_2005

> <r_lp_Energy>
46.9111

> <b_lp_Chiralities_Consistent>
1

> <s_lp_Variant>
AV-unprocessed.smi:1426-2

> <Gold.Version>
5.8.1

> <Gold.Id.Protein>
6NUR|6NUR_protein|mol2

> <Gold.PLP.Fitness>
41.1435

> <Gold.PLP.PLP>
-34.7483

> <Gold.PLP.part.hbond>
-3.5243

> <Gold.PLP.part.metal>
0.0000

> <Gold.PLP.part.buried>
-3.9377

> <Gold.PLP.part.nonpolar>
-27.7344

> <Gold.PLP.part.repulsive>
1.3481

> <Gold.PLP.ligand.clash>
0.0000

> <Gold.PLP.ligand.torsion>
0.9056

> <Gold.PLP.Chemscore.Hbond>
2.6962

> <Gold.PLP.Chemscore.CHOScore>
0.0000

> <Gold.PLP.Chemscore.Metal>
0.0000

> <Gold.Chemscore.Hbonds>
donor molecule, donor type, donor heavy atom, donor atom, acceptor molecule, acceptor atom, score
      L1  H     3    22       P1  7948  1.00
      L1  H    10    32       P1  7948  0.77
      P1  H  7989  7998       L1     8  0.91

> <Gold.PLP.Chemscore.Internal.Correction>
0.1180

> <Gold.Rescore>
     Score         DG    S(hbond)    S(metal)    S(lipo)     H(rot)  DE(clash)    DE(int)     intcor
     13.21     -16.01       1.63        0.00      73.62       1.38       0.44       2.36       ----

> <Gold.Chemscore.Fitness>
13.2119

> <Gold.Chemscore.DG>
-16.0071

> <Gold.Chemscore.ZeroCoef>
-5.4800

> <Gold.Chemscore.Hbond>
1.6304

> <Gold.Chemscore.Metal>
0.0000

> <Gold.Chemscore.Lipo>
73.6182

> <Gold.Chemscore.Internal_Hbond>
0.0000

> <Gold.Chemscore.DEClash>
0.4375

> <Gold.Chemscore.DEInternal>
2.3577

> <Gold.Chemscore.Rot>
1.3796

> <Gold.Chemscore.Internal.Correction>
   9.000000E+99

> <Gold.Chemscore.Hbonds>
donor molecule, donor type, donor heavy atom, donor atom, acceptor molecule, acceptor atom, score
      L1  H     3    22       P1  7948  0.53
      L1  H    10    32       P1  7948  0.22
      P1  H  7989  7998       L1     8  0.22

> <Gold.Chemscore.Hbond.Weighted>
-5.4454

> <Gold.Chemscore.Metal.Weighted>
-0.0000

> <Gold.Chemscore.Lipo.Weighted>
-8.6133

> <Gold.Chemscore.Internal_Hbond.Weighted>
0.0000

> <Gold.Chemscore.DEClash.Weighted>
0.4375

> <Gold.Chemscore.DEInternal.Weighted>
2.3577

> <Gold.Chemscore.Rot.Weighted>
3.5317

> <Gold.Chemscore.Internal.Correction.Weighted>
   9.000000E+99

> <Gold.Protein.RotatedTorsions>
[ 6907 6896 6895 6894 ] final  -35.66 input  -60.11 | X-H torsion
[ 7974 7965 7964 7962 ] final  -62.63 input  175.53 | X-H torsion
[ 8008 7997 7996 7995 ] final -138.45 input   59.86 | X-H torsion
[ 10167 10162 10161 10158 ] final  143.91 input  -65.29 | X-H torsion
[ 10718 10713 10712 10709 ] final  165.35 input   66.30 | X-H torsion
[ 10763 10752 10751 10750 ] final   81.31 input  -60.55 | X-H torsion
[ 11005 11000 10999 10996 ] final   73.24 input  -57.11 | X-H torsion

> <Gold.Protein.ActiveResidues>
 VAL166  LYS551  ARG553  GLY616  TRP617  ASP618  TYR619  PRO620  LYS621  CYS622 
 ASP623  PHE694  ASN695  SER759  ASP760  ASP761  ALA762  ILE779  LEU786  VAL792 
 PHE793  MET794  SER795  GLU796  ALA797  LYS798  CYS799  TRP800  GLU811  SER814 

> <Gold.Protein.RotatedAtoms>
  151.0370  134.9580  159.8140 H   0  0  0  0  0  0  0  0  0  0  0  0  # atno 6907 bound_to 6896
  152.5357  134.2707  159.8980 H   0  0  0  0  0  0  0  0  0  0  0  0  # atno 6908 bound_to 6896
  151.2718  133.4209  159.2655 H   0  0  0  0  0  0  0  0  0  0  0  0  # atno 6909 bound_to 6896
  145.7890  140.8720  143.0291 H   0  0  0  0  0  0  0  0  0  0  0  0  # atno 7974 bound_to 7965
  155.4285  140.0523  157.3020 H   0  0  0  0  0  0  0  0  0  0  0  0  # atno 8008 bound_to 7997
  154.4871  140.2105  155.9590 H   0  0  0  0  0  0  0  0  0  0  0  0  # atno 8009 bound_to 7997
  156.1289  140.3175  155.8324 H   0  0  0  0  0  0  0  0  0  0  0  0  # atno 8010 bound_to 7997
  139.4959  144.6008  151.6485 H   0  0  0  0  0  0  0  0  0  0  0  0  # atno 10167 bound_to 10162
  157.0813  131.0393  151.2574 H   0  0  0  0  0  0  0  0  0  0  0  0  # atno 10718 bound_to 10713
  153.1106  135.4770  154.9028 H   0  0  0  0  0  0  0  0  0  0  0  0  # atno 10763 bound_to 10752
  154.7476  135.3098  154.8618 H   0  0  0  0  0  0  0  0  0  0  0  0  # atno 10764 bound_to 10752
  153.9208  135.6855  153.4801 H   0  0  0  0  0  0  0  0  0  0  0  0  # atno 10765 bound_to 10752
  139.9450  134.7330  156.1003 H   0  0  0  0  0  0  0  0  0  0  0  0  # atno 11005 bound_to 11000
  144.6784  140.0096  143.7484 LP  0  0  0  0  0  0  0  0  0  0  0  0  # atno 17320 bound_to 7965
  145.9996  139.3080  143.0935 LP  0  0  0  0  0  0  0  0  0  0  0  0  # atno 17321 bound_to 7965
  140.5657  144.0193  150.6191 LP  0  0  0  0  0  0  0  0  0  0  0  0  # atno 17342 bound_to 10162
  140.3294  143.3087  152.0703 LP  0  0  0  0  0  0  0  0  0  0  0  0  # atno 17343 bound_to 10162
  157.4797  130.7758  149.7402 LP  0  0  0  0  0  0  0  0  0  0  0  0  # atno 17370 bound_to 10713
  155.9923  130.3932  150.2949 LP  0  0  0  0  0  0  0  0  0  0  0  0  # atno 17371 bound_to 10713
  141.1097  133.6647  156.2949 LP  0  0  0  0  0  0  0  0  0  0  0  0  # atno 17394 bound_to 11000
  140.5857  134.5701  157.5489 LP  0  0  0  0  0  0  0  0  0  0  0  0  # atno 17395 bound_to 11000

$$$$
