AV-unprocessed.smi:578|AV-procd|sdf|2985|dock4
  -GOLD-   2262023493D 1   1.00000     0.00000
 Structure written by MMmdl.
 32 33  0  0  0  0  0  0  0  0  2 V2000
  151.6230  145.4979  159.3680 C   0  0  0  0  0  0  0  0  0  0  0  0
  151.4888  143.9749  159.4714 C   0  0  1  0  0  0  0  0  0  0  0  0
  151.3717  143.3088  158.0872 C   0  0  0  0  0  0  0  0  0  0  0  0
  151.3410  141.8594  158.2312 N   0  0  0  0  0  0  0  0  0  0  0  0
  151.1232  141.1886  157.0199 C   0  0  0  0  0  0  0  0  0  0  0  0
  150.0760  141.6052  156.1757 C   0  0  0  0  0  0  0  0  0  0  0  0
  149.8768  140.9174  154.9639 C   0  0  0  0  0  0  0  0  0  0  0  0
  150.6392  139.8773  154.5681 N   0  0  0  0  0  0  0  0  0  0  0  0
  151.6497  139.4691  155.3733 C   0  0  0  0  0  0  0  0  0  0  0  0
  152.4860  138.3065  154.9090 C   0  0  0  0  0  0  0  0  0  0  0  0
  151.9222  137.3496  154.3314 O   0  0  0  0  0  0  0  0  0  0  0  0
  153.7210  138.3284  155.1127 O   0  5  0  0  0  0  0  0  0  0  0  0
  151.9249  140.1003  156.6098 C   0  0  0  0  0  0  0  0  0  0  0  0
  152.4866  141.3521  158.9748 C   0  0  0  0  0  0  0  0  0  0  0  0
  152.5817  142.0549  160.3424 C   0  0  1  0  0  0  0  0  0  0  0  0
  153.8267  141.6257  161.1256 C   0  0  0  0  0  0  0  0  0  0  0  0
  152.6425  143.4655  160.1378 O   0  0  0  0  0  0  0  0  0  0  0  0
  150.7553  145.9346  158.8729 H   0  0  0  0  0  0  0  0  0  0  0  0
  152.5098  145.7784  158.7990 H   0  0  0  0  0  0  0  0  0  0  0  0
  151.7037  145.9500  160.3566 H   0  0  0  0  0  0  0  0  0  0  0  0
  150.6028  143.7442  160.0656 H   0  0  0  0  0  0  0  0  0  0  0  0
  150.4654  143.6466  157.5828 H   0  0  0  0  0  0  0  0  0  0  0  0
  152.2168  143.5997  157.4616 H   0  0  0  0  0  0  0  0  0  0  0  0
  149.4377  142.4330  156.4478 H   0  0  0  0  0  0  0  0  0  0  0  0
  149.0829  141.2107  154.2931 H   0  0  0  0  0  0  0  0  0  0  0  0
  152.7369  139.7583  157.2351 H   0  0  0  0  0  0  0  0  0  0  0  0
  152.3869  140.2745  159.1118 H   0  0  0  0  0  0  0  0  0  0  0  0
  153.4017  141.5220  158.4056 H   0  0  0  0  0  0  0  0  0  0  0  0
  151.6982  141.8189  160.9386 H   0  0  0  0  0  0  0  0  0  0  0  0
  153.8185  140.5523  161.3162 H   0  0  0  0  0  0  0  0  0  0  0  0
  153.8754  142.1336  162.0891 H   0  0  0  0  0  0  0  0  0  0  0  0
  154.7391  141.8617  160.5772 H   0  0  0  0  0  0  0  0  0  0  0  0
  1  2  1  0  0  0  0
  1 18  1  0  0  0  0
  1 19  1  0  0  0  0
  1 20  1  0  0  0  0
  2 17  1  0  0  0  0
  2  3  1  0  0  0  0
  2 21  1  0  0  0  0
  3  4  1  0  0  0  0
  3 22  1  0  0  0  0
  3 23  1  0  0  0  0
  4  5  1  0  0  0  0
  4 14  1  0  0  0  0
  5 13  1  0  0  0  0
  5  6  2  0  0  0  0
  6  7  1  0  0  0  0
  6 24  1  0  0  0  0
  7  8  2  0  0  0  0
  7 25  1  0  0  0  0
  8  9  1  0  0  0  0
  9 10  1  0  0  0  0
  9 13  2  0  0  0  0
 10 11  2  0  0  0  0
 10 12  1  0  0  0  0
 13 26  1  0  0  0  0
 14 15  1  0  0  0  0
 14 27  1  0  0  0  0
 14 28  1  0  0  0  0
 15 16  1  0  0  0  0
 15 17  1  0  0  0  0
 15 29  1  0  0  0  0
 16 30  1  0  0  0  0
 16 31  1  0  0  0  0
 16 32  1  0  0  0  0
M  CHG  1  12  -1
M  END
> <s_m_source_file>
AV-unprocessed.smi

> <i_m_source_file_index>
578

> <i_lp_mmshare_version>
43012

> <i_f3d_flags>
0

> <s_epik_input>
W0NIM11bQ0BASF0xW0NIMl1OKFtDSDJdW0NASF0oTzEpW0NIM10pYzJbY0hdW2NIXW5jKFtjSF0yKUMoPU8pW09IXQ==

> <s_epik_cmdline>
J2VwaWtfcHl0aG9uJywgJy1waCcsICc3LjAnLCAnLXRuJywgJzgnLCAnLW1hJywgJzIwMCcsICctbWV0YWxfYmluZGluZycsICctaW1hZScsICc8aW5maWxlLm1hZT4nLCAnLW9tYWUnLCAnPG91dGZpbGUubWFlPic=

> <r_epik_Ionization_Penalty>
2.00764

> <r_epik_Ionization_Penalty_Charging>
0.000210348

> <r_epik_Ionization_Penalty_Neutral>
2.00743

> <r_epik_State_Penalty>
2.13668

> <r_epik_Charging_Adjusted_Penalty>
2.13689

> <i_epik_Tot_Q>
-1

> <i_epik_Tot_abs_Q>
1

> <r_epik_Metal_State_Penalty>
0.0208571

> <b_epik_Metal_Only>
0

> <s_lp_Force_Field>
OPLS_2005

> <r_lp_Energy>
21.1915

> <b_lp_Chiralities_Consistent>
1

> <s_lp_Variant>
AV-unprocessed.smi:578-5

> <Gold.Version>
5.8.1

> <Gold.Id.Protein>
6NUR|6NUR_protein|mol2

> <Gold.PLP.Fitness>
51.1431

> <Gold.PLP.PLP>
-41.0297

> <Gold.PLP.part.hbond>
-3.0000

> <Gold.PLP.part.metal>
0.0000

> <Gold.PLP.part.buried>
-4.7813

> <Gold.PLP.part.nonpolar>
-33.4655

> <Gold.PLP.part.repulsive>
0.2939

> <Gold.PLP.ligand.clash>
0.5746

> <Gold.PLP.ligand.torsion>
0.7181

> <Gold.PLP.Chemscore.Hbond>
4.0105

> <Gold.PLP.Chemscore.CHOScore>
0.0000

> <Gold.PLP.Chemscore.Metal>
0.0000

> <Gold.Chemscore.Hbonds>
donor molecule, donor type, donor heavy atom, donor atom, acceptor molecule, acceptor atom, score
      P1  H  7989  7998       L1     8  0.60
      P1  H  7997  8008       L1    12  1.08
      P1  H 10752 10763       L1    11  1.86

> <Gold.PLP.Chemscore.Internal.Correction>
0.0927

> <Gold.Rescore>
     Score         DG    S(hbond)    S(metal)    S(lipo)     H(rot)  DE(clash)    DE(int)     intcor
     18.46     -19.30       1.71        0.00      91.13       1.00       0.02       0.82       ----

> <Gold.Chemscore.Fitness>
18.4610

> <Gold.Chemscore.DG>
-19.3003

> <Gold.Chemscore.ZeroCoef>
-5.4800

> <Gold.Chemscore.Hbond>
1.7121

> <Gold.Chemscore.Metal>
0.0000

> <Gold.Chemscore.Lipo>
91.1276

> <Gold.Chemscore.Internal_Hbond>
0.0000

> <Gold.Chemscore.DEClash>
0.0163

> <Gold.Chemscore.DEInternal>
0.8230

> <Gold.Chemscore.Rot>
1.0000

> <Gold.Chemscore.Internal.Correction>
   9.000000E+99

> <Gold.Chemscore.Hbonds>
donor molecule, donor type, donor heavy atom, donor atom, acceptor molecule, acceptor atom, score
      P1  H  7989  7998       L1     8  0.01
      P1  H  7997  8008       L1    12  0.51
      P1  H 10752 10763       L1    11  0.81

> <Gold.Chemscore.Hbond.Weighted>
-5.7184

> <Gold.Chemscore.Metal.Weighted>
-0.0000

> <Gold.Chemscore.Lipo.Weighted>
-10.6619

> <Gold.Chemscore.Internal_Hbond.Weighted>
0.0000

> <Gold.Chemscore.DEClash.Weighted>
0.0163

> <Gold.Chemscore.DEInternal.Weighted>
0.8230

> <Gold.Chemscore.Rot.Weighted>
2.5600

> <Gold.Chemscore.Internal.Correction.Weighted>
   9.000000E+99

> <Gold.Protein.RotatedTorsions>
[ 6907 6896 6895 6894 ] final -170.71 input  -60.11 | X-H torsion
[ 7974 7965 7964 7962 ] final  -86.07 input  175.53 | X-H torsion
[ 8008 7997 7996 7995 ] final   -7.92 input   59.86 | X-H torsion
[ 10167 10162 10161 10158 ] final   41.92 input  -65.29 | X-H torsion
[ 10718 10713 10712 10709 ] final  -62.12 input   66.30 | X-H torsion
[ 10763 10752 10751 10750 ] final   30.13 input  -60.55 | X-H torsion
[ 11005 11000 10999 10996 ] final  -81.35 input  -57.11 | X-H torsion

> <Gold.Protein.ActiveResidues>
 VAL166  LYS551  ARG553  GLY616  TRP617  ASP618  TYR619  PRO620  LYS621  CYS622 
 ASP623  PHE694  ASN695  SER759  ASP760  ASP761  ALA762  ILE779  LEU786  VAL792 
 PHE793  MET794  SER795  GLU796  ALA797  LYS798  CYS799  TRP800  GLU811  SER814 

> <Gold.Protein.RotatedAtoms>
  151.5121  133.3483  159.2886 H   0  0  0  0  0  0  0  0  0  0  0  0  # atno 6907 bound_to 6896
  150.8705  134.8080  159.7162 H   0  0  0  0  0  0  0  0  0  0  0  0  # atno 6908 bound_to 6896
  152.4695  134.5004  159.9775 H   0  0  0  0  0  0  0  0  0  0  0  0  # atno 6909 bound_to 6896
  145.4848  140.9555  143.1844 H   0  0  0  0  0  0  0  0  0  0  0  0  # atno 7974 bound_to 7965
  154.5791  140.2394  155.8080 H   0  0  0  0  0  0  0  0  0  0  0  0  # atno 8008 bound_to 7997
  156.2166  140.3010  155.9809 H   0  0  0  0  0  0  0  0  0  0  0  0  # atno 8009 bound_to 7997
  155.2573  140.0413  157.2984 H   0  0  0  0  0  0  0  0  0  0  0  0  # atno 8010 bound_to 7997
  140.3595  144.2247  150.6139 H   0  0  0  0  0  0  0  0  0  0  0  0  # atno 10167 bound_to 10162
  156.0876  130.4205  150.1090 H   0  0  0  0  0  0  0  0  0  0  0  0  # atno 10718 bound_to 10713
  153.0389  135.6471  154.0998 H   0  0  0  0  0  0  0  0  0  0  0  0  # atno 10763 bound_to 10752
  154.0708  135.2880  155.3310 H   0  0  0  0  0  0  0  0  0  0  0  0  # atno 10764 bound_to 10752
  154.6595  135.5396  153.8065 H   0  0  0  0  0  0  0  0  0  0  0  0  # atno 10765 bound_to 10752
  141.1666  133.7192  156.8410 H   0  0  0  0  0  0  0  0  0  0  0  0  # atno 11005 bound_to 11000
  144.7868  139.6410  143.7130 LP  0  0  0  0  0  0  0  0  0  0  0  0  # atno 17320 bound_to 7965
  146.2319  139.5831  142.9549 LP  0  0  0  0  0  0  0  0  0  0  0  0  # atno 17321 bound_to 7965
  140.5141  143.2283  151.8490 LP  0  0  0  0  0  0  0  0  0  0  0  0  # atno 17342 bound_to 10162
  139.4816  144.4915  151.9179 LP  0  0  0  0  0  0  0  0  0  0  0  0  # atno 17343 bound_to 10162
  156.9108  130.9651  151.3563 LP  0  0  0  0  0  0  0  0  0  0  0  0  # atno 17370 bound_to 10713
  157.6015  130.8516  149.8810 LP  0  0  0  0  0  0  0  0  0  0  0  0  # atno 17371 bound_to 10713
  140.1983  134.8915  157.3140 LP  0  0  0  0  0  0  0  0  0  0  0  0  # atno 17394 bound_to 11000
  140.2215  134.4018  155.7564 LP  0  0  0  0  0  0  0  0  0  0  0  0  # atno 17395 bound_to 11000

$$$$
