AV-unprocessed.smi:527|AV-procd|sdf|2817|dock7
  -GOLD-   2262023293D 1   1.00000     0.00000
 Structure written by MMmdl.
 42 43  0  0  0  0  0  0  0  0  1 V2000
  152.8535  143.1622  161.3812 C   0  0  0  0  0  0  0  0  0  0  0  0
  152.7117  142.9723  159.8596 C   0  0  2  0  0  0  0  0  0  0  0  0
  151.8415  144.1047  159.2791 C   0  0  0  0  0  0  0  0  0  0  0  0
  151.6997  143.9896  157.7580 C   0  0  0  0  0  0  0  0  0  0  0  0
  151.1020  142.6328  157.3759 C   0  0  0  0  0  0  0  0  0  0  0  0
  151.9467  141.4698  157.9302 C   0  0  2  0  0  0  0  0  0  0  0  0
  151.2964  140.2068  157.5826 N   0  0  0  0  0  0  0  0  0  0  0  0
  151.7124  139.3483  156.6395 C   0  0  0  0  0  0  0  0  0  0  0  0
  152.8006  139.4439  156.0677 O   0  0  0  0  0  0  0  0  0  0  0  0
  150.7870  138.3958  156.4132 N   0  0  0  0  0  0  0  0  0  0  0  0
  150.8582  137.3712  155.5392 C   0  0  0  0  0  0  0  0  0  0  0  0
  151.8233  137.1342  154.8076 O   0  0  0  0  0  0  0  0  0  0  0  0
  149.6166  136.4700  155.5052 C   0  0  0  0  0  0  0  0  0  0  0  0
  149.9294  135.0648  155.7034 N   0  0  0  0  0  0  0  0  0  0  0  0
  149.4656  133.9886  154.9574 C   0  0  0  0  0  0  0  0  0  0  0  0
  150.0278  132.8583  155.5065 C   0  0  0  0  0  0  0  0  0  0  0  0
  150.8359  133.2127  156.5843 N   0  0  0  0  0  0  0  0  0  0  0  0
  150.7300  134.5343  156.6386 C   0  0  0  0  0  0  0  0  0  0  0  0
  152.1492  141.5762  159.4664 C   0  0  1  0  0  0  0  0  0  0  0  0
  153.0410  140.4273  159.9863 C   0  0  0  0  0  0  0  0  0  0  0  0
  151.9059  142.9903  161.8928 H   0  0  0  0  0  0  0  0  0  0  0  0
  153.1782  144.1756  161.6194 H   0  0  0  0  0  0  0  0  0  0  0  0
  153.5955  142.4890  161.8089 H   0  0  0  0  0  0  0  0  0  0  0  0
  153.7076  143.0692  159.4246 H   0  0  0  0  0  0  0  0  0  0  0  0
  150.8524  144.0826  159.7389 H   0  0  0  0  0  0  0  0  0  0  0  0
  152.2747  145.0744  159.5270 H   0  0  0  0  0  0  0  0  0  0  0  0
  151.0677  144.7940  157.3805 H   0  0  0  0  0  0  0  0  0  0  0  0
  152.6748  144.1112  157.2844 H   0  0  0  0  0  0  0  0  0  0  0  0
  150.0822  142.5667  157.7581 H   0  0  0  0  0  0  0  0  0  0  0  0
  151.0302  142.5603  156.2899 H   0  0  0  0  0  0  0  0  0  0  0  0
  152.9330  141.5122  157.4632 H   0  0  0  0  0  0  0  0  0  0  0  0
  150.4618  139.9742  158.1007 H   0  0  0  0  0  0  0  0  0  0  0  0
  149.9397  138.4577  156.9579 H   0  0  0  0  0  0  0  0  0  0  0  0
  148.9168  136.7875  156.2793 H   0  0  0  0  0  0  0  0  0  0  0  0
  149.1096  136.5798  154.5455 H   0  0  0  0  0  0  0  0  0  0  0  0
  148.7952  134.1131  154.1197 H   0  0  0  0  0  0  0  0  0  0  0  0
  149.9143  131.8259  155.2104 H   0  0  0  0  0  0  0  0  0  0  0  0
  151.2471  135.1308  157.3757 H   0  0  0  0  0  0  0  0  0  0  0  0
  151.1708  141.4697  159.9379 H   0  0  0  0  0  0  0  0  0  0  0  0
  154.0548  140.5063  159.5927 H   0  0  0  0  0  0  0  0  0  0  0  0
  152.6535  139.4494  159.7012 H   0  0  0  0  0  0  0  0  0  0  0  0
  153.1041  140.4228  161.0736 H   0  0  0  0  0  0  0  0  0  0  0  0
  1  2  1  0  0  0  0
  1 21  1  0  0  0  0
  1 22  1  0  0  0  0
  1 23  1  0  0  0  0
  2 19  1  0  0  0  0
  2  3  1  0  0  0  0
  2 24  1  0  0  0  0
  3  4  1  0  0  0  0
  3 25  1  0  0  0  0
  3 26  1  0  0  0  0
  4  5  1  0  0  0  0
  4 27  1  0  0  0  0
  4 28  1  0  0  0  0
  5  6  1  0  0  0  0
  5 29  1  0  0  0  0
  5 30  1  0  0  0  0
  6  7  1  0  0  0  0
  6 19  1  0  0  0  0
  6 31  1  0  0  0  0
  7  8  1  0  0  0  0
  7 32  1  0  0  0  0
  8  9  2  0  0  0  0
  8 10  1  0  0  0  0
 10 11  1  0  0  0  0
 10 33  1  0  0  0  0
 11 12  2  0  0  0  0
 11 13  1  0  0  0  0
 13 14  1  0  0  0  0
 13 34  1  0  0  0  0
 13 35  1  0  0  0  0
 14 18  1  0  0  0  0
 14 15  1  0  0  0  0
 15 16  2  0  0  0  0
 15 36  1  0  0  0  0
 16 17  1  0  0  0  0
 16 37  1  0  0  0  0
 17 18  2  0  0  0  0
 18 38  1  0  0  0  0
 19 20  1  0  0  0  0
 19 39  1  0  0  0  0
 20 40  1  0  0  0  0
 20 41  1  0  0  0  0
 20 42  1  0  0  0  0
M  END
> <s_m_source_file>
AV-unprocessed.smi

> <i_m_source_file_index>
527

> <i_lp_mmshare_version>
43012

> <i_f3d_flags>
0

> <s_epik_input>
W0NIM11bQ0BASF0xW0NIMl1bQ0gyXVtDSDJdW0NASF0oW0NASF0xW0NIM10pW05IXUMoPU8pW05IXUMoPU8pW0NIMl1uMltjSF1bY0hdbltjSF0y

> <s_epik_cmdline>
J2VwaWtfcHl0aG9uJywgJy1waCcsICc3LjAnLCAnLXRuJywgJzgnLCAnLW1hJywgJzIwMCcsICctbWV0YWxfYmluZGluZycsICctaW1hZScsICc8aW5maWxlLm1hZT4nLCAnLW9tYWUnLCAnPG91dGZpbGUubWFlPic=

> <r_lp_tautomer_probability>
1

> <r_epik_Ionization_Penalty>
0.172132

> <r_epik_Ionization_Penalty_Charging>
0.172105

> <r_epik_Ionization_Penalty_Neutral>
2.71747e-05

> <r_epik_State_Penalty>
0.161503

> <r_epik_Charging_Adjusted_Penalty>
0.333607

> <i_epik_Tot_Q>
0

> <i_epik_Tot_abs_Q>
0

> <r_epik_Metal_State_Penalty>
0.124763

> <b_epik_Metal_Only>
0

> <s_lp_Force_Field>
OPLS_2005

> <r_lp_Energy>
15.8984

> <b_lp_Chiralities_Consistent>
1

> <s_lp_Variant>
AV-unprocessed.smi:527-3

> <Gold.Version>
5.8.1

> <Gold.Id.Protein>
6NUR|6NUR_protein|mol2

> <Gold.PLP.Fitness>
48.7361

> <Gold.PLP.PLP>
-40.8116

> <Gold.PLP.part.hbond>
-2.0000

> <Gold.PLP.part.metal>
0.0000

> <Gold.PLP.part.buried>
-6.0034

> <Gold.PLP.part.nonpolar>
-33.1229

> <Gold.PLP.part.repulsive>
0.2332

> <Gold.PLP.ligand.clash>
0.0000

> <Gold.PLP.ligand.torsion>
0.3515

> <Gold.PLP.Chemscore.Hbond>
2.0000

> <Gold.PLP.Chemscore.CHOScore>
0.8694

> <Gold.PLP.Chemscore.Metal>
0.0000

> <Gold.Chemscore.Hbonds>
donor molecule, donor type, donor heavy atom, donor atom, acceptor molecule, acceptor atom, score
      P1  H  7997  8010       L1     9  1.00
      P1  H 10752 10765       L1    12  0.96

> <Gold.PLP.Chemscore.Internal.Correction>
0.0191

> <Gold.Rescore>
     Score         DG    S(hbond)    S(metal)    S(lipo)     H(rot)  DE(clash)    DE(int)     intcor
     17.59     -19.12       1.98        0.00      96.61       1.66       0.01       1.52       ----

> <Gold.Chemscore.Fitness>
17.5871

> <Gold.Chemscore.DG>
-19.1244

> <Gold.Chemscore.ZeroCoef>
-5.4800

> <Gold.Chemscore.Hbond>
1.9755

> <Gold.Chemscore.Metal>
0.0000

> <Gold.Chemscore.Lipo>
96.6090

> <Gold.Chemscore.Internal_Hbond>
0.0000

> <Gold.Chemscore.DEClash>
0.0149

> <Gold.Chemscore.DEInternal>
1.5224

> <Gold.Chemscore.Rot>
1.6629

> <Gold.Chemscore.Internal.Correction>
   9.000000E+99

> <Gold.Chemscore.Hbonds>
donor molecule, donor type, donor heavy atom, donor atom, acceptor molecule, acceptor atom, score
      P1  H  7997  8010       L1     9  1.00
      P1  H 10752 10765       L1    12  0.92

> <Gold.Chemscore.Hbond.Weighted>
-6.5981

> <Gold.Chemscore.Metal.Weighted>
-0.0000

> <Gold.Chemscore.Lipo.Weighted>
-11.3032

> <Gold.Chemscore.Internal_Hbond.Weighted>
0.0000

> <Gold.Chemscore.DEClash.Weighted>
0.0149

> <Gold.Chemscore.DEInternal.Weighted>
1.5224

> <Gold.Chemscore.Rot.Weighted>
4.2569

> <Gold.Chemscore.Internal.Correction.Weighted>
   9.000000E+99

> <Gold.Protein.RotatedTorsions>
[ 6907 6896 6895 6894 ] final  -51.22 input  -60.11 | X-H torsion
[ 7974 7965 7964 7962 ] final  112.16 input  175.53 | X-H torsion
[ 8008 7997 7996 7995 ] final   80.97 input   59.86 | X-H torsion
[ 10167 10162 10161 10158 ] final -123.48 input  -65.29 | X-H torsion
[ 10718 10713 10712 10709 ] final -127.05 input   66.30 | X-H torsion
[ 10763 10752 10751 10750 ] final  160.58 input  -60.55 | X-H torsion
[ 11005 11000 10999 10996 ] final  -11.57 input  -57.11 | X-H torsion

> <Gold.Protein.ActiveResidues>
 VAL166  LYS551  ARG553  GLY616  TRP617  ASP618  TYR619  PRO620  LYS621  CYS622 
 ASP623  PHE694  ASN695  SER759  ASP760  ASP761  ALA762  ILE779  LEU786  VAL792 
 PHE793  MET794  SER795  GLU796  ALA797  LYS798  CYS799  TRP800  GLU811  SER814 

> <Gold.Protein.RotatedAtoms>
  150.8632  134.7989  159.7098 H   0  0  0  0  0  0  0  0  0  0  0  0  # atno 6907 bound_to 6896
  152.4662  134.5066  159.9751 H   0  0  0  0  0  0  0  0  0  0  0  0  # atno 6908 bound_to 6896
  151.5166  133.3436  159.2929 H   0  0  0  0  0  0  0  0  0  0  0  0  # atno 6909 bound_to 6896
  145.2330  139.2811  143.4158 H   0  0  0  0  0  0  0  0  0  0  0  0  # atno 7974 bound_to 7965
  155.8907  140.3439  155.5954 H   0  0  0  0  0  0  0  0  0  0  0  0  # atno 8008 bound_to 7997
  155.7614  140.0833  157.2172 H   0  0  0  0  0  0  0  0  0  0  0  0  # atno 8009 bound_to 7997
  154.4033  140.1535  156.2824 H   0  0  0  0  0  0  0  0  0  0  0  0  # atno 8010 bound_to 7997
  140.0031  143.5520  152.2295 H   0  0  0  0  0  0  0  0  0  0  0  0  # atno 10167 bound_to 10162
  156.1822  130.6739  151.0318 H   0  0  0  0  0  0  0  0  0  0  0  0  # atno 10718 bound_to 10713
  154.2496  135.2772  155.2822 H   0  0  0  0  0  0  0  0  0  0  0  0  # atno 10763 bound_to 10752
  154.5476  135.5684  153.6897 H   0  0  0  0  0  0  0  0  0  0  0  0  # atno 10764 bound_to 10752
  152.9983  135.6266  154.2642 H   0  0  0  0  0  0  0  0  0  0  0  0  # atno 10765 bound_to 10752
  140.7567  133.8548  155.9090 H   0  0  0  0  0  0  0  0  0  0  0  0  # atno 11005 bound_to 11000
  146.3348  140.2671  142.8604 LP  0  0  0  0  0  0  0  0  0  0  0  0  # atno 17320 bound_to 7965
  144.9658  140.8321  143.5485 LP  0  0  0  0  0  0  0  0  0  0  0  0  # atno 17321 bound_to 7965
  139.6258  144.7637  151.2642 LP  0  0  0  0  0  0  0  0  0  0  0  0  # atno 17342 bound_to 10162
  140.7411  143.6567  150.8200 LP  0  0  0  0  0  0  0  0  0  0  0  0  # atno 17343 bound_to 10162
  157.6875  131.0820  150.7201 LP  0  0  0  0  0  0  0  0  0  0  0  0  # atno 17370 bound_to 10713
  156.7258  130.4694  149.5511 LP  0  0  0  0  0  0  0  0  0  0  0  0  # atno 17371 bound_to 10713
  140.9701  134.1542  157.4583 LP  0  0  0  0  0  0  0  0  0  0  0  0  # atno 17394 bound_to 11000
  139.8778  134.9975  156.5852 LP  0  0  0  0  0  0  0  0  0  0  0  0  # atno 17395 bound_to 11000

$$$$
