AV-unprocessed.smi:287|AV-procd|sdf|2207|dock4
  -GOLD-   2262022 33D 1   1.00000     0.00000
 Structure written by MMmdl.
 55 58  0  0  0  0  0  0  0  0  1 V2000
  142.1252  134.0107  163.1176 C   0  0  0  0  0  0  0  0  0  0  0  0
  143.3595  134.1707  162.2984 C   0  0  0  0  0  0  0  0  0  0  0  0
  144.6887  134.2415  162.5979 C   0  0  0  0  0  0  0  0  0  0  0  0
  145.3944  134.4126  161.3691 C   0  0  0  0  0  0  0  0  0  0  0  0
  146.9029  134.5395  161.2055 C   0  0  1  0  0  0  0  0  0  0  0  0
  147.5648  134.6577  162.5880 C   0  0  0  0  0  0  0  0  0  0  0  0
  147.4842  133.3991  160.6028 O   0  0  0  0  0  0  0  0  0  0  0  0
  147.3052  135.7415  160.3202 C   0  0  0  0  0  0  0  0  0  0  0  0
  148.7219  136.0697  160.4209 N   0  0  0  0  0  0  0  0  0  0  0  0
  149.3102  136.8587  159.4980 C   0  0  0  0  0  0  0  0  0  0  0  0
  150.6615  136.9221  159.5593 N   0  0  0  0  0  0  0  0  0  0  0  0
  151.3388  137.6638  158.6795 C   0  0  0  0  0  0  0  0  0  0  0  0
  150.8667  138.4054  157.6766 N   0  0  0  0  0  0  0  0  0  0  0  0
  149.5046  138.3566  157.6119 C   0  0  0  0  0  0  0  0  0  0  0  0
  148.6537  137.6151  158.4820 C   0  0  0  0  0  0  0  0  0  0  0  0
  147.3286  137.8213  158.1130 N   0  0  0  0  0  0  0  0  0  0  0  0
  147.3990  138.6232  157.0860 C   0  0  0  0  0  0  0  0  0  0  0  0
  148.6711  138.9893  156.7115 N   0  0  0  0  0  0  0  0  0  0  0  0
  149.0623  139.8763  155.5738 C   0  0  1  0  0  0  0  0  0  0  0  0
  148.4818  139.3758  154.4083 O   0  0  0  0  0  0  0  0  0  0  0  0
  147.9564  140.4492  153.6353 C   0  0  1  0  0  0  0  0  0  0  0  0
  146.8408  139.9290  152.7154 C   0  0  0  0  0  0  0  0  0  0  0  0
  147.3351  138.8984  151.8870 O   0  0  0  0  0  0  0  0  0  0  0  0
  147.4620  141.4170  154.7120 C   0  0  2  0  0  0  0  0  0  0  0  0
  147.2827  142.7387  154.2365 O   0  0  0  0  0  0  0  0  0  0  0  0
  148.5359  141.3042  155.7911 C   0  0  2  0  0  0  0  0  0  0  0  0
  149.5731  142.2522  155.6160 O   0  0  0  0  0  0  0  0  0  0  0  0
  144.4183  134.4098  160.4020 C   0  0  0  0  0  0  0  0  0  0  0  0
  144.4359  134.5193  158.9129 C   0  0  0  0  0  0  0  0  0  0  0  0
  143.1818  134.2713  160.9572 O   0  0  0  0  0  0  0  0  0  0  0  0
  150.1504  139.8091  155.5277 H   0  0  0  0  0  0  0  0  0  0  0  0
  148.7628  140.9142  153.0641 H   0  0  0  0  0  0  0  0  0  0  0  0
  146.5119  141.0639  155.1133 H   0  0  0  0  0  0  0  0  0  0  0  0
  148.1152  141.4259  156.7904 H   0  0  0  0  0  0  0  0  0  0  0  0
  142.3723  133.8611  164.1688 H   0  0  0  0  0  0  0  0  0  0  0  0
  141.5456  133.1511  162.7807 H   0  0  0  0  0  0  0  0  0  0  0  0
  141.4943  134.8964  163.0419 H   0  0  0  0  0  0  0  0  0  0  0  0
  145.1096  134.1859  163.5911 H   0  0  0  0  0  0  0  0  0  0  0  0
  147.2033  135.5362  163.1238 H   0  0  0  0  0  0  0  0  0  0  0  0
  148.6490  134.7471  162.5077 H   0  0  0  0  0  0  0  0  0  0  0  0
  147.3497  133.7855  163.2067 H   0  0  0  0  0  0  0  0  0  0  0  0
  147.9671  133.6767  159.8394 H   0  0  0  0  0  0  0  0  0  0  0  0
  147.0988  135.4816  159.2811 H   0  0  0  0  0  0  0  0  0  0  0  0
  146.6991  136.6179  160.5534 H   0  0  0  0  0  0  0  0  0  0  0  0
  149.2463  135.5156  161.0829 H   0  0  0  0  0  0  0  0  0  0  0  0
  152.4127  137.6599  158.7932 H   0  0  0  0  0  0  0  0  0  0  0  0
  146.5172  138.9665  156.5647 H   0  0  0  0  0  0  0  0  0  0  0  0
  145.9833  139.5779  153.2906 H   0  0  0  0  0  0  0  0  0  0  0  0
  146.4875  140.7283  152.0636 H   0  0  0  0  0  0  0  0  0  0  0  0
  148.0585  139.2385  151.3828 H   0  0  0  0  0  0  0  0  0  0  0  0
  147.5084  143.3399  154.9296 H   0  0  0  0  0  0  0  0  0  0  0  0
  149.2064  143.1159  155.7318 H   0  0  0  0  0  0  0  0  0  0  0  0
  145.1485  133.8158  158.4824 H   0  0  0  0  0  0  0  0  0  0  0  0
  144.7222  135.5245  158.6037 H   0  0  0  0  0  0  0  0  0  0  0  0
  143.4548  134.3034  158.4892 H   0  0  0  0  0  0  0  0  0  0  0  0
  1  2  1  0  0  0  0
  1 35  1  0  0  0  0
  1 36  1  0  0  0  0
  1 37  1  0  0  0  0
  2 30  1  0  0  0  0
  2  3  2  0  0  0  0
  3  4  1  0  0  0  0
  3 38  1  0  0  0  0
  4  5  1  0  0  0  0
  4 28  2  0  0  0  0
  5  6  1  0  0  0  0
  5  7  1  0  0  0  0
  5  8  1  0  0  0  0
  6 39  1  0  0  0  0
  6 40  1  0  0  0  0
  6 41  1  0  0  0  0
  7 42  1  0  0  0  0
  8  9  1  0  0  0  0
  8 43  1  0  0  0  0
  8 44  1  0  0  0  0
  9 10  1  0  0  0  0
  9 45  1  0  0  0  0
 10 15  1  0  0  0  0
 10 11  2  0  0  0  0
 11 12  1  0  0  0  0
 12 13  2  0  0  0  0
 12 46  1  0  0  0  0
 13 14  1  0  0  0  0
 14 18  1  0  0  0  0
 14 15  2  0  0  0  0
 15 16  1  0  0  0  0
 16 17  2  0  0  0  0
 17 18  1  0  0  0  0
 17 47  1  0  0  0  0
 18 19  1  0  0  0  0
 19 31  1  0  0  0  0
 19 26  1  0  0  0  0
 19 20  1  0  0  0  0
 20 21  1  0  0  0  0
 21 32  1  0  0  0  0
 21 22  1  0  0  0  0
 21 24  1  0  0  0  0
 22 23  1  0  0  0  0
 22 48  1  0  0  0  0
 22 49  1  0  0  0  0
 23 50  1  0  0  0  0
 24 33  1  0  0  0  0
 24 25  1  0  0  0  0
 24 26  1  0  0  0  0
 25 51  1  0  0  0  0
 26 34  1  0  0  0  0
 26 27  1  0  0  0  0
 27 52  1  0  0  0  0
 28 29  1  0  0  0  0
 28 30  1  0  0  0  0
 29 53  1  0  0  0  0
 29 54  1  0  0  0  0
 29 55  1  0  0  0  0
M  END
> <s_m_source_file>
AV-unprocessed.smi

> <i_m_source_file_index>
287

> <i_lp_mmshare_version>
43012

> <i_f3d_flags>
0

> <s_epik_input>
W0NIM11jMVtjSF1jKGMobzEpW0NIM10pW0NAQF0oW0NIM10pKFtPSF0pW0NIMl1bTkhdYyhuW2NIXW4yKWMoYzIzKW5bY0hdbjNbQ0BASF00T1tDQEhdKFtDSDJdW09IXSlbQ0BASF0oW09IXSlbQ0BIXTRbT0hd

> <s_epik_cmdline>
J2VwaWtfcHl0aG9uJywgJy1waCcsICc3LjAnLCAnLXRuJywgJzgnLCAnLW1hJywgJzIwMCcsICctbWV0YWxfYmluZGluZycsICctaW1hZScsICc8aW5maWxlLm1hZT4nLCAnLW9tYWUnLCAnPG91dGZpbGUubWFlPic=

> <r_lp_tautomer_probability>
1

> <r_epik_Ionization_Penalty>
0.000992612

> <r_epik_Ionization_Penalty_Charging>
0

> <r_epik_Ionization_Penalty_Neutral>
0.000992612

> <r_epik_State_Penalty>
-0

> <r_epik_Charging_Adjusted_Penalty>
0

> <i_epik_Tot_Q>
0

> <i_epik_Tot_abs_Q>
0

> <r_epik_Metal_State_Penalty>
-0

> <b_epik_Metal_Only>
0

> <s_epik_Chemistry_Notes>
This compound contains an acetal/aminal-like group ( X-CH(R)-Y where X, Y are N, S, or O) that may be acid/base labile, releasing an aldehyde.

> <s_lp_Force_Field>
OPLS_2005

> <r_lp_Energy>
44.3809

> <b_lp_Chiralities_Consistent>
1

> <s_lp_Variant>
AV-unprocessed.smi:287-31

> <Gold.Version>
5.8.1

> <Gold.Id.Protein>
6NUR|6NUR_protein|mol2

> <Gold.PLP.Fitness>
49.7949

> <Gold.PLP.PLP>
-38.8860

> <Gold.PLP.part.hbond>
-5.6735

> <Gold.PLP.part.metal>
0.0000

> <Gold.PLP.part.buried>
-4.4950

> <Gold.PLP.part.nonpolar>
-28.8745

> <Gold.PLP.part.repulsive>
0.3557

> <Gold.PLP.ligand.clash>
0.0000

> <Gold.PLP.ligand.torsion>
0.5894

> <Gold.PLP.Chemscore.Hbond>
4.0000

> <Gold.PLP.Chemscore.CHOScore>
0.0000

> <Gold.PLP.Chemscore.Metal>
0.0000

> <Gold.Chemscore.Hbonds>
donor molecule, donor type, donor heavy atom, donor atom, acceptor molecule, acceptor atom, score
      L1  H    23    50       P1  7957  1.00
      L1  H    25    51       P1  8028  0.94
      L1  H    27    52       P1  8028  1.00
      P1  H  6896  6907       L1    11  1.00

> <Gold.PLP.Chemscore.Internal.Correction>
0.0877

> <Gold.Rescore>
     Score         DG    S(hbond)    S(metal)    S(lipo)     H(rot)  DE(clash)    DE(int)     intcor
     11.40     -12.71       3.31        0.00      82.64       5.27       0.12       1.19       ----

> <Gold.Chemscore.Fitness>
11.3985

> <Gold.Chemscore.DG>
-12.7056

> <Gold.Chemscore.ZeroCoef>
-5.4800

> <Gold.Chemscore.Hbond>
3.3055

> <Gold.Chemscore.Metal>
0.0000

> <Gold.Chemscore.Lipo>
82.6416

> <Gold.Chemscore.Internal_Hbond>
0.0000

> <Gold.Chemscore.DEClash>
0.1160

> <Gold.Chemscore.DEInternal>
1.1912

> <Gold.Chemscore.Rot>
5.2672

> <Gold.Chemscore.Internal.Correction>
   9.000000E+99

> <Gold.Chemscore.Hbonds>
donor molecule, donor type, donor heavy atom, donor atom, acceptor molecule, acceptor atom, score
      L1  H    23    50       P1  7957  0.84
      L1  H    25    51       P1  8028  0.21
      L1  H    27    52       P1  8028  0.99
      P1  H  6896  6907       L1    11  0.44

> <Gold.Chemscore.Hbond.Weighted>
-11.0405

> <Gold.Chemscore.Metal.Weighted>
-0.0000

> <Gold.Chemscore.Lipo.Weighted>
-9.6691

> <Gold.Chemscore.Internal_Hbond.Weighted>
0.0000

> <Gold.Chemscore.DEClash.Weighted>
0.1160

> <Gold.Chemscore.DEInternal.Weighted>
1.1912

> <Gold.Chemscore.Rot.Weighted>
13.4839

> <Gold.Chemscore.Internal.Correction.Weighted>
   9.000000E+99

> <Gold.Protein.RotatedTorsions>
[ 6907 6896 6895 6894 ] final  -23.51 input  -60.11 | X-H torsion
[ 7974 7965 7964 7962 ] final   93.17 input  175.53 | X-H torsion
[ 8008 7997 7996 7995 ] final  161.56 input   59.86 | X-H torsion
[ 10167 10162 10161 10158 ] final  140.07 input  -65.29 | X-H torsion
[ 10718 10713 10712 10709 ] final -147.36 input   66.30 | X-H torsion
[ 10763 10752 10751 10750 ] final   31.82 input  -60.55 | X-H torsion
[ 11005 11000 10999 10996 ] final  123.47 input  -57.11 | X-H torsion

> <Gold.Protein.ActiveResidues>
 VAL166  LYS551  ARG553  GLY616  TRP617  ASP618  TYR619  PRO620  LYS621  CYS622 
 ASP623  PHE694  ASN695  SER759  ASP760  ASP761  ALA762  ILE779  LEU786  VAL792 
 PHE793  MET794  SER795  GLU796  ALA797  LYS798  CYS799  TRP800  GLU811  SER814 

> <Gold.Protein.RotatedAtoms>
  151.2030  135.0450  159.8879 H   0  0  0  0  0  0  0  0  0  0  0  0  # atno 6907 bound_to 6896
  152.5431  134.0829  159.8254 H   0  0  0  0  0  0  0  0  0  0  0  0  # atno 6908 bound_to 6896
  151.0972  133.5223  159.2644 H   0  0  0  0  0  0  0  0  0  0  0  0  # atno 6909 bound_to 6896
  145.4825  139.2278  143.2875 H   0  0  0  0  0  0  0  0  0  0  0  0  # atno 7974 bound_to 7965
  156.2095  140.1774  156.7727 H   0  0  0  0  0  0  0  0  0  0  0  0  # atno 8008 bound_to 7997
  154.5701  140.0684  156.8982 H   0  0  0  0  0  0  0  0  0  0  0  0  # atno 8009 bound_to 7997
  155.2688  140.3341  155.4269 H   0  0  0  0  0  0  0  0  0  0  0  0  # atno 8010 bound_to 7997
  139.5059  144.6256  151.5945 H   0  0  0  0  0  0  0  0  0  0  0  0  # atno 10167 bound_to 10162
  156.4065  130.7960  151.2175 H   0  0  0  0  0  0  0  0  0  0  0  0  # atno 10718 bound_to 10713
  153.0295  135.6429  154.1259 H   0  0  0  0  0  0  0  0  0  0  0  0  # atno 10763 bound_to 10752
  154.0983  135.2861  155.3258 H   0  0  0  0  0  0  0  0  0  0  0  0  # atno 10764 bound_to 10752
  154.6416  135.5457  153.7860 H   0  0  0  0  0  0  0  0  0  0  0  0  # atno 10765 bound_to 10752
  139.9314  134.9641  156.8265 H   0  0  0  0  0  0  0  0  0  0  0  0  # atno 11005 bound_to 11000
  146.2333  140.5612  142.8966 LP  0  0  0  0  0  0  0  0  0  0  0  0  # atno 17320 bound_to 7965
  144.7881  140.5976  143.6560 LP  0  0  0  0  0  0  0  0  0  0  0  0  # atno 17321 bound_to 7965
  140.5972  143.9675  150.6362 LP  0  0  0  0  0  0  0  0  0  0  0  0  # atno 17342 bound_to 10162
  140.2874  143.3347  152.1094 LP  0  0  0  0  0  0  0  0  0  0  0  0  # atno 17343 bound_to 10162
  157.7506  131.0271  150.3989 LP  0  0  0  0  0  0  0  0  0  0  0  0  # atno 17370 bound_to 10713
  156.4279  130.3966  149.6780 LP  0  0  0  0  0  0  0  0  0  0  0  0  # atno 17371 bound_to 10713
  140.6191  134.0010  155.7610 LP  0  0  0  0  0  0  0  0  0  0  0  0  # atno 17394 bound_to 11000
  141.0905  133.9924  157.3245 LP  0  0  0  0  0  0  0  0  0  0  0  0  # atno 17395 bound_to 11000

$$$$
