AV-unprocessed.smi:901|AV-procd|sdf|4093|dock5
  -GOLD-   22720 1583D 1   1.00000     0.00000
 Structure written by MMmdl.
 43 44  0  0  0  0  0  0  0  0  1 V2000
  151.7265  144.7819  158.5784 C   0  0  0  0  0  0  0  0  0  0  0  0
  151.8147  143.2755  158.4336 C   0  0  0  0  0  0  0  0  0  0  0  0
  152.7957  142.6035  159.3779 C   0  0  0  0  0  0  0  0  0  0  0  0
  151.0724  142.6071  157.5302 C   0  0  0  0  0  0  0  0  0  0  0  0
  151.0712  141.1394  157.2925 C   0  0  1  0  0  0  0  0  0  0  0  0
  149.7765  140.3486  157.3478 C   0  0  2  0  0  0  0  0  0  0  0  0
  149.7845  138.9927  157.9848 C   0  0  0  0  0  0  0  0  0  0  0  0
  150.8154  138.3426  158.1649 O   0  0  0  0  0  0  0  0  0  0  0  0
  148.5572  138.5729  158.3424 N   0  0  0  0  0  0  0  0  0  0  0  0
  148.2037  137.3500  158.9680 C   0  0  0  0  0  0  0  0  0  0  0  0
  148.7098  136.1142  158.4795 C   0  0  0  0  0  0  0  0  0  0  0  0
  148.1540  135.1925  159.3207 C   0  0  0  0  0  0  0  0  0  0  0  0
  147.3742  135.8776  160.2322 N   0  0  0  0  0  0  0  0  0  0  0  0
  146.5806  135.3402  161.3254 C   0  0  0  0  0  0  0  0  0  0  0  0
  147.2106  135.6265  162.6936 C   0  0  0  0  0  0  0  0  0  0  0  0
  147.6239  136.8767  162.9158 N   0  0  0  0  0  0  0  0  0  0  0  0
  147.3224  134.7422  163.5412 O   0  0  0  0  0  0  0  0  0  0  0  0
  147.4080  137.2115  160.0197 N   0  0  0  0  0  0  0  0  0  0  0  0
  150.4950  140.5460  156.0173 C   0  0  0  0  0  0  0  0  0  0  0  0
  149.8110  141.4190  154.9755 C   0  0  0  0  0  0  0  0  0  0  0  0
  151.2676  139.4355  155.3147 C   0  0  0  0  0  0  0  0  0  0  0  0
  151.4058  145.0463  159.5865 H   0  0  0  0  0  0  0  0  0  0  0  0
  151.0155  145.2128  157.8725 H   0  0  0  0  0  0  0  0  0  0  0  0
  152.7009  145.2366  158.3982 H   0  0  0  0  0  0  0  0  0  0  0  0
  153.8047  142.9720  159.1926 H   0  0  0  0  0  0  0  0  0  0  0  0
  152.8088  141.5197  159.2656 H   0  0  0  0  0  0  0  0  0  0  0  0
  152.5353  142.8288  160.4123 H   0  0  0  0  0  0  0  0  0  0  0  0
  150.3964  143.1707  156.9037 H   0  0  0  0  0  0  0  0  0  0  0  0
  151.9625  140.6693  157.7046 H   0  0  0  0  0  0  0  0  0  0  0  0
  148.8569  140.9177  157.4781 H   0  0  0  0  0  0  0  0  0  0  0  0
  147.7916  139.1999  158.1431 H   0  0  0  0  0  0  0  0  0  0  0  0
  149.3719  135.9310  157.6463 H   0  0  0  0  0  0  0  0  0  0  0  0
  148.2440  134.1163  159.3450 H   0  0  0  0  0  0  0  0  0  0  0  0
  145.5823  135.7763  161.2694 H   0  0  0  0  0  0  0  0  0  0  0  0
  146.4685  134.2619  161.1998 H   0  0  0  0  0  0  0  0  0  0  0  0
  148.0502  137.1198  163.7983 H   0  0  0  0  0  0  0  0  0  0  0  0
  147.5117  137.5753  162.1953 H   0  0  0  0  0  0  0  0  0  0  0  0
  149.1490  140.8165  154.3527 H   0  0  0  0  0  0  0  0  0  0  0  0
  150.5517  141.8980  154.3348 H   0  0  0  0  0  0  0  0  0  0  0  0
  149.2137  142.1999  155.4469 H   0  0  0  0  0  0  0  0  0  0  0  0
  150.5781  138.7073  154.8868 H   0  0  0  0  0  0  0  0  0  0  0  0
  151.9396  138.9181  155.9987 H   0  0  0  0  0  0  0  0  0  0  0  0
  151.8781  139.8478  154.5108 H   0  0  0  0  0  0  0  0  0  0  0  0
  1  2  1  0  0  0  0
  1 22  1  0  0  0  0
  1 23  1  0  0  0  0
  1 24  1  0  0  0  0
  2  3  1  0  0  0  0
  2  4  2  0  0  0  0
  3 25  1  0  0  0  0
  3 26  1  0  0  0  0
  3 27  1  0  0  0  0
  4  5  1  0  0  0  0
  4 28  1  0  0  0  0
  5 19  1  0  0  0  0
  5  6  1  0  0  0  0
  5 29  1  0  0  0  0
  6  7  1  0  0  0  0
  6 19  1  0  0  0  0
  6 30  1  0  0  0  0
  7  8  2  0  0  0  0
  7  9  1  0  0  0  0
  9 10  1  0  0  0  0
  9 31  1  0  0  0  0
 10 18  2  0  0  0  0
 10 11  1  0  0  0  0
 11 12  2  0  0  0  0
 11 32  1  0  0  0  0
 12 13  1  0  0  0  0
 12 33  1  0  0  0  0
 13 14  1  0  0  0  0
 13 18  1  0  0  0  0
 14 15  1  0  0  0  0
 14 34  1  0  0  0  0
 14 35  1  0  0  0  0
 15 16  1  0  0  0  0
 15 17  2  0  0  0  0
 16 36  1  0  0  0  0
 16 37  1  0  0  0  0
 19 20  1  0  0  0  0
 19 21  1  0  0  0  0
 20 38  1  0  0  0  0
 20 39  1  0  0  0  0
 20 40  1  0  0  0  0
 21 41  1  0  0  0  0
 21 42  1  0  0  0  0
 21 43  1  0  0  0  0
M  END
> <s_m_source_file>
AV-unprocessed.smi

> <i_m_source_file_index>
901

> <i_lp_mmshare_version>
43012

> <i_f3d_flags>
0

> <s_epik_input>
W0NIM11DKFtDSDNdKT1bQ0hdW0NAQEhdKEMxKFtDSDNdKVtDSDNdKVtDQEhdMUMoPU8pW05IXWMyW2NIXVtjSF1uKG4yKVtDSDJdQyg9TylbTkgyXQ==

> <s_epik_cmdline>
J2VwaWtfcHl0aG9uJywgJy1waCcsICc3LjAnLCAnLXRuJywgJzgnLCAnLW1hJywgJzIwMCcsICctbWV0YWxfYmluZGluZycsICctaW1hZScsICc8aW5maWxlLm1hZT4nLCAnLW9tYWUnLCAnPG91dGZpbGUubWFlPic=

> <r_lp_tautomer_probability>
1

> <r_epik_Ionization_Penalty>
1.01454e-05

> <r_epik_Ionization_Penalty_Charging>
0

> <r_epik_Ionization_Penalty_Neutral>
1.01454e-05

> <r_epik_State_Penalty>
-0

> <r_epik_Charging_Adjusted_Penalty>
0

> <i_epik_Tot_Q>
0

> <i_epik_Tot_abs_Q>
0

> <r_epik_Metal_State_Penalty>
-0

> <b_epik_Metal_Only>
0

> <s_lp_Force_Field>
OPLS_2005

> <r_lp_Energy>
18.0241

> <b_lp_Chiralities_Consistent>
1

> <s_lp_Variant>
AV-unprocessed.smi:901-4

> <Gold.Version>
5.8.1

> <Gold.Id.Protein>
6NUR|6NUR_protein|mol2

> <Gold.PLP.Fitness>
40.9160

> <Gold.PLP.PLP>
-40.1156

> <Gold.PLP.part.hbond>
-3.0000

> <Gold.PLP.part.metal>
0.0000

> <Gold.PLP.part.buried>
-5.5645

> <Gold.PLP.part.nonpolar>
-33.3708

> <Gold.PLP.part.repulsive>
1.2630

> <Gold.PLP.ligand.clash>
0.0000

> <Gold.PLP.ligand.torsion>
1.1744

> <Gold.PLP.Chemscore.Hbond>
0.9920

> <Gold.PLP.Chemscore.CHOScore>
0.0000

> <Gold.PLP.Chemscore.Metal>
0.0000

> <Gold.Chemscore.Hbonds>
donor molecule, donor type, donor heavy atom, donor atom, acceptor molecule, acceptor atom, score
      P1  H  6934  6947       L1    18  0.98

> <Gold.PLP.Chemscore.Internal.Correction>
0.1731

> <Gold.Rescore>
     Score         DG    S(hbond)    S(metal)    S(lipo)     H(rot)  DE(clash)    DE(int)     intcor
     11.27     -12.61       0.65        0.00      88.90       2.13       0.34       1.00       ----

> <Gold.Chemscore.Fitness>
11.2691

> <Gold.Chemscore.DG>
-12.6101

> <Gold.Chemscore.ZeroCoef>
-5.4800

> <Gold.Chemscore.Hbond>
0.6540

> <Gold.Chemscore.Metal>
0.0000

> <Gold.Chemscore.Lipo>
88.8953

> <Gold.Chemscore.Internal_Hbond>
0.0000

> <Gold.Chemscore.DEClash>
0.3425

> <Gold.Chemscore.DEInternal>
0.9985

> <Gold.Chemscore.Rot>
2.1309

> <Gold.Chemscore.Internal.Correction>
   9.000000E+99

> <Gold.Chemscore.Hbonds>
donor molecule, donor type, donor heavy atom, donor atom, acceptor molecule, acceptor atom, score
      P1  H  6934  6947       L1    18  0.56

> <Gold.Chemscore.Hbond.Weighted>
-2.1845

> <Gold.Chemscore.Metal.Weighted>
-0.0000

> <Gold.Chemscore.Lipo.Weighted>
-10.4008

> <Gold.Chemscore.Internal_Hbond.Weighted>
0.0000

> <Gold.Chemscore.DEClash.Weighted>
0.3425

> <Gold.Chemscore.DEInternal.Weighted>
0.9985

> <Gold.Chemscore.Rot.Weighted>
5.4552

> <Gold.Chemscore.Internal.Correction.Weighted>
   9.000000E+99

> <Gold.Protein.RotatedTorsions>
[ 6907 6896 6895 6894 ] final  -71.82 input  -60.11 | X-H torsion
[ 7974 7965 7964 7962 ] final -104.36 input  175.53 | X-H torsion
[ 8008 7997 7996 7995 ] final  106.37 input   59.86 | X-H torsion
[ 10167 10162 10161 10158 ] final  -66.74 input  -65.29 | X-H torsion
[ 10718 10713 10712 10709 ] final  133.42 input   66.30 | X-H torsion
[ 10763 10752 10751 10750 ] final  177.59 input  -60.55 | X-H torsion
[ 11005 11000 10999 10996 ] final  173.69 input  -57.11 | X-H torsion

> <Gold.Protein.ActiveResidues>
 VAL166  LYS551  ARG553  GLY616  TRP617  ASP618  TYR619  PRO620  LYS621  CYS622 
 ASP623  PHE694  ASN695  SER759  ASP760  ASP761  ALA762  ILE779  LEU786  VAL792 
 PHE793  MET794  SER795  GLU796  ALA797  LYS798  CYS799  TRP800  GLU811  SER814 

> <Gold.Protein.RotatedAtoms>
  150.7196  134.5253  159.5673 H   0  0  0  0  0  0  0  0  0  0  0  0  # atno 6907 bound_to 6896
  152.2799  134.7837  160.0407 H   0  0  0  0  0  0  0  0  0  0  0  0  # atno 6908 bound_to 6896
  151.8488  133.3401  159.3703 H   0  0  0  0  0  0  0  0  0  0  0  0  # atno 6909 bound_to 6896
  145.2441  140.9215  143.3133 H   0  0  0  0  0  0  0  0  0  0  0  0  # atno 7974 bound_to 7965
  156.1737  140.3114  155.9020 H   0  0  0  0  0  0  0  0  0  0  0  0  # atno 8008 bound_to 7997
  155.3533  140.0472  157.3063 H   0  0  0  0  0  0  0  0  0  0  0  0  # atno 8009 bound_to 7997
  154.5268  140.2217  155.8887 H   0  0  0  0  0  0  0  0  0  0  0  0  # atno 8010 bound_to 7997
  140.5635  143.2313  151.6681 H   0  0  0  0  0  0  0  0  0  0  0  0  # atno 10167 bound_to 10162
  157.4775  131.1084  150.9725 H   0  0  0  0  0  0  0  0  0  0  0  0  # atno 10718 bound_to 10713
  154.4965  135.2781  155.1455 H   0  0  0  0  0  0  0  0  0  0  0  0  # atno 10763 bound_to 10752
  154.3105  135.6230  153.5467 H   0  0  0  0  0  0  0  0  0  0  0  0  # atno 10764 bound_to 10752
  152.9896  135.5718  154.5398 H   0  0  0  0  0  0  0  0  0  0  0  0  # atno 10765 bound_to 10752
  140.3432  134.7258  157.4217 H   0  0  0  0  0  0  0  0  0  0  0  0  # atno 11005 bound_to 11000
  144.9562  139.4029  143.6378 LP  0  0  0  0  0  0  0  0  0  0  0  0  # atno 17320 bound_to 7965
  146.3320  139.8593  142.8859 LP  0  0  0  0  0  0  0  0  0  0  0  0  # atno 17321 bound_to 7965
  139.5081  144.3621  152.0552 LP  0  0  0  0  0  0  0  0  0  0  0  0  # atno 17342 bound_to 10162
  140.2751  144.3922  150.6138 LP  0  0  0  0  0  0  0  0  0  0  0  0  # atno 17343 bound_to 10162
  157.0469  130.5771  149.5364 LP  0  0  0  0  0  0  0  0  0  0  0  0  # atno 17370 bound_to 10713
  156.0104  130.5195  150.7970 LP  0  0  0  0  0  0  0  0  0  0  0  0  # atno 17371 bound_to 10713
  140.0764  134.5792  155.8587 LP  0  0  0  0  0  0  0  0  0  0  0  0  # atno 17394 bound_to 11000
  141.2033  133.6631  156.6053 LP  0  0  0  0  0  0  0  0  0  0  0  0  # atno 17395 bound_to 11000

$$$$
