AV-unprocessed.smi:1334|AV-procd|sdf|5493|dock5
  -GOLD-   22720 5 73D 1   1.00000     0.00000
 Structure written by MMmdl.
 38 39  0  0  0  0  0  0  0  0  1 V2000
  152.1079  137.9601  154.9893 C   0  0  0  0  0  0  0  0  0  0  0  0
  152.0589  138.7541  156.3110 C   0  0  1  0  0  0  0  0  0  0  0  0
  151.4211  140.1412  156.1446 C   0  0  0  0  0  0  0  0  0  0  0  0
  151.0591  140.5346  155.0354 O   0  0  0  0  0  0  0  0  0  0  0  0
  151.2800  140.8648  157.2670 N   0  0  0  0  0  0  0  0  0  0  0  0
  150.6322  142.1697  157.3663 C   0  0  0  0  0  0  0  0  0  0  0  0
  151.6196  143.2560  157.8305 C   0  0  0  0  0  0  0  0  0  0  0  0
  152.0605  143.1102  159.2799 C   0  0  0  0  0  0  0  0  0  0  0  0
  152.9953  142.2147  159.6543 C   0  0  0  0  0  0  0  0  0  0  0  0
  153.4580  142.0166  161.0861 C   0  0  0  0  0  0  0  0  0  0  0  0
  152.4912  142.6490  162.0996 C   0  0  0  0  0  0  0  0  0  0  0  0
  152.0788  144.0576  161.6555 C   0  0  0  0  0  0  0  0  0  0  0  0
  151.3791  144.0334  160.2845 C   0  0  0  0  0  0  0  0  0  0  0  0
  151.3841  138.0190  157.3739 N   0  0  0  0  0  0  0  0  0  0  0  0
  151.8593  137.5641  158.5350 C   0  0  0  0  0  0  0  0  0  0  0  0
  150.9510  136.9651  159.2922 N   0  0  0  0  0  0  0  0  0  0  0  0
  149.8553  137.1082  158.4892 C   0  0  0  0  0  0  0  0  0  0  0  0
  150.0560  137.7445  157.3356 N   0  0  0  0  0  0  0  0  0  0  0  0
  152.6638  138.5049  154.2255 H   0  0  0  0  0  0  0  0  0  0  0  0
  151.1120  137.7593  154.5919 H   0  0  0  0  0  0  0  0  0  0  0  0
  152.6050  137.0003  155.1321 H   0  0  0  0  0  0  0  0  0  0  0  0
  153.0907  138.9048  156.6329 H   0  0  0  0  0  0  0  0  0  0  0  0
  151.6145  140.4618  158.1300 H   0  0  0  0  0  0  0  0  0  0  0  0
  150.2469  142.4288  156.3800 H   0  0  0  0  0  0  0  0  0  0  0  0
  149.7650  142.1396  158.0277 H   0  0  0  0  0  0  0  0  0  0  0  0
  152.4979  143.2414  157.1836 H   0  0  0  0  0  0  0  0  0  0  0  0
  151.1691  144.2408  157.7030 H   0  0  0  0  0  0  0  0  0  0  0  0
  153.4690  141.5881  158.9128 H   0  0  0  0  0  0  0  0  0  0  0  0
  153.5656  140.9517  161.2885 H   0  0  0  0  0  0  0  0  0  0  0  0
  154.4502  142.4576  161.1842 H   0  0  0  0  0  0  0  0  0  0  0  0
  151.6000  142.0266  162.1922 H   0  0  0  0  0  0  0  0  0  0  0  0
  152.9525  142.6798  163.0872 H   0  0  0  0  0  0  0  0  0  0  0  0
  151.4244  144.5141  162.3984 H   0  0  0  0  0  0  0  0  0  0  0  0
  152.9673  144.6877  161.5985 H   0  0  0  0  0  0  0  0  0  0  0  0
  151.3367  145.0449  159.8800 H   0  0  0  0  0  0  0  0  0  0  0  0
  150.3487  143.7022  160.4087 H   0  0  0  0  0  0  0  0  0  0  0  0
  152.8915  137.6742  158.8335 H   0  0  0  0  0  0  0  0  0  0  0  0
  148.8781  136.7432  158.7686 H   0  0  0  0  0  0  0  0  0  0  0  0
  1  2  1  0  0  0  0
  1 19  1  0  0  0  0
  1 20  1  0  0  0  0
  1 21  1  0  0  0  0
  2  3  1  0  0  0  0
  2 14  1  0  0  0  0
  2 22  1  0  0  0  0
  3  4  2  0  0  0  0
  3  5  1  0  0  0  0
  5  6  1  0  0  0  0
  5 23  1  0  0  0  0
  6  7  1  0  0  0  0
  6 24  1  0  0  0  0
  6 25  1  0  0  0  0
  7  8  1  0  0  0  0
  7 26  1  0  0  0  0
  7 27  1  0  0  0  0
  8 13  1  0  0  0  0
  8  9  2  0  0  0  0
  9 10  1  0  0  0  0
  9 28  1  0  0  0  0
 10 11  1  0  0  0  0
 10 29  1  0  0  0  0
 10 30  1  0  0  0  0
 11 12  1  0  0  0  0
 11 31  1  0  0  0  0
 11 32  1  0  0  0  0
 12 13  1  0  0  0  0
 12 33  1  0  0  0  0
 12 34  1  0  0  0  0
 13 35  1  0  0  0  0
 13 36  1  0  0  0  0
 14 18  1  0  0  0  0
 14 15  1  0  0  0  0
 15 16  2  0  0  0  0
 15 37  1  0  0  0  0
 16 17  1  0  0  0  0
 17 18  2  0  0  0  0
 17 38  1  0  0  0  0
M  END
> <s_m_source_file>
AV-unprocessed.smi

> <i_m_source_file_index>
1334

> <i_lp_mmshare_version>
43012

> <i_f3d_flags>
0

> <s_epik_input>
bjFbY0hdbltjSF1uMVtDQEhdKFtDSDNdKUMoPU8pW05IXVtDSDJdW0NIMl1DMj1bQ0hdW0NIMl1bQ0gyXVtDSDJdW0NIMl0y

> <s_epik_cmdline>
J2VwaWtfcHl0aG9uJywgJy1waCcsICc3LjAnLCAnLXRuJywgJzgnLCAnLW1hJywgJzIwMCcsICctbWV0YWxfYmluZGluZycsICctaW1hZScsICc8aW5maWxlLm1hZT4nLCAnLW9tYWUnLCAnPG91dGZpbGUubWFlPic=

> <r_lp_tautomer_probability>
1

> <r_epik_Ionization_Penalty>
1.26383e-05

> <r_epik_Ionization_Penalty_Charging>
0

> <r_epik_Ionization_Penalty_Neutral>
1.26383e-05

> <r_epik_State_Penalty>
-0

> <r_epik_Charging_Adjusted_Penalty>
0

> <i_epik_Tot_Q>
0

> <i_epik_Tot_abs_Q>
0

> <r_epik_Metal_State_Penalty>
-0

> <b_epik_Metal_Only>
0

> <s_lp_Force_Field>
OPLS_2005

> <r_lp_Energy>
11.5149

> <b_lp_Chiralities_Consistent>
1

> <s_lp_Variant>
AV-unprocessed.smi:1334-2

> <Gold.Version>
5.8.1

> <Gold.Id.Protein>
6NUR|6NUR_protein|mol2

> <Gold.PLP.Fitness>
45.9541

> <Gold.PLP.PLP>
-40.6251

> <Gold.PLP.part.hbond>
-2.0000

> <Gold.PLP.part.metal>
0.0000

> <Gold.PLP.part.buried>
-5.6661

> <Gold.PLP.part.nonpolar>
-33.8622

> <Gold.PLP.part.repulsive>
0.1261

> <Gold.PLP.ligand.clash>
0.0000

> <Gold.PLP.ligand.torsion>
0.4071

> <Gold.PLP.Chemscore.Hbond>
2.0000

> <Gold.PLP.Chemscore.CHOScore>
0.0000

> <Gold.PLP.Chemscore.Metal>
0.0000

> <Gold.Chemscore.Hbonds>
donor molecule, donor type, donor heavy atom, donor atom, acceptor molecule, acceptor atom, score
      P1  H  6896  6909       L1    16  1.00
      P1  H  7989  7998       L1     4  0.99

> <Gold.PLP.Chemscore.Internal.Correction>
0.1431

> <Gold.Rescore>
     Score         DG    S(hbond)    S(metal)    S(lipo)     H(rot)  DE(clash)    DE(int)     intcor
     16.70     -17.32       1.91        0.00      99.35       2.40       0.05       0.57       ----

> <Gold.Chemscore.Fitness>
16.7040

> <Gold.Chemscore.DG>
-17.3228

> <Gold.Chemscore.ZeroCoef>
-5.4800

> <Gold.Chemscore.Hbond>
1.9060

> <Gold.Chemscore.Metal>
0.0000

> <Gold.Chemscore.Lipo>
99.3477

> <Gold.Chemscore.Internal_Hbond>
0.0000

> <Gold.Chemscore.DEClash>
0.0456

> <Gold.Chemscore.DEInternal>
0.5732

> <Gold.Chemscore.Rot>
2.4011

> <Gold.Chemscore.Internal.Correction>
   9.000000E+99

> <Gold.Chemscore.Hbonds>
donor molecule, donor type, donor heavy atom, donor atom, acceptor molecule, acceptor atom, score
      P1  H  6896  6909       L1    16  0.79
      P1  H  7989  7998       L1     4  0.93

> <Gold.Chemscore.Hbond.Weighted>
-6.3660

> <Gold.Chemscore.Metal.Weighted>
-0.0000

> <Gold.Chemscore.Lipo.Weighted>
-11.6237

> <Gold.Chemscore.Internal_Hbond.Weighted>
0.0000

> <Gold.Chemscore.DEClash.Weighted>
0.0456

> <Gold.Chemscore.DEInternal.Weighted>
0.5732

> <Gold.Chemscore.Rot.Weighted>
6.1469

> <Gold.Chemscore.Internal.Correction.Weighted>
   9.000000E+99

> <Gold.Protein.RotatedTorsions>
[ 6907 6896 6895 6894 ] final   97.66 input  -60.11 | X-H torsion
[ 7974 7965 7964 7962 ] final -133.92 input  175.53 | X-H torsion
[ 8008 7997 7996 7995 ] final  -52.67 input   59.86 | X-H torsion
[ 10167 10162 10161 10158 ] final  -13.87 input  -65.29 | X-H torsion
[ 10718 10713 10712 10709 ] final  146.60 input   66.30 | X-H torsion
[ 10763 10752 10751 10750 ] final  -94.58 input  -60.55 | X-H torsion
[ 11005 11000 10999 10996 ] final -130.92 input  -57.11 | X-H torsion

> <Gold.Protein.ActiveResidues>
 VAL166  LYS551  ARG553  GLY616  TRP617  ASP618  TYR619  PRO620  LYS621  CYS622 
 ASP623  PHE694  ASN695  SER759  ASP760  ASP761  ALA762  ILE779  LEU786  VAL792 
 PHE793  MET794  SER795  GLU796  ALA797  LYS798  CYS799  TRP800  GLU811  SER814 

> <Gold.Protein.RotatedAtoms>
  152.5420  134.0699  159.8189 H   0  0  0  0  0  0  0  0  0  0  0  0  # atno 6907 bound_to 6896
  151.0815  133.5379  159.2627 H   0  0  0  0  0  0  0  0  0  0  0  0  # atno 6908 bound_to 6896
  151.2204  135.0525  159.9001 H   0  0  0  0  0  0  0  0  0  0  0  0  # atno 6909 bound_to 6896
  144.9150  140.6943  143.5001 H   0  0  0  0  0  0  0  0  0  0  0  0  # atno 7974 bound_to 7965
  154.4113  140.1218  156.5030 H   0  0  0  0  0  0  0  0  0  0  0  0  # atno 8008 bound_to 7997
  155.6876  140.3495  155.4861 H   0  0  0  0  0  0  0  0  0  0  0  0  # atno 8009 bound_to 7997
  155.9497  140.1102  157.0977 H   0  0  0  0  0  0  0  0  0  0  0  0  # atno 8010 bound_to 7997
  140.7190  143.5381  150.9441 H   0  0  0  0  0  0  0  0  0  0  0  0  # atno 10167 bound_to 10162
  157.3312  131.0920  151.1161 H   0  0  0  0  0  0  0  0  0  0  0  0  # atno 10718 bound_to 10713
  154.7068  135.5152  153.8607 H   0  0  0  0  0  0  0  0  0  0  0  0  # atno 10763 bound_to 10752
  153.0748  135.6613  154.0179 H   0  0  0  0  0  0  0  0  0  0  0  0  # atno 10764 bound_to 10752
  154.0028  135.3009  155.3380 H   0  0  0  0  0  0  0  0  0  0  0  0  # atno 10765 bound_to 10752
  140.9304  134.1327  157.4239 H   0  0  0  0  0  0  0  0  0  0  0  0  # atno 11005 bound_to 11000
  145.3391  139.1737  143.4495 LP  0  0  0  0  0  0  0  0  0  0  0  0  # atno 17320 bound_to 7965
  146.3177  140.3430  142.8649 LP  0  0  0  0  0  0  0  0  0  0  0  0  # atno 17321 bound_to 7965
  139.9103  143.6728  152.3116 LP  0  0  0  0  0  0  0  0  0  0  0  0  # atno 17342 bound_to 10162
  139.7109  144.7620  151.1114 LP  0  0  0  0  0  0  0  0  0  0  0  0  # atno 17343 bound_to 10162
  157.2408  130.6568  149.5889 LP  0  0  0  0  0  0  0  0  0  0  0  0  # atno 17370 bound_to 10713
  155.9696  130.4569  150.5942 LP  0  0  0  0  0  0  0  0  0  0  0  0  # atno 17371 bound_to 10713
  139.8795  135.0003  156.6002 LP  0  0  0  0  0  0  0  0  0  0  0  0  # atno 17394 bound_to 11000
  140.7870  133.8613  155.8614 LP  0  0  0  0  0  0  0  0  0  0  0  0  # atno 17395 bound_to 11000

$$$$
