#       Name:                AV-unprocessed.smi:37
#       Creating user name   scv26
#       Creation time:       Thu Mar 26 16:13:03 2020


#       File generated by GOLD software.
#

@<TRIPOS>MOLECULE
AV-unprocessed.smi:37
    54    55     1
SMALL
NO_CHARGES


@<TRIPOS>ATOM
      1 ****        -4.5186   2.9430  -0.6850 C.3            1 S1                 0.0000
      2 ****        -3.1891   2.7993  -1.4404 C.3            1 S1                 0.0000
      3 ****        -2.6674   1.3619  -1.4907 C.2            1 S1                 0.0000
      4 ****        -3.3148   0.4100  -1.0512 O.2            1 S1                 0.0000
      5 ****        -1.4512   1.2904  -2.0552 O.3            1 S1                 0.0000
      6 ****        -0.7709   0.0463  -2.1344 C.3            1 S1                 0.0000
      7 ****         0.7420   0.2944  -2.0380 C.3            1 S1                 0.0000
      8 ****         1.4807  -0.9243  -2.1254 O.3            1 S1                 0.0000
      9 ****         2.5922  -0.8922  -1.2746 C.3            1 S1                 0.0000
     10 ****         2.4181  -1.9184  -0.1707 N.am           1 S1                 0.0000
     11 ****         1.1961  -2.5237   0.1032 C.2            1 S1                 0.0000
     12 ****         1.0239  -3.4181   1.1048 C.2            1 S1                 0.0000
     13 ****        -0.1905  -3.9539   1.3141 F              1 S1                 0.0000
     14 ****         2.1421  -3.8037   1.9600 C.2            1 S1                 0.0000
     15 ****         2.0840  -4.6022   2.8927 O.2            1 S1                 0.0000
     16 ****         3.3519  -3.1798   1.6435 N.am           1 S1                 0.0000
     17 ****         3.5422  -2.2543   0.6163 C.2            1 S1                 0.0000
     18 ****         4.6535  -1.7601   0.4305 O.2            1 S1                 0.0000
     19 ****         2.6651   0.5215  -0.6775 C.3            1 S1                 0.0000
     20 ****         3.7888   1.6799  -1.8455 Br             1 S1                 0.0000
     21 ****         1.2204   0.9808  -0.7531 C.3            1 S1                 0.0000
     22 ****         0.4833   0.4999   0.3658 O.3            1 S1                 0.0000
     23 ****         0.3745   1.2310   1.4867 C.2            1 S1                 0.0000
     24 ****         0.8735   2.3397   1.6776 O.2            1 S1                 0.0000
     25 ****        -0.4374   0.5231   2.5693 C.3            1 S1                 0.0000
     26 ****        -1.8587   0.1775   2.1034 C.3            1 S1                 0.0000
     27 ****         4.1551  -3.4172   2.2075 H              1 S1                 0.0000
     28 ****        -4.8375   3.9851  -0.6653 H              1 S1                 0.0000
     29 ****        -4.4274   2.6072   0.3487 H              1 S1                 0.0000
     30 ****        -5.3116   2.3649  -1.1606 H              1 S1                 0.0000
     31 ****        -3.3053   3.1617  -2.4620 H              1 S1                 0.0000
     32 ****        -2.4316   3.4250  -0.9678 H              1 S1                 0.0000
     33 ****        -1.0850  -0.6300  -1.3385 H              1 S1                 0.0000
     34 ****        -1.0170  -0.4363  -3.0804 H              1 S1                 0.0000
     35 ****         1.0518   0.9058  -2.8867 H              1 S1                 0.0000
     36 ****         3.4906  -1.1989  -1.8136 H              1 S1                 0.0000
     37 ****         0.3266  -2.2818  -0.4878 H              1 S1                 0.0000
     38 ****         3.0923   0.5421   0.3255 H              1 S1                 0.0000
     39 ****         1.1317   2.0657  -0.8280 H              1 S1                 0.0000
     40 ****         0.0889  -0.3841   2.8668 H              1 S1                 0.0000
     41 ****        -0.4841   1.1651   3.4492 H              1 S1                 0.0000
     42 ****        -2.4326  -0.2647   2.9176 H              1 S1                 0.0000
     43 ****        -1.8466  -0.5419   1.2838 H              1 S1                 0.0000
     44 ****        -2.3938   1.0659   1.7659 H              1 S1                 0.0000
     45 ****        -4.2150   0.5632  -0.6436 LP             1 S1                 0.0000
     46 ****        -2.9399  -0.5157  -1.1021 LP             1 S1                 0.0000
     47 ****         1.7919  -1.0526  -3.0671 LP             1 S1                 0.0000
     48 ****         0.8887  -1.6864  -1.8632 LP             1 S1                 0.0000
     49 ****         1.2168  -5.0467   3.1171 LP             1 S1                 0.0000
     50 ****         2.9040  -4.8073   3.4271 LP             1 S1                 0.0000
     51 ****         4.7877  -1.0922  -0.3015 LP             1 S1                 0.0000
     52 ****         5.4227  -2.0264   1.0115 LP             1 S1                 0.0000
     53 ****         1.4177   2.7734   0.9594 LP             1 S1                 0.0000
     54 ****         0.7349   2.8067   2.5509 LP             1 S1                 0.0000
@<TRIPOS>BOND
    1    1    2 1     
    2    1   28 1     
    3    1   29 1     
    4    1   30 1     
    5    2    3 1     
    6    2   31 1     
    7    2   32 1     
    8    3    4 2     
    9    3    5 1     
   10    5    6 1     
   11    6    7 1     
   12    6   33 1     
   13    6   34 1     
   14    7   21 1     
   15    7    8 1     
   16    7   35 1     
   17    8    9 1     
   18    9   10 1     
   19    9   19 1     
   20    9   36 1     
   21   10   17 1     
   22   10   11 1     
   23   11   12 2     
   24   11   37 1     
   25   12   13 1     
   26   12   14 1     
   27   14   15 2     
   28   14   16 1     
   29   16   27 1     
   30   16   17 1     
   31   17   18 2     
   32   19   20 1     
   33   19   21 1     
   34   19   38 1     
   35   21   22 1     
   36   21   39 1     
   37   22   23 1     
   38   23   24 2     
   39   23   25 1     
   40   25   26 1     
   41   25   40 1     
   42   25   41 1     
   43   26   42 1     
   44   26   43 1     
   45   26   44 1     
   46    4   45 1     
   47    4   46 1     
   48    8   47 1     
   49    8   48 1     
   50   15   49 1     
   51   15   50 1     
   52   18   51 1     
   53   18   52 1     
   54   24   53 1     
   55   24   54 1     
@<TRIPOS>SUBSTRUCTURE
      1 S1             1
@<TRIPOS>SET
LONE_PAIRS      STATIC     ATOMS    <user>   **** ""
10 45 46 47 48 49 50 51 52 53 54
DONOR_HYDROGENS      STATIC     ATOMS    <user>   **** ""
1 27
ATOM$BLUE        STATIC     ATOMS    COLORGROUP SYSTEM
10 45 46 47 48 49 50 51 52 53 54
ATOM$RED        STATIC     ATOMS    COLORGROUP SYSTEM
1 27
