AV-unprocessed.smi:220|AV-procd|sdf|1682|dock8
  -GOLD-   2262020113D 1   1.00000     0.00000
 Structure written by MMmdl.
 51 55  0  0  0  0  0  0  0  0  1 V2000
  149.5146  140.2386  156.7876 N   0  0  0  0  0  0  0  0  0  0  0  0
  150.7135  140.8239  156.7384 C   0  0  0  0  0  0  0  0  0  0  0  0
  151.3385  140.9462  155.6862 O   0  0  0  0  0  0  0  0  0  0  0  0
  151.2757  141.3586  158.0653 C   0  0  2  0  0  0  0  0  0  0  0  0
  151.5548  142.8752  158.0088 C   0  0  1  0  0  0  0  0  0  0  0  0
  150.4495  143.7850  158.5705 C   0  0  0  0  0  0  0  0  0  0  0  0
  151.1972  144.8516  159.3727 C   0  0  0  0  0  0  0  0  0  0  0  0
  152.3827  144.0990  159.9779 C   0  0  0  0  0  0  0  0  0  0  0  0
  152.7923  143.1001  158.8867 C   0  0  1  0  0  0  0  0  0  0  0  0
  153.2009  141.7032  159.3639 C   0  0  0  0  0  0  0  0  0  0  0  0
  152.5773  140.7916  158.4182 N   0  0  0  0  0  0  0  0  0  0  0  0
  152.6301  139.4892  158.7788 C   0  0  0  0  0  0  0  0  0  0  0  0
  152.0362  138.6044  157.9417 N   0  0  0  0  0  0  0  0  0  0  0  0
  152.0451  137.3001  158.2309 C   0  0  0  0  0  0  0  0  0  0  0  0
  152.5874  136.6820  159.2821 N   0  0  0  0  0  0  0  0  0  0  0  0
  153.1975  137.5687  160.1201 C   0  0  0  0  0  0  0  0  0  0  0  0
  153.2678  138.9799  159.9463 C   0  0  0  0  0  0  0  0  0  0  0  0
  153.9760  139.5492  160.9981 N   0  0  0  0  0  0  0  0  0  0  0  0
  154.2946  138.5354  161.7552 C   0  0  0  0  0  0  0  0  0  0  0  0
  153.8755  137.3064  161.2983 N   0  0  0  0  0  0  0  0  0  0  0  0
  154.0910  136.0173  161.9376 C   0  0  0  0  0  0  0  0  0  0  0  0
  154.6396  136.1186  163.3752 C   0  0  0  0  0  0  0  0  0  0  0  0
  153.6489  136.8743  164.2782 C   0  0  0  0  0  0  0  0  0  0  0  0
  154.2322  137.2000  165.5233 O   0  0  0  0  0  0  0  0  0  0  0  0
  155.1813  134.8159  163.9814 C   0  0  0  0  0  0  0  0  0  0  0  0
  156.4314  135.4374  164.3458 O   0  0  0  0  0  0  0  0  0  0  0  0
  156.1029  136.5629  163.5042 C   0  0  0  0  0  0  0  0  0  0  0  0
  149.1009  139.8737  155.9419 H   0  0  0  0  0  0  0  0  0  0  0  0
  149.0246  140.1650  157.6671 H   0  0  0  0  0  0  0  0  0  0  0  0
  150.5639  141.1472  158.8626 H   0  0  0  0  0  0  0  0  0  0  0  0
  151.8025  143.1893  156.9925 H   0  0  0  0  0  0  0  0  0  0  0  0
  149.8258  144.2146  157.7860 H   0  0  0  0  0  0  0  0  0  0  0  0
  149.7941  143.2302  159.2429 H   0  0  0  0  0  0  0  0  0  0  0  0
  151.5595  145.6317  158.7019 H   0  0  0  0  0  0  0  0  0  0  0  0
  150.5700  145.3251  160.1285 H   0  0  0  0  0  0  0  0  0  0  0  0
  153.1989  144.7629  160.2634 H   0  0  0  0  0  0  0  0  0  0  0  0
  152.0515  143.5772  160.8763 H   0  0  0  0  0  0  0  0  0  0  0  0
  153.5822  143.5286  158.2677 H   0  0  0  0  0  0  0  0  0  0  0  0
  154.2852  141.5853  159.3661 H   0  0  0  0  0  0  0  0  0  0  0  0
  152.8403  141.5046  160.3745 H   0  0  0  0  0  0  0  0  0  0  0  0
  151.5461  136.6604  157.5180 H   0  0  0  0  0  0  0  0  0  0  0  0
  154.8499  138.6600  162.6730 H   0  0  0  0  0  0  0  0  0  0  0  0
  153.1392  135.4846  161.9299 H   0  0  0  0  0  0  0  0  0  0  0  0
  154.7585  135.4250  161.3109 H   0  0  0  0  0  0  0  0  0  0  0  0
  153.2855  137.7866  163.8049 H   0  0  0  0  0  0  0  0  0  0  0  0
  152.7664  136.2643  164.4742 H   0  0  0  0  0  0  0  0  0  0  0  0
  155.1076  136.8449  165.5472 H   0  0  0  0  0  0  0  0  0  0  0  0
  154.6203  134.4594  164.8462 H   0  0  0  0  0  0  0  0  0  0  0  0
  155.3319  134.0140  163.2573 H   0  0  0  0  0  0  0  0  0  0  0  0
  156.6569  136.5410  162.5644 H   0  0  0  0  0  0  0  0  0  0  0  0
  156.2368  137.5192  164.0112 H   0  0  0  0  0  0  0  0  0  0  0  0
  1  2  1  0  0  0  0
  1 28  1  0  0  0  0
  1 29  1  0  0  0  0
  2  3  2  0  0  0  0
  2  4  1  0  0  0  0
  4 11  1  0  0  0  0
  4  5  1  0  0  0  0
  4 30  1  0  0  0  0
  5  9  1  0  0  0  0
  5  6  1  0  0  0  0
  5 31  1  0  0  0  0
  6  7  1  0  0  0  0
  6 32  1  0  0  0  0
  6 33  1  0  0  0  0
  7  8  1  0  0  0  0
  7 34  1  0  0  0  0
  7 35  1  0  0  0  0
  8  9  1  0  0  0  0
  8 36  1  0  0  0  0
  8 37  1  0  0  0  0
  9 10  1  0  0  0  0
  9 38  1  0  0  0  0
 10 11  1  0  0  0  0
 10 39  1  0  0  0  0
 10 40  1  0  0  0  0
 11 12  1  0  0  0  0
 12 17  1  0  0  0  0
 12 13  2  0  0  0  0
 13 14  1  0  0  0  0
 14 15  2  0  0  0  0
 14 41  1  0  0  0  0
 15 16  1  0  0  0  0
 16 20  1  0  0  0  0
 16 17  2  0  0  0  0
 17 18  1  0  0  0  0
 18 19  2  0  0  0  0
 19 20  1  0  0  0  0
 19 42  1  0  0  0  0
 20 21  1  0  0  0  0
 21 22  1  0  0  0  0
 21 43  1  0  0  0  0
 21 44  1  0  0  0  0
 22 27  1  0  0  0  0
 22 23  1  0  0  0  0
 22 25  1  0  0  0  0
 23 24  1  0  0  0  0
 23 45  1  0  0  0  0
 23 46  1  0  0  0  0
 24 47  1  0  0  0  0
 25 26  1  0  0  0  0
 25 48  1  0  0  0  0
 25 49  1  0  0  0  0
 26 27  1  0  0  0  0
 27 50  1  0  0  0  0
 27 51  1  0  0  0  0
M  END
> <s_m_source_file>
AV-unprocessed.smi

> <i_m_source_file_index>
220

> <i_lp_mmshare_version>
43012

> <i_f3d_flags>
0

> <s_epik_input>
W0NIMl0xW0NIMl1bQ0gyXVtDQEhdKFtDQEhdMTIpW0NIMl1OKFtDQEBIXTJDKD1PKVtOSDJdKWMobltjSF1uMyljKGMzNCluW2NIXW40W0NIMl1DNShbQ0gyXVtPSF0pW0NIMl1PW0NIMl01

> <s_epik_cmdline>
J2VwaWtfcHl0aG9uJywgJy1waCcsICc3LjAnLCAnLXRuJywgJzgnLCAnLW1hJywgJzIwMCcsICctbWV0YWxfYmluZGluZycsICctaW1hZScsICc8aW5maWxlLm1hZT4nLCAnLW9tYWUnLCAnPG91dGZpbGUubWFlPic=

> <r_lp_tautomer_probability>
1

> <r_epik_Ionization_Penalty>
0.00118987

> <r_epik_Ionization_Penalty_Charging>
0

> <r_epik_Ionization_Penalty_Neutral>
0.00118987

> <r_epik_State_Penalty>
0.000654261

> <r_epik_Charging_Adjusted_Penalty>
0.000654261

> <i_epik_Tot_Q>
0

> <i_epik_Tot_abs_Q>
0

> <r_epik_Metal_State_Penalty>
-0

> <b_epik_Metal_Only>
0

> <s_lp_Force_Field>
OPLS_2005

> <r_lp_Energy>
61.293

> <b_lp_Chiralities_Consistent>
1

> <s_lp_Variant>
AV-unprocessed.smi:220-1

> <Gold.Version>
5.8.1

> <Gold.Id.Protein>
6NUR|6NUR_protein|mol2

> <Gold.PLP.Fitness>
50.4021

> <Gold.PLP.PLP>
-46.8209

> <Gold.PLP.part.hbond>
-3.8225

> <Gold.PLP.part.metal>
0.0000

> <Gold.PLP.part.buried>
-6.2868

> <Gold.PLP.part.nonpolar>
-37.2020

> <Gold.PLP.part.repulsive>
0.0980

> <Gold.PLP.ligand.clash>
0.0000

> <Gold.PLP.ligand.torsion>
0.4550

> <Gold.PLP.Chemscore.Hbond>
1.3544

> <Gold.PLP.Chemscore.CHOScore>
0.0000

> <Gold.PLP.Chemscore.Metal>
0.0000

> <Gold.Chemscore.Hbonds>
donor molecule, donor type, donor heavy atom, donor atom, acceptor molecule, acceptor atom, score
      P1  H  6896  6908       L1    15  0.99
      P1  H  7989  7998       L1     3  0.37

> <Gold.PLP.Chemscore.Internal.Correction>
0.4280

> <Gold.Rescore>
     Score         DG    S(hbond)    S(metal)    S(lipo)     H(rot)  DE(clash)    DE(int)     intcor
     11.52     -15.15       1.69        0.00     105.85       3.27       0.17       3.47       ----

> <Gold.Chemscore.Fitness>
11.5174

> <Gold.Chemscore.DG>
-15.1528

> <Gold.Chemscore.ZeroCoef>
-5.4800

> <Gold.Chemscore.Hbond>
1.6948

> <Gold.Chemscore.Metal>
0.0000

> <Gold.Chemscore.Lipo>
105.8486

> <Gold.Chemscore.Internal_Hbond>
0.0000

> <Gold.Chemscore.DEClash>
0.1694

> <Gold.Chemscore.DEInternal>
3.4660

> <Gold.Chemscore.Rot>
3.2703

> <Gold.Chemscore.Internal.Correction>
   9.000000E+99

> <Gold.Chemscore.Hbonds>
donor molecule, donor type, donor heavy atom, donor atom, acceptor molecule, acceptor atom, score
      P1  H  6896  6908       L1    15  0.90
      P1  H  7989  7998       L1     3  0.37

> <Gold.Chemscore.Hbond.Weighted>
-5.6606

> <Gold.Chemscore.Metal.Weighted>
-0.0000

> <Gold.Chemscore.Lipo.Weighted>
-12.3843

> <Gold.Chemscore.Internal_Hbond.Weighted>
0.0000

> <Gold.Chemscore.DEClash.Weighted>
0.1694

> <Gold.Chemscore.DEInternal.Weighted>
3.4660

> <Gold.Chemscore.Rot.Weighted>
8.3721

> <Gold.Chemscore.Internal.Correction.Weighted>
   9.000000E+99

> <Gold.Protein.RotatedTorsions>
[ 6907 6896 6895 6894 ] final -108.54 input  -60.11 | X-H torsion
[ 7974 7965 7964 7962 ] final   70.90 input  175.53 | X-H torsion
[ 8008 7997 7996 7995 ] final  177.81 input   59.86 | X-H torsion
[ 10167 10162 10161 10158 ] final   13.18 input  -65.29 | X-H torsion
[ 10718 10713 10712 10709 ] final  -21.01 input   66.30 | X-H torsion
[ 10763 10752 10751 10750 ] final  -93.92 input  -60.55 | X-H torsion
[ 11005 11000 10999 10996 ] final   46.35 input  -57.11 | X-H torsion

> <Gold.Protein.ActiveResidues>
 VAL166  LYS551  ARG553  GLY616  TRP617  ASP618  TYR619  PRO620  LYS621  CYS622 
 ASP623  PHE694  ASN695  SER759  ASP760  ASP761  ALA762  ILE779  LEU786  VAL792 
 PHE793  MET794  SER795  GLU796  ALA797  LYS798  CYS799  TRP800  GLU811  SER814 

> <Gold.Protein.RotatedAtoms>
  150.7508  133.9662  159.3531 H   0  0  0  0  0  0  0  0  0  0  0  0  # atno 6907 bound_to 6896
  151.7592  135.0812  160.0352 H   0  0  0  0  0  0  0  0  0  0  0  0  # atno 6908 bound_to 6896
  152.3414  133.6034  159.5915 H   0  0  0  0  0  0  0  0  0  0  0  0  # atno 6909 bound_to 6896
  145.7724  139.2849  143.1313 H   0  0  0  0  0  0  0  0  0  0  0  0  # atno 7974 bound_to 7965
  156.0615  140.1349  156.9935 H   0  0  0  0  0  0  0  0  0  0  0  0  # atno 8008 bound_to 7997
  154.4484  140.0990  156.6595 H   0  0  0  0  0  0  0  0  0  0  0  0  # atno 8009 bound_to 7997
  155.5369  140.3460  155.4440 H   0  0  0  0  0  0  0  0  0  0  0  0  # atno 8010 bound_to 7997
  140.6019  143.8586  150.6974 H   0  0  0  0  0  0  0  0  0  0  0  0  # atno 10167 bound_to 10162
  156.5240  130.4639  149.6582 H   0  0  0  0  0  0  0  0  0  0  0  0  # atno 10718 bound_to 10713
  154.7006  135.5176  153.8521 H   0  0  0  0  0  0  0  0  0  0  0  0  # atno 10763 bound_to 10752
  153.0701  135.6598  154.0276 H   0  0  0  0  0  0  0  0  0  0  0  0  # atno 10764 bound_to 10752
  154.0136  135.3000  155.3369 H   0  0  0  0  0  0  0  0  0  0  0  0  # atno 10765 bound_to 10752
  140.1376  134.4624  155.8473 H   0  0  0  0  0  0  0  0  0  0  0  0  # atno 11005 bound_to 11000
  146.0156  140.8395  142.9949 LP  0  0  0  0  0  0  0  0  0  0  0  0  # atno 17320 bound_to 7965
  144.6810  140.2554  143.7326 LP  0  0  0  0  0  0  0  0  0  0  0  0  # atno 17321 bound_to 7965
  140.2134  143.3865  152.1700 LP  0  0  0  0  0  0  0  0  0  0  0  0  # atno 17342 bound_to 10162
  139.5297  144.7145  151.5099 LP  0  0  0  0  0  0  0  0  0  0  0  0  # atno 17343 bound_to 10162
  156.3123  130.7235  151.2130 LP  0  0  0  0  0  0  0  0  0  0  0  0  # atno 17370 bound_to 10713
  157.7432  131.0478  150.4962 LP  0  0  0  0  0  0  0  0  0  0  0  0  # atno 17371 bound_to 10713
  141.2181  133.6820  156.7187 LP  0  0  0  0  0  0  0  0  0  0  0  0  # atno 17394 bound_to 11000
  140.2762  134.8353  157.3892 LP  0  0  0  0  0  0  0  0  0  0  0  0  # atno 17395 bound_to 11000

$$$$
