AV-unprocessed.smi:2078|AV-procd|sdf|8468|dock4
  -GOLD-   2272011163D 1   1.00000     0.00000
 Structure written by MMmdl.
 41 42  0  0  0  0  0  0  0  0  3 V2000
  151.9632  141.1578  157.9342 C   0  0  0  0  0  0  0  0  0  0  0  0
  151.6546  140.3509  156.7197 C   0  0  0  0  0  0  0  0  0  0  0  0
  150.5236  140.2023  155.9683 C   0  0  0  0  0  0  0  0  0  0  0  0
  150.9250  139.2911  154.9536 C   0  0  0  0  0  0  0  0  0  0  0  0
  150.1471  138.8171  153.9678 N   0  5  0  0  0  0  0  0  0  0  0  0
  148.8104  138.7118  154.1452 C   0  0  0  0  0  0  0  0  0  0  0  0
  148.2142  138.6676  155.2236 O   0  0  0  0  0  0  0  0  0  0  0  0
  148.1194  138.6508  152.9994 N   0  0  0  0  0  0  0  0  0  0  0  0
  146.6720  138.5263  152.8988 C   0  0  0  0  0  0  0  0  0  0  0  0
  146.1909  137.2812  153.6598 C   0  0  0  0  0  0  0  0  0  0  0  0
  146.2149  136.0590  152.8178 N   0  3  2  0  0  0  0  0  0  0  0  0
  145.2421  136.1311  151.6970 C   0  0  0  0  0  0  0  0  0  0  0  0
  145.3915  134.9283  150.7521 C   0  0  0  0  0  0  0  0  0  0  0  0
  145.2503  133.6058  151.5181 C   0  0  0  0  0  0  0  0  0  0  0  0
  146.2158  133.5494  152.7163 C   0  0  1  0  0  0  0  0  0  0  0  0
  147.6773  133.3177  152.2943 C   0  0  0  0  0  0  0  0  0  0  0  0
  146.0557  134.8034  153.6014 C   0  0  0  0  0  0  0  0  0  0  0  0
  152.1837  138.9079  155.0871 N   0  0  0  0  0  0  0  0  0  0  0  0
  152.6609  139.5885  156.2138 O   0  0  0  0  0  0  0  0  0  0  0  0
  151.1897  141.0261  158.6907 H   0  0  0  0  0  0  0  0  0  0  0  0
  152.0191  142.2179  157.6875 H   0  0  0  0  0  0  0  0  0  0  0  0
  152.9167  140.8613  158.3719 H   0  0  0  0  0  0  0  0  0  0  0  0
  149.5632  140.6720  156.1179 H   0  0  0  0  0  0  0  0  0  0  0  0
  148.6434  138.6933  152.1374 H   0  0  0  0  0  0  0  0  0  0  0  0
  146.1976  139.4191  153.3101 H   0  0  0  0  0  0  0  0  0  0  0  0
  146.4056  138.4743  151.8432 H   0  0  0  0  0  0  0  0  0  0  0  0
  146.7836  137.1219  154.5618 H   0  0  0  0  0  0  0  0  0  0  0  0
  145.1684  137.4678  153.9918 H   0  0  0  0  0  0  0  0  0  0  0  0
  144.2275  136.1745  152.0963 H   0  0  0  0  0  0  0  0  0  0  0  0
  145.3988  137.0492  151.1293 H   0  0  0  0  0  0  0  0  0  0  0  0
  144.6400  134.9805  149.9637 H   0  0  0  0  0  0  0  0  0  0  0  0
  146.3600  134.9694  150.2526 H   0  0  0  0  0  0  0  0  0  0  0  0
  144.2248  133.5120  151.8783 H   0  0  0  0  0  0  0  0  0  0  0  0
  145.4168  132.7601  150.8499 H   0  0  0  0  0  0  0  0  0  0  0  0
  145.9317  132.6862  153.3196 H   0  0  0  0  0  0  0  0  0  0  0  0
  148.0691  134.1463  151.7043 H   0  0  0  0  0  0  0  0  0  0  0  0
  147.7731  132.4105  151.6968 H   0  0  0  0  0  0  0  0  0  0  0  0
  148.3218  133.2031  153.1665 H   0  0  0  0  0  0  0  0  0  0  0  0
  146.7796  134.7623  154.4146 H   0  0  0  0  0  0  0  0  0  0  0  0
  145.0692  134.7999  154.0677 H   0  0  0  0  0  0  0  0  0  0  0  0
  147.1308  136.0269  152.3930 H   0  0  0  0  0  0  0  0  0  0  0  0
  1  2  1  0  0  0  0
  1 20  1  0  0  0  0
  1 21  1  0  0  0  0
  1 22  1  0  0  0  0
  2 19  1  0  0  0  0
  2  3  2  0  0  0  0
  3  4  1  0  0  0  0
  3 23  1  0  0  0  0
  4  5  1  0  0  0  0
  4 18  2  0  0  0  0
  5  6  1  0  0  0  0
  6  7  2  0  0  0  0
  6  8  1  0  0  0  0
  8  9  1  0  0  0  0
  8 24  1  0  0  0  0
  9 10  1  0  0  0  0
  9 25  1  0  0  0  0
  9 26  1  0  0  0  0
 10 11  1  0  0  0  0
 10 27  1  0  0  0  0
 10 28  1  0  0  0  0
 11 17  1  0  0  0  0
 11 12  1  0  0  0  0
 11 41  1  0  0  0  0
 12 13  1  0  0  0  0
 12 29  1  0  0  0  0
 12 30  1  0  0  0  0
 13 14  1  0  0  0  0
 13 31  1  0  0  0  0
 13 32  1  0  0  0  0
 14 15  1  0  0  0  0
 14 33  1  0  0  0  0
 14 34  1  0  0  0  0
 15 16  1  0  0  0  0
 15 17  1  0  0  0  0
 15 35  1  0  0  0  0
 16 36  1  0  0  0  0
 16 37  1  0  0  0  0
 16 38  1  0  0  0  0
 17 39  1  0  0  0  0
 17 40  1  0  0  0  0
 18 19  1  0  0  0  0
M  CHG  1   5  -1
M  CHG  1  11   1
M  END
> <s_m_source_file>
AV-unprocessed.smi

> <i_m_source_file_index>
2078

> <i_lp_mmshare_version>
43012

> <i_f3d_flags>
0

> <s_epik_input>
W0NIM11jMVtjSF1jKG5vMSlbTkhdQyg9TylbTkhdW0NIMl1bQ0gyXU4yW0NIMl1bQ0gyXVtDSDJdW0NAQEhdKFtDSDNdKVtDSDJdMg==

> <s_epik_cmdline>
J2VwaWtfcHl0aG9uJywgJy1waCcsICc3LjAnLCAnLXRuJywgJzgnLCAnLW1hJywgJzIwMCcsICctbWV0YWxfYmluZGluZycsICctaW1hZScsICc8aW5maWxlLm1hZT4nLCAnLW9tYWUnLCAnPG91dGZpbGUubWFlPic=

> <r_epik_Ionization_Penalty>
6.22434

> <r_epik_Ionization_Penalty_Charging>
6.22425

> <r_epik_Ionization_Penalty_Neutral>
9.37855e-05

> <r_epik_State_Penalty>
6.22423

> <r_epik_Charging_Adjusted_Penalty>
12.4485

> <i_epik_Tot_Q>
0

> <i_epik_Tot_abs_Q>
2

> <r_epik_Metal_State_Penalty>
2.16764

> <b_epik_Metal_Only>
1

> <s_lp_Force_Field>
OPLS_2005

> <r_lp_Energy>
8.87897

> <b_lp_Chiralities_Consistent>
1

> <s_lp_Variant>
AV-unprocessed.smi:2078-6

> <Gold.Version>
5.8.1

> <Gold.Id.Protein>
6NUR|6NUR_protein|mol2

> <Gold.PLP.Fitness>
40.7014

> <Gold.PLP.PLP>
-30.4433

> <Gold.PLP.part.hbond>
-4.0000

> <Gold.PLP.part.metal>
0.0000

> <Gold.PLP.part.buried>
-5.0531

> <Gold.PLP.part.nonpolar>
-22.5210

> <Gold.PLP.part.repulsive>
0.6472

> <Gold.PLP.ligand.clash>
0.0000

> <Gold.PLP.ligand.torsion>
0.4842

> <Gold.PLP.Chemscore.Hbond>
3.7200

> <Gold.PLP.Chemscore.CHOScore>
0.0000

> <Gold.PLP.Chemscore.Metal>
0.0000

> <Gold.Chemscore.Hbonds>
donor molecule, donor type, donor heavy atom, donor atom, acceptor molecule, acceptor atom, score
      L1  H     8    24       P1  7957  0.75
      L1  H    11    41       P1  7948  2.00
      P1  H  7997  8009       L1    19  1.00

> <Gold.PLP.Chemscore.Internal.Correction>
0.0664

> <Gold.Rescore>
     Score         DG    S(hbond)    S(metal)    S(lipo)     H(rot)  DE(clash)    DE(int)     intcor
     14.23     -17.36       2.75        0.00      56.59       1.54       0.05       3.08       ----

> <Gold.Chemscore.Fitness>
14.2302

> <Gold.Chemscore.DG>
-17.3569

> <Gold.Chemscore.ZeroCoef>
-5.4800

> <Gold.Chemscore.Hbond>
2.7546

> <Gold.Chemscore.Metal>
0.0000

> <Gold.Chemscore.Lipo>
56.5908

> <Gold.Chemscore.Internal_Hbond>
0.0000

> <Gold.Chemscore.DEClash>
0.0515

> <Gold.Chemscore.DEInternal>
3.0752

> <Gold.Chemscore.Rot>
1.5409

> <Gold.Chemscore.Internal.Correction>
   9.000000E+99

> <Gold.Chemscore.Hbonds>
donor molecule, donor type, donor heavy atom, donor atom, acceptor molecule, acceptor atom, score
      L1  H     8    24       P1  7957  0.65
      L1  H    11    41       P1  7948  1.00
      P1  H  7997  8009       L1    19  0.89

> <Gold.Chemscore.Hbond.Weighted>
-9.2004

> <Gold.Chemscore.Metal.Weighted>
-0.0000

> <Gold.Chemscore.Lipo.Weighted>
-6.6211

> <Gold.Chemscore.Internal_Hbond.Weighted>
0.0000

> <Gold.Chemscore.DEClash.Weighted>
0.0515

> <Gold.Chemscore.DEInternal.Weighted>
3.0752

> <Gold.Chemscore.Rot.Weighted>
3.9446

> <Gold.Chemscore.Internal.Correction.Weighted>
   9.000000E+99

> <Gold.Protein.RotatedTorsions>
[ 6907 6896 6895 6894 ] final   -8.42 input  -60.11 | X-H torsion
[ 7974 7965 7964 7962 ] final  -18.34 input  175.53 | X-H torsion
[ 8008 7997 7996 7995 ] final -146.24 input   59.86 | X-H torsion
[ 10167 10162 10161 10158 ] final  -18.23 input  -65.29 | X-H torsion
[ 10718 10713 10712 10709 ] final   75.51 input   66.30 | X-H torsion
[ 10763 10752 10751 10750 ] final   70.41 input  -60.55 | X-H torsion
[ 11005 11000 10999 10996 ] final  150.67 input  -57.11 | X-H torsion

> <Gold.Protein.ActiveResidues>
 VAL166  LYS551  ARG553  GLY616  TRP617  ASP618  TYR619  PRO620  LYS621  CYS622 
 ASP623  PHE694  ASN695  SER759  ASP760  ASP761  ALA762  ILE779  LEU786  VAL792 
 PHE793  MET794  SER795  GLU796  ALA797  LYS798  CYS799  TRP800  GLU811  SER814 

> <Gold.Protein.RotatedAtoms>
  151.4339  135.1012  159.9649 H   0  0  0  0  0  0  0  0  0  0  0  0  # atno 6907 bound_to 6896
  152.4946  133.8592  159.7252 H   0  0  0  0  0  0  0  0  0  0  0  0  # atno 6908 bound_to 6896
  150.9136  133.6909  159.2876 H   0  0  0  0  0  0  0  0  0  0  0  0  # atno 6909 bound_to 6896
  146.1897  140.3908  142.8463 H   0  0  0  0  0  0  0  0  0  0  0  0  # atno 7974 bound_to 7965
  155.5562  140.0621  157.2839 H   0  0  0  0  0  0  0  0  0  0  0  0  # atno 8008 bound_to 7997
  154.4405  140.1894  156.0781 H   0  0  0  0  0  0  0  0  0  0  0  0  # atno 8009 bound_to 7997
  156.0480  140.3287  155.7322 H   0  0  0  0  0  0  0  0  0  0  0  0  # atno 8010 bound_to 7997
  140.7256  143.4937  150.9959 H   0  0  0  0  0  0  0  0  0  0  0  0  # atno 10167 bound_to 10162
  157.6637  130.9730  150.1364 H   0  0  0  0  0  0  0  0  0  0  0  0  # atno 10718 bound_to 10713
  153.0340  135.5175  154.7437 H   0  0  0  0  0  0  0  0  0  0  0  0  # atno 10763 bound_to 10752
  154.6428  135.2914  155.0084 H   0  0  0  0  0  0  0  0  0  0  0  0  # atno 10764 bound_to 10752
  154.0996  135.6638  153.4918 H   0  0  0  0  0  0  0  0  0  0  0  0  # atno 10765 bound_to 10752
  140.1152  134.8899  157.1993 H   0  0  0  0  0  0  0  0  0  0  0  0  # atno 11005 bound_to 11000
  144.8463  140.6933  143.6197 LP  0  0  0  0  0  0  0  0  0  0  0  0  # atno 17320 bound_to 7965
  145.3831  139.1632  143.4269 LP  0  0  0  0  0  0  0  0  0  0  0  0  # atno 17321 bound_to 7965
  139.8642  143.7275  152.3171 LP  0  0  0  0  0  0  0  0  0  0  0  0  # atno 17342 bound_to 10162
  139.7501  144.7536  151.0519 LP  0  0  0  0  0  0  0  0  0  0  0  0  # atno 17343 bound_to 10162
  156.2198  130.3673  149.8570 LP  0  0  0  0  0  0  0  0  0  0  0  0  # atno 17370 bound_to 10713
  156.6426  130.8711  151.3517 LP  0  0  0  0  0  0  0  0  0  0  0  0  # atno 17371 bound_to 10713
  140.3038  134.3101  155.7283 LP  0  0  0  0  0  0  0  0  0  0  0  0  # atno 17394 bound_to 11000
  141.2139  133.7608  156.9679 LP  0  0  0  0  0  0  0  0  0  0  0  0  # atno 17395 bound_to 11000

$$$$
