AV-unprocessed.smi:1740|AV-procd|sdf|7015|dock10
  -GOLD-   22720 8233D 1   1.00000     0.00000
 Structure written by MMmdl.
 52 54  0  0  0  0  0  0  0  0  4 V2000
  149.0872  134.9297  157.4316 N   0  5  0  0  0  0  0  0  0  0  0  0
  149.8818  135.4484  156.4741 C   0  0  0  0  0  0  0  0  0  0  0  0
  151.0754  135.7290  156.5528 O   0  0  0  0  0  0  0  0  0  0  0  0
  149.1318  135.6861  155.1591 C   0  0  0  0  0  0  0  0  0  0  0  0
  149.2849  137.0938  154.7099 N   0  3  2  0  0  0  0  0  0  0  0  0
  150.6846  137.4461  154.3497 C   0  0  0  0  0  0  0  0  0  0  0  0
  150.7723  138.8702  153.7704 C   0  0  0  0  0  0  0  0  0  0  0  0
  150.1703  139.9195  154.7210 C   0  0  2  0  0  0  0  0  0  0  0  0
  151.0285  140.1026  155.8913 N   0  0  0  0  0  0  0  0  0  0  0  0
  150.9616  141.1322  156.7472 C   0  0  0  0  0  0  0  0  0  0  0  0
  150.1651  142.0637  156.6348 O   0  0  0  0  0  0  0  0  0  0  0  0
  151.8510  140.9980  157.7445 N   0  0  0  0  0  0  0  0  0  0  0  0
  151.9954  141.8387  158.8826 C   0  0  0  0  0  0  0  0  0  0  0  0
  151.5206  143.1748  158.8569 C   0  0  0  0  0  0  0  0  0  0  0  0
  151.7337  144.0176  159.9636 C   0  0  0  0  0  0  0  0  0  0  0  0
  152.4337  143.5163  161.0742 C   0  0  0  0  0  0  0  0  0  0  0  0
  152.8831  142.2443  161.0633 N   0  3  0  0  0  0  0  0  0  0  0  0
  152.6967  141.3786  160.0353 C   0  0  0  0  0  0  0  0  0  0  0  0
  153.2142  140.0699  160.1749 N   0  0  0  0  0  0  0  0  0  0  0  0
  154.1413  139.7549  161.2556 C   0  0  0  0  0  0  0  0  0  0  0  0
  154.2057  138.2307  161.2916 C   0  0  0  0  0  0  0  0  0  0  0  0
  152.7811  137.8329  160.9171 C   0  0  0  0  0  0  0  0  0  0  0  0
  152.3450  138.9224  159.9321 C   0  0  0  0  0  0  0  0  0  0  0  0
  148.7429  139.4946  155.1193 C   0  0  0  0  0  0  0  0  0  0  0  0
  148.7031  138.0601  155.6751 C   0  0  0  0  0  0  0  0  0  0  0  0
  148.0735  134.9007  157.2674 H   0  0  0  0  0  0  0  0  0  0  0  0
  149.5404  135.0019  154.4134 H   0  0  0  0  0  0  0  0  0  0  0  0
  148.0757  135.4333  155.2667 H   0  0  0  0  0  0  0  0  0  0  0  0
  151.3209  137.3565  155.2315 H   0  0  0  0  0  0  0  0  0  0  0  0
  151.0717  136.7412  153.6133 H   0  0  0  0  0  0  0  0  0  0  0  0
  151.8091  139.1182  153.5395 H   0  0  0  0  0  0  0  0  0  0  0  0
  150.2363  138.8990  152.8208 H   0  0  0  0  0  0  0  0  0  0  0  0
  150.1200  140.8706  154.1874 H   0  0  0  0  0  0  0  0  0  0  0  0
  151.7213  139.3883  156.0612 H   0  0  0  0  0  0  0  0  0  0  0  0
  152.3794  140.1381  157.7629 H   0  0  0  0  0  0  0  0  0  0  0  0
  151.0122  143.5715  157.9906 H   0  0  0  0  0  0  0  0  0  0  0  0
  151.3765  145.0370  159.9536 H   0  0  0  0  0  0  0  0  0  0  0  0
  152.6505  144.0902  161.9633 H   0  0  0  0  0  0  0  0  0  0  0  0
  155.1224  140.1981  161.0831 H   0  0  0  0  0  0  0  0  0  0  0  0
  153.7566  140.1275  162.2058 H   0  0  0  0  0  0  0  0  0  0  0  0
  154.9047  137.8673  160.5371 H   0  0  0  0  0  0  0  0  0  0  0  0
  154.5188  137.8411  162.2604 H   0  0  0  0  0  0  0  0  0  0  0  0
  152.7158  136.8299  160.4951 H   0  0  0  0  0  0  0  0  0  0  0  0
  152.1477  137.8654  161.8044 H   0  0  0  0  0  0  0  0  0  0  0  0
  151.2902  139.1699  160.0580 H   0  0  0  0  0  0  0  0  0  0  0  0
  152.4951  138.5796  158.9081 H   0  0  0  0  0  0  0  0  0  0  0  0
  148.3216  140.1894  155.8466 H   0  0  0  0  0  0  0  0  0  0  0  0
  148.0968  139.5520  154.2423 H   0  0  0  0  0  0  0  0  0  0  0  0
  147.6674  137.7895  155.8845 H   0  0  0  0  0  0  0  0  0  0  0  0
  149.2427  138.0019  156.6217 H   0  0  0  0  0  0  0  0  0  0  0  0
  148.7334  137.1641  153.8654 H   0  0  0  0  0  0  0  0  0  0  0  0
  153.3883  141.9109  161.8845 H   0  0  0  0  0  0  0  0  0  0  0  0
  1  2  1  0  0  0  0
  1 26  1  0  0  0  0
  2  3  2  0  0  0  0
  2  4  1  0  0  0  0
  4  5  1  0  0  0  0
  4 27  1  0  0  0  0
  4 28  1  0  0  0  0
  5 25  1  0  0  0  0
  5  6  1  0  0  0  0
  5 51  1  0  0  0  0
  6  7  1  0  0  0  0
  6 29  1  0  0  0  0
  6 30  1  0  0  0  0
  7  8  1  0  0  0  0
  7 31  1  0  0  0  0
  7 32  1  0  0  0  0
  8  9  1  0  0  0  0
  8 24  1  0  0  0  0
  8 33  1  0  0  0  0
  9 10  1  0  0  0  0
  9 34  1  0  0  0  0
 10 11  2  0  0  0  0
 10 12  1  0  0  0  0
 12 13  1  0  0  0  0
 12 35  1  0  0  0  0
 13 18  1  0  0  0  0
 13 14  2  0  0  0  0
 14 15  1  0  0  0  0
 14 36  1  0  0  0  0
 15 16  2  0  0  0  0
 15 37  1  0  0  0  0
 16 17  1  0  0  0  0
 16 38  1  0  0  0  0
 17 18  2  0  0  0  0
 17 52  1  0  0  0  0
 18 19  1  0  0  0  0
 19 23  1  0  0  0  0
 19 20  1  0  0  0  0
 20 21  1  0  0  0  0
 20 39  1  0  0  0  0
 20 40  1  0  0  0  0
 21 22  1  0  0  0  0
 21 41  1  0  0  0  0
 21 42  1  0  0  0  0
 22 23  1  0  0  0  0
 22 43  1  0  0  0  0
 22 44  1  0  0  0  0
 23 45  1  0  0  0  0
 23 46  1  0  0  0  0
 24 25  1  0  0  0  0
 24 47  1  0  0  0  0
 24 48  1  0  0  0  0
 25 49  1  0  0  0  0
 25 50  1  0  0  0  0
M  CHG  1   1  -1
M  CHG  1   5   1
M  CHG  1  17   1
M  END
> <s_m_source_file>
AV-unprocessed.smi

> <i_m_source_file_index>
1740

> <i_lp_mmshare_version>
43012

> <i_f3d_flags>
0

> <s_epik_input>
W05IMl1DKD1PKVtDSDJdTjFbQ0gyXVtDSDJdW0NIXShbQ0gyXVtDSDJdMSlbTkhdQyg9TylbTkhdYzJbY0hdW2NIXVtjSF1uYzJOM1tDSDJdW0NIMl1bQ0gyXVtDSDJdMw==

> <s_epik_cmdline>
J2VwaWtfcHl0aG9uJywgJy1waCcsICc3LjAnLCAnLXRuJywgJzgnLCAnLW1hJywgJzIwMCcsICctbWV0YWxfYmluZGluZycsICctaW1hZScsICc8aW5maWxlLm1hZT4nLCAnLW9tYWUnLCAnPG91dGZpbGUubWFlPic=

> <r_lp_tautomer_probability>
0.999994

> <r_epik_Ionization_Penalty>
6.97817

> <r_epik_Ionization_Penalty_Charging>
6.97815

> <r_epik_Ionization_Penalty_Neutral>
1.88285e-05

> <r_epik_State_Penalty>
7.80985

> <r_epik_Charging_Adjusted_Penalty>
14.788

> <i_epik_Tot_Q>
1

> <i_epik_Tot_abs_Q>
3

> <r_epik_Metal_State_Penalty>
3.85728

> <b_epik_Metal_Only>
1

> <s_lp_Force_Field>
OPLS_2005

> <r_lp_Energy>
44.1168

> <b_lp_Chiralities_Consistent>
1

> <s_lp_Variant>
AV-unprocessed.smi:1740-10

> <Gold.Version>
5.8.1

> <Gold.Id.Protein>
6NUR|6NUR_protein|mol2

> <Gold.PLP.Fitness>
48.3740

> <Gold.PLP.PLP>
-36.1973

> <Gold.PLP.part.hbond>
-3.0000

> <Gold.PLP.part.metal>
0.0000

> <Gold.PLP.part.buried>
-3.7181

> <Gold.PLP.part.nonpolar>
-29.4583

> <Gold.PLP.part.repulsive>
0.4017

> <Gold.PLP.ligand.clash>
0.0000

> <Gold.PLP.ligand.torsion>
0.5186

> <Gold.PLP.Chemscore.Hbond>
4.2590

> <Gold.PLP.Chemscore.CHOScore>
0.0000

> <Gold.PLP.Chemscore.Metal>
0.0000

> <Gold.Chemscore.Hbonds>
donor molecule, donor type, donor heavy atom, donor atom, acceptor molecule, acceptor atom, score
      L1  H     5    51       P1  7948  0.69

> <Gold.PLP.Chemscore.Internal.Correction>
0.4369

> <Gold.Rescore>
     Score         DG    S(hbond)    S(metal)    S(lipo)     H(rot)  DE(clash)    DE(int)     intcor
     12.49     -17.93       1.76        0.00     103.95       2.18       1.44       4.00       ----

> <Gold.Chemscore.Fitness>
12.4910

> <Gold.Chemscore.DG>
-17.9310

> <Gold.Chemscore.ZeroCoef>
-5.4800

> <Gold.Chemscore.Hbond>
1.7599

> <Gold.Chemscore.Metal>
0.0000

> <Gold.Chemscore.Lipo>
103.9488

> <Gold.Chemscore.Internal_Hbond>
0.0000

> <Gold.Chemscore.DEClash>
1.4413

> <Gold.Chemscore.DEInternal>
3.9986

> <Gold.Chemscore.Rot>
2.1832

> <Gold.Chemscore.Internal.Correction>
   9.000000E+99

> <Gold.Chemscore.Hbonds>
donor molecule, donor type, donor heavy atom, donor atom, acceptor molecule, acceptor atom, score
      L1  H     5    51       P1  7948  0.34

> <Gold.Chemscore.Hbond.Weighted>
-5.8781

> <Gold.Chemscore.Metal.Weighted>
-0.0000

> <Gold.Chemscore.Lipo.Weighted>
-12.1620

> <Gold.Chemscore.Internal_Hbond.Weighted>
0.0000

> <Gold.Chemscore.DEClash.Weighted>
1.4413

> <Gold.Chemscore.DEInternal.Weighted>
3.9986

> <Gold.Chemscore.Rot.Weighted>
5.5891

> <Gold.Chemscore.Internal.Correction.Weighted>
   9.000000E+99

> <Gold.Protein.RotatedTorsions>
[ 6907 6896 6895 6894 ] final  129.05 input  -60.11 | X-H torsion
[ 7974 7965 7964 7962 ] final -171.03 input  175.53 | X-H torsion
[ 8008 7997 7996 7995 ] final -157.09 input   59.86 | X-H torsion
[ 10167 10162 10161 10158 ] final -144.16 input  -65.29 | X-H torsion
[ 10718 10713 10712 10709 ] final  159.59 input   66.30 | X-H torsion
[ 10763 10752 10751 10750 ] final  -19.29 input  -60.55 | X-H torsion
[ 11005 11000 10999 10996 ] final  -74.67 input  -57.11 | X-H torsion

> <Gold.Protein.ActiveResidues>
 VAL166  LYS551  ARG553  GLY616  TRP617  ASP618  TYR619  PRO620  LYS621  CYS622 
 ASP623  PHE694  ASN695  SER759  ASP760  ASP761  ALA762  ILE779  LEU786  VAL792 
 PHE793  MET794  SER795  GLU796  ALA797  LYS798  CYS799  TRP800  GLU811  SER814 

> <Gold.Protein.RotatedAtoms>
  152.3661  133.6359  159.6051 H   0  0  0  0  0  0  0  0  0  0  0  0  # atno 6907 bound_to 6896
  150.7635  133.9345  159.3446 H   0  0  0  0  0  0  0  0  0  0  0  0  # atno 6908 bound_to 6896
  151.7176  135.0902  160.0329 H   0  0  0  0  0  0  0  0  0  0  0  0  # atno 6909 bound_to 6896
  144.7162  140.1982  143.6341 H   0  0  0  0  0  0  0  0  0  0  0  0  # atno 7974 bound_to 7965
  155.7272  140.0797  157.2305 H   0  0  0  0  0  0  0  0  0  0  0  0  # atno 8008 bound_to 7997
  154.4037  140.1602  156.2523 H   0  0  0  0  0  0  0  0  0  0  0  0  # atno 8009 bound_to 7997
  155.9142  140.3402  155.6125 H   0  0  0  0  0  0  0  0  0  0  0  0  # atno 8010 bound_to 7997
  139.7925  143.7946  152.2651 H   0  0  0  0  0  0  0  0  0  0  0  0  # atno 10167 bound_to 10162
  157.1620  131.0589  151.2227 H   0  0  0  0  0  0  0  0  0  0  0  0  # atno 10718 bound_to 10713
  153.6026  135.6999  153.5378 H   0  0  0  0  0  0  0  0  0  0  0  0  # atno 10763 bound_to 10752
  153.3084  135.4108  155.1314 H   0  0  0  0  0  0  0  0  0  0  0  0  # atno 10764 bound_to 10752
  154.8579  135.3666  154.5562 H   0  0  0  0  0  0  0  0  0  0  0  0  # atno 10765 bound_to 10752
  141.1637  133.6920  156.7400 H   0  0  0  0  0  0  0  0  0  0  0  0  # atno 11005 bound_to 11000
  145.8704  139.2269  143.1664 LP  0  0  0  0  0  0  0  0  0  0  0  0  # atno 17320 bound_to 7965
  146.0090  140.8453  142.9980 LP  0  0  0  0  0  0  0  0  0  0  0  0  # atno 17321 bound_to 7965
  139.8042  144.7362  150.9784 LP  0  0  0  0  0  0  0  0  0  0  0  0  # atno 17342 bound_to 10162
  140.7820  143.4315  151.0687 LP  0  0  0  0  0  0  0  0  0  0  0  0  # atno 17343 bound_to 10162
  157.4123  130.7392  149.6849 LP  0  0  0  0  0  0  0  0  0  0  0  0  # atno 17370 bound_to 10713
  155.9752  130.4092  150.3866 LP  0  0  0  0  0  0  0  0  0  0  0  0  # atno 17371 bound_to 10713
  140.2681  134.8414  157.3822 LP  0  0  0  0  0  0  0  0  0  0  0  0  # atno 17394 bound_to 11000
  140.1547  134.4805  155.7936 LP  0  0  0  0  0  0  0  0  0  0  0  0  # atno 17395 bound_to 11000

$$$$
