#       Name:                AV-unprocessed.smi:2583
#       Creating user name   scv26
#       Creation time:       Fri Mar 27 14:15:21 2020


#       File generated by GOLD software.
#

@<TRIPOS>MOLECULE
AV-unprocessed.smi:2583
    58    60     1
SMALL
NO_CHARGES


@<TRIPOS>ATOM
      1 ****        -6.4604   5.6745  -0.0624 C.3            1 S1                 0.0000
      2 ****        -6.4787   4.1622  -0.1417 C.ar           1 S1                 0.0000
      3 ****        -7.6581   3.4675  -0.4798 C.ar           1 S1                 0.0000
      4 ****        -7.7302   2.1218  -0.5497 N.ar           1 S1                 0.0000
      5 ****        -6.6108   1.4145  -0.2869 C.ar           1 S1                 0.0000
      6 ****        -5.3724   2.0034   0.0457 C.ar           1 S1                 0.0000
      7 ****        -4.2735   1.1434   0.3142 N.am           1 S1                 0.0000
      8 ****        -2.9608   1.4231   0.2435 C.2            1 S1                 0.0000
      9 ****        -2.4802   2.5032  -0.0992 O.2            1 S1                 0.0000
     10 ****        -2.2174   0.3566   0.5726 N.am           1 S1                 0.0000
     11 ****        -0.7575   0.3205   0.5717 C.3            1 S1                 0.0000
     12 ****        -0.2160   0.0800  -0.8458 C.3            1 S1                 0.0000
     13 ****         1.3155  -0.0442  -0.8375 C.3            1 S1                 0.0000
     14 ****         1.7813  -1.1387   0.0626 N.4            1 S1                 1.0000
     15 ****         3.2586  -1.3739  -0.0489 C.3            1 S1                 0.0000
     16 ****         3.6078  -2.0861  -1.3766 C.3            1 S1                 0.0000
     17 ****         5.1118  -2.3876  -1.4907 C.3            1 S1                 0.0000
     18 ****         5.5395  -3.2328  -0.3789 N.3            1 S1                 0.0000
     19 ****         6.9497  -3.5607  -0.5370 C.3            1 S1                 0.0000
     20 ****         5.3477  -2.5199   0.8815 C.3            1 S1                 0.0000
     21 ****         3.8540  -2.2233   1.1007 C.3            1 S1                 0.0000
     22 ****         1.2760  -0.9245   1.4510 C.3            1 S1                 0.0000
     23 ****        -0.2576  -0.8002   1.4919 C.3            1 S1                 0.0000
     24 ****        -5.3148   3.4154   0.1306 C.ar           1 S1                 0.0000
     25 ****        -7.3362   6.1055  -0.5485 H              1 S1                 0.0000
     26 ****        -5.5707   6.0714  -0.5523 H              1 S1                 0.0000
     27 ****        -6.4527   5.9964   0.9792 H              1 S1                 0.0000
     28 ****        -8.5711   4.0034  -0.6937 H              1 S1                 0.0000
     29 ****        -6.7070   0.3402  -0.3499 H              1 S1                 0.0000
     30 ****        -4.5154   0.1860   0.5241 H              1 S1                 0.0000
     31 ****        -2.6959  -0.4917   0.8389 H              1 S1                 0.0000
     32 ****        -0.3747   1.2718   0.9472 H              1 S1                 0.0000
     33 ****        -0.6533  -0.8273  -1.2653 H              1 S1                 0.0000
     34 ****        -0.5103   0.8980  -1.5046 H              1 S1                 0.0000
     35 ****         1.6411  -0.2129  -1.8619 H              1 S1                 0.0000
     36 ****         1.7619   0.8999  -0.5212 H              1 S1                 0.0000
     37 ****         3.7568  -0.4031  -0.0268 H              1 S1                 0.0000
     38 ****         3.0448  -3.0175  -1.4563 H              1 S1                 0.0000
     39 ****         3.3251  -1.4840  -2.2382 H              1 S1                 0.0000
     40 ****         5.3072  -2.9012  -2.4330 H              1 S1                 0.0000
     41 ****         5.6863  -1.4598  -1.5061 H              1 S1                 0.0000
     42 ****         7.2874  -4.1993   0.2800 H              1 S1                 0.0000
     43 ****         7.5699  -2.6630  -0.5479 H              1 S1                 0.0000
     44 ****         7.1153  -4.1016  -1.4694 H              1 S1                 0.0000
     45 ****         5.7203  -3.1308   1.7048 H              1 S1                 0.0000
     46 ****         5.9238  -1.5930   0.8848 H              1 S1                 0.0000
     47 ****         3.7617  -1.7023   2.0538 H              1 S1                 0.0000
     48 ****         3.3086  -3.1636   1.1966 H              1 S1                 0.0000
     49 ****         1.5370  -1.7634   2.0941 H              1 S1                 0.0000
     50 ****         1.7404  -0.0332   1.8759 H              1 S1                 0.0000
     51 ****        -0.5825  -0.6141   2.5164 H              1 S1                 0.0000
     52 ****        -0.7038  -1.7509   1.1952 H              1 S1                 0.0000
     53 ****        -4.4111   3.9336   0.4120 H              1 S1                 0.0000
     54 ****         1.3411  -1.9891  -0.2592 H              1 S1                 0.0000
     55 ****        -8.5859   1.6630  -0.7887 LP             1 S1                 0.0000
     56 ****        -3.0821   3.2601  -0.3536 LP             1 S1                 0.0000
     57 ****        -1.4877   2.6238  -0.1232 LP             1 S1                 0.0000
     58 ****         4.9966  -4.0725  -0.3720 LP             1 S1                 0.0000
@<TRIPOS>BOND
    1    1    2 1     
    2    1   25 1     
    3    1   26 1     
    4    1   27 1     
    5    2   24 ar    
    6    2    3 ar    
    7    3    4 ar    
    8    3   28 1     
    9    4    5 ar    
   10    5    6 ar    
   11    5   29 1     
   12    6    7 1     
   13    6   24 ar    
   14    7    8 am    
   15    7   30 1     
   16    8    9 2     
   17    8   10 am    
   18   10   11 1     
   19   10   31 1     
   20   11   23 1     
   21   11   12 1     
   22   11   32 1     
   23   12   13 1     
   24   12   33 1     
   25   12   34 1     
   26   13   14 1     
   27   13   35 1     
   28   13   36 1     
   29   14   15 1     
   30   14   22 1     
   31   14   54 1     
   32   15   21 1     
   33   15   16 1     
   34   15   37 1     
   35   16   17 1     
   36   16   38 1     
   37   16   39 1     
   38   17   18 1     
   39   17   40 1     
   40   17   41 1     
   41   18   19 1     
   42   18   20 1     
   43   19   42 1     
   44   19   43 1     
   45   19   44 1     
   46   20   21 1     
   47   20   45 1     
   48   20   46 1     
   49   21   47 1     
   50   21   48 1     
   51   22   23 1     
   52   22   49 1     
   53   22   50 1     
   54   23   51 1     
   55   23   52 1     
   56   24   53 1     
   57    4   55 1     
   58    9   56 1     
   59    9   57 1     
   60   18   58 1     
@<TRIPOS>SUBSTRUCTURE
      1 S1             1
@<TRIPOS>SET
LONE_PAIRS      STATIC     ATOMS    <user>   **** ""
4 55 56 57 58
DONOR_HYDROGENS      STATIC     ATOMS    <user>   **** ""
3 30 31 54
ATOM$BLUE        STATIC     ATOMS    COLORGROUP SYSTEM
4 55 56 57 58
ATOM$RED        STATIC     ATOMS    COLORGROUP SYSTEM
3 30 31 54
