AV-unprocessed.smi:1433|AV-procd|sdf|5846|dock9
  -GOLD-   22720 5513D 1   1.00000     0.00000
 Structure written by MMmdl.
 45 46  0  0  0  0  0  0  0  0  2 V2000
  142.1978  138.4228  154.4961 C   0  0  0  0  0  0  0  0  0  0  0  0
  143.4070  137.8715  155.2730 C   0  0  1  0  0  0  0  0  0  0  0  0
  144.6599  137.6640  154.3978 C   0  0  0  0  0  0  0  0  0  0  0  0
  145.3095  138.9581  154.0532 N   0  3  2  0  0  0  0  0  0  0  0  0
  146.5111  138.8798  153.1598 C   0  0  2  0  0  0  0  0  0  0  0  0
  147.0346  140.3033  152.8680 C   0  0  0  0  0  0  0  0  0  0  0  0
  146.2712  138.1062  151.8323 C   0  0  0  0  0  0  0  0  0  0  0  0
  146.4559  136.6639  151.9654 N   0  0  0  0  0  0  0  0  0  0  0  0
  145.4641  135.7656  152.0697 C   0  0  0  0  0  0  0  0  0  0  0  0
  144.2717  136.0710  152.0839 O   0  0  0  0  0  0  0  0  0  0  0  0
  145.8785  134.2972  152.1672 C   0  0  0  0  0  0  0  0  0  0  0  0
  145.3143  133.5271  151.0742 N   0  0  0  0  0  0  0  0  0  0  0  0
  145.9544  132.6461  150.2273 C   0  0  0  0  0  0  0  0  0  0  0  0
  145.0156  132.1571  149.3647 C   0  0  0  0  0  0  0  0  0  0  0  0
  143.8148  132.8045  149.7693 C   0  0  0  0  0  0  0  0  0  0  0  0
  143.9959  133.6231  150.7933 N   0  0  0  0  0  0  0  0  0  0  0  0
  145.5843  139.7204  155.2993 C   0  0  0  0  0  0  0  0  0  0  0  0
  144.2971  139.9317  156.1141 C   0  0  2  0  0  0  0  0  0  0  0  0
  144.5689  140.6489  157.4412 C   0  0  0  0  0  0  0  0  0  0  0  0
  143.7202  138.6659  156.4147 O   0  0  0  0  0  0  0  0  0  0  0  0
  141.8868  137.7243  153.7188 H   0  0  0  0  0  0  0  0  0  0  0  0
  142.4150  139.3724  154.0077 H   0  0  0  0  0  0  0  0  0  0  0  0
  141.3466  138.5749  155.1602 H   0  0  0  0  0  0  0  0  0  0  0  0
  143.1101  136.8961  155.6600 H   0  0  0  0  0  0  0  0  0  0  0  0
  145.3779  137.0349  154.9265 H   0  0  0  0  0  0  0  0  0  0  0  0
  144.3544  137.1243  153.5018 H   0  0  0  0  0  0  0  0  0  0  0  0
  147.2844  138.3387  153.7075 H   0  0  0  0  0  0  0  0  0  0  0  0
  147.9536  140.2840  152.2824 H   0  0  0  0  0  0  0  0  0  0  0  0
  147.2652  140.8566  153.7771 H   0  0  0  0  0  0  0  0  0  0  0  0
  146.3001  140.8837  152.3084 H   0  0  0  0  0  0  0  0  0  0  0  0
  145.2610  138.2687  151.4540 H   0  0  0  0  0  0  0  0  0  0  0  0
  146.9575  138.4592  151.0616 H   0  0  0  0  0  0  0  0  0  0  0  0
  147.4060  136.3203  151.9546 H   0  0  0  0  0  0  0  0  0  0  0  0
  146.9657  134.1997  152.1588 H   0  0  0  0  0  0  0  0  0  0  0  0
  145.5271  133.8787  153.1113 H   0  0  0  0  0  0  0  0  0  0  0  0
  147.0120  132.4427  150.3100 H   0  0  0  0  0  0  0  0  0  0  0  0
  145.1636  131.4446  148.5669 H   0  0  0  0  0  0  0  0  0  0  0  0
  142.8234  132.7039  149.3524 H   0  0  0  0  0  0  0  0  0  0  0  0
  146.3205  139.1805  155.8978 H   0  0  0  0  0  0  0  0  0  0  0  0
  146.0196  140.6919  155.0704 H   0  0  0  0  0  0  0  0  0  0  0  0
  143.5936  140.5363  155.5417 H   0  0  0  0  0  0  0  0  0  0  0  0
  145.0078  141.6328  157.2742 H   0  0  0  0  0  0  0  0  0  0  0  0
  145.2563  140.0776  158.0661 H   0  0  0  0  0  0  0  0  0  0  0  0
  143.6461  140.7888  158.0049 H   0  0  0  0  0  0  0  0  0  0  0  0
  144.6149  139.4793  153.5372 H   0  0  0  0  0  0  0  0  0  0  0  0
  1  2  1  0  0  0  0
  1 21  1  0  0  0  0
  1 22  1  0  0  0  0
  1 23  1  0  0  0  0
  2 20  1  0  0  0  0
  2  3  1  0  0  0  0
  2 24  1  0  0  0  0
  3  4  1  0  0  0  0
  3 25  1  0  0  0  0
  3 26  1  0  0  0  0
  4  5  1  0  0  0  0
  4 17  1  0  0  0  0
  4 45  1  0  0  0  0
  5  6  1  0  0  0  0
  5  7  1  0  0  0  0
  5 27  1  0  0  0  0
  6 28  1  0  0  0  0
  6 29  1  0  0  0  0
  6 30  1  0  0  0  0
  7  8  1  0  0  0  0
  7 31  1  0  0  0  0
  7 32  1  0  0  0  0
  8  9  1  0  0  0  0
  8 33  1  0  0  0  0
  9 10  2  0  0  0  0
  9 11  1  0  0  0  0
 11 12  1  0  0  0  0
 11 34  1  0  0  0  0
 11 35  1  0  0  0  0
 12 16  1  0  0  0  0
 12 13  1  0  0  0  0
 13 14  2  0  0  0  0
 13 36  1  0  0  0  0
 14 15  1  0  0  0  0
 14 37  1  0  0  0  0
 15 16  2  0  0  0  0
 15 38  1  0  0  0  0
 17 18  1  0  0  0  0
 17 39  1  0  0  0  0
 17 40  1  0  0  0  0
 18 19  1  0  0  0  0
 18 20  1  0  0  0  0
 18 41  1  0  0  0  0
 19 42  1  0  0  0  0
 19 43  1  0  0  0  0
 19 44  1  0  0  0  0
M  CHG  1   4   1
M  END
> <s_m_source_file>
AV-unprocessed.smi

> <i_m_source_file_index>
1433

> <i_lp_mmshare_version>
43012

> <i_f3d_flags>
0

> <s_epik_input>
W0NIM11bQ0BASF0xW0NIMl1OKFtDSDJdW0NASF0oTzEpW0NIM10pW0NASF0oW0NIM10pW0NIMl1bTkhdQyg9TylbQ0gyXW4yW2NIXVtjSF1bY0hdbjI=

> <s_epik_cmdline>
J2VwaWtfcHl0aG9uJywgJy1waCcsICc3LjAnLCAnLXRuJywgJzgnLCAnLW1hJywgJzIwMCcsICctbWV0YWxfYmluZGluZycsICctaW1hZScsICc8aW5maWxlLm1hZT4nLCAnLW9tYWUnLCAnPG91dGZpbGUubWFlPic=

> <r_lp_tautomer_probability>
1

> <r_epik_Ionization_Penalty>
0.748405

> <r_epik_Ionization_Penalty_Charging>
0.748396

> <r_epik_Ionization_Penalty_Neutral>
8.54426e-06

> <r_epik_State_Penalty>
0.775162

> <r_epik_Charging_Adjusted_Penalty>
1.52356

> <i_epik_Tot_Q>
1

> <i_epik_Tot_abs_Q>
1

> <r_epik_Metal_State_Penalty>
0.775167

> <b_epik_Metal_Only>
0

> <s_lp_Force_Field>
OPLS_2005

> <r_lp_Energy>
23.467

> <b_lp_Chiralities_Consistent>
1

> <s_lp_Variant>
AV-unprocessed.smi:1433-12

> <Gold.Version>
5.8.1

> <Gold.Id.Protein>
6NUR|6NUR_protein|mol2

> <Gold.PLP.Fitness>
39.8928

> <Gold.PLP.PLP>
-26.3439

> <Gold.PLP.part.hbond>
-1.9270

> <Gold.PLP.part.metal>
0.0000

> <Gold.PLP.part.buried>
-2.4867

> <Gold.PLP.part.nonpolar>
-23.9479

> <Gold.PLP.part.repulsive>
0.4208

> <Gold.PLP.ligand.clash>
0.0000

> <Gold.PLP.ligand.torsion>
0.5770

> <Gold.PLP.Chemscore.Hbond>
2.9913

> <Gold.PLP.Chemscore.CHOScore>
1.8882

> <Gold.PLP.Chemscore.Metal>
0.0000

> <Gold.Chemscore.Hbonds>
donor molecule, donor type, donor heavy atom, donor atom, acceptor molecule, acceptor atom, score
      L1  H     4    45       P1 10175  2.00
      L1  H     8    33       P1  7948  1.00
      L1  C    13    36       P1 10747  1.00
      L1  C    15    38       P1 10186  0.91

> <Gold.PLP.Chemscore.Internal.Correction>
0.0645

> <Gold.Rescore>
     Score         DG    S(hbond)    S(metal)    S(lipo)     H(rot)  DE(clash)    DE(int)     intcor
     13.60     -15.49       1.98        0.00      69.96       1.87       0.18       1.71       ----

> <Gold.Chemscore.Fitness>
13.5992

> <Gold.Chemscore.DG>
-15.4871

> <Gold.Chemscore.ZeroCoef>
-5.4800

> <Gold.Chemscore.Hbond>
1.9753

> <Gold.Chemscore.Metal>
0.0000

> <Gold.Chemscore.Lipo>
69.9642

> <Gold.Chemscore.Internal_Hbond>
0.0000

> <Gold.Chemscore.DEClash>
0.1807

> <Gold.Chemscore.DEInternal>
1.7072

> <Gold.Chemscore.Rot>
1.8657

> <Gold.Chemscore.Internal.Correction>
   9.000000E+99

> <Gold.Chemscore.Hbonds>
donor molecule, donor type, donor heavy atom, donor atom, acceptor molecule, acceptor atom, score
      L1  H     4    45       P1 10175  1.00
      L1  H     8    33       P1  7948  0.93

> <Gold.Chemscore.Hbond.Weighted>
-6.5975

> <Gold.Chemscore.Metal.Weighted>
-0.0000

> <Gold.Chemscore.Lipo.Weighted>
-8.1858

> <Gold.Chemscore.Internal_Hbond.Weighted>
0.0000

> <Gold.Chemscore.DEClash.Weighted>
0.1807

> <Gold.Chemscore.DEInternal.Weighted>
1.7072

> <Gold.Chemscore.Rot.Weighted>
4.7761

> <Gold.Chemscore.Internal.Correction.Weighted>
   9.000000E+99

> <Gold.Protein.RotatedTorsions>
[ 6907 6896 6895 6894 ] final  -81.24 input  -60.11 | X-H torsion
[ 7974 7965 7964 7962 ] final   16.40 input  175.53 | X-H torsion
[ 8008 7997 7996 7995 ] final   99.75 input   59.86 | X-H torsion
[ 10167 10162 10161 10158 ] final   22.24 input  -65.29 | X-H torsion
[ 10718 10713 10712 10709 ] final   25.18 input   66.30 | X-H torsion
[ 10763 10752 10751 10750 ] final   86.62 input  -60.55 | X-H torsion
[ 11005 11000 10999 10996 ] final -158.42 input  -57.11 | X-H torsion

> <Gold.Protein.ActiveResidues>
 VAL166  LYS551  ARG553  GLY616  TRP617  ASP618  TYR619  PRO620  LYS621  CYS622 
 ASP623  PHE694  ASN695  SER759  ASP760  ASP761  ALA762  ILE779  LEU786  VAL792 
 PHE793  MET794  SER795  GLU796  ALA797  LYS798  CYS799  TRP800  GLU811  SER814 

> <Gold.Protein.RotatedAtoms>
  150.6915  134.3848  159.5049 H   0  0  0  0  0  0  0  0  0  0  0  0  # atno 6907 bound_to 6896
  152.1645  134.8882  160.0548 H   0  0  0  0  0  0  0  0  0  0  0  0  # atno 6908 bound_to 6896
  151.9932  133.3763  159.4189 H   0  0  0  0  0  0  0  0  0  0  0  0  # atno 6909 bound_to 6896
  146.2250  139.8753  142.8580 H   0  0  0  0  0  0  0  0  0  0  0  0  # atno 7974 bound_to 7965
  156.1136  140.3224  155.8108 H   0  0  0  0  0  0  0  0  0  0  0  0  # atno 8008 bound_to 7997
  155.4629  140.0541  157.3006 H   0  0  0  0  0  0  0  0  0  0  0  0  # atno 8009 bound_to 7997
  154.4777  140.2039  155.9852 H   0  0  0  0  0  0  0  0  0  0  0  0  # atno 8010 bound_to 7997
  140.5364  143.9753  150.6494 H   0  0  0  0  0  0  0  0  0  0  0  0  # atno 10167 bound_to 10162
  157.1898  130.6841  149.6145 H   0  0  0  0  0  0  0  0  0  0  0  0  # atno 10718 bound_to 10713
  153.1588  135.4574  154.9742 H   0  0  0  0  0  0  0  0  0  0  0  0  # atno 10763 bound_to 10752
  154.7881  135.3211  154.7842 H   0  0  0  0  0  0  0  0  0  0  0  0  # atno 10764 bound_to 10752
  153.8335  135.6936  153.4866 H   0  0  0  0  0  0  0  0  0  0  0  0  # atno 10765 bound_to 10752
  140.6538  134.4422  157.5235 H   0  0  0  0  0  0  0  0  0  0  0  0  # atno 11005 bound_to 11000
  145.2566  141.0063  143.3850 LP  0  0  0  0  0  0  0  0  0  0  0  0  # atno 17320 bound_to 7965
  144.9331  139.4275  143.6485 LP  0  0  0  0  0  0  0  0  0  0  0  0  # atno 17321 bound_to 7965
  140.3142  143.3179  152.0849 LP  0  0  0  0  0  0  0  0  0  0  0  0  # atno 17342 bound_to 10162
  139.4972  144.6617  151.6450 LP  0  0  0  0  0  0  0  0  0  0  0  0  # atno 17343 bound_to 10162
  155.9713  130.4618  150.6124 LP  0  0  0  0  0  0  0  0  0  0  0  0  # atno 17370 bound_to 10713
  157.3871  131.0790  151.1426 LP  0  0  0  0  0  0  0  0  0  0  0  0  # atno 17371 bound_to 10713
  139.9036  134.8499  156.1794 LP  0  0  0  0  0  0  0  0  0  0  0  0  # atno 17394 bound_to 11000
  141.0517  133.6885  156.1783 LP  0  0  0  0  0  0  0  0  0  0  0  0  # atno 17395 bound_to 11000

$$$$
