AV-unprocessed.smi:2597|AV-procd|sdf|10174|dock6
  -GOLD-   2272014183D 1   1.00000     0.00000
 Structure written by MMmdl.
 30 31  0  0  0  0  0  0  0  0  1 V2000
  148.8594  138.6836  153.3909 N   0  0  0  0  0  0  0  0  0  0  0  0
  147.9090  139.7297  153.7257 C   0  0  1  0  0  0  0  0  0  0  0  0
  146.9773  139.2615  154.8632 C   0  0  0  0  0  0  0  0  0  0  0  0
  145.9794  140.3644  155.2514 C   0  0  0  0  0  0  0  0  0  0  0  0
  146.6921  141.6802  155.6032 C   0  0  0  0  0  0  0  0  0  0  0  0
  147.5966  142.1504  154.4494 C   0  0  0  0  0  0  0  0  0  0  0  0
  148.6221  141.0821  154.0098 C   0  0  1  0  0  0  0  0  0  0  0  0
  149.7606  141.0132  154.9296 N   0  0  0  0  0  0  0  0  0  0  0  0
  149.9433  141.7475  156.0842 C   0  0  0  0  0  0  0  0  0  0  0  0
  151.1273  141.2835  156.5871 C   0  0  0  0  0  0  0  0  0  0  0  0
  151.8791  141.6727  157.8277 C   0  0  0  0  0  0  0  0  0  0  0  0
  151.0220  141.4769  158.9336 O   0  0  0  0  0  0  0  0  0  0  0  0
  151.6042  140.2878  155.7380 N   0  0  0  0  0  0  0  0  0  0  0  0
  150.7750  140.1297  154.7557 N   0  0  0  0  0  0  0  0  0  0  0  0
  147.2877  139.8723  152.8406 H   0  0  0  0  0  0  0  0  0  0  0  0
  149.0375  141.4204  153.0592 H   0  0  0  0  0  0  0  0  0  0  0  0
  149.2842  138.8806  152.4961 H   0  0  0  0  0  0  0  0  0  0  0  0
  149.6064  138.6687  154.0705 H   0  0  0  0  0  0  0  0  0  0  0  0
  146.4265  138.3750  154.5467 H   0  0  0  0  0  0  0  0  0  0  0  0
  147.5472  138.9569  155.7402 H   0  0  0  0  0  0  0  0  0  0  0  0
  145.2914  140.5369  154.4230 H   0  0  0  0  0  0  0  0  0  0  0  0
  145.3708  140.0341  156.0936 H   0  0  0  0  0  0  0  0  0  0  0  0
  145.9516  142.4495  155.8236 H   0  0  0  0  0  0  0  0  0  0  0  0
  147.2749  141.5544  156.5154 H   0  0  0  0  0  0  0  0  0  0  0  0
  146.9659  142.4037  153.5964 H   0  0  0  0  0  0  0  0  0  0  0  0
  148.1085  143.0727  154.7270 H   0  0  0  0  0  0  0  0  0  0  0  0
  149.2502  142.4996  156.4307 H   0  0  0  0  0  0  0  0  0  0  0  0
  152.7764  141.0658  157.9495 H   0  0  0  0  0  0  0  0  0  0  0  0
  152.1871  142.7180  157.7918 H   0  0  0  0  0  0  0  0  0  0  0  0
  151.5529  141.3082  159.6970 H   0  0  0  0  0  0  0  0  0  0  0  0
  1  2  1  0  0  0  0
  1 17  1  0  0  0  0
  1 18  1  0  0  0  0
  2 15  1  0  0  0  0
  2  7  1  0  0  0  0
  2  3  1  0  0  0  0
  3  4  1  0  0  0  0
  3 19  1  0  0  0  0
  3 20  1  0  0  0  0
  4  5  1  0  0  0  0
  4 21  1  0  0  0  0
  4 22  1  0  0  0  0
  5  6  1  0  0  0  0
  5 23  1  0  0  0  0
  5 24  1  0  0  0  0
  6  7  1  0  0  0  0
  6 25  1  0  0  0  0
  6 26  1  0  0  0  0
  7 16  1  0  0  0  0
  7  8  1  0  0  0  0
  8 14  1  0  0  0  0
  8  9  1  0  0  0  0
  9 10  2  0  0  0  0
  9 27  1  0  0  0  0
 10 11  1  0  0  0  0
 10 13  1  0  0  0  0
 11 12  1  0  0  0  0
 11 28  1  0  0  0  0
 11 29  1  0  0  0  0
 12 30  1  0  0  0  0
 13 14  2  0  0  0  0
M  END
> <s_m_source_file>
AV-unprocessed.smi

> <i_m_source_file_index>
2597

> <i_lp_mmshare_version>
43012

> <i_f3d_flags>
0

> <s_epik_input>
W05IMl1bQ0BIXTFbQ0gyXVtDSDJdW0NIMl1bQ0gyXVtDQEhdMW4yW2NIXWMobm4yKVtDSDJdW09IXQ==

> <s_epik_cmdline>
J2VwaWtfcHl0aG9uJywgJy1waCcsICc3LjAnLCAnLXRuJywgJzgnLCAnLW1hJywgJzIwMCcsICctbWV0YWxfYmluZGluZycsICctaW1hZScsICc8aW5maWxlLm1hZT4nLCAnLW9tYWUnLCAnPG91dGZpbGUubWFlPic=

> <r_lp_tautomer_probability>
1

> <r_epik_Ionization_Penalty>
2.21303

> <r_epik_Ionization_Penalty_Charging>
0

> <r_epik_Ionization_Penalty_Neutral>
2.21303

> <r_epik_State_Penalty>
2.3573

> <r_epik_Charging_Adjusted_Penalty>
2.3573

> <i_epik_Tot_Q>
0

> <i_epik_Tot_abs_Q>
0

> <r_epik_Metal_State_Penalty>
2.35724

> <b_epik_Metal_Only>
0

> <s_lp_Force_Field>
OPLS_2005

> <r_lp_Energy>
16.8416

> <b_lp_Chiralities_Consistent>
1

> <s_lp_Variant>
AV-unprocessed.smi:2597-5

> <Gold.Version>
5.8.1

> <Gold.Id.Protein>
6NUR|6NUR_protein|mol2

> <Gold.PLP.Fitness>
32.4021

> <Gold.PLP.PLP>
-23.4515

> <Gold.PLP.part.hbond>
-3.4259

> <Gold.PLP.part.metal>
0.0000

> <Gold.PLP.part.buried>
-0.4878

> <Gold.PLP.part.nonpolar>
-18.2215

> <Gold.PLP.part.repulsive>
0.0677

> <Gold.PLP.ligand.clash>
0.0000

> <Gold.PLP.ligand.torsion>
0.0562

> <Gold.PLP.Chemscore.Hbond>
2.0000

> <Gold.PLP.Chemscore.CHOScore>
1.0000

> <Gold.PLP.Chemscore.Metal>
0.0000

> <Gold.Chemscore.Hbonds>
donor molecule, donor type, donor heavy atom, donor atom, acceptor molecule, acceptor atom, score
      L1  H     1    17       P1  7957  1.00
      P1  H  7989  7998       L1    14  1.00
      L1  C     9    27       P1  8028  1.00

> <Gold.PLP.Chemscore.Internal.Correction>
0.0631

> <Gold.Rescore>
     Score         DG    S(hbond)    S(metal)    S(lipo)     H(rot)  DE(clash)    DE(int)     intcor
     10.15     -11.73       1.71        0.00      44.48       1.82       0.18       1.41       ----

> <Gold.Chemscore.Fitness>
10.1472

> <Gold.Chemscore.DG>
-11.7348

> <Gold.Chemscore.ZeroCoef>
-5.4800

> <Gold.Chemscore.Hbond>
1.7111

> <Gold.Chemscore.Metal>
0.0000

> <Gold.Chemscore.Lipo>
44.4835

> <Gold.Chemscore.Internal_Hbond>
0.0000

> <Gold.Chemscore.DEClash>
0.1762

> <Gold.Chemscore.DEInternal>
1.4113

> <Gold.Chemscore.Rot>
1.8222

> <Gold.Chemscore.Internal.Correction>
   9.000000E+99

> <Gold.Chemscore.Hbonds>
donor molecule, donor type, donor heavy atom, donor atom, acceptor molecule, acceptor atom, score
      L1  H     1    17       P1  7957  0.88
      P1  H  7989  7998       L1    14  0.09

> <Gold.Chemscore.Hbond.Weighted>
-5.7151

> <Gold.Chemscore.Metal.Weighted>
-0.0000

> <Gold.Chemscore.Lipo.Weighted>
-5.2046

> <Gold.Chemscore.Internal_Hbond.Weighted>
0.0000

> <Gold.Chemscore.DEClash.Weighted>
0.1762

> <Gold.Chemscore.DEInternal.Weighted>
1.4113

> <Gold.Chemscore.Rot.Weighted>
4.6649

> <Gold.Chemscore.Internal.Correction.Weighted>
   9.000000E+99

> <Gold.Protein.RotatedTorsions>
[ 6907 6896 6895 6894 ] final  -57.37 input  -60.11 | X-H torsion
[ 7974 7965 7964 7962 ] final  130.43 input  175.53 | X-H torsion
[ 8008 7997 7996 7995 ] final  108.11 input   59.86 | X-H torsion
[ 10167 10162 10161 10158 ] final  -84.91 input  -65.29 | X-H torsion
[ 10718 10713 10712 10709 ] final  -50.14 input   66.30 | X-H torsion
[ 10763 10752 10751 10750 ] final -121.84 input  -60.55 | X-H torsion
[ 11005 11000 10999 10996 ] final  173.46 input  -57.11 | X-H torsion

> <Gold.Protein.ActiveResidues>
 VAL166  LYS551  ARG553  GLY616  TRP617  ASP618  TYR619  PRO620  LYS621  CYS622 
 ASP623  PHE694  ASN695  SER759  ASP760  ASP761  ALA762  ILE779  LEU786  VAL792 
 PHE793  MET794  SER795  GLU796  ALA797  LYS798  CYS799  TRP800  GLU811  SER814 

> <Gold.Protein.RotatedAtoms>
  150.8092  134.7235  159.6671 H   0  0  0  0  0  0  0  0  0  0  0  0  # atno 6907 bound_to 6896
  152.4211  134.5949  159.9994 H   0  0  0  0  0  0  0  0  0  0  0  0  # atno 6908 bound_to 6896
  151.6164  133.3305  159.3114 H   0  0  0  0  0  0  0  0  0  0  0  0  # atno 6909 bound_to 6896
  145.0180  139.4158  143.5211 H   0  0  0  0  0  0  0  0  0  0  0  0  # atno 7974 bound_to 7965
  156.1878  140.3082  155.9272 H   0  0  0  0  0  0  0  0  0  0  0  0  # atno 8008 bound_to 7997
  155.3243  140.0457  157.3057 H   0  0  0  0  0  0  0  0  0  0  0  0  # atno 8009 bound_to 7997
  154.5416  140.2263  155.8642 H   0  0  0  0  0  0  0  0  0  0  0  0  # atno 8010 bound_to 7997
  140.4088  143.2631  151.9045 H   0  0  0  0  0  0  0  0  0  0  0  0  # atno 10167 bound_to 10162
  156.1828  130.4151  149.9482 H   0  0  0  0  0  0  0  0  0  0  0  0  # atno 10718 bound_to 10713
  154.8677  135.4153  154.2686 H   0  0  0  0  0  0  0  0  0  0  0  0  # atno 10763 bound_to 10752
  153.3600  135.7003  153.6725 H   0  0  0  0  0  0  0  0  0  0  0  0  # atno 10764 bound_to 10752
  153.5630  135.3606  155.2779 H   0  0  0  0  0  0  0  0  0  0  0  0  # atno 10765 bound_to 10752
  140.3408  134.7278  157.4201 H   0  0  0  0  0  0  0  0  0  0  0  0  # atno 11005 bound_to 11000
  146.3481  139.9662  142.8711 LP  0  0  0  0  0  0  0  0  0  0  0  0  # atno 17320 bound_to 7965
  145.1933  140.9822  143.4198 LP  0  0  0  0  0  0  0  0  0  0  0  0  # atno 17321 bound_to 7965
  139.4783  144.5558  151.8315 LP  0  0  0  0  0  0  0  0  0  0  0  0  # atno 17342 bound_to 10162
  140.4660  144.1654  150.5912 LP  0  0  0  0  0  0  0  0  0  0  0  0  # atno 17343 bound_to 10162
  156.7247  130.9020  151.3621 LP  0  0  0  0  0  0  0  0  0  0  0  0  # atno 17370 bound_to 10713
  157.6879  130.9204  150.0436 LP  0  0  0  0  0  0  0  0  0  0  0  0  # atno 17371 bound_to 10713
  140.0783  134.5767  155.8568 LP  0  0  0  0  0  0  0  0  0  0  0  0  # atno 17394 bound_to 11000
  141.2039  133.6635  156.6089 LP  0  0  0  0  0  0  0  0  0  0  0  0  # atno 17395 bound_to 11000

$$$$
