AV-unprocessed.smi:2078|AV-procd|sdf|8473|dock1
  -GOLD-   2272011173D 1   1.00000     0.00000
 Structure written by MMmdl.
 41 42  0  0  0  0  0  0  0  0  3 V2000
  149.2009  141.0482  154.5754 C   0  0  0  0  0  0  0  0  0  0  0  0
  149.6872  139.6395  154.5596 C   0  0  0  0  0  0  0  0  0  0  0  0
  149.0475  138.4376  154.4437 C   0  0  0  0  0  0  0  0  0  0  0  0
  150.1124  137.5001  154.5050 C   0  0  0  0  0  0  0  0  0  0  0  0
  149.8592  136.1071  154.4009 N   0  0  0  0  0  0  0  0  0  0  0  0
  150.4683  135.0950  155.0436 C   0  0  0  0  0  0  0  0  0  0  0  0
  151.2908  135.3286  155.9375 O   0  0  0  0  0  0  0  0  0  0  0  0
  150.0743  133.8747  154.5844 N   0  5  0  0  0  0  0  0  0  0  0  0
  148.8281  133.6128  153.8572 C   0  0  0  0  0  0  0  0  0  0  0  0
  148.5380  132.0963  153.8064 C   0  0  0  0  0  0  0  0  0  0  0  0
  147.5038  131.7526  152.7928 N   0  3  1  0  0  0  0  0  0  0  0  0
  146.8621  130.4283  153.0071 C   0  0  0  0  0  0  0  0  0  0  0  0
  145.9730  130.0543  151.8116 C   0  0  0  0  0  0  0  0  0  0  0  0
  144.9232  131.1431  151.5444 C   0  0  0  0  0  0  0  0  0  0  0  0
  145.5773  132.5295  151.3905 C   0  0  2  0  0  0  0  0  0  0  0  0
  146.2998  132.7009  150.0422 C   0  0  0  0  0  0  0  0  0  0  0  0
  146.5002  132.8297  152.5902 C   0  0  0  0  0  0  0  0  0  0  0  0
  151.2968  138.0791  154.6378 N   0  0  0  0  0  0  0  0  0  0  0  0
  151.0299  139.4529  154.6753 O   0  0  0  0  0  0  0  0  0  0  0  0
  149.1960  141.4648  153.5684 H   0  0  0  0  0  0  0  0  0  0  0  0
  149.8394  141.6749  155.1987 H   0  0  0  0  0  0  0  0  0  0  0  0
  148.1862  141.1035  154.9698 H   0  0  0  0  0  0  0  0  0  0  0  0
  147.9883  138.2594  154.3340 H   0  0  0  0  0  0  0  0  0  0  0  0
  149.1573  135.8408  153.7262 H   0  0  0  0  0  0  0  0  0  0  0  0
  147.9723  134.1274  154.2963 H   0  0  0  0  0  0  0  0  0  0  0  0
  148.8918  133.9851  152.8349 H   0  0  0  0  0  0  0  0  0  0  0  0
  149.4554  131.5420  153.6038 H   0  0  0  0  0  0  0  0  0  0  0  0
  148.2168  131.7775  154.7992 H   0  0  0  0  0  0  0  0  0  0  0  0
  147.6245  129.6598  153.1394 H   0  0  0  0  0  0  0  0  0  0  0  0
  146.2726  130.4514  153.9247 H   0  0  0  0  0  0  0  0  0  0  0  0
  146.5929  129.9063  150.9264 H   0  0  0  0  0  0  0  0  0  0  0  0
  145.4789  129.1010  152.0004 H   0  0  0  0  0  0  0  0  0  0  0  0
  144.3364  130.8948  150.6595 H   0  0  0  0  0  0  0  0  0  0  0  0
  144.2207  131.1698  152.3784 H   0  0  0  0  0  0  0  0  0  0  0  0
  144.7766  133.2699  151.4034 H   0  0  0  0  0  0  0  0  0  0  0  0
  147.1230  131.9971  149.9274 H   0  0  0  0  0  0  0  0  0  0  0  0
  146.7125  133.7052  149.9432 H   0  0  0  0  0  0  0  0  0  0  0  0
  145.6148  132.5448  149.2085 H   0  0  0  0  0  0  0  0  0  0  0  0
  145.9088  132.9399  153.5003 H   0  0  0  0  0  0  0  0  0  0  0  0
  147.0063  133.7824  152.4274 H   0  0  0  0  0  0  0  0  0  0  0  0
  148.0124  131.6884  151.9211 H   0  0  0  0  0  0  0  0  0  0  0  0
  1  2  1  0  0  0  0
  1 20  1  0  0  0  0
  1 21  1  0  0  0  0
  1 22  1  0  0  0  0
  2 19  1  0  0  0  0
  2  3  2  0  0  0  0
  3  4  1  0  0  0  0
  3 23  1  0  0  0  0
  4  5  1  0  0  0  0
  4 18  2  0  0  0  0
  5  6  1  0  0  0  0
  5 24  1  0  0  0  0
  6  7  2  0  0  0  0
  6  8  1  0  0  0  0
  8  9  1  0  0  0  0
  9 10  1  0  0  0  0
  9 25  1  0  0  0  0
  9 26  1  0  0  0  0
 10 11  1  0  0  0  0
 10 27  1  0  0  0  0
 10 28  1  0  0  0  0
 11 17  1  0  0  0  0
 11 12  1  0  0  0  0
 11 41  1  0  0  0  0
 12 13  1  0  0  0  0
 12 29  1  0  0  0  0
 12 30  1  0  0  0  0
 13 14  1  0  0  0  0
 13 31  1  0  0  0  0
 13 32  1  0  0  0  0
 14 15  1  0  0  0  0
 14 33  1  0  0  0  0
 14 34  1  0  0  0  0
 15 16  1  0  0  0  0
 15 17  1  0  0  0  0
 15 35  1  0  0  0  0
 16 36  1  0  0  0  0
 16 37  1  0  0  0  0
 16 38  1  0  0  0  0
 17 39  1  0  0  0  0
 17 40  1  0  0  0  0
 18 19  1  0  0  0  0
M  CHG  1   8  -1
M  CHG  1  11   1
M  END
> <s_m_source_file>
AV-unprocessed.smi

> <i_m_source_file_index>
2078

> <i_lp_mmshare_version>
43012

> <i_f3d_flags>
0

> <s_epik_input>
W0NIM11jMVtjSF1jKG5vMSlbTkhdQyg9TylbTkhdW0NIMl1bQ0gyXU4yW0NIMl1bQ0gyXVtDSDJdW0NAQEhdKFtDSDNdKVtDSDJdMg==

> <s_epik_cmdline>
J2VwaWtfcHl0aG9uJywgJy1waCcsICc3LjAnLCAnLXRuJywgJzgnLCAnLW1hJywgJzIwMCcsICctbWV0YWxfYmluZGluZycsICctaW1hZScsICc8aW5maWxlLm1hZT4nLCAnLW9tYWUnLCAnPG91dGZpbGUubWFlPic=

> <r_epik_Ionization_Penalty>
6.76934

> <r_epik_Ionization_Penalty_Charging>
6.76934

> <r_epik_Ionization_Penalty_Neutral>
5.77849e-06

> <r_epik_State_Penalty>
6.79457

> <r_epik_Charging_Adjusted_Penalty>
13.5639

> <i_epik_Tot_Q>
0

> <i_epik_Tot_abs_Q>
2

> <r_epik_Metal_State_Penalty>
2.72837

> <b_epik_Metal_Only>
1

> <s_lp_Force_Field>
OPLS_2005

> <r_lp_Energy>
11.5184

> <b_lp_Chiralities_Consistent>
1

> <s_lp_Variant>
AV-unprocessed.smi:2078-11

> <Gold.Version>
5.8.1

> <Gold.Id.Protein>
6NUR|6NUR_protein|mol2

> <Gold.PLP.Fitness>
43.1908

> <Gold.PLP.PLP>
-33.7121

> <Gold.PLP.part.hbond>
-4.6418

> <Gold.PLP.part.metal>
0.0000

> <Gold.PLP.part.buried>
-1.3845

> <Gold.PLP.part.nonpolar>
-28.2003

> <Gold.PLP.part.repulsive>
0.4658

> <Gold.PLP.ligand.clash>
0.0000

> <Gold.PLP.ligand.torsion>
0.7831

> <Gold.PLP.Chemscore.Hbond>
3.6313

> <Gold.PLP.Chemscore.CHOScore>
0.0000

> <Gold.PLP.Chemscore.Metal>
0.0000

> <Gold.Chemscore.Hbonds>
donor molecule, donor type, donor heavy atom, donor atom, acceptor molecule, acceptor atom, score
      L1  H     5    24       P1  7948  0.62
      L1  H    11    41       P1 10747  0.89
      P1  H  7989  7998       L1    19  0.95
      P1  H 10752 10764       L1     7  0.96

> <Gold.PLP.Chemscore.Internal.Correction>
0.1512

> <Gold.Rescore>
     Score         DG    S(hbond)    S(metal)    S(lipo)     H(rot)  DE(clash)    DE(int)     intcor
     18.27     -20.03       2.83        0.00      77.45       1.54       0.88       0.89       ----

> <Gold.Chemscore.Fitness>
18.2699

> <Gold.Chemscore.DG>
-20.0338

> <Gold.Chemscore.ZeroCoef>
-5.4800

> <Gold.Chemscore.Hbond>
2.8254

> <Gold.Chemscore.Metal>
0.0000

> <Gold.Chemscore.Lipo>
77.4498

> <Gold.Chemscore.Internal_Hbond>
0.0000

> <Gold.Chemscore.DEClash>
0.8768

> <Gold.Chemscore.DEInternal>
0.8871

> <Gold.Chemscore.Rot>
1.5409

> <Gold.Chemscore.Internal.Correction>
   9.000000E+99

> <Gold.Chemscore.Hbonds>
donor molecule, donor type, donor heavy atom, donor atom, acceptor molecule, acceptor atom, score
      L1  H     5    24       P1  7948  0.51
      L1  H    11    41       P1 10747  0.85
      P1  H  7989  7998       L1    19  0.21
      P1  H 10752 10764       L1     7  0.23

> <Gold.Chemscore.Hbond.Weighted>
-9.4368

> <Gold.Chemscore.Metal.Weighted>
-0.0000

> <Gold.Chemscore.Lipo.Weighted>
-9.0616

> <Gold.Chemscore.Internal_Hbond.Weighted>
0.0000

> <Gold.Chemscore.DEClash.Weighted>
0.8768

> <Gold.Chemscore.DEInternal.Weighted>
0.8871

> <Gold.Chemscore.Rot.Weighted>
3.9446

> <Gold.Chemscore.Internal.Correction.Weighted>
   9.000000E+99

> <Gold.Protein.RotatedTorsions>
[ 6907 6896 6895 6894 ] final  101.89 input  -60.11 | X-H torsion
[ 7974 7965 7964 7962 ] final  -11.69 input  175.53 | X-H torsion
[ 8008 7997 7996 7995 ] final  -44.15 input   59.86 | X-H torsion
[ 10167 10162 10161 10158 ] final -121.11 input  -65.29 | X-H torsion
[ 10718 10713 10712 10709 ] final   87.23 input   66.30 | X-H torsion
[ 10763 10752 10751 10750 ] final  -47.15 input  -60.55 | X-H torsion
[ 11005 11000 10999 10996 ] final  163.86 input  -57.11 | X-H torsion

> <Gold.Protein.ActiveResidues>
 VAL166  LYS551  ARG553  GLY616  TRP617  ASP618  TYR619  PRO620  LYS621  CYS622 
 ASP623  PHE694  ASN695  SER759  ASP760  ASP761  ALA762  ILE779  LEU786  VAL792 
 PHE793  MET794  SER795  GLU796  ALA797  LYS798  CYS799  TRP800  GLU811  SER814 

> <Gold.Protein.RotatedAtoms>
  152.5338  134.0057  159.7915 H   0  0  0  0  0  0  0  0  0  0  0  0  # atno 6907 bound_to 6896
  151.0268  133.5818  159.2672 H   0  0  0  0  0  0  0  0  0  0  0  0  # atno 6908 bound_to 6896
  151.2837  135.0728  159.9232 H   0  0  0  0  0  0  0  0  0  0  0  0  # atno 6909 bound_to 6896
  146.2179  140.2947  142.8371 H   0  0  0  0  0  0  0  0  0  0  0  0  # atno 7974 bound_to 7965
  154.3997  140.1429  156.3636 H   0  0  0  0  0  0  0  0  0  0  0  0  # atno 8008 bound_to 7997
  155.8158  140.3471  155.5464 H   0  0  0  0  0  0  0  0  0  0  0  0  # atno 8009 bound_to 7997
  155.8339  140.0916  157.1766 H   0  0  0  0  0  0  0  0  0  0  0  0  # atno 8010 bound_to 7997
  140.0286  143.5271  152.2187 H   0  0  0  0  0  0  0  0  0  0  0  0  # atno 10167 bound_to 10162
  157.6938  131.0247  150.3091 H   0  0  0  0  0  0  0  0  0  0  0  0  # atno 10718 bound_to 10713
  154.0566  135.6624  153.4806 H   0  0  0  0  0  0  0  0  0  0  0  0  # atno 10763 bound_to 10752
  153.0443  135.5125  154.7699 H   0  0  0  0  0  0  0  0  0  0  0  0  # atno 10764 bound_to 10752
  154.6723  135.3031  154.9692 H   0  0  0  0  0  0  0  0  0  0  0  0  # atno 10765 bound_to 10752
  140.2400  134.8058  157.3401 H   0  0  0  0  0  0  0  0  0  0  0  0  # atno 11005 bound_to 11000
  144.9101  140.7746  143.5813 LP  0  0  0  0  0  0  0  0  0  0  0  0  # atno 17320 bound_to 7965
  145.2878  139.1895  143.4757 LP  0  0  0  0  0  0  0  0  0  0  0  0  # atno 17321 bound_to 7965
  139.6091  144.7604  151.2992 LP  0  0  0  0  0  0  0  0  0  0  0  0  # atno 17342 bound_to 10162
  140.7312  143.6859  150.7962 LP  0  0  0  0  0  0  0  0  0  0  0  0  # atno 17343 bound_to 10162
  156.3595  130.3844  149.7262 LP  0  0  0  0  0  0  0  0  0  0  0  0  # atno 17370 bound_to 10713
  156.4713  130.7998  151.3016 LP  0  0  0  0  0  0  0  0  0  0  0  0  # atno 17371 bound_to 10713
  140.1663  134.4665  155.7861 LP  0  0  0  0  0  0  0  0  0  0  0  0  # atno 17394 bound_to 11000
  141.2211  133.6922  156.7630 LP  0  0  0  0  0  0  0  0  0  0  0  0  # atno 17395 bound_to 11000

$$$$
