AV-unprocessed.smi:334|AV-procd|sdf|2367|dock2
  -GOLD-   2262022283D 1   1.00000     0.00000
 Structure written by MMmdl.
 44 46  0  0  0  0  0  0  0  0  3 V2000
  145.3485  135.0086  154.5706 C   0  0  0  0  0  0  0  0  0  0  0  0
  145.5564  135.2995  153.0752 C   0  0  1  0  0  0  0  0  0  0  0  0
  146.4805  136.4168  152.9124 N   0  0  0  0  0  0  0  0  0  0  0  0
  146.5002  137.5439  153.6439 C   0  0  0  0  0  0  0  0  0  0  0  0
  145.7592  137.7280  154.6086 O   0  0  0  0  0  0  0  0  0  0  0  0
  147.4865  138.6519  153.2345 C   0  0  0  0  0  0  0  0  0  0  0  0
  148.4629  139.0257  154.2753 N   0  0  0  0  0  0  0  0  0  0  0  0
  149.8125  138.7037  154.0310 C   0  0  0  0  0  0  0  0  0  0  0  0
  150.7914  139.0117  154.9041 C   0  0  0  0  0  0  0  0  0  0  0  0
  152.1728  138.6797  154.6333 N   0  3  0  0  0  0  0  0  0  0  0  0
  153.0480  139.4532  155.0080 O   0  0  0  0  0  0  0  0  0  0  0  0
  152.4289  137.6374  154.0377 O   0  5  0  0  0  0  0  0  0  0  0  0
  150.4147  139.6955  156.1261 C   0  0  0  0  0  0  0  0  0  0  0  0
  149.1261  140.0088  156.3647 C   0  0  0  0  0  0  0  0  0  0  0  0
  148.0629  139.6758  155.4114 C   0  0  0  0  0  0  0  0  0  0  0  0
  146.8861  139.9728  155.6163 O   0  0  0  0  0  0  0  0  0  0  0  0
  146.1157  134.0795  152.3070 C   0  0  2  0  0  0  0  0  0  0  0  0
  146.3128  134.3014  150.7890 C   0  0  0  0  0  0  0  0  0  0  0  0
  145.6423  133.0616  150.1688 C   0  0  2  0  0  0  0  0  0  0  0  0
  144.1141  133.2133  150.2745 C   0  0  0  0  0  0  0  0  0  0  0  0
  143.8562  132.9902  151.7758 C   0  0  0  0  0  0  0  0  0  0  0  0
  145.2762  132.7784  152.3411 C   0  0  1  0  0  0  0  0  0  0  0  0
  145.9248  131.9849  151.2106 C   0  0  0  0  0  0  0  0  0  0  0  0
  144.6200  134.2117  154.7206 H   0  0  0  0  0  0  0  0  0  0  0  0
  144.9766  135.8887  155.0960 H   0  0  0  0  0  0  0  0  0  0  0  0
  146.2796  134.7040  155.0493 H   0  0  0  0  0  0  0  0  0  0  0  0
  144.5997  135.5866  152.6384 H   0  0  0  0  0  0  0  0  0  0  0  0
  147.1314  136.3485  152.1438 H   0  0  0  0  0  0  0  0  0  0  0  0
  148.0079  138.3333  152.3301 H   0  0  0  0  0  0  0  0  0  0  0  0
  146.9051  139.5230  152.9294 H   0  0  0  0  0  0  0  0  0  0  0  0
  149.9903  138.2020  153.0907 H   0  0  0  0  0  0  0  0  0  0  0  0
  151.1627  139.9623  156.8579 H   0  0  0  0  0  0  0  0  0  0  0  0
  148.8677  140.5190  157.2811 H   0  0  0  0  0  0  0  0  0  0  0  0
  147.0921  133.8443  152.7354 H   0  0  0  0  0  0  0  0  0  0  0  0
  145.8596  135.2259  150.4282 H   0  0  0  0  0  0  0  0  0  0  0  0
  147.3748  134.3396  150.5434 H   0  0  0  0  0  0  0  0  0  0  0  0
  145.9907  132.8337  149.1610 H   0  0  0  0  0  0  0  0  0  0  0  0
  143.7700  134.1906  149.9340 H   0  0  0  0  0  0  0  0  0  0  0  0
  143.6047  132.4535  149.6805 H   0  0  0  0  0  0  0  0  0  0  0  0
  143.3192  133.8154  152.2411 H   0  0  0  0  0  0  0  0  0  0  0  0
  143.2534  132.0931  151.9233 H   0  0  0  0  0  0  0  0  0  0  0  0
  145.2897  132.2745  153.3079 H   0  0  0  0  0  0  0  0  0  0  0  0
  145.4236  131.0382  151.0009 H   0  0  0  0  0  0  0  0  0  0  0  0
  146.9895  131.7986  151.3635 H   0  0  0  0  0  0  0  0  0  0  0  0
  1  2  1  0  0  0  0
  1 24  1  0  0  0  0
  1 25  1  0  0  0  0
  1 26  1  0  0  0  0
  2  3  1  0  0  0  0
  2 17  1  0  0  0  0
  2 27  1  0  0  0  0
  3  4  1  0  0  0  0
  3 28  1  0  0  0  0
  4  5  2  0  0  0  0
  4  6  1  0  0  0  0
  6  7  1  0  0  0  0
  6 29  1  0  0  0  0
  6 30  1  0  0  0  0
  7 15  1  0  0  0  0
  7  8  1  0  0  0  0
  8  9  2  0  0  0  0
  8 31  1  0  0  0  0
  9 10  1  0  0  0  0
  9 13  1  0  0  0  0
 10 11  2  0  0  0  0
 10 12  1  0  0  0  0
 13 14  2  0  0  0  0
 13 32  1  0  0  0  0
 14 15  1  0  0  0  0
 14 33  1  0  0  0  0
 15 16  2  0  0  0  0
 17 22  1  0  0  0  0
 17 18  1  0  0  0  0
 17 34  1  0  0  0  0
 18 19  1  0  0  0  0
 18 35  1  0  0  0  0
 18 36  1  0  0  0  0
 19 23  1  0  0  0  0
 19 20  1  0  0  0  0
 19 37  1  0  0  0  0
 20 21  1  0  0  0  0
 20 38  1  0  0  0  0
 20 39  1  0  0  0  0
 21 22  1  0  0  0  0
 21 40  1  0  0  0  0
 21 41  1  0  0  0  0
 22 23  1  0  0  0  0
 22 42  1  0  0  0  0
 23 43  1  0  0  0  0
 23 44  1  0  0  0  0
M  CHG  1  10   1
M  CHG  1  12  -1
M  END
> <s_m_source_file>
AV-unprocessed.smi

> <i_m_source_file_index>
334

> <i_lp_mmshare_version>
43012

> <i_f3d_flags>
0

> <s_epik_input>
W0NIMl0xW0NIMl1bQ0BIXShbQ0gyXTIpW0NAQEhdKFtDSDJdW0NAQEhdMTIpW0NASF0oW0NIM10pW05IXUMoPU8pW0NIMl1uM1tjSF1jKFtOK10oPU8pW08tXSlbY0hdW2NIXWMzPU8=

> <s_epik_cmdline>
J2VwaWtfcHl0aG9uJywgJy1waCcsICc3LjAnLCAnLXRuJywgJzgnLCAnLW1hJywgJzIwMCcsICctbWV0YWxfYmluZGluZycsICctaW1hZScsICc8aW5maWxlLm1hZT4nLCAnLW9tYWUnLCAnPG91dGZpbGUubWFlPic=

> <r_lp_tautomer_probability>
1

> <r_epik_Ionization_Penalty>
2.17081e-08

> <r_epik_Ionization_Penalty_Charging>
8.1195e-11

> <r_epik_Ionization_Penalty_Neutral>
2.16269e-08

> <r_epik_State_Penalty>
-0

> <r_epik_Charging_Adjusted_Penalty>
8.1195e-11

> <i_epik_Tot_Q>
0

> <i_epik_Tot_abs_Q>
2

> <r_epik_Metal_State_Penalty>
-0

> <b_epik_Metal_Only>
0

> <s_lp_Force_Field>
OPLS_2005

> <r_lp_Energy>
62.3621

> <b_lp_Chiralities_Consistent>
1

> <s_lp_Variant>
AV-unprocessed.smi:334-6

> <Gold.Version>
5.8.1

> <Gold.Id.Protein>
6NUR|6NUR_protein|mol2

> <Gold.PLP.Fitness>
42.4823

> <Gold.PLP.PLP>
-32.3625

> <Gold.PLP.part.hbond>
-3.6204

> <Gold.PLP.part.metal>
0.0000

> <Gold.PLP.part.buried>
-3.3141

> <Gold.PLP.part.nonpolar>
-24.8922

> <Gold.PLP.part.repulsive>
0.2627

> <Gold.PLP.ligand.clash>
0.0000

> <Gold.PLP.ligand.torsion>
0.7922

> <Gold.PLP.Chemscore.Hbond>
2.5520

> <Gold.PLP.Chemscore.CHOScore>
1.3358

> <Gold.PLP.Chemscore.Metal>
0.0000

> <Gold.Chemscore.Hbonds>
donor molecule, donor type, donor heavy atom, donor atom, acceptor molecule, acceptor atom, score
      L1  H     3    28       P1  7948  0.82
      P1  H  7997  8009       L1    11  1.00
      P1  H 10752 10764       L1    12  0.72
      L1  C     8    31       P1  7948  1.00
      L1  C     8    31       P1  7957  0.36

> <Gold.PLP.Chemscore.Internal.Correction>
0.0406

> <Gold.Rescore>
     Score         DG    S(hbond)    S(metal)    S(lipo)     H(rot)  DE(clash)    DE(int)     intcor
     15.52     -18.85       2.64        0.00      77.06       1.75       0.03       3.30       ----

> <Gold.Chemscore.Fitness>
15.5171

> <Gold.Chemscore.DG>
-18.8527

> <Gold.Chemscore.ZeroCoef>
-5.4800

> <Gold.Chemscore.Hbond>
2.6436

> <Gold.Chemscore.Metal>
0.0000

> <Gold.Chemscore.Lipo>
77.0637

> <Gold.Chemscore.Internal_Hbond>
0.0000

> <Gold.Chemscore.DEClash>
0.0318

> <Gold.Chemscore.DEInternal>
3.3037

> <Gold.Chemscore.Rot>
1.7474

> <Gold.Chemscore.Internal.Correction>
   9.000000E+99

> <Gold.Chemscore.Hbonds>
donor molecule, donor type, donor heavy atom, donor atom, acceptor molecule, acceptor atom, score
      L1  H     3    28       P1  7948  0.81
      P1  H  7997  8009       L1    11  0.98
      P1  H 10752 10764       L1    12  0.69

> <Gold.Chemscore.Hbond.Weighted>
-8.8295

> <Gold.Chemscore.Metal.Weighted>
-0.0000

> <Gold.Chemscore.Lipo.Weighted>
-9.0165

> <Gold.Chemscore.Internal_Hbond.Weighted>
0.0000

> <Gold.Chemscore.DEClash.Weighted>
0.0318

> <Gold.Chemscore.DEInternal.Weighted>
3.3037

> <Gold.Chemscore.Rot.Weighted>
4.4733

> <Gold.Chemscore.Internal.Correction.Weighted>
   9.000000E+99

> <Gold.Protein.RotatedTorsions>
[ 6907 6896 6895 6894 ] final   20.84 input  -60.11 | X-H torsion
[ 7974 7965 7964 7962 ] final  128.47 input  175.53 | X-H torsion
[ 8008 7997 7996 7995 ] final -152.62 input   59.86 | X-H torsion
[ 10167 10162 10161 10158 ] final  -94.49 input  -65.29 | X-H torsion
[ 10718 10713 10712 10709 ] final   93.96 input   66.30 | X-H torsion
[ 10763 10752 10751 10750 ] final  -93.93 input  -60.55 | X-H torsion
[ 11005 11000 10999 10996 ] final   39.69 input  -57.11 | X-H torsion

> <Gold.Protein.ActiveResidues>
 VAL166  LYS551  ARG553  GLY616  TRP617  ASP618  TYR619  PRO620  LYS621  CYS622 
 ASP623  PHE694  ASN695  SER759  ASP760  ASP761  ALA762  ILE779  LEU786  VAL792 
 PHE793  MET794  SER795  GLU796  ALA797  LYS798  CYS799  TRP800  GLU811  SER814 

> <Gold.Protein.RotatedAtoms>
  151.9025  135.0372  160.0507 H   0  0  0  0  0  0  0  0  0  0  0  0  # atno 6907 bound_to 6896
  152.2346  133.5081  159.5243 H   0  0  0  0  0  0  0  0  0  0  0  0  # atno 6908 bound_to 6896
  150.7035  134.1087  159.4035 H   0  0  0  0  0  0  0  0  0  0  0  0  # atno 6909 bound_to 6896
  145.0392  139.3978  143.5111 H   0  0  0  0  0  0  0  0  0  0  0  0  # atno 7974 bound_to 7965
  155.6580  140.0719  157.2564 H   0  0  0  0  0  0  0  0  0  0  0  0  # atno 8008 bound_to 7997
  154.4148  140.1721  156.1796 H   0  0  0  0  0  0  0  0  0  0  0  0  # atno 8009 bound_to 7997
  155.9721  140.3361  155.6588 H   0  0  0  0  0  0  0  0  0  0  0  0  # atno 8010 bound_to 7997
  140.3139  143.3088  152.0119 H   0  0  0  0  0  0  0  0  0  0  0  0  # atno 10167 bound_to 10162
  157.6951  131.0496  150.4113 H   0  0  0  0  0  0  0  0  0  0  0  0  # atno 10718 bound_to 10713
  154.7006  135.5176  153.8521 H   0  0  0  0  0  0  0  0  0  0  0  0  # atno 10763 bound_to 10752
  153.0701  135.6598  154.0275 H   0  0  0  0  0  0  0  0  0  0  0  0  # atno 10764 bound_to 10752
  154.0135  135.3000  155.3369 H   0  0  0  0  0  0  0  0  0  0  0  0  # atno 10765 bound_to 10752
  140.2003  134.3878  155.8099 H   0  0  0  0  0  0  0  0  0  0  0  0  # atno 11005 bound_to 11000
  146.3507  139.9983  142.8678 LP  0  0  0  0  0  0  0  0  0  0  0  0  # atno 17320 bound_to 7965
  145.1670  140.9702  143.4344 LP  0  0  0  0  0  0  0  0  0  0  0  0  # atno 17321 bound_to 7965
  139.4888  144.6363  151.6968 LP  0  0  0  0  0  0  0  0  0  0  0  0  # atno 17342 bound_to 10162
  140.5544  144.0373  150.6141 LP  0  0  0  0  0  0  0  0  0  0  0  0  # atno 17343 bound_to 10162
  156.4497  130.4009  149.6644 LP  0  0  0  0  0  0  0  0  0  0  0  0  # atno 17370 bound_to 10713
  156.3798  130.7573  151.2565 LP  0  0  0  0  0  0  0  0  0  0  0  0  # atno 17371 bound_to 10713
  141.2227  133.7091  156.8247 LP  0  0  0  0  0  0  0  0  0  0  0  0  # atno 17394 bound_to 11000
  140.2061  134.8861  157.3223 LP  0  0  0  0  0  0  0  0  0  0  0  0  # atno 17395 bound_to 11000

$$$$
