#       Name:                AV-unprocessed.smi:2855
#       Creating user name   scv26
#       Creation time:       Fri Mar 27 15:43:21 2020


#       File generated by GOLD software.
#

@<TRIPOS>MOLECULE
AV-unprocessed.smi:2855
    53    54     1
SMALL
NO_CHARGES


@<TRIPOS>ATOM
      1 ****        -2.9527  -2.3437  -1.9237 C.3            1 S1                 0.0000
      2 ****        -3.1461  -0.8180  -1.9854 C.3            1 S1                 0.0000
      3 ****        -2.5451  -0.1941  -3.2582 C.3            1 S1                 0.0000
      4 ****        -1.0083  -0.1501  -3.2219 C.3            1 S1                 0.0000
      5 ****        -0.4786   0.5928  -1.9724 C.3            1 S1                 0.0000
      6 ****         1.0739   0.7350  -1.9493 C.3            1 S1                 0.0000
      7 ****         1.6027   1.5984  -3.1076 C.3            1 S1                 0.0000
      8 ****         1.8286  -0.6054  -1.8800 C.3            1 S1                 0.0000
      9 ****        -1.0687  -0.0446  -0.6849 C.3            1 S1                 0.0000
     10 ****        -0.6515   0.7075   0.4960 N.am           1 S1                 0.0000
     11 ****        -0.2943   0.1776   1.6754 C.2            1 S1                 0.0000
     12 ****        -0.3390  -1.0289   1.9186 O.2            1 S1                 0.0000
     13 ****         0.1712   1.1719   2.7475 C.3            1 S1                 0.0000
     14 ****         1.2198   0.6177   3.6157 N.am           1 S1                 0.0000
     15 ****         0.9105   0.1650   4.8906 C.2            1 S1                 0.0000
     16 ****         1.8269  -0.3615   5.7373 C.2            1 S1                 0.0000
     17 ****         3.2237  -0.4806   5.3330 C.2            1 S1                 0.0000
     18 ****         4.1265  -0.9413   6.0282 O.2            1 S1                 0.0000
     19 ****         3.4945  -0.0172   4.0430 N.am           1 S1                 0.0000
     20 ****         2.5552   0.5257   3.1649 C.2            1 S1                 0.0000
     21 ****         2.9002   0.9022   2.0450 O.2            1 S1                 0.0000
     22 ****        -2.6103  -0.0991  -0.7328 C.3            1 S1                 0.0000
     23 ****         4.4482  -0.0826   3.7180 H              1 S1                 0.0000
     24 ****        -1.9007  -2.6254  -1.8887 H              1 S1                 0.0000
     25 ****        -3.3931  -2.8278  -2.7956 H              1 S1                 0.0000
     26 ****        -3.4343  -2.7628  -1.0400 H              1 S1                 0.0000
     27 ****        -4.2231  -0.6493  -2.0194 H              1 S1                 0.0000
     28 ****        -2.8817  -0.7401  -4.1401 H              1 S1                 0.0000
     29 ****        -2.9243   0.8225  -3.3708 H              1 S1                 0.0000
     30 ****        -0.6175  -1.1667  -3.2515 H              1 S1                 0.0000
     31 ****        -0.6587   0.3362  -4.1318 H              1 S1                 0.0000
     32 ****        -0.8767   1.6079  -2.0235 H              1 S1                 0.0000
     33 ****         1.3402   1.2834  -1.0456 H              1 S1                 0.0000
     34 ****         1.4924   1.1005  -4.0706 H              1 S1                 0.0000
     35 ****         2.6630   1.8161  -2.9762 H              1 S1                 0.0000
     36 ****         1.0792   2.5532  -3.1603 H              1 S1                 0.0000
     37 ****         1.6506  -1.2175  -2.7638 H              1 S1                 0.0000
     38 ****         1.5430  -1.1865  -1.0036 H              1 S1                 0.0000
     39 ****         2.9040  -0.4388  -1.8122 H              1 S1                 0.0000
     40 ****        -0.6976  -1.0671  -0.6102 H              1 S1                 0.0000
     41 ****        -0.5925   1.7102   0.3944 H              1 S1                 0.0000
     42 ****         0.5279   2.0920   2.2793 H              1 S1                 0.0000
     43 ****        -0.6995   1.4651   3.3356 H              1 S1                 0.0000
     44 ****        -0.1130   0.2292   5.2318 H              1 S1                 0.0000
     45 ****         1.5245  -0.6975   6.7187 H              1 S1                 0.0000
     46 ****        -3.0036   0.9186  -0.7177 H              1 S1                 0.0000
     47 ****        -2.9973  -0.5833   0.1648 H              1 S1                 0.0000
     48 ****        -0.6542  -1.6688   1.2178 LP             1 S1                 0.0000
     49 ****        -0.0600  -1.3685   2.8168 LP             1 S1                 0.0000
     50 ****         3.9281  -1.2715   6.9510 LP             1 S1                 0.0000
     51 ****         5.0595  -0.9859   5.6710 LP             1 S1                 0.0000
     52 ****         2.2248   1.2899   1.4177 LP             1 S1                 0.0000
     53 ****         3.8560   0.8204   1.7624 LP             1 S1                 0.0000
@<TRIPOS>BOND
    1    1    2 1     
    2    1   24 1     
    3    1   25 1     
    4    1   26 1     
    5    2   22 1     
    6    2    3 1     
    7    2   27 1     
    8    3    4 1     
    9    3   28 1     
   10    3   29 1     
   11    4    5 1     
   12    4   30 1     
   13    4   31 1     
   14    5    6 1     
   15    5    9 1     
   16    5   32 1     
   17    6    7 1     
   18    6    8 1     
   19    6   33 1     
   20    7   34 1     
   21    7   35 1     
   22    7   36 1     
   23    8   37 1     
   24    8   38 1     
   25    8   39 1     
   26    9   10 1     
   27    9   22 1     
   28    9   40 1     
   29   10   11 am    
   30   10   41 1     
   31   11   12 2     
   32   11   13 1     
   33   13   14 1     
   34   13   42 1     
   35   13   43 1     
   36   14   20 1     
   37   14   15 1     
   38   15   16 2     
   39   15   44 1     
   40   16   17 1     
   41   16   45 1     
   42   17   18 2     
   43   17   19 1     
   44   19   23 1     
   45   19   20 1     
   46   20   21 2     
   47   22   46 1     
   48   22   47 1     
   49   12   48 1     
   50   12   49 1     
   51   18   50 1     
   52   18   51 1     
   53   21   52 1     
   54   21   53 1     
@<TRIPOS>SUBSTRUCTURE
      1 S1             1
@<TRIPOS>SET
LONE_PAIRS      STATIC     ATOMS    <user>   **** ""
6 48 49 50 51 52 53
DONOR_HYDROGENS      STATIC     ATOMS    <user>   **** ""
2 41 23
ATOM$BLUE        STATIC     ATOMS    COLORGROUP SYSTEM
6 48 49 50 51 52 53
ATOM$RED        STATIC     ATOMS    COLORGROUP SYSTEM
2 41 23
