#       Name:                AV-unprocessed.smi:405
#       Creating user name   scv26
#       Creation time:       Thu Mar 26 22:44:31 2020


#       File generated by GOLD software.
#

@<TRIPOS>MOLECULE
AV-unprocessed.smi:405
    52    53     1
SMALL
NO_CHARGES


@<TRIPOS>ATOM
      1 ****        -1.8779   0.6851   3.3903 C.3            1 S1                 0.0000
      2 ****        -2.5115   1.4852   2.2326 C.3            1 S1                 0.0000
      3 ****        -4.0111   1.1373   2.1643 C.3            1 S1                 0.0000
      4 ****        -2.3770   2.9952   2.5236 C.3            1 S1                 0.0000
      5 ****        -1.8662   1.1012   0.8706 C.3            1 S1                 0.0000
      6 ****        -0.3617   1.3769   0.7436 C.2            1 S1                 0.0000
      7 ****         0.0464   2.5210   0.5451 O.2            1 S1                 0.0000
      8 ****         0.4482   0.3110   0.8272 N.am           1 S1                 0.0000
      9 ****         1.8981   0.3428   0.6713 C.3            1 S1                 0.0000
     10 ****         2.3541   0.5392  -0.7709 C.ar           1 S1                 0.0000
     11 ****         3.1010   1.6867  -1.1124 C.ar           1 S1                 0.0000
     12 ****         3.5217   1.8623  -2.4432 C.ar           1 S1                 0.0000
     13 ****         3.1774   0.8776  -3.3871 C.ar           1 S1                 0.0000
     14 ****         2.4652  -0.2256  -3.0776 N.ar           1 S1                 0.0000
     15 ****         2.0591  -0.3971  -1.7960 C.ar           1 S1                 0.0000
     16 ****         1.3161  -1.5523  -1.5063 N.3            1 S1                 0.0000
     17 ****        -0.0269  -1.5359  -2.0715 C.3            1 S1                 0.0000
     18 ****        -0.8229  -2.7473  -1.5579 C.3            1 S1                 0.0000
     19 ****        -0.1168  -3.9475  -1.8625 O.3            1 S1                 0.0000
     20 ****         1.1715  -3.9840  -1.2535 C.3            1 S1                 0.0000
     21 ****         2.0168  -2.8036  -1.7618 C.3            1 S1                 0.0000
     22 ****        -2.3816   0.8916   4.3352 H              1 S1                 0.0000
     23 ****        -0.8248   0.9321   3.5280 H              1 S1                 0.0000
     24 ****        -1.9437  -0.3888   3.2125 H              1 S1                 0.0000
     25 ****        -4.1649   0.0734   1.9801 H              1 S1                 0.0000
     26 ****        -4.5095   1.6841   1.3629 H              1 S1                 0.0000
     27 ****        -4.5222   1.3843   3.0956 H              1 S1                 0.0000
     28 ****        -2.9295   3.2757   3.4210 H              1 S1                 0.0000
     29 ****        -2.7656   3.5937   1.6989 H              1 S1                 0.0000
     30 ****        -1.3401   3.2895   2.6865 H              1 S1                 0.0000
     31 ****        -2.0469   0.0450   0.6629 H              1 S1                 0.0000
     32 ****        -2.3648   1.6437   0.0660 H              1 S1                 0.0000
     33 ****         0.0278  -0.5928   0.9876 H              1 S1                 0.0000
     34 ****         2.3175   1.1204   1.3117 H              1 S1                 0.0000
     35 ****         2.3019  -0.6015   1.0370 H              1 S1                 0.0000
     36 ****         3.3478   2.4271  -0.3656 H              1 S1                 0.0000
     37 ****         4.0937   2.7311  -2.7333 H              1 S1                 0.0000
     38 ****         3.4821   0.9779  -4.4183 H              1 S1                 0.0000
     39 ****        -0.5347  -0.6099  -1.7994 H              1 S1                 0.0000
     40 ****         0.0318  -1.5636  -3.1605 H              1 S1                 0.0000
     41 ****        -0.9901  -2.6740  -0.4821 H              1 S1                 0.0000
     42 ****        -1.8039  -2.7808  -2.0319 H              1 S1                 0.0000
     43 ****         1.0722  -3.9508  -0.1674 H              1 S1                 0.0000
     44 ****         1.6565  -4.9283  -1.5007 H              1 S1                 0.0000
     45 ****         2.2014  -2.9135  -2.8313 H              1 S1                 0.0000
     46 ****         2.9871  -2.7927  -1.2640 H              1 S1                 0.0000
     47 ****        -0.6035   3.2769   0.4657 LP             1 S1                 0.0000
     48 ****         1.0278   2.6946   0.4632 LP             1 S1                 0.0000
     49 ****         2.2416  -0.9025  -3.7789 LP             1 S1                 0.0000
     50 ****         1.2017  -1.5203  -0.5134 LP             1 S1                 0.0000
     51 ****        -0.0062  -4.0131  -2.8542 LP             1 S1                 0.0000
     52 ****        -0.6503  -4.7271  -1.5343 LP             1 S1                 0.0000
@<TRIPOS>BOND
    1    1    2 1     
    2    1   22 1     
    3    1   23 1     
    4    1   24 1     
    5    2    3 1     
    6    2    4 1     
    7    2    5 1     
    8    3   25 1     
    9    3   26 1     
   10    3   27 1     
   11    4   28 1     
   12    4   29 1     
   13    4   30 1     
   14    5    6 1     
   15    5   31 1     
   16    5   32 1     
   17    6    7 2     
   18    6    8 am    
   19    8    9 1     
   20    8   33 1     
   21    9   10 1     
   22    9   34 1     
   23    9   35 1     
   24   10   15 ar    
   25   10   11 ar    
   26   11   12 ar    
   27   11   36 1     
   28   12   13 ar    
   29   12   37 1     
   30   13   14 ar    
   31   13   38 1     
   32   14   15 ar    
   33   15   16 1     
   34   16   21 1     
   35   16   17 1     
   36   17   18 1     
   37   17   39 1     
   38   17   40 1     
   39   18   19 1     
   40   18   41 1     
   41   18   42 1     
   42   19   20 1     
   43   20   21 1     
   44   20   43 1     
   45   20   44 1     
   46   21   45 1     
   47   21   46 1     
   48    7   47 1     
   49    7   48 1     
   50   14   49 1     
   51   16   50 1     
   52   19   51 1     
   53   19   52 1     
@<TRIPOS>SUBSTRUCTURE
      1 S1             1
@<TRIPOS>SET
LONE_PAIRS      STATIC     ATOMS    <user>   **** ""
6 47 48 49 50 51 52
DONOR_HYDROGENS      STATIC     ATOMS    <user>   **** ""
1 33
ATOM$BLUE        STATIC     ATOMS    COLORGROUP SYSTEM
6 47 48 49 50 51 52
ATOM$RED        STATIC     ATOMS    COLORGROUP SYSTEM
1 33
