AV-unprocessed.smi:193|AV-procd|sdf|1518|dock1
  -GOLD-   2262019353D 1   1.00000     0.00000
 Structure written by MMmdl.
 61 65  0  0  0  0  0  0  0  0  1 V2000
  152.8218  139.0960  154.4391 C   0  0  0  0  0  0  0  0  0  0  0  0
  151.5964  139.3494  155.3311 C   0  0  2  0  0  0  0  0  0  0  0  0
  150.3135  138.9647  154.5626 C   0  0  0  0  0  0  0  0  0  0  0  0
  149.1445  138.7347  155.4147 N   0  0  0  0  0  0  0  0  0  0  0  0
  148.3681  137.6536  155.1347 C   0  0  0  0  0  0  0  0  0  0  0  0
  148.5858  136.4895  155.8034 N   0  0  0  0  0  0  0  0  0  0  0  0
  147.8497  135.4067  155.5390 C   0  0  0  0  0  0  0  0  0  0  0  0
  146.8551  135.2687  154.6612 N   0  0  0  0  0  0  0  0  0  0  0  0
  146.6198  136.4335  153.9934 C   0  0  0  0  0  0  0  0  0  0  0  0
  147.3228  137.6607  154.1644 C   0  0  0  0  0  0  0  0  0  0  0  0
  146.7937  138.6252  153.3135 N   0  0  0  0  0  0  0  0  0  0  0  0
  145.8446  138.0024  152.6710 C   0  0  0  0  0  0  0  0  0  0  0  0
  145.6621  136.6851  153.0256 N   0  0  0  0  0  0  0  0  0  0  0  0
  144.6771  135.7645  152.4762 C   0  0  0  0  0  0  0  0  0  0  0  0
  145.1110  135.0893  151.1462 C   0  0  0  0  0  0  0  0  0  0  0  0
  145.1563  136.0946  150.1503 O   0  0  0  0  0  0  0  0  0  0  0  0
  146.5248  134.4827  151.2471 C   0  0  0  0  0  0  0  0  0  0  0  0
  146.5257  133.1761  152.0611 C   0  0  0  0  0  0  0  0  0  0  0  0
  145.6069  132.2474  151.4955 O   0  0  0  0  0  0  0  0  0  0  0  0
  144.2628  132.7153  151.5062 C   0  0  0  0  0  0  0  0  0  0  0  0
  144.1456  133.9905  150.6525 C   0  0  0  0  0  0  0  0  0  0  0  0
  149.0241  139.3689  156.7274 C   0  0  0  0  0  0  0  0  0  0  0  0
  149.3588  140.8672  156.7005 C   0  0  0  0  0  0  0  0  0  0  0  0
  150.7778  141.0819  156.9685 N   0  0  0  0  0  0  0  0  0  0  0  0
  150.9691  142.4748  157.3447 C   0  0  1  0  0  0  0  0  0  0  0  0
  150.2949  142.9555  158.6098 C   0  0  0  0  0  0  0  0  0  0  0  0
  151.7928  142.7604  158.5827 C   0  0  2  0  0  0  0  0  0  0  0  0
  152.7250  143.9516  158.6299 C   0  0  0  0  0  0  0  0  0  0  0  0
  151.5849  140.8291  155.7757 C   0  0  0  0  0  0  0  0  0  0  0  0
  152.7908  139.7109  153.5390 H   0  0  0  0  0  0  0  0  0  0  0  0
  152.8751  138.0522  154.1280 H   0  0  0  0  0  0  0  0  0  0  0  0
  153.7485  139.3238  154.9667 H   0  0  0  0  0  0  0  0  0  0  0  0
  151.7095  138.7040  156.2039 H   0  0  0  0  0  0  0  0  0  0  0  0
  150.0712  139.7268  153.8213 H   0  0  0  0  0  0  0  0  0  0  0  0
  150.5228  138.0514  154.0042 H   0  0  0  0  0  0  0  0  0  0  0  0
  148.0934  134.5244  156.1124 H   0  0  0  0  0  0  0  0  0  0  0  0
  145.2419  138.4928  151.9202 H   0  0  0  0  0  0  0  0  0  0  0  0
  144.4735  135.0037  153.2312 H   0  0  0  0  0  0  0  0  0  0  0  0
  143.7426  136.3102  152.3475 H   0  0  0  0  0  0  0  0  0  0  0  0
  145.7034  135.7895  149.4430 H   0  0  0  0  0  0  0  0  0  0  0  0
  146.9005  134.2605  150.2468 H   0  0  0  0  0  0  0  0  0  0  0  0
  147.2222  135.1998  151.6819 H   0  0  0  0  0  0  0  0  0  0  0  0
  147.5211  132.7318  152.0473 H   0  0  0  0  0  0  0  0  0  0  0  0
  146.2795  133.3583  153.1077 H   0  0  0  0  0  0  0  0  0  0  0  0
  143.6178  131.9358  151.1003 H   0  0  0  0  0  0  0  0  0  0  0  0
  143.9372  132.8895  152.5317 H   0  0  0  0  0  0  0  0  0  0  0  0
  143.1146  134.3432  150.6338 H   0  0  0  0  0  0  0  0  0  0  0  0
  144.3893  133.7295  149.6215 H   0  0  0  0  0  0  0  0  0  0  0  0
  147.9890  139.2790  157.0599 H   0  0  0  0  0  0  0  0  0  0  0  0
  149.6294  138.8387  157.4639 H   0  0  0  0  0  0  0  0  0  0  0  0
  149.0347  141.3500  155.7768 H   0  0  0  0  0  0  0  0  0  0  0  0
  148.7920  141.3344  157.5072 H   0  0  0  0  0  0  0  0  0  0  0  0
  151.0450  143.2181  156.5523 H   0  0  0  0  0  0  0  0  0  0  0  0
  149.9148  143.9750  158.6164 H   0  0  0  0  0  0  0  0  0  0  0  0
  149.7063  142.2374  159.1782 H   0  0  0  0  0  0  0  0  0  0  0  0
  152.1672  141.8939  159.1247 H   0  0  0  0  0  0  0  0  0  0  0  0
  152.3073  144.7934  158.0765 H   0  0  0  0  0  0  0  0  0  0  0  0
  153.6875  143.6901  158.1899 H   0  0  0  0  0  0  0  0  0  0  0  0
  152.8860  144.2602  159.6629 H   0  0  0  0  0  0  0  0  0  0  0  0
  152.6090  141.1218  156.0124 H   0  0  0  0  0  0  0  0  0  0  0  0
  151.2672  141.4733  154.9541 H   0  0  0  0  0  0  0  0  0  0  0  0
  1  2  1  0  0  0  0
  1 30  1  0  0  0  0
  1 31  1  0  0  0  0
  1 32  1  0  0  0  0
  2 29  1  0  0  0  0
  2  3  1  0  0  0  0
  2 33  1  0  0  0  0
  3  4  1  0  0  0  0
  3 34  1  0  0  0  0
  3 35  1  0  0  0  0
  4  5  1  0  0  0  0
  4 22  1  0  0  0  0
  5 10  1  0  0  0  0
  5  6  2  0  0  0  0
  6  7  1  0  0  0  0
  7  8  2  0  0  0  0
  7 36  1  0  0  0  0
  8  9  1  0  0  0  0
  9 13  1  0  0  0  0
  9 10  2  0  0  0  0
 10 11  1  0  0  0  0
 11 12  2  0  0  0  0
 12 13  1  0  0  0  0
 12 37  1  0  0  0  0
 13 14  1  0  0  0  0
 14 15  1  0  0  0  0
 14 38  1  0  0  0  0
 14 39  1  0  0  0  0
 15 21  1  0  0  0  0
 15 16  1  0  0  0  0
 15 17  1  0  0  0  0
 16 40  1  0  0  0  0
 17 18  1  0  0  0  0
 17 41  1  0  0  0  0
 17 42  1  0  0  0  0
 18 19  1  0  0  0  0
 18 43  1  0  0  0  0
 18 44  1  0  0  0  0
 19 20  1  0  0  0  0
 20 21  1  0  0  0  0
 20 45  1  0  0  0  0
 20 46  1  0  0  0  0
 21 47  1  0  0  0  0
 21 48  1  0  0  0  0
 22 23  1  0  0  0  0
 22 49  1  0  0  0  0
 22 50  1  0  0  0  0
 23 24  1  0  0  0  0
 23 51  1  0  0  0  0
 23 52  1  0  0  0  0
 24 25  1  0  0  0  0
 24 29  1  0  0  0  0
 25 27  1  0  0  0  0
 25 26  1  0  0  0  0
 25 53  1  0  0  0  0
 26 27  1  0  0  0  0
 26 54  1  0  0  0  0
 26 55  1  0  0  0  0
 27 28  1  0  0  0  0
 27 56  1  0  0  0  0
 28 57  1  0  0  0  0
 28 58  1  0  0  0  0
 28 59  1  0  0  0  0
 29 60  1  0  0  0  0
 29 61  1  0  0  0  0
M  END
> <s_m_source_file>
AV-unprocessed.smi

> <i_m_source_file_index>
193

> <i_lp_mmshare_version>
43012

> <i_f3d_flags>
0

> <s_epik_input>
W0NIM11bQ0BASF0xW0NIMl1bQ0BIXTFOKFtDSDJdMilbQ0gyXVtDSDJdTihbQ0gyXVtDQEhdMltDSDNdKWMobltjSF1uMyljKGMzNCluW2NIXW40W0NIMl1DNShbT0hdKVtDSDJdW0NIMl1PW0NIMl1bQ0gyXTU=

> <s_epik_cmdline>
J2VwaWtfcHl0aG9uJywgJy1waCcsICc3LjAnLCAnLXRuJywgJzgnLCAnLW1hJywgJzIwMCcsICctbWV0YWxfYmluZGluZycsICctaW1hZScsICc8aW5maWxlLm1hZT4nLCAnLW9tYWUnLCAnPG91dGZpbGUubWFlPic=

> <r_lp_tautomer_probability>
1

> <r_epik_Ionization_Penalty>
1.45227

> <r_epik_Ionization_Penalty_Charging>
0

> <r_epik_Ionization_Penalty_Neutral>
1.45227

> <r_epik_State_Penalty>
2.02377

> <r_epik_Charging_Adjusted_Penalty>
2.02377

> <i_epik_Tot_Q>
0

> <i_epik_Tot_abs_Q>
0

> <r_epik_Metal_State_Penalty>
2.01937

> <b_epik_Metal_Only>
0

> <s_lp_Force_Field>
OPLS_2005

> <r_lp_Energy>
49.0818

> <b_lp_Chiralities_Consistent>
1

> <s_lp_Variant>
AV-unprocessed.smi:193-23

> <Gold.Version>
5.8.1

> <Gold.Id.Protein>
6NUR|6NUR_protein|mol2

> <Gold.PLP.Fitness>
45.6654

> <Gold.PLP.PLP>
-42.0641

> <Gold.PLP.part.hbond>
-2.0000

> <Gold.PLP.part.metal>
0.0000

> <Gold.PLP.part.buried>
-4.9904

> <Gold.PLP.part.nonpolar>
-35.7898

> <Gold.PLP.part.repulsive>
0.5054

> <Gold.PLP.ligand.clash>
0.0000

> <Gold.PLP.ligand.torsion>
2.4574

> <Gold.PLP.Chemscore.Hbond>
1.0000

> <Gold.PLP.Chemscore.CHOScore>
1.4190

> <Gold.PLP.Chemscore.Metal>
0.0000

> <Gold.Chemscore.Hbonds>
donor molecule, donor type, donor heavy atom, donor atom, acceptor molecule, acceptor atom, score
      L1  H    16    40       P1  7921  0.86
      L1  C    12    37       P1 10171  1.00
      L1  C    12    37       P1 10175  0.80

> <Gold.PLP.Chemscore.Internal.Correction>
1.2593

> <Gold.Rescore>
     Score         DG    S(hbond)    S(metal)    S(lipo)     H(rot)  DE(clash)    DE(int)     intcor
     14.01     -16.75       1.00        0.00     109.59       1.91       0.28       2.45       ----

> <Gold.Chemscore.Fitness>
14.0133

> <Gold.Chemscore.DG>
-16.7492

> <Gold.Chemscore.ZeroCoef>
-5.4800

> <Gold.Chemscore.Hbond>
0.9967

> <Gold.Chemscore.Metal>
0.0000

> <Gold.Chemscore.Lipo>
109.5874

> <Gold.Chemscore.Internal_Hbond>
0.0000

> <Gold.Chemscore.DEClash>
0.2824

> <Gold.Chemscore.DEInternal>
2.4535

> <Gold.Chemscore.Rot>
1.9068

> <Gold.Chemscore.Internal.Correction>
   9.000000E+99

> <Gold.Chemscore.Hbonds>
donor molecule, donor type, donor heavy atom, donor atom, acceptor molecule, acceptor atom, score
      L1  H    16    40       P1  7921  0.83

> <Gold.Chemscore.Hbond.Weighted>
-3.3288

> <Gold.Chemscore.Metal.Weighted>
-0.0000

> <Gold.Chemscore.Lipo.Weighted>
-12.8217

> <Gold.Chemscore.Internal_Hbond.Weighted>
0.0000

> <Gold.Chemscore.DEClash.Weighted>
0.2824

> <Gold.Chemscore.DEInternal.Weighted>
2.4535

> <Gold.Chemscore.Rot.Weighted>
4.8814

> <Gold.Chemscore.Internal.Correction.Weighted>
   9.000000E+99

> <Gold.Protein.RotatedTorsions>
[ 6907 6896 6895 6894 ] final   30.34 input  -60.11 | X-H torsion
[ 7974 7965 7964 7962 ] final  100.19 input  175.53 | X-H torsion
[ 8008 7997 7996 7995 ] final   84.06 input   59.86 | X-H torsion
[ 10167 10162 10161 10158 ] final  -83.27 input  -65.29 | X-H torsion
[ 10718 10713 10712 10709 ] final    7.42 input   66.30 | X-H torsion
[ 10763 10752 10751 10750 ] final  -69.87 input  -60.55 | X-H torsion
[ 11005 11000 10999 10996 ] final -108.85 input  -57.11 | X-H torsion

> <Gold.Protein.ActiveResidues>
 VAL166  LYS551  ARG553  GLY616  TRP617  ASP618  TYR619  PRO620  LYS621  CYS622 
 ASP623  PHE694  ASN695  SER759  ASP760  ASP761  ALA762  ILE779  LEU786  VAL792 
 PHE793  MET794  SER795  GLU796  ALA797  LYS798  CYS799  TRP800  GLU811  SER814 

> <Gold.Protein.RotatedAtoms>
  152.0445  134.9691  160.0573 H   0  0  0  0  0  0  0  0  0  0  0  0  # atno 6907 bound_to 6896
  152.1117  133.4299  159.4642 H   0  0  0  0  0  0  0  0  0  0  0  0  # atno 6908 bound_to 6896
  150.6844  134.2559  159.4573 H   0  0  0  0  0  0  0  0  0  0  0  0  # atno 6909 bound_to 6896
  145.3889  139.2366  143.3363 H   0  0  0  0  0  0  0  0  0  0  0  0  # atno 7974 bound_to 7965
  155.9321  140.3414  155.6257 H   0  0  0  0  0  0  0  0  0  0  0  0  # atno 8008 bound_to 7997
  155.7145  140.0776  157.2376 H   0  0  0  0  0  0  0  0  0  0  0  0  # atno 8009 bound_to 7997
  154.4087  140.1617  156.2320 H   0  0  0  0  0  0  0  0  0  0  0  0  # atno 8010 bound_to 7997
  140.4242  143.2573  151.8849 H   0  0  0  0  0  0  0  0  0  0  0  0  # atno 10167 bound_to 10162
  156.9367  130.5846  149.5651 H   0  0  0  0  0  0  0  0  0  0  0  0  # atno 10718 bound_to 10713
  154.4095  135.6012  153.5944 H   0  0  0  0  0  0  0  0  0  0  0  0  # atno 10763 bound_to 10752
  152.9790  135.5926  154.4087 H   0  0  0  0  0  0  0  0  0  0  0  0  # atno 10764 bound_to 10752
  154.3897  135.2842  155.2140 H   0  0  0  0  0  0  0  0  0  0  0  0  # atno 10765 bound_to 10752
  141.0879  133.9106  157.2142 H   0  0  0  0  0  0  0  0  0  0  0  0  # atno 11005 bound_to 11000
  146.2807  140.4569  142.8777 LP  0  0  0  0  0  0  0  0  0  0  0  0  # atno 17320 bound_to 7965
  144.8454  140.6921  143.6202 LP  0  0  0  0  0  0  0  0  0  0  0  0  # atno 17321 bound_to 7965
  139.4783  144.5405  151.8535 LP  0  0  0  0  0  0  0  0  0  0  0  0  # atno 17342 bound_to 10162
  140.4500  144.1868  150.5897 LP  0  0  0  0  0  0  0  0  0  0  0  0  # atno 17343 bound_to 10162
  156.0423  130.5504  150.8799 LP  0  0  0  0  0  0  0  0  0  0  0  0  # atno 17370 bound_to 10713
  157.5812  131.0946  150.9268 LP  0  0  0  0  0  0  0  0  0  0  0  0  # atno 17371 bound_to 10713
  139.9700  135.0131  156.9488 LP  0  0  0  0  0  0  0  0  0  0  0  0  # atno 17394 bound_to 11000
  140.5319  134.0805  155.7318 LP  0  0  0  0  0  0  0  0  0  0  0  0  # atno 17395 bound_to 11000

$$$$
