#       Name:                AV-unprocessed.smi:822
#       Creating user name   scv26
#       Creation time:       Fri Mar 27 01:28:53 2020


#       File generated by GOLD software.
#

@<TRIPOS>MOLECULE
AV-unprocessed.smi:822
    41    42     1
SMALL
NO_CHARGES


@<TRIPOS>ATOM
      1 ****         0.5497   1.3221   0.1654 O.2            1 S1                 0.0000
      2 ****        -0.0635   0.3203   0.5342 C.2            1 S1                 0.0000
      3 ****        -1.5851   0.3667   0.7099 C.3            1 S1                 0.0000
      4 ****        -2.3405   0.9001  -0.5285 C.3            1 S1                 0.0000
      5 ****        -3.8374   1.0936  -0.2083 C.3            1 S1                 0.0000
      6 ****        -4.6189   1.6263  -1.4201 C.3            1 S1                 0.0000
      7 ****        -4.4465   0.7091  -2.6397 C.3            1 S1                 0.0000
      8 ****        -2.9608   0.5171  -2.9768 C.3            1 S1                 0.0000
      9 ****        -2.1768  -0.0140  -1.7656 C.3            1 S1                 0.0000
     10 ****         0.5349  -0.8491   0.8077 N.am           1 S1                 0.0000
     11 ****         1.9669  -1.0987   0.6997 C.3            1 S1                 0.0000
     12 ****         2.7233  -0.5726   1.9305 C.3            1 S1                 0.0000
     13 ****         4.1630  -0.8130   1.8251 N.pl3          1 S1                 0.0000
     14 ****         4.8601  -1.9051   2.2743 C.2            1 S1                 0.0000
     15 ****         6.1746  -1.6894   1.9493 C.2            1 S1                 0.0000
     16 ****         6.2238  -0.4758   1.3169 N.pl3          1 S1                 1.0000
     17 ****         4.9989   0.0552   1.2414 C.2            1 S1                 0.0000
     18 ****        -1.9596  -0.6240   0.9724 H              1 S1                 0.0000
     19 ****        -1.7919   1.0065   1.5685 H              1 S1                 0.0000
     20 ****        -1.9336   1.8812  -0.7799 H              1 S1                 0.0000
     21 ****        -4.2709   0.1455   0.1130 H              1 S1                 0.0000
     22 ****        -3.9535   1.7836   0.6281 H              1 S1                 0.0000
     23 ****        -5.6763   1.7166  -1.1699 H              1 S1                 0.0000
     24 ****        -4.2720   2.6307  -1.6659 H              1 S1                 0.0000
     25 ****        -4.9042  -0.2600  -2.4376 H              1 S1                 0.0000
     26 ****        -4.9725   1.1276  -3.4982 H              1 S1                 0.0000
     27 ****        -2.8570  -0.1708  -3.8164 H              1 S1                 0.0000
     28 ****        -2.5338   1.4670  -3.3007 H              1 S1                 0.0000
     29 ****        -1.1254  -0.1053  -2.0389 H              1 S1                 0.0000
     30 ****        -2.5197  -1.0212  -1.5258 H              1 S1                 0.0000
     31 ****        -0.0448  -1.6216   1.1033 H              1 S1                 0.0000
     32 ****         2.1181  -2.1741   0.6006 H              1 S1                 0.0000
     33 ****         2.3561  -0.6456  -0.2140 H              1 S1                 0.0000
     34 ****         2.5685   0.4998   2.0591 H              1 S1                 0.0000
     35 ****         2.3672  -1.0596   2.8394 H              1 S1                 0.0000
     36 ****         4.3819  -2.7328   2.7780 H              1 S1                 0.0000
     37 ****         7.0555  -2.2923   2.1162 H              1 S1                 0.0000
     38 ****         4.7366   0.9985   0.7960 H              1 S1                 0.0000
     39 ****         7.0642  -0.0406   0.9574 H              1 S1                 0.0000
     40 ****         0.0549   2.1708  -0.0209 LP             1 S1                 0.0000
     41 ****         1.5427   1.2870   0.0521 LP             1 S1                 0.0000
@<TRIPOS>BOND
    1    1    2 2     
    2    2    3 1     
    3    2   10 am    
    4    3    4 1     
    5    3   18 1     
    6    3   19 1     
    7    4    9 1     
    8    4    5 1     
    9    4   20 1     
   10    5    6 1     
   11    5   21 1     
   12    5   22 1     
   13    6    7 1     
   14    6   23 1     
   15    6   24 1     
   16    7    8 1     
   17    7   25 1     
   18    7   26 1     
   19    8    9 1     
   20    8   27 1     
   21    8   28 1     
   22    9   29 1     
   23    9   30 1     
   24   10   11 1     
   25   10   31 1     
   26   11   12 1     
   27   11   32 1     
   28   11   33 1     
   29   12   13 1     
   30   12   34 1     
   31   12   35 1     
   32   13   17 1     
   33   13   14 1     
   34   14   15 2     
   35   14   36 1     
   36   15   16 1     
   37   15   37 1     
   38   16   17 2     
   39   16   39 1     
   40   17   38 1     
   41    1   40 1     
   42    1   41 1     
@<TRIPOS>SUBSTRUCTURE
      1 S1             1
@<TRIPOS>SET
LONE_PAIRS      STATIC     ATOMS    <user>   **** ""
2 40 41
DONOR_HYDROGENS      STATIC     ATOMS    <user>   **** ""
2 31 39
ATOM$BLUE        STATIC     ATOMS    COLORGROUP SYSTEM
2 40 41
ATOM$RED        STATIC     ATOMS    COLORGROUP SYSTEM
2 31 39
