AV-unprocessed.smi:170|AV-procd|sdf|1413|dock5
  -GOLD-   2262019173D 1   1.00000     0.00000
 Structure written by MMmdl.
 57 61  0  0  0  0  0  0  0  0  1 V2000
  149.1188  141.0376  152.9456 O   0  0  0  0  0  0  0  0  0  0  0  0
  148.7574  141.0380  154.3143 C   0  0  1  0  0  0  0  0  0  0  0  0
  149.5243  142.1619  155.0398 C   0  0  0  0  0  0  0  0  0  0  0  0
  150.2362  141.6795  156.2102 N   0  0  0  0  0  0  0  0  0  0  0  0
  150.1097  142.1368  157.5030 C   0  0  0  0  0  0  0  0  0  0  0  0
  150.8704  141.5408  158.3809 N   0  0  0  0  0  0  0  0  0  0  0  0
  151.5713  140.6020  157.6348 C   0  0  0  0  0  0  0  0  0  0  0  0
  152.5612  139.6338  157.9476 C   0  0  0  0  0  0  0  0  0  0  0  0
  153.0151  139.4603  159.2116 N   0  0  0  0  0  0  0  0  0  0  0  0
  153.3133  138.0510  159.4436 C   0  0  0  0  0  0  0  0  0  0  0  0
  153.6636  137.8121  160.9174 C   0  0  0  0  0  0  0  0  0  0  0  0
  154.7565  138.6487  161.2684 O   0  0  0  0  0  0  0  0  0  0  0  0
  154.4266  140.0271  161.1474 C   0  0  0  0  0  0  0  0  0  0  0  0
  154.0602  140.3794  159.6854 C   0  0  2  0  0  0  0  0  0  0  0  0
  153.6298  141.8654  159.5617 C   0  0  0  0  0  0  0  0  0  0  0  0
  152.6480  142.3256  160.6375 C   0  0  0  0  0  0  0  0  0  0  0  0
  152.1454  143.7773  160.6357 C   0  0  0  0  0  0  0  0  0  0  0  0
  152.1348  143.7270  162.1660 C   0  0  0  0  0  0  0  0  0  0  0  0
  153.1447  142.5802  162.0687 C   0  0  0  0  0  0  0  0  0  0  0  0
  153.0293  138.8549  156.9357 N   0  0  0  0  0  0  0  0  0  0  0  0
  152.5700  139.0275  155.6925 C   0  0  0  0  0  0  0  0  0  0  0  0
  151.6582  139.8975  155.2519 N   0  0  0  0  0  0  0  0  0  0  0  0
  151.1808  140.6712  156.2689 C   0  0  0  0  0  0  0  0  0  0  0  0
  147.2304  141.2034  154.4267 C   0  0  1  0  0  0  0  0  0  0  0  0
  146.7332  141.5259  155.8376 C   0  0  0  0  0  0  0  0  0  0  0  0
  145.4180  142.2122  155.5505 C   0  0  0  0  0  0  0  0  0  0  0  0
  145.7606  143.0271  154.3078 C   0  0  0  0  0  0  0  0  0  0  0  0
  146.7857  142.3019  153.6327 O   0  0  0  0  0  0  0  0  0  0  0  0
  148.3687  140.7704  152.4372 H   0  0  0  0  0  0  0  0  0  0  0  0
  149.0454  140.0748  154.7376 H   0  0  0  0  0  0  0  0  0  0  0  0
  150.2395  142.6345  154.3651 H   0  0  0  0  0  0  0  0  0  0  0  0
  148.8367  142.9445  155.3626 H   0  0  0  0  0  0  0  0  0  0  0  0
  149.4357  142.9359  157.7755 H   0  0  0  0  0  0  0  0  0  0  0  0
  152.4575  137.4333  159.1668 H   0  0  0  0  0  0  0  0  0  0  0  0
  154.1482  137.7464  158.8105 H   0  0  0  0  0  0  0  0  0  0  0  0
  152.8069  138.0129  161.5629 H   0  0  0  0  0  0  0  0  0  0  0  0
  153.9468  136.7713  161.0733 H   0  0  0  0  0  0  0  0  0  0  0  0
  153.6064  140.2711  161.8248 H   0  0  0  0  0  0  0  0  0  0  0  0
  155.2918  140.6011  161.4774 H   0  0  0  0  0  0  0  0  0  0  0  0
  154.9484  140.2187  159.0725 H   0  0  0  0  0  0  0  0  0  0  0  0
  154.5045  142.5138  159.6010 H   0  0  0  0  0  0  0  0  0  0  0  0
  153.1939  142.0306  158.5757 H   0  0  0  0  0  0  0  0  0  0  0  0
  151.7779  141.6679  160.6808 H   0  0  0  0  0  0  0  0  0  0  0  0
  152.8802  144.4829  160.2444 H   0  0  0  0  0  0  0  0  0  0  0  0
  151.1672  143.9209  160.1758 H   0  0  0  0  0  0  0  0  0  0  0  0
  152.5090  144.6260  162.6561 H   0  0  0  0  0  0  0  0  0  0  0  0
  151.1729  143.4109  162.5730 H   0  0  0  0  0  0  0  0  0  0  0  0
  152.9735  141.7579  162.7638 H   0  0  0  0  0  0  0  0  0  0  0  0
  154.1792  142.9264  162.1024 H   0  0  0  0  0  0  0  0  0  0  0  0
  152.9945  138.3752  154.9436 H   0  0  0  0  0  0  0  0  0  0  0  0
  146.7237  140.3074  154.0640 H   0  0  0  0  0  0  0  0  0  0  0  0
  146.6241  140.6401  156.4638 H   0  0  0  0  0  0  0  0  0  0  0  0
  147.4125  142.2177  156.3383 H   0  0  0  0  0  0  0  0  0  0  0  0
  144.6525  141.4708  155.3172 H   0  0  0  0  0  0  0  0  0  0  0  0
  145.0615  142.8256  156.3786 H   0  0  0  0  0  0  0  0  0  0  0  0
  144.8944  143.1863  153.6649 H   0  0  0  0  0  0  0  0  0  0  0  0
  146.1576  144.0033  154.5895 H   0  0  0  0  0  0  0  0  0  0  0  0
  1  2  1  0  0  0  0
  1 29  1  0  0  0  0
  2  3  1  0  0  0  0
  2 24  1  0  0  0  0
  2 30  1  0  0  0  0
  3  4  1  0  0  0  0
  3 31  1  0  0  0  0
  3 32  1  0  0  0  0
  4 23  1  0  0  0  0
  4  5  1  0  0  0  0
  5  6  2  0  0  0  0
  5 33  1  0  0  0  0
  6  7  1  0  0  0  0
  7 23  2  0  0  0  0
  7  8  1  0  0  0  0
  8  9  1  0  0  0  0
  8 20  2  0  0  0  0
  9 14  1  0  0  0  0
  9 10  1  0  0  0  0
 10 11  1  0  0  0  0
 10 34  1  0  0  0  0
 10 35  1  0  0  0  0
 11 12  1  0  0  0  0
 11 36  1  0  0  0  0
 11 37  1  0  0  0  0
 12 13  1  0  0  0  0
 13 14  1  0  0  0  0
 13 38  1  0  0  0  0
 13 39  1  0  0  0  0
 14 15  1  0  0  0  0
 14 40  1  0  0  0  0
 15 16  1  0  0  0  0
 15 41  1  0  0  0  0
 15 42  1  0  0  0  0
 16 19  1  0  0  0  0
 16 17  1  0  0  0  0
 16 43  1  0  0  0  0
 17 18  1  0  0  0  0
 17 44  1  0  0  0  0
 17 45  1  0  0  0  0
 18 19  1  0  0  0  0
 18 46  1  0  0  0  0
 18 47  1  0  0  0  0
 19 48  1  0  0  0  0
 19 49  1  0  0  0  0
 20 21  1  0  0  0  0
 21 22  2  0  0  0  0
 21 50  1  0  0  0  0
 22 23  1  0  0  0  0
 24 28  1  0  0  0  0
 24 25  1  0  0  0  0
 24 51  1  0  0  0  0
 25 26  1  0  0  0  0
 25 52  1  0  0  0  0
 25 53  1  0  0  0  0
 26 27  1  0  0  0  0
 26 54  1  0  0  0  0
 26 55  1  0  0  0  0
 27 28  1  0  0  0  0
 27 56  1  0  0  0  0
 27 57  1  0  0  0  0
M  END
> <s_m_source_file>
AV-unprocessed.smi

> <i_m_source_file_index>
170

> <i_lp_mmshare_version>
43012

> <i_f3d_flags>
0

> <s_epik_input>
TzFbQ0gyXVtDSDJdW0NIMl1bQ0BIXTFbQ0BIXShbT0hdKVtDSDJdbihbY0hdbjIpYyhjMjMpbltjSF1uYzNONFtDSDJdW0NIMl1PW0NIMl1bQ0BIXTRbQ0gyXVtDSF01W0NIMl1bQ0gyXVtDSDJdNQ==

> <s_epik_cmdline>
J2VwaWtfcHl0aG9uJywgJy1waCcsICc3LjAnLCAnLXRuJywgJzgnLCAnLW1hJywgJzIwMCcsICctbWV0YWxfYmluZGluZycsICctaW1hZScsICc8aW5maWxlLm1hZT4nLCAnLW9tYWUnLCAnPG91dGZpbGUubWFlPic=

> <r_lp_tautomer_probability>
1

> <r_epik_Ionization_Penalty>
4.98275e-05

> <r_epik_Ionization_Penalty_Charging>
0

> <r_epik_Ionization_Penalty_Neutral>
4.98275e-05

> <r_epik_State_Penalty>
-0

> <r_epik_Charging_Adjusted_Penalty>
0

> <i_epik_Tot_Q>
0

> <i_epik_Tot_abs_Q>
0

> <r_epik_Metal_State_Penalty>
-0

> <b_epik_Metal_Only>
0

> <s_lp_Force_Field>
OPLS_2005

> <r_lp_Energy>
50.2735

> <b_lp_Chiralities_Consistent>
1

> <s_lp_Variant>
AV-unprocessed.smi:170-8

> <Gold.Version>
5.8.1

> <Gold.Id.Protein>
6NUR|6NUR_protein|mol2

> <Gold.PLP.Fitness>
57.8875

> <Gold.PLP.PLP>
-53.7492

> <Gold.PLP.part.hbond>
-3.8999

> <Gold.PLP.part.metal>
0.0000

> <Gold.PLP.part.buried>
-1.4373

> <Gold.PLP.part.nonpolar>
-46.3753

> <Gold.PLP.part.repulsive>
0.2228

> <Gold.PLP.ligand.clash>
0.0000

> <Gold.PLP.ligand.torsion>
1.7074

> <Gold.PLP.Chemscore.Hbond>
2.2475

> <Gold.PLP.Chemscore.CHOScore>
0.1814

> <Gold.PLP.Chemscore.Metal>
0.0000

> <Gold.Chemscore.Hbonds>
donor molecule, donor type, donor heavy atom, donor atom, acceptor molecule, acceptor atom, score
      P1  H  7989  7998       L1    22  1.00
      P1  H  7997  8008       L1    20  0.27
      P1  H  8011  8017       L1     1  1.00
      L1  C     5    33       P1  8028  0.21

> <Gold.PLP.Chemscore.Internal.Correction>
0.2665

> <Gold.Rescore>
     Score         DG    S(hbond)    S(metal)    S(lipo)     H(rot)  DE(clash)    DE(int)     intcor
     13.93     -17.91       1.64        0.00     116.60       2.61       0.94       3.03       ----

> <Gold.Chemscore.Fitness>
13.9345

> <Gold.Chemscore.DG>
-17.9054

> <Gold.Chemscore.ZeroCoef>
-5.4800

> <Gold.Chemscore.Hbond>
1.6396

> <Gold.Chemscore.Metal>
0.0000

> <Gold.Chemscore.Lipo>
116.5997

> <Gold.Chemscore.Internal_Hbond>
0.0000

> <Gold.Chemscore.DEClash>
0.9378

> <Gold.Chemscore.DEInternal>
3.0331

> <Gold.Chemscore.Rot>
2.6144

> <Gold.Chemscore.Internal.Correction>
   9.000000E+99

> <Gold.Chemscore.Hbonds>
donor molecule, donor type, donor heavy atom, donor atom, acceptor molecule, acceptor atom, score
      P1  H  7989  7998       L1    22  0.76
      P1  H  8011  8017       L1     1  0.71

> <Gold.Chemscore.Hbond.Weighted>
-5.4762

> <Gold.Chemscore.Metal.Weighted>
-0.0000

> <Gold.Chemscore.Lipo.Weighted>
-13.6422

> <Gold.Chemscore.Internal_Hbond.Weighted>
0.0000

> <Gold.Chemscore.DEClash.Weighted>
0.9378

> <Gold.Chemscore.DEInternal.Weighted>
3.0331

> <Gold.Chemscore.Rot.Weighted>
6.6929

> <Gold.Chemscore.Internal.Correction.Weighted>
   9.000000E+99

> <Gold.Protein.RotatedTorsions>
[ 6907 6896 6895 6894 ] final  -52.16 input  -60.11 | X-H torsion
[ 7974 7965 7964 7962 ] final  -11.62 input  175.53 | X-H torsion
[ 8008 7997 7996 7995 ] final  -57.24 input   59.86 | X-H torsion
[ 10167 10162 10161 10158 ] final -146.84 input  -65.29 | X-H torsion
[ 10718 10713 10712 10709 ] final  -91.36 input   66.30 | X-H torsion
[ 10763 10752 10751 10750 ] final  -41.60 input  -60.55 | X-H torsion
[ 11005 11000 10999 10996 ] final   65.86 input  -57.11 | X-H torsion

> <Gold.Protein.ActiveResidues>
 VAL166  LYS551  ARG553  GLY616  TRP617  ASP618  TYR619  PRO620  LYS621  CYS622 
 ASP623  PHE694  ASN695  SER759  ASP760  ASP761  ALA762  ILE779  LEU786  VAL792 
 PHE793  MET794  SER795  GLU796  ALA797  LYS798  CYS799  TRP800  GLU811  SER814 

> <Gold.Protein.RotatedAtoms>
  150.8544  134.7878  159.7033 H   0  0  0  0  0  0  0  0  0  0  0  0  # atno 6907 bound_to 6896
  152.4600  134.5203  159.9790 H   0  0  0  0  0  0  0  0  0  0  0  0  # atno 6908 bound_to 6896
  151.5318  133.3409  159.2955 H   0  0  0  0  0  0  0  0  0  0  0  0  # atno 6909 bound_to 6896
  146.2181  140.2937  142.8370 H   0  0  0  0  0  0  0  0  0  0  0  0  # atno 7974 bound_to 7965
  154.4260  140.1111  156.5766 H   0  0  0  0  0  0  0  0  0  0  0  0  # atno 8008 bound_to 7997
  155.6156  140.3494  155.4617 H   0  0  0  0  0  0  0  0  0  0  0  0  # atno 8009 bound_to 7997
  156.0064  140.1210  157.0486 H   0  0  0  0  0  0  0  0  0  0  0  0  # atno 8010 bound_to 7997
  139.7676  143.8285  152.2619 H   0  0  0  0  0  0  0  0  0  0  0  0  # atno 10167 bound_to 10162
  155.9993  130.4945  150.5462 H   0  0  0  0  0  0  0  0  0  0  0  0  # atno 10718 bound_to 10713
  153.9651  135.6735  153.4746 H   0  0  0  0  0  0  0  0  0  0  0  0  # atno 10763 bound_to 10752
  153.0819  135.4919  154.8517 H   0  0  0  0  0  0  0  0  0  0  0  0  # atno 10764 bound_to 10752
  154.7250  135.3125  154.8945 H   0  0  0  0  0  0  0  0  0  0  0  0  # atno 10765 bound_to 10752
  139.9868  134.6656  156.0162 H   0  0  0  0  0  0  0  0  0  0  0  0  # atno 11005 bound_to 11000
  144.9108  140.7754  143.5809 LP  0  0  0  0  0  0  0  0  0  0  0  0  # atno 17320 bound_to 7965
  145.2868  139.1898  143.4762 LP  0  0  0  0  0  0  0  0  0  0  0  0  # atno 17321 bound_to 7965
  139.8310  144.7254  150.9451 LP  0  0  0  0  0  0  0  0  0  0  0  0  # atno 17342 bound_to 10162
  140.7812  143.4070  151.1054 LP  0  0  0  0  0  0  0  0  0  0  0  0  # atno 17343 bound_to 10162
  157.3392  131.0713  151.1801 LP  0  0  0  0  0  0  0  0  0  0  0  0  # atno 17370 bound_to 10713
  157.2656  130.6679  149.5995 LP  0  0  0  0  0  0  0  0  0  0  0  0  # atno 17371 bound_to 10713
  141.1531  133.6546  156.4076 LP  0  0  0  0  0  0  0  0  0  0  0  0  # atno 17394 bound_to 11000
  140.4987  134.6506  157.5240 LP  0  0  0  0  0  0  0  0  0  0  0  0  # atno 17395 bound_to 11000

$$$$
