AV-unprocessed.smi:284|AV-procd|sdf|2157|dock9
  -GOLD-   2262021503D 1   1.00000     0.00000
 Structure written by MMmdl.
 60 62  0  0  0  0  0  0  0  0  1 V2000
  147.4273  141.2559  154.8552 C   0  0  0  0  0  0  0  0  0  0  0  0
  148.8689  140.8312  155.0884 C   0  0  0  0  0  0  0  0  0  0  0  0
  149.6915  141.5059  155.9250 C   0  0  0  0  0  0  0  0  0  0  0  0
  151.0057  141.1415  156.1632 N   0  0  0  0  0  0  0  0  0  0  0  0
  151.9037  141.9007  157.1205 C   0  0  2  0  0  0  0  0  0  0  0  0
  152.2331  141.0399  158.3543 C   0  0  0  0  0  0  0  0  0  0  0  0
  151.9022  141.9572  159.5177 C   0  0  1  0  0  0  0  0  0  0  0  0
  153.0486  142.6817  159.9232 O   0  0  0  0  0  0  0  0  0  0  0  0
  150.8242  142.8677  158.9202 C   0  0  1  0  0  0  0  0  0  0  0  0
  150.5793  144.2153  159.6218 C   0  0  0  0  0  0  0  0  0  0  0  0
  149.2199  144.5822  159.5184 O   0  0  0  0  0  0  0  0  0  0  0  0
  151.2584  143.0546  157.5775 O   0  0  0  0  0  0  0  0  0  0  0  0
  151.5454  140.0184  155.5036 C   0  0  0  0  0  0  0  0  0  0  0  0
  152.7128  139.6733  155.7028 O   0  0  0  0  0  0  0  0  0  0  0  0
  150.7141  139.2952  154.6200 N   0  0  0  0  0  0  0  0  0  0  0  0
  151.2686  138.0950  153.9539 C   0  0  0  0  0  0  0  0  0  0  0  0
  151.1241  136.8096  154.7849 C   0  0  0  0  0  0  0  0  0  0  0  0
  151.8043  136.6467  155.7982 O   0  0  0  0  0  0  0  0  0  0  0  0
  150.2164  135.9333  154.3151 N   0  0  0  0  0  0  0  0  0  0  0  0
  149.8316  134.6547  154.8097 C   0  0  0  0  0  0  0  0  0  0  0  0
  149.4569  133.6945  153.8494 C   0  0  0  0  0  0  0  0  0  0  0  0
  149.0623  132.3996  154.2366 C   0  0  0  0  0  0  0  0  0  0  0  0
  149.0321  132.0292  155.6030 C   0  0  0  0  0  0  0  0  0  0  0  0
  148.6091  130.6233  156.0699 C   0  0  0  0  0  0  0  0  0  0  0  0
  147.3492  130.7291  156.9542 C   0  0  0  0  0  0  0  0  0  0  0  0
  149.7016  129.9072  156.8957 C   0  0  0  0  0  0  0  0  0  0  0  0
  148.2973  129.7418  154.8428 C   0  0  0  0  0  0  0  0  0  0  0  0
  149.4083  132.9978  156.5620 C   0  0  0  0  0  0  0  0  0  0  0  0
  149.8032  134.2931  156.1775 C   0  0  0  0  0  0  0  0  0  0  0  0
  149.3641  139.6491  154.3793 C   0  0  0  0  0  0  0  0  0  0  0  0
  148.6652  138.9787  153.6167 O   0  0  0  0  0  0  0  0  0  0  0  0
  147.1677  142.1473  155.4268 H   0  0  0  0  0  0  0  0  0  0  0  0
  146.7434  140.4596  155.1516 H   0  0  0  0  0  0  0  0  0  0  0  0
  147.2600  141.4763  153.8003 H   0  0  0  0  0  0  0  0  0  0  0  0
  149.2821  142.3703  156.4245 H   0  0  0  0  0  0  0  0  0  0  0  0
  152.7786  142.1928  156.5370 H   0  0  0  0  0  0  0  0  0  0  0  0
  151.5832  140.1636  158.3769 H   0  0  0  0  0  0  0  0  0  0  0  0
  153.2698  140.7014  158.3348 H   0  0  0  0  0  0  0  0  0  0  0  0
  151.5274  141.3999  160.3768 H   0  0  0  0  0  0  0  0  0  0  0  0
  153.8059  142.3079  159.4993 H   0  0  0  0  0  0  0  0  0  0  0  0
  149.8854  142.3124  158.8840 H   0  0  0  0  0  0  0  0  0  0  0  0
  150.8746  144.1844  160.6706 H   0  0  0  0  0  0  0  0  0  0  0  0
  151.1784  144.9930  159.1477 H   0  0  0  0  0  0  0  0  0  0  0  0
  149.1043  145.0860  158.7270 H   0  0  0  0  0  0  0  0  0  0  0  0
  150.8010  137.9277  152.9824 H   0  0  0  0  0  0  0  0  0  0  0  0
  152.3234  138.2425  153.7152 H   0  0  0  0  0  0  0  0  0  0  0  0
  149.7367  136.2221  153.4750 H   0  0  0  0  0  0  0  0  0  0  0  0
  149.4709  133.9481  152.7993 H   0  0  0  0  0  0  0  0  0  0  0  0
  148.7874  131.7078  153.4561 H   0  0  0  0  0  0  0  0  0  0  0  0
  147.0366  129.7498  157.3181 H   0  0  0  0  0  0  0  0  0  0  0  0
  146.5023  131.1531  156.4145 H   0  0  0  0  0  0  0  0  0  0  0  0
  147.5312  131.3591  157.8256 H   0  0  0  0  0  0  0  0  0  0  0  0
  149.9514  130.4612  157.8014 H   0  0  0  0  0  0  0  0  0  0  0  0
  150.6171  129.7678  156.3193 H   0  0  0  0  0  0  0  0  0  0  0  0
  149.3713  128.9168  157.2109 H   0  0  0  0  0  0  0  0  0  0  0  0
  148.0165  128.7312  155.1415 H   0  0  0  0  0  0  0  0  0  0  0  0
  149.1643  129.6597  154.1861 H   0  0  0  0  0  0  0  0  0  0  0  0
  147.4733  130.1385  154.2497 H   0  0  0  0  0  0  0  0  0  0  0  0
  149.3987  132.7551  157.6139 H   0  0  0  0  0  0  0  0  0  0  0  0
  150.0772  134.9802  156.9608 H   0  0  0  0  0  0  0  0  0  0  0  0
  1  2  1  0  0  0  0
  1 32  1  0  0  0  0
  1 33  1  0  0  0  0
  1 34  1  0  0  0  0
  2 30  1  0  0  0  0
  2  3  2  0  0  0  0
  3  4  1  0  0  0  0
  3 35  1  0  0  0  0
  4  5  1  0  0  0  0
  4 13  1  0  0  0  0
  5 12  1  0  0  0  0
  5  6  1  0  0  0  0
  5 36  1  0  0  0  0
  6  7  1  0  0  0  0
  6 37  1  0  0  0  0
  6 38  1  0  0  0  0
  7  8  1  0  0  0  0
  7  9  1  0  0  0  0
  7 39  1  0  0  0  0
  8 40  1  0  0  0  0
  9 10  1  0  0  0  0
  9 12  1  0  0  0  0
  9 41  1  0  0  0  0
 10 11  1  0  0  0  0
 10 42  1  0  0  0  0
 10 43  1  0  0  0  0
 11 44  1  0  0  0  0
 13 14  2  0  0  0  0
 13 15  1  0  0  0  0
 15 16  1  0  0  0  0
 15 30  1  0  0  0  0
 16 17  1  0  0  0  0
 16 45  1  0  0  0  0
 16 46  1  0  0  0  0
 17 18  2  0  0  0  0
 17 19  1  0  0  0  0
 19 20  1  0  0  0  0
 19 47  1  0  0  0  0
 20 29  1  0  0  0  0
 20 21  2  0  0  0  0
 21 22  1  0  0  0  0
 21 48  1  0  0  0  0
 22 23  2  0  0  0  0
 22 49  1  0  0  0  0
 23 24  1  0  0  0  0
 23 28  1  0  0  0  0
 24 25  1  0  0  0  0
 24 26  1  0  0  0  0
 24 27  1  0  0  0  0
 25 50  1  0  0  0  0
 25 51  1  0  0  0  0
 25 52  1  0  0  0  0
 26 53  1  0  0  0  0
 26 54  1  0  0  0  0
 26 55  1  0  0  0  0
 27 56  1  0  0  0  0
 27 57  1  0  0  0  0
 27 58  1  0  0  0  0
 28 29  2  0  0  0  0
 28 59  1  0  0  0  0
 29 60  1  0  0  0  0
 30 31  2  0  0  0  0
M  END
> <s_m_source_file>
AV-unprocessed.smi

> <i_m_source_file_index>
284

> <i_lp_mmshare_version>
43012

> <i_f3d_flags>
0

> <s_epik_input>
W09IXVtDSDJdW0NAQEhdKE8xKVtDQEhdKFtPSF0pW0NIMl1bQ0BIXTFuKFtjSF1jMltDSDNdKWMoPU8pbihjMj1PKVtDSDJdQyg9TylbTkhdYzNbY0hdW2NIXWMoQyhbQ0gzXSkoW0NIM10pW0NIM10pW2NIXVtjSF0z

> <s_epik_cmdline>
J2VwaWtfcHl0aG9uJywgJy1waCcsICc3LjAnLCAnLXRuJywgJzgnLCAnLW1hJywgJzIwMCcsICctbWV0YWxfYmluZGluZycsICctaW1hZScsICc8aW5maWxlLm1hZT4nLCAnLW9tYWUnLCAnPG91dGZpbGUubWFlPic=

> <r_lp_tautomer_probability>
1

> <r_epik_Ionization_Penalty>
4.92358e-06

> <r_epik_Ionization_Penalty_Charging>
1.29777e-07

> <r_epik_Ionization_Penalty_Neutral>
4.79381e-06

> <r_epik_State_Penalty>
-0

> <r_epik_Charging_Adjusted_Penalty>
1.29777e-07

> <i_epik_Tot_Q>
0

> <i_epik_Tot_abs_Q>
0

> <r_epik_Metal_State_Penalty>
-0

> <b_epik_Metal_Only>
0

> <s_epik_Chemistry_Notes>
This compound contains an acetal/aminal-like group ( X-CH(R)-Y where X, Y are N, S, or O) that may be acid/base labile, releasing an aldehyde.

> <s_lp_Force_Field>
OPLS_2005

> <r_lp_Energy>
42.5826

> <b_lp_Chiralities_Consistent>
1

> <s_lp_Variant>
AV-unprocessed.smi:284-1

> <Gold.Version>
5.8.1

> <Gold.Id.Protein>
6NUR|6NUR_protein|mol2

> <Gold.PLP.Fitness>
55.8457

> <Gold.PLP.PLP>
-43.3947

> <Gold.PLP.part.hbond>
-4.8816

> <Gold.PLP.part.metal>
0.0000

> <Gold.PLP.part.buried>
-5.6263

> <Gold.PLP.part.nonpolar>
-34.5001

> <Gold.PLP.part.repulsive>
2.0076

> <Gold.PLP.ligand.clash>
0.0000

> <Gold.PLP.ligand.torsion>
1.2557

> <Gold.PLP.Chemscore.Hbond>
3.9760

> <Gold.PLP.Chemscore.CHOScore>
1.0000

> <Gold.PLP.Chemscore.Metal>
0.0000

> <Gold.Chemscore.Hbonds>
donor molecule, donor type, donor heavy atom, donor atom, acceptor molecule, acceptor atom, score
      L1  H    11    44       P1  8029  0.89
      L1  H    19    47       P1  7948  0.95
      P1  H  7997  8010       L1    14  1.00
      P1  H 10752 10763       L1    18  0.93
      L1  C     3    35       P1  8028  1.00

> <Gold.PLP.Chemscore.Internal.Correction>
0.0344

> <Gold.Rescore>
     Score         DG    S(hbond)    S(metal)    S(lipo)     H(rot)  DE(clash)    DE(int)     intcor
     16.49     -18.88       3.48        0.00      86.74       3.27       0.64       1.75       ----

> <Gold.Chemscore.Fitness>
16.4902

> <Gold.Chemscore.DG>
-18.8798

> <Gold.Chemscore.ZeroCoef>
-5.4800

> <Gold.Chemscore.Hbond>
3.4824

> <Gold.Chemscore.Metal>
0.0000

> <Gold.Chemscore.Lipo>
86.7408

> <Gold.Chemscore.Internal_Hbond>
0.0000

> <Gold.Chemscore.DEClash>
0.6395

> <Gold.Chemscore.DEInternal>
1.7500

> <Gold.Chemscore.Rot>
3.2735

> <Gold.Chemscore.Internal.Correction>
   9.000000E+99

> <Gold.Chemscore.Hbonds>
donor molecule, donor type, donor heavy atom, donor atom, acceptor molecule, acceptor atom, score
      L1  H    11    44       P1  8029  0.80
      L1  H    19    47       P1  7948  0.22
      P1  H  7997  8010       L1    14  1.00
      P1  H 10752 10763       L1    18  0.30

> <Gold.Chemscore.Hbond.Weighted>
-11.6312

> <Gold.Chemscore.Metal.Weighted>
-0.0000

> <Gold.Chemscore.Lipo.Weighted>
-10.1487

> <Gold.Chemscore.Internal_Hbond.Weighted>
0.0000

> <Gold.Chemscore.DEClash.Weighted>
0.6395

> <Gold.Chemscore.DEInternal.Weighted>
1.7500

> <Gold.Chemscore.Rot.Weighted>
8.3801

> <Gold.Chemscore.Internal.Correction.Weighted>
   9.000000E+99

> <Gold.Protein.RotatedTorsions>
[ 6907 6896 6895 6894 ] final   86.14 input  -60.11 | X-H torsion
[ 7974 7965 7964 7962 ] final -163.54 input  175.53 | X-H torsion
[ 8008 7997 7996 7995 ] final   98.61 input   59.86 | X-H torsion
[ 10167 10162 10161 10158 ] final -144.86 input  -65.29 | X-H torsion
[ 10718 10713 10712 10709 ] final   -3.70 input   66.30 | X-H torsion
[ 10763 10752 10751 10750 ] final   99.19 input  -60.55 | X-H torsion
[ 11005 11000 10999 10996 ] final -122.53 input  -57.11 | X-H torsion

> <Gold.Protein.ActiveResidues>
 VAL166  LYS551  ARG553  GLY616  TRP617  ASP618  TYR619  PRO620  LYS621  CYS622 
 ASP623  PHE694  ASN695  SER759  ASP760  ASP761  ALA762  ILE779  LEU786  VAL792 
 PHE793  MET794  SER795  GLU796  ALA797  LYS798  CYS799  TRP800  GLU811  SER814 

> <Gold.Protein.RotatedAtoms>
  152.5389  134.2477  159.8886 H   0  0  0  0  0  0  0  0  0  0  0  0  # atno 6907 bound_to 6896
  151.2442  133.4377  159.2616 H   0  0  0  0  0  0  0  0  0  0  0  0  # atno 6908 bound_to 6896
  151.0599  134.9743  159.8311 H   0  0  0  0  0  0  0  0  0  0  0  0  # atno 6909 bound_to 6896
  144.7323  140.3091  143.6191 H   0  0  0  0  0  0  0  0  0  0  0  0  # atno 7974 bound_to 7965
  156.1022  140.3241  155.7957 H   0  0  0  0  0  0  0  0  0  0  0  0  # atno 8008 bound_to 7997
  155.4818  140.0554  157.2983 H   0  0  0  0  0  0  0  0  0  0  0  0  # atno 8009 bound_to 7997
  154.4704  140.2008  156.0024 H   0  0  0  0  0  0  0  0  0  0  0  0  # atno 8010 bound_to 7997
  139.7859  143.8034  152.2644 H   0  0  0  0  0  0  0  0  0  0  0  0  # atno 10167 bound_to 10162
  156.7722  130.5303  149.5765 H   0  0  0  0  0  0  0  0  0  0  0  0  # atno 10718 bound_to 10713
  153.2983  135.4122  155.1230 H   0  0  0  0  0  0  0  0  0  0  0  0  # atno 10763 bound_to 10752
  154.8541  135.3535  154.5886 H   0  0  0  0  0  0  0  0  0  0  0  0  # atno 10764 bound_to 10752
  153.6311  135.7060  153.5333 H   0  0  0  0  0  0  0  0  0  0  0  0  # atno 10765 bound_to 10752
  140.9988  134.0432  157.3563 H   0  0  0  0  0  0  0  0  0  0  0  0  # atno 11005 bound_to 11000
  145.7682  139.1848  143.2227 LP  0  0  0  0  0  0  0  0  0  0  0  0  # atno 17320 bound_to 7965
  146.0932  140.7632  142.9585 LP  0  0  0  0  0  0  0  0  0  0  0  0  # atno 17321 bound_to 7965
  139.8111  144.7335  150.9696 LP  0  0  0  0  0  0  0  0  0  0  0  0  # atno 17342 bound_to 10162
  140.7819  143.4250  151.0783 LP  0  0  0  0  0  0  0  0  0  0  0  0  # atno 17343 bound_to 10162
  156.1271  130.6151  151.0279 LP  0  0  0  0  0  0  0  0  0  0  0  0  # atno 17370 bound_to 10713
  157.6686  131.0866  150.7669 LP  0  0  0  0  0  0  0  0  0  0  0  0  # atno 17371 bound_to 10713
  139.9028  135.0170  156.7349 LP  0  0  0  0  0  0  0  0  0  0  0  0  # atno 17394 bound_to 11000
  140.6922  133.9380  155.7973 LP  0  0  0  0  0  0  0  0  0  0  0  0  # atno 17395 bound_to 11000

$$$$
