AV-unprocessed.smi:3327|AV-procd|sdf|12789|dock2
  -GOLD-   2272019143D 1   1.00000     0.00000
 Structure written by MMmdl.
 40 41  0  0  0  0  0  0  0  0  1 V2000
  151.8227  144.7078  161.4046 C   0  0  0  0  0  0  0  0  0  0  0  0
  152.2681  143.2716  161.0957 C   0  0  2  0  0  0  0  0  0  0  0  0
  153.1956  142.7168  162.1982 C   0  0  0  0  0  0  0  0  0  0  0  0
  153.7463  141.3239  161.8399 C   0  0  0  0  0  0  0  0  0  0  0  0
  154.3610  141.3193  160.4292 C   0  0  0  0  0  0  0  0  0  0  0  0
  153.3442  141.7761  159.4716 N   0  0  0  0  0  0  0  0  0  0  0  0
  152.7170  140.9996  158.5537 C   0  0  0  0  0  0  0  0  0  0  0  0
  153.0445  139.8273  158.3586 O   0  0  0  0  0  0  0  0  0  0  0  0
  151.5797  141.6090  157.7081 C   0  0  0  0  0  0  0  0  0  0  0  0
  150.9044  140.6746  156.7918 N   0  0  0  0  0  0  0  0  0  0  0  0
  150.4414  141.3056  155.5592 C   0  0  0  0  0  0  0  0  0  0  0  0
  149.6308  140.3048  154.7182 C   0  0  0  0  0  0  0  0  0  0  0  0
  148.2869  140.7751  154.4322 N   0  0  0  0  0  0  0  0  0  0  0  0
  147.8634  142.0651  154.1908 C   0  0  0  0  0  0  0  0  0  0  0  0
  146.5168  142.0161  153.9702 C   0  0  0  0  0  0  0  0  0  0  0  0
  146.2034  140.6342  154.0992 C   0  0  0  0  0  0  0  0  0  0  0  0
  147.2653  139.8935  154.3730 N   0  0  0  0  0  0  0  0  0  0  0  0
  152.9607  143.1729  159.7199 C   0  0  0  0  0  0  0  0  0  0  0  0
  152.6736  145.3891  161.4378 H   0  0  0  0  0  0  0  0  0  0  0  0
  151.3141  144.7627  162.3676 H   0  0  0  0  0  0  0  0  0  0  0  0
  151.1314  145.0754  160.6459 H   0  0  0  0  0  0  0  0  0  0  0  0
  151.3723  142.6493  161.0652 H   0  0  0  0  0  0  0  0  0  0  0  0
  154.0333  143.4006  162.3426 H   0  0  0  0  0  0  0  0  0  0  0  0
  152.6667  142.6732  163.1507 H   0  0  0  0  0  0  0  0  0  0  0  0
  154.4906  141.0173  162.5755 H   0  0  0  0  0  0  0  0  0  0  0  0
  152.9419  140.5887  161.8882 H   0  0  0  0  0  0  0  0  0  0  0  0
  155.2168  141.9950  160.3929 H   0  0  0  0  0  0  0  0  0  0  0  0
  154.7624  140.3310  160.2143 H   0  0  0  0  0  0  0  0  0  0  0  0
  150.8276  142.0528  158.3613 H   0  0  0  0  0  0  0  0  0  0  0  0
  152.0026  142.4190  157.1134 H   0  0  0  0  0  0  0  0  0  0  0  0
  150.1426  140.1921  157.2470 H   0  0  0  0  0  0  0  0  0  0  0  0
  149.8116  142.1654  155.7852 H   0  0  0  0  0  0  0  0  0  0  0  0
  151.2918  141.6772  154.9856 H   0  0  0  0  0  0  0  0  0  0  0  0
  150.1394  140.0913  153.7771 H   0  0  0  0  0  0  0  0  0  0  0  0
  149.5519  139.3554  155.2497 H   0  0  0  0  0  0  0  0  0  0  0  0
  148.5476  142.9006  154.1973 H   0  0  0  0  0  0  0  0  0  0  0  0
  145.8561  142.8414  153.7506 H   0  0  0  0  0  0  0  0  0  0  0  0
  145.2429  140.1505  154.0005 H   0  0  0  0  0  0  0  0  0  0  0  0
  152.3079  143.5727  158.9425 H   0  0  0  0  0  0  0  0  0  0  0  0
  153.8544  143.7989  159.7011 H   0  0  0  0  0  0  0  0  0  0  0  0
  1  2  1  0  0  0  0
  1 19  1  0  0  0  0
  1 20  1  0  0  0  0
  1 21  1  0  0  0  0
  2 18  1  0  0  0  0
  2  3  1  0  0  0  0
  2 22  1  0  0  0  0
  3  4  1  0  0  0  0
  3 23  1  0  0  0  0
  3 24  1  0  0  0  0
  4  5  1  0  0  0  0
  4 25  1  0  0  0  0
  4 26  1  0  0  0  0
  5  6  1  0  0  0  0
  5 27  1  0  0  0  0
  5 28  1  0  0  0  0
  6  7  1  0  0  0  0
  6 18  1  0  0  0  0
  7  8  2  0  0  0  0
  7  9  1  0  0  0  0
  9 10  1  0  0  0  0
  9 29  1  0  0  0  0
  9 30  1  0  0  0  0
 10 11  1  0  0  0  0
 10 31  1  0  0  0  0
 11 12  1  0  0  0  0
 11 32  1  0  0  0  0
 11 33  1  0  0  0  0
 12 13  1  0  0  0  0
 12 34  1  0  0  0  0
 12 35  1  0  0  0  0
 13 17  1  0  0  0  0
 13 14  1  0  0  0  0
 14 15  2  0  0  0  0
 14 36  1  0  0  0  0
 15 16  1  0  0  0  0
 15 37  1  0  0  0  0
 16 17  2  0  0  0  0
 16 38  1  0  0  0  0
 18 39  1  0  0  0  0
 18 40  1  0  0  0  0
M  END
> <s_m_source_file>
AV-unprocessed.smi

> <i_m_source_file_index>
3327

> <i_lp_mmshare_version>
43012

> <i_f3d_flags>
0

> <s_epik_input>
W0NIM11bQ0BASF0xW0NIMl1bQ0gyXVtDSDJdTihbQ0gyXTEpQyg9TylbQ0gyXVtOSF1bQ0gyXVtDSDJdbjJbY0hdW2NIXVtjSF1uMg==

> <s_epik_cmdline>
J2VwaWtfcHl0aG9uJywgJy1waCcsICc3LjAnLCAnLXRuJywgJzgnLCAnLW1hJywgJzIwMCcsICctbWV0YWxfYmluZGluZycsICctaW1hZScsICc8aW5maWxlLm1hZT4nLCAnLW9tYWUnLCAnPG91dGZpbGUubWFlPic=

> <r_lp_tautomer_probability>
1

> <r_epik_Ionization_Penalty>
0.752964

> <r_epik_Ionization_Penalty_Charging>
0

> <r_epik_Ionization_Penalty_Neutral>
0.752964

> <r_epik_State_Penalty>
0.778238

> <r_epik_Charging_Adjusted_Penalty>
0.778238

> <i_epik_Tot_Q>
0

> <i_epik_Tot_abs_Q>
0

> <r_epik_Metal_State_Penalty>
0.776974

> <b_epik_Metal_Only>
0

> <s_lp_Force_Field>
OPLS_2005

> <r_lp_Energy>
27.1089

> <b_lp_Chiralities_Consistent>
1

> <s_lp_Variant>
AV-unprocessed.smi:3327-3

> <Gold.Version>
5.8.1

> <Gold.Id.Protein>
6NUR|6NUR_protein|mol2

> <Gold.PLP.Fitness>
48.3651

> <Gold.PLP.PLP>
-41.2701

> <Gold.PLP.part.hbond>
-1.0000

> <Gold.PLP.part.metal>
0.0000

> <Gold.PLP.part.buried>
1.5902

> <Gold.PLP.part.nonpolar>
-39.4453

> <Gold.PLP.part.repulsive>
0.1211

> <Gold.PLP.ligand.clash>
0.0000

> <Gold.PLP.ligand.torsion>
0.9700

> <Gold.PLP.Chemscore.Hbond>
0.9913

> <Gold.PLP.Chemscore.CHOScore>
2.0000

> <Gold.PLP.Chemscore.Metal>
0.0000

> <Gold.Chemscore.Hbonds>
donor molecule, donor type, donor heavy atom, donor atom, acceptor molecule, acceptor atom, score
      P1  H  7997  8010       L1     8  0.94
      L1  C    14    36       P1  8028  1.00
      L1  C    16    38       P1 10175  0.98

> <Gold.PLP.Chemscore.Internal.Correction>
0.0612

> <Gold.Rescore>
     Score         DG    S(hbond)    S(metal)    S(lipo)     H(rot)  DE(clash)    DE(int)     intcor
     14.17     -16.81       0.85        0.00     110.45       1.73       1.72       0.92       ----

> <Gold.Chemscore.Fitness>
14.1681

> <Gold.Chemscore.DG>
-16.8146

> <Gold.Chemscore.ZeroCoef>
-5.4800

> <Gold.Chemscore.Hbond>
0.8504

> <Gold.Chemscore.Metal>
0.0000

> <Gold.Chemscore.Lipo>
110.4454

> <Gold.Chemscore.Internal_Hbond>
0.0000

> <Gold.Chemscore.DEClash>
1.7221

> <Gold.Chemscore.DEInternal>
0.9244

> <Gold.Chemscore.Rot>
1.7296

> <Gold.Chemscore.Internal.Correction>
   9.000000E+99

> <Gold.Chemscore.Hbonds>
donor molecule, donor type, donor heavy atom, donor atom, acceptor molecule, acceptor atom, score
      P1  H  7997  8010       L1     8  0.31

> <Gold.Chemscore.Hbond.Weighted>
-2.8403

> <Gold.Chemscore.Metal.Weighted>
-0.0000

> <Gold.Chemscore.Lipo.Weighted>
-12.9221

> <Gold.Chemscore.Internal_Hbond.Weighted>
0.0000

> <Gold.Chemscore.DEClash.Weighted>
1.7221

> <Gold.Chemscore.DEInternal.Weighted>
0.9244

> <Gold.Chemscore.Rot.Weighted>
4.4278

> <Gold.Chemscore.Internal.Correction.Weighted>
   9.000000E+99

> <Gold.Protein.RotatedTorsions>
[ 6907 6896 6895 6894 ] final   88.50 input  -60.11 | X-H torsion
[ 7974 7965 7964 7962 ] final  159.86 input  175.53 | X-H torsion
[ 8008 7997 7996 7995 ] final   33.92 input   59.86 | X-H torsion
[ 10167 10162 10161 10158 ] final  112.20 input  -65.29 | X-H torsion
[ 10718 10713 10712 10709 ] final   53.68 input   66.30 | X-H torsion
[ 10763 10752 10751 10750 ] final   54.52 input  -60.55 | X-H torsion
[ 11005 11000 10999 10996 ] final -110.98 input  -57.11 | X-H torsion

> <Gold.Protein.ActiveResidues>
 VAL166  LYS551  ARG553  GLY616  TRP617  ASP618  TYR619  PRO620  LYS621  CYS622 
 ASP623  PHE694  ASN695  SER759  ASP760  ASP761  ALA762  ILE779  LEU786  VAL792 
 PHE793  MET794  SER795  GLU796  ALA797  LYS798  CYS799  TRP800  GLU811  SER814 

> <Gold.Protein.RotatedAtoms>
  152.5426  134.2111  159.8750 H   0  0  0  0  0  0  0  0  0  0  0  0  # atno 6907 bound_to 6896
  151.2094  133.4558  159.2605 H   0  0  0  0  0  0  0  0  0  0  0  0  # atno 6908 bound_to 6896
  151.0912  134.9929  159.8459 H   0  0  0  0  0  0  0  0  0  0  0  0  # atno 6909 bound_to 6896
  144.7767  139.7676  143.6276 H   0  0  0  0  0  0  0  0  0  0  0  0  # atno 7974 bound_to 7965
  155.1464  140.3271  155.4440 H   0  0  0  0  0  0  0  0  0  0  0  0  # atno 8008 bound_to 7997
  156.2588  140.1984  156.6528 H   0  0  0  0  0  0  0  0  0  0  0  0  # atno 8009 bound_to 7997
  154.6505  140.0559  156.9936 H   0  0  0  0  0  0  0  0  0  0  0  0  # atno 8010 bound_to 7997
  139.6553  144.7129  151.1968 H   0  0  0  0  0  0  0  0  0  0  0  0  # atno 10167 bound_to 10162
  157.5188  130.8551  149.8531 H   0  0  0  0  0  0  0  0  0  0  0  0  # atno 10718 bound_to 10713
  152.9806  135.5742  154.4918 H   0  0  0  0  0  0  0  0  0  0  0  0  # atno 10763 bound_to 10752
  154.4451  135.2777  155.1822 H   0  0  0  0  0  0  0  0  0  0  0  0  # atno 10764 bound_to 10752
  154.3474  135.6216  153.5679 H   0  0  0  0  0  0  0  0  0  0  0  0  # atno 10765 bound_to 10752
  141.0761  133.9299  157.2387 H   0  0  0  0  0  0  0  0  0  0  0  0  # atno 11005 bound_to 11000
  146.1951  139.5214  142.9779 LP  0  0  0  0  0  0  0  0  0  0  0  0  # atno 17320 bound_to 7965
  145.6165  141.0330  143.1938 LP  0  0  0  0  0  0  0  0  0  0  0  0  # atno 17321 bound_to 7965
  140.7556  143.6082  150.8632 LP  0  0  0  0  0  0  0  0  0  0  0  0  # atno 17342 bound_to 10162
  139.9734  143.6031  152.2966 LP  0  0  0  0  0  0  0  0  0  0  0  0  # atno 17343 bound_to 10162
  156.0339  130.3757  150.1613 LP  0  0  0  0  0  0  0  0  0  0  0  0  # atno 17370 bound_to 10713
  156.9801  130.9861  151.3439 LP  0  0  0  0  0  0  0  0  0  0  0  0  # atno 17371 bound_to 10713
  139.9573  135.0162  156.9164 LP  0  0  0  0  0  0  0  0  0  0  0  0  # atno 17394 bound_to 11000
  140.5571  134.0571  155.7387 LP  0  0  0  0  0  0  0  0  0  0  0  0  # atno 17395 bound_to 11000

$$$$
