AV-unprocessed.smi:527|AV-procd|sdf|2819|dock2
  -GOLD-   2262023303D 1   1.00000     0.00000
 Structure written by MMmdl.
 42 43  0  0  0  0  0  0  0  0  1 V2000
  149.4025  140.9258  156.0920 C   0  0  0  0  0  0  0  0  0  0  0  0
  149.2202  140.8957  154.5605 C   0  0  2  0  0  0  0  0  0  0  0  0
  148.0373  141.7779  154.1126 C   0  0  0  0  0  0  0  0  0  0  0  0
  146.6796  141.1497  154.4629 C   0  0  0  0  0  0  0  0  0  0  0  0
  146.5526  139.7381  153.8737 C   0  0  0  0  0  0  0  0  0  0  0  0
  147.7189  138.8250  154.3075 C   0  0  1  0  0  0  0  0  0  0  0  0
  147.5922  137.5217  153.6575 N   0  0  0  0  0  0  0  0  0  0  0  0
  146.5560  136.6811  153.7947 C   0  0  0  0  0  0  0  0  0  0  0  0
  145.5760  136.9238  154.5026 O   0  0  0  0  0  0  0  0  0  0  0  0
  146.7423  135.5638  153.0656 N   0  0  0  0  0  0  0  0  0  0  0  0
  145.8997  134.5194  152.9301 C   0  0  0  0  0  0  0  0  0  0  0  0
  144.7920  134.4335  153.4666 O   0  0  0  0  0  0  0  0  0  0  0  0
  146.4195  133.3892  152.0314 C   0  0  0  0  0  0  0  0  0  0  0  0
  145.3971  132.8399  151.1569 N   0  0  0  0  0  0  0  0  0  0  0  0
  144.0529  133.1886  151.1142 C   0  0  0  0  0  0  0  0  0  0  0  0
  143.4760  132.4116  150.1351 C   0  0  0  0  0  0  0  0  0  0  0  0
  144.4400  131.5831  149.5653 N   0  0  0  0  0  0  0  0  0  0  0  0
  145.5518  131.8945  150.2192 C   0  0  0  0  0  0  0  0  0  0  0  0
  149.0873  139.4689  153.9637 C   0  0  2  0  0  0  0  0  0  0  0  0
  150.2848  138.5680  154.3255 C   0  0  0  0  0  0  0  0  0  0  0  0
  148.5742  140.4498  156.6155 H   0  0  0  0  0  0  0  0  0  0  0  0
  149.4710  141.9517  156.4547 H   0  0  0  0  0  0  0  0  0  0  0  0
  150.3192  140.4213  156.3963 H   0  0  0  0  0  0  0  0  0  0  0  0
  150.1215  141.3424  154.1384 H   0  0  0  0  0  0  0  0  0  0  0  0
  148.1153  142.7704  154.5579 H   0  0  0  0  0  0  0  0  0  0  0  0
  148.0904  141.9284  153.0336 H   0  0  0  0  0  0  0  0  0  0  0  0
  146.5537  141.1093  155.5451 H   0  0  0  0  0  0  0  0  0  0  0  0
  145.8731  141.7796  154.0866 H   0  0  0  0  0  0  0  0  0  0  0  0
  145.5995  139.3037  154.1780 H   0  0  0  0  0  0  0  0  0  0  0  0
  146.5246  139.8065  152.7852 H   0  0  0  0  0  0  0  0  0  0  0  0
  147.6689  138.6799  155.3881 H   0  0  0  0  0  0  0  0  0  0  0  0
  148.3608  137.2356  153.0691 H   0  0  0  0  0  0  0  0  0  0  0  0
  147.6155  135.4986  152.5639 H   0  0  0  0  0  0  0  0  0  0  0  0
  147.2420  133.7594  151.4177 H   0  0  0  0  0  0  0  0  0  0  0  0
  146.8163  132.5850  152.6523 H   0  0  0  0  0  0  0  0  0  0  0  0
  143.6305  133.9408  151.7640 H   0  0  0  0  0  0  0  0  0  0  0  0
  142.4497  132.3851  149.7996 H   0  0  0  0  0  0  0  0  0  0  0  0
  146.5013  131.4237  150.0113 H   0  0  0  0  0  0  0  0  0  0  0  0
  149.1174  139.5883  152.8792 H   0  0  0  0  0  0  0  0  0  0  0  0
  150.2720  138.2862  155.3785 H   0  0  0  0  0  0  0  0  0  0  0  0
  151.2301  139.0728  154.1248 H   0  0  0  0  0  0  0  0  0  0  0  0
  150.2833  137.6473  153.7419 H   0  0  0  0  0  0  0  0  0  0  0  0
  1  2  1  0  0  0  0
  1 21  1  0  0  0  0
  1 22  1  0  0  0  0
  1 23  1  0  0  0  0
  2 19  1  0  0  0  0
  2  3  1  0  0  0  0
  2 24  1  0  0  0  0
  3  4  1  0  0  0  0
  3 25  1  0  0  0  0
  3 26  1  0  0  0  0
  4  5  1  0  0  0  0
  4 27  1  0  0  0  0
  4 28  1  0  0  0  0
  5  6  1  0  0  0  0
  5 29  1  0  0  0  0
  5 30  1  0  0  0  0
  6  7  1  0  0  0  0
  6 19  1  0  0  0  0
  6 31  1  0  0  0  0
  7  8  1  0  0  0  0
  7 32  1  0  0  0  0
  8  9  2  0  0  0  0
  8 10  1  0  0  0  0
 10 11  1  0  0  0  0
 10 33  1  0  0  0  0
 11 12  2  0  0  0  0
 11 13  1  0  0  0  0
 13 14  1  0  0  0  0
 13 34  1  0  0  0  0
 13 35  1  0  0  0  0
 14 18  1  0  0  0  0
 14 15  1  0  0  0  0
 15 16  2  0  0  0  0
 15 36  1  0  0  0  0
 16 17  1  0  0  0  0
 16 37  1  0  0  0  0
 17 18  2  0  0  0  0
 18 38  1  0  0  0  0
 19 20  1  0  0  0  0
 19 39  1  0  0  0  0
 20 40  1  0  0  0  0
 20 41  1  0  0  0  0
 20 42  1  0  0  0  0
M  END
> <s_m_source_file>
AV-unprocessed.smi

> <i_m_source_file_index>
527

> <i_lp_mmshare_version>
43012

> <i_f3d_flags>
0

> <s_epik_input>
W0NIM11bQ0BASF0xW0NIMl1bQ0gyXVtDSDJdW0NASF0oW0NASF0xW0NIM10pW05IXUMoPU8pW05IXUMoPU8pW0NIMl1uMltjSF1bY0hdbltjSF0y

> <s_epik_cmdline>
J2VwaWtfcHl0aG9uJywgJy1waCcsICc3LjAnLCAnLXRuJywgJzgnLCAnLW1hJywgJzIwMCcsICctbWV0YWxfYmluZGluZycsICctaW1hZScsICc8aW5maWxlLm1hZT4nLCAnLW9tYWUnLCAnPG91dGZpbGUubWFlPic=

> <r_lp_tautomer_probability>
1

> <r_epik_Ionization_Penalty>
0.172132

> <r_epik_Ionization_Penalty_Charging>
0.172105

> <r_epik_Ionization_Penalty_Neutral>
2.71747e-05

> <r_epik_State_Penalty>
0.161503

> <r_epik_Charging_Adjusted_Penalty>
0.333607

> <i_epik_Tot_Q>
0

> <i_epik_Tot_abs_Q>
0

> <r_epik_Metal_State_Penalty>
0.124763

> <b_epik_Metal_Only>
0

> <s_lp_Force_Field>
OPLS_2005

> <r_lp_Energy>
17.7357

> <b_lp_Chiralities_Consistent>
1

> <s_lp_Variant>
AV-unprocessed.smi:527-5

> <Gold.Version>
5.8.1

> <Gold.Id.Protein>
6NUR|6NUR_protein|mol2

> <Gold.PLP.Fitness>
46.2983

> <Gold.PLP.PLP>
-31.2502

> <Gold.PLP.part.hbond>
-3.0000

> <Gold.PLP.part.metal>
0.0000

> <Gold.PLP.part.buried>
-0.6477

> <Gold.PLP.part.nonpolar>
-28.8089

> <Gold.PLP.part.repulsive>
0.2942

> <Gold.PLP.ligand.clash>
0.0000

> <Gold.PLP.ligand.torsion>
0.2770

> <Gold.PLP.Chemscore.Hbond>
2.4524

> <Gold.PLP.Chemscore.CHOScore>
2.7428

> <Gold.PLP.Chemscore.Metal>
0.0000

> <Gold.Chemscore.Hbonds>
donor molecule, donor type, donor heavy atom, donor atom, acceptor molecule, acceptor atom, score
      L1  H     7    32       P1  7948  0.99
      L1  H    10    33       P1  7948  1.00
      P1  H 10785 10796       L1    17  0.44
      L1  C    16    37       P1 10186  0.89
      L1  C    16    37       P1 10952  0.80
      L1  C    18    38       P1 10747  0.98

> <Gold.PLP.Chemscore.Internal.Correction>
0.0166

> <Gold.Rescore>
     Score         DG    S(hbond)    S(metal)    S(lipo)     H(rot)  DE(clash)    DE(int)     intcor
     14.57     -17.94       2.63        0.00      67.80       1.66       0.19       3.19       ----

> <Gold.Chemscore.Fitness>
14.5682

> <Gold.Chemscore.DG>
-17.9440

> <Gold.Chemscore.ZeroCoef>
-5.4800

> <Gold.Chemscore.Hbond>
2.6312

> <Gold.Chemscore.Metal>
0.0000

> <Gold.Chemscore.Lipo>
67.8021

> <Gold.Chemscore.Internal_Hbond>
0.0000

> <Gold.Chemscore.DEClash>
0.1864

> <Gold.Chemscore.DEInternal>
3.1893

> <Gold.Chemscore.Rot>
1.6629

> <Gold.Chemscore.Internal.Correction>
   9.000000E+99

> <Gold.Chemscore.Hbonds>
donor molecule, donor type, donor heavy atom, donor atom, acceptor molecule, acceptor atom, score
      L1  H     7    32       P1  7948  0.94
      L1  H    10    33       P1  7948  0.96
      P1  H 10785 10796       L1    17  0.11

> <Gold.Chemscore.Hbond.Weighted>
-8.7881

> <Gold.Chemscore.Metal.Weighted>
-0.0000

> <Gold.Chemscore.Lipo.Weighted>
-7.9328

> <Gold.Chemscore.Internal_Hbond.Weighted>
0.0000

> <Gold.Chemscore.DEClash.Weighted>
0.1864

> <Gold.Chemscore.DEInternal.Weighted>
3.1893

> <Gold.Chemscore.Rot.Weighted>
4.2569

> <Gold.Chemscore.Internal.Correction.Weighted>
   9.000000E+99

> <Gold.Protein.RotatedTorsions>
[ 6907 6896 6895 6894 ] final   12.97 input  -60.11 | X-H torsion
[ 7974 7965 7964 7962 ] final   -8.27 input  175.53 | X-H torsion
[ 8008 7997 7996 7995 ] final   -8.15 input   59.86 | X-H torsion
[ 10167 10162 10161 10158 ] final -158.71 input  -65.29 | X-H torsion
[ 10718 10713 10712 10709 ] final   65.64 input   66.30 | X-H torsion
[ 10763 10752 10751 10750 ] final -147.11 input  -60.55 | X-H torsion
[ 11005 11000 10999 10996 ] final   25.80 input  -57.11 | X-H torsion

> <Gold.Protein.ActiveResidues>
 VAL166  LYS551  ARG553  GLY616  TRP617  ASP618  TYR619  PRO620  LYS621  CYS622 
 ASP623  PHE694  ASN695  SER759  ASP760  ASP761  ALA762  ILE779  LEU786  VAL792 
 PHE793  MET794  SER795  GLU796  ALA797  LYS798  CYS799  TRP800  GLU811  SER814 

> <Gold.Protein.RotatedAtoms>
  151.7788  135.0767  160.0370 H   0  0  0  0  0  0  0  0  0  0  0  0  # atno 6907 bound_to 6896
  152.3237  133.5878  159.5770 H   0  0  0  0  0  0  0  0  0  0  0  0  # atno 6908 bound_to 6896
  150.7384  133.9888  159.3642 H   0  0  0  0  0  0  0  0  0  0  0  0  # atno 6909 bound_to 6896
  146.2285  140.2443  142.8344 H   0  0  0  0  0  0  0  0  0  0  0  0  # atno 7974 bound_to 7965
  154.5769  140.2388  155.8109 H   0  0  0  0  0  0  0  0  0  0  0  0  # atno 8008 bound_to 7997
  156.2150  140.3015  155.9776 H   0  0  0  0  0  0  0  0  0  0  0  0  # atno 8009 bound_to 7997
  155.2610  140.0414  157.2988 H   0  0  0  0  0  0  0  0  0  0  0  0  # atno 8010 bound_to 7997
  139.6671  143.9810  152.2261 H   0  0  0  0  0  0  0  0  0  0  0  0  # atno 10167 bound_to 10162
  157.6119  130.9225  150.0004 H   0  0  0  0  0  0  0  0  0  0  0  0  # atno 10718 bound_to 10713
  154.8302  135.3369  154.6766 H   0  0  0  0  0  0  0  0  0  0  0  0  # atno 10763 bound_to 10752
  153.7387  135.6947  153.4976 H   0  0  0  0  0  0  0  0  0  0  0  0  # atno 10764 bound_to 10752
  153.2259  135.4433  155.0493 H   0  0  0  0  0  0  0  0  0  0  0  0  # atno 10765 bound_to 10752
  140.3439  134.2302  155.7687 H   0  0  0  0  0  0  0  0  0  0  0  0  # atno 11005 bound_to 11000
  144.9460  140.8129  143.5601 LP  0  0  0  0  0  0  0  0  0  0  0  0  # atno 17320 bound_to 7965
  145.2399  139.2077  143.4998 LP  0  0  0  0  0  0  0  0  0  0  0  0  # atno 17321 bound_to 7965
  139.9565  144.6586  150.8121 LP  0  0  0  0  0  0  0  0  0  0  0  0  # atno 17342 bound_to 10162
  140.7603  143.3149  151.2756 LP  0  0  0  0  0  0  0  0  0  0  0  0  # atno 17343 bound_to 10162
  156.1225  130.3645  149.9864 LP  0  0  0  0  0  0  0  0  0  0  0  0  # atno 17370 bound_to 10713
  156.7942  130.9267  151.3646 LP  0  0  0  0  0  0  0  0  0  0  0  0  # atno 17371 bound_to 10713
  141.2031  133.7921  157.0358 LP  0  0  0  0  0  0  0  0  0  0  0  0  # atno 17394 bound_to 11000
  140.0758  134.9676  157.1543 LP  0  0  0  0  0  0  0  0  0  0  0  0  # atno 17395 bound_to 11000

$$$$
