AV-unprocessed.smi:658|AV-procd|sdf|3234|dock5
  -GOLD-   22720 0183D 1   1.00000     0.00000
 Structure written by MMmdl.
 37 37  0  0  0  0  0  0  0  0  3 V2000
  144.7950  135.3961  154.0143 C   0  0  0  0  0  0  0  0  0  0  0  0
  145.9157  135.4333  152.9623 C   0  0  2  0  0  0  0  0  0  0  0  0
  146.6851  136.6911  153.1031 N   0  3  0  0  0  0  0  0  0  0  0  0
  147.0780  137.0323  154.4838 C   0  0  0  0  0  0  0  0  0  0  0  0
  147.7564  138.4051  154.5306 C   0  0  0  0  0  0  0  0  0  0  0  0
  149.1346  138.4021  153.8584 C   0  0  0  0  0  0  0  0  0  0  0  0
  150.4713  138.2013  155.1083 S   0  0  0  0  0  0  0  0  0  0  0  0
  151.2543  136.9229  154.5140 N   0  5  0  0  0  0  0  0  0  0  0  0
  151.2686  139.4356  155.0417 O   0  0  0  0  0  0  0  0  0  0  0  0
  149.7931  137.9036  156.3787 O   0  0  0  0  0  0  0  0  0  0  0  0
  145.3871  135.2506  151.5154 C   0  0  2  0  0  0  0  0  0  0  0  0
  144.1378  136.1031  151.2223 C   0  0  0  0  0  0  0  0  0  0  0  0
  145.1865  133.8515  151.1483 N   0  0  0  0  0  0  0  0  0  0  0  0
  144.0284  133.2453  150.7047 C   0  0  0  0  0  0  0  0  0  0  0  0
  144.3165  131.9314  150.4704 C   0  0  0  0  0  0  0  0  0  0  0  0
  145.6960  131.8239  150.7984 C   0  0  0  0  0  0  0  0  0  0  0  0
  146.2146  132.9734  151.1979 N   0  0  0  0  0  0  0  0  0  0  0  0
  144.2151  134.4762  153.9364 H   0  0  0  0  0  0  0  0  0  0  0  0
  144.1059  136.2342  153.9034 H   0  0  0  0  0  0  0  0  0  0  0  0
  145.2059  135.4399  155.0234 H   0  0  0  0  0  0  0  0  0  0  0  0
  146.5782  134.5915  153.1715 H   0  0  0  0  0  0  0  0  0  0  0  0
  147.5252  136.6061  152.5477 H   0  0  0  0  0  0  0  0  0  0  0  0
  146.1928  137.0283  155.1212 H   0  0  0  0  0  0  0  0  0  0  0  0
  147.7579  136.2681  154.8630 H   0  0  0  0  0  0  0  0  0  0  0  0
  147.1184  139.1435  154.0431 H   0  0  0  0  0  0  0  0  0  0  0  0
  147.8610  138.7233  155.5685 H   0  0  0  0  0  0  0  0  0  0  0  0
  149.2180  137.5845  153.1420 H   0  0  0  0  0  0  0  0  0  0  0  0
  149.3096  139.3355  153.3231 H   0  0  0  0  0  0  0  0  0  0  0  0
  150.9215  136.7616  153.5561 H   0  0  0  0  0  0  0  0  0  0  0  0
  146.1665  135.6270  150.8508 H   0  0  0  0  0  0  0  0  0  0  0  0
  144.3314  137.1588  151.4132 H   0  0  0  0  0  0  0  0  0  0  0  0
  143.2871  135.8082  151.8375 H   0  0  0  0  0  0  0  0  0  0  0  0
  143.8376  136.0086  150.1782 H   0  0  0  0  0  0  0  0  0  0  0  0
  143.1038  133.7927  150.5946 H   0  0  0  0  0  0  0  0  0  0  0  0
  143.6437  131.1633  150.1184 H   0  0  0  0  0  0  0  0  0  0  0  0
  146.3322  130.9520  150.7563 H   0  0  0  0  0  0  0  0  0  0  0  0
  146.1340  137.4493  152.7274 H   0  0  0  0  0  0  0  0  0  0  0  0
  1  2  1  0  0  0  0
  1 18  1  0  0  0  0
  1 19  1  0  0  0  0
  1 20  1  0  0  0  0
  2  3  1  0  0  0  0
  2 11  1  0  0  0  0
  2 21  1  0  0  0  0
  3  4  1  0  0  0  0
  3 22  1  0  0  0  0
  3 37  1  0  0  0  0
  4  5  1  0  0  0  0
  4 23  1  0  0  0  0
  4 24  1  0  0  0  0
  5  6  1  0  0  0  0
  5 25  1  0  0  0  0
  5 26  1  0  0  0  0
  6  7  1  0  0  0  0
  6 27  1  0  0  0  0
  6 28  1  0  0  0  0
  7  8  1  0  0  0  0
  7  9  2  0  0  0  0
  7 10  2  0  0  0  0
  8 29  1  0  0  0  0
 11 12  1  0  0  0  0
 11 13  1  0  0  0  0
 11 30  1  0  0  0  0
 12 31  1  0  0  0  0
 12 32  1  0  0  0  0
 12 33  1  0  0  0  0
 13 17  1  0  0  0  0
 13 14  1  0  0  0  0
 14 15  2  0  0  0  0
 14 34  1  0  0  0  0
 15 16  1  0  0  0  0
 15 35  1  0  0  0  0
 16 17  2  0  0  0  0
 16 36  1  0  0  0  0
M  CHG  1   3   1
M  CHG  1   8  -1
M  END
> <s_m_source_file>
AV-unprocessed.smi

> <i_m_source_file_index>
658

> <i_lp_mmshare_version>
43012

> <i_f3d_flags>
0

> <s_epik_input>
bjFbY0hdW2NIXVtjSF1uMVtDQEBIXShbQ0gzXSlbQ0BIXShbQ0gzXSlbTkhdW0NIMl1bQ0gyXVtDSDJdUyg9TykoPU8pW05IMl0=

> <s_epik_cmdline>
J2VwaWtfcHl0aG9uJywgJy1waCcsICc3LjAnLCAnLXRuJywgJzgnLCAnLW1hJywgJzIwMCcsICctbWV0YWxfYmluZGluZycsICctaW1hZScsICc8aW5maWxlLm1hZT4nLCAnLW9tYWUnLCAnPG91dGZpbGUubWFlPic=

> <r_lp_tautomer_probability>
1

> <r_epik_Ionization_Penalty>
4.63642

> <r_epik_Ionization_Penalty_Charging>
4.63641

> <r_epik_Ionization_Penalty_Neutral>
1.08396e-05

> <r_epik_State_Penalty>
4.63466

> <r_epik_Charging_Adjusted_Penalty>
9.27106

> <i_epik_Tot_Q>
0

> <i_epik_Tot_abs_Q>
2

> <r_epik_Metal_State_Penalty>
0.890424

> <b_epik_Metal_Only>
1

> <s_lp_Force_Field>
OPLS_2005

> <r_lp_Energy>
0.307927

> <b_lp_Chiralities_Consistent>
1

> <s_lp_Variant>
AV-unprocessed.smi:658-5

> <Gold.Version>
5.8.1

> <Gold.Id.Protein>
6NUR|6NUR_protein|mol2

> <Gold.PLP.Fitness>
45.7054

> <Gold.PLP.PLP>
-23.5033

> <Gold.PLP.part.hbond>
-4.0000

> <Gold.PLP.part.metal>
0.0000

> <Gold.PLP.part.buried>
-0.5088

> <Gold.PLP.part.nonpolar>
-18.9889

> <Gold.PLP.part.repulsive>
0.2496

> <Gold.PLP.ligand.clash>
0.0000

> <Gold.PLP.ligand.torsion>
0.8467

> <Gold.PLP.Chemscore.Hbond>
5.9280

> <Gold.PLP.Chemscore.CHOScore>
1.9451

> <Gold.PLP.Chemscore.Metal>
0.0000

> <Gold.Chemscore.Hbonds>
donor molecule, donor type, donor heavy atom, donor atom, acceptor molecule, acceptor atom, score
      L1  H     3    22       P1  7948  2.00
      L1  H     8    29       P1  7949  0.51
      P1  H  7989  7998       L1     9  0.75
      P1  H 10752 10763       L1     8  1.50
      L1  C    14    34       P1 10186  1.00
      L1  C    16    36       P1 10747  0.60

> <Gold.PLP.Chemscore.Internal.Correction>
0.2763

> <Gold.Rescore>
     Score         DG    S(hbond)    S(metal)    S(lipo)     H(rot)  DE(clash)    DE(int)     intcor
     10.43     -11.48       2.33        0.00      51.35       3.04       0.16       0.89       ----

> <Gold.Chemscore.Fitness>
10.4272

> <Gold.Chemscore.DG>
-11.4784

> <Gold.Chemscore.ZeroCoef>
-5.4800

> <Gold.Chemscore.Hbond>
2.3279

> <Gold.Chemscore.Metal>
0.0000

> <Gold.Chemscore.Lipo>
51.3500

> <Gold.Chemscore.Internal_Hbond>
0.0000

> <Gold.Chemscore.DEClash>
0.1635

> <Gold.Chemscore.DEInternal>
0.8877

> <Gold.Chemscore.Rot>
3.0409

> <Gold.Chemscore.Internal.Correction>
   9.000000E+99

> <Gold.Chemscore.Hbonds>
donor molecule, donor type, donor heavy atom, donor atom, acceptor molecule, acceptor atom, score
      L1  H     3    22       P1  7948  0.99
      L1  H     8    29       P1  7949  0.11
      P1  H  7989  7998       L1     9  0.73
      P1  H 10752 10763       L1     8  0.19

> <Gold.Chemscore.Hbond.Weighted>
-7.7753

> <Gold.Chemscore.Metal.Weighted>
-0.0000

> <Gold.Chemscore.Lipo.Weighted>
-6.0080

> <Gold.Chemscore.Internal_Hbond.Weighted>
0.0000

> <Gold.Chemscore.DEClash.Weighted>
0.1635

> <Gold.Chemscore.DEInternal.Weighted>
0.8877

> <Gold.Chemscore.Rot.Weighted>
7.7848

> <Gold.Chemscore.Internal.Correction.Weighted>
   9.000000E+99

> <Gold.Protein.RotatedTorsions>
[ 6907 6896 6895 6894 ] final  -52.43 input  -60.11 | X-H torsion
[ 7974 7965 7964 7962 ] final   17.29 input  175.53 | X-H torsion
[ 8008 7997 7996 7995 ] final -107.53 input   59.86 | X-H torsion
[ 10167 10162 10161 10158 ] final -100.53 input  -65.29 | X-H torsion
[ 10718 10713 10712 10709 ] final  -57.20 input   66.30 | X-H torsion
[ 10763 10752 10751 10750 ] final   57.34 input  -60.55 | X-H torsion
[ 11005 11000 10999 10996 ] final  -61.13 input  -57.11 | X-H torsion

> <Gold.Protein.ActiveResidues>
 VAL166  LYS551  ARG553  GLY616  TRP617  ASP618  TYR619  PRO620  LYS621  CYS622 
 ASP623  PHE694  ASN695  SER759  ASP760  ASP761  ALA762  ILE779  LEU786  VAL792 
 PHE793  MET794  SER795  GLU796  ALA797  LYS798  CYS799  TRP800  GLU811  SER814 

> <Gold.Protein.RotatedAtoms>
  150.8518  134.7845  159.7014 H   0  0  0  0  0  0  0  0  0  0  0  0  # atno 6907 bound_to 6896
  152.4581  134.5243  159.9802 H   0  0  0  0  0  0  0  0  0  0  0  0  # atno 6908 bound_to 6896
  151.5363  133.3402  159.2963 H   0  0  0  0  0  0  0  0  0  0  0  0  # atno 6909 bound_to 6896
  146.2223  139.8623  142.8602 H   0  0  0  0  0  0  0  0  0  0  0  0  # atno 7974 bound_to 7965
  154.9308  140.0405  157.2047 H   0  0  0  0  0  0  0  0  0  0  0  0  # atno 8008 bound_to 7997
  154.8163  140.2876  155.5796 H   0  0  0  0  0  0  0  0  0  0  0  0  # atno 8009 bound_to 7997
  156.2976  140.2527  156.3061 H   0  0  0  0  0  0  0  0  0  0  0  0  # atno 8010 bound_to 7997
  140.2510  143.3473  152.0715 H   0  0  0  0  0  0  0  0  0  0  0  0  # atno 10167 bound_to 10162
  156.1229  130.4165  150.0408 H   0  0  0  0  0  0  0  0  0  0  0  0  # atno 10718 bound_to 10713
  152.9848  135.5645  154.5375 H   0  0  0  0  0  0  0  0  0  0  0  0  # atno 10763 bound_to 10752
  154.4835  135.2789  155.1554 H   0  0  0  0  0  0  0  0  0  0  0  0  # atno 10764 bound_to 10752
  154.3053  135.6299  153.5495 H   0  0  0  0  0  0  0  0  0  0  0  0  # atno 10765 bound_to 10752
  141.1313  133.6627  156.5328 H   0  0  0  0  0  0  0  0  0  0  0  0  # atno 11005 bound_to 11000
  145.2691  141.0103  143.3782 LP  0  0  0  0  0  0  0  0  0  0  0  0  # atno 17320 bound_to 7965
  144.9237  139.4380  143.6528 LP  0  0  0  0  0  0  0  0  0  0  0  0  # atno 17321 bound_to 7965
  139.5046  144.6779  151.6082 LP  0  0  0  0  0  0  0  0  0  0  0  0  # atno 17342 bound_to 10162
  140.6041  143.9557  150.6406 LP  0  0  0  0  0  0  0  0  0  0  0  0  # atno 17343 bound_to 10162
  156.8341  130.9403  151.3635 LP  0  0  0  0  0  0  0  0  0  0  0  0  # atno 17370 bound_to 10713
  157.6412  130.8807  149.9452 LP  0  0  0  0  0  0  0  0  0  0  0  0  # atno 17371 bound_to 10713
  140.4202  134.7194  157.4885 LP  0  0  0  0  0  0  0  0  0  0  0  0  # atno 17394 bound_to 11000
  140.0365  134.6329  155.9036 LP  0  0  0  0  0  0  0  0  0  0  0  0  # atno 17395 bound_to 11000

$$$$
