#       Name:                AV-unprocessed.smi:730
#       Creating user name   scv26
#       Creation time:       Fri Mar 27 00:51:51 2020


#       File generated by GOLD software.
#

@<TRIPOS>MOLECULE
AV-unprocessed.smi:730
    47    48     1
SMALL
NO_CHARGES


@<TRIPOS>ATOM
      1 ****        -4.4063  -2.8121  -0.2413 C.3            1 S1                 0.0000
      2 ****        -4.5457  -1.2866  -0.4163 C.3            1 S1                 0.0000
      3 ****        -5.1191  -1.0090  -1.8186 C.3            1 S1                 0.0000
      4 ****        -5.5306  -0.7640   0.6463 C.3            1 S1                 0.0000
      5 ****        -3.2140  -0.6063  -0.2612 C.2            1 S1                 0.0000
      6 ****        -1.9486  -1.0599  -0.0033 C.2            1 S1                 0.0000
      7 ****        -1.1720   0.1287   0.0078 C.2            1 S1                 0.0000
      8 ****         0.2252   0.0827   0.2468 N.am           1 S1                 0.0000
      9 ****         1.0846   1.1152   0.2818 C.2            1 S1                 0.0000
     10 ****         0.7846   2.2960   0.1028 O.2            1 S1                 0.0000
     11 ****         2.3333   0.7006   0.5374 N.am           1 S1                 0.0000
     12 ****         3.5040   1.5721   0.6418 C.3            1 S1                 0.0000
     13 ****         4.0347   1.9781  -0.7505 C.3            1 S1                 0.0000
     14 ****         5.5312   1.6534  -0.7543 C.3            1 S1                 0.0000
     15 ****         5.6772   0.5156   0.2512 C.3            1 S1                 0.0000
     16 ****         4.6887   0.8831   1.3588 C.3            1 S1                 0.0000
     17 ****         4.3419  -0.2502   2.1330 O.3            1 S1                 0.0000
     18 ****        -1.8928   1.2146  -0.2210 N.2            1 S1                 0.0000
     19 ****        -3.2013   0.7503  -0.3943 O.3            1 S1                 0.0000
     20 ****        -5.3677  -3.3150  -0.3506 H              1 S1                 0.0000
     21 ****        -4.0163  -3.0661   0.7452 H              1 S1                 0.0000
     22 ****        -3.7298  -3.2382  -0.9831 H              1 S1                 0.0000
     23 ****        -4.4489  -1.3709  -2.5994 H              1 S1                 0.0000
     24 ****        -5.2692   0.0584  -1.9851 H              1 S1                 0.0000
     25 ****        -6.0832  -1.4989  -1.9595 H              1 S1                 0.0000
     26 ****        -6.5037  -1.2488   0.5614 H              1 S1                 0.0000
     27 ****        -5.6922   0.3100   0.5473 H              1 S1                 0.0000
     28 ****        -5.1584  -0.9475   1.6549 H              1 S1                 0.0000
     29 ****        -1.6304  -2.0801   0.1523 H              1 S1                 0.0000
     30 ****         0.6123  -0.8352   0.4075 H              1 S1                 0.0000
     31 ****         2.4932  -0.2871   0.6734 H              1 S1                 0.0000
     32 ****         3.2281   2.4617   1.2114 H              1 S1                 0.0000
     33 ****         3.5440   1.3996  -1.5350 H              1 S1                 0.0000
     34 ****         3.8495   3.0307  -0.9670 H              1 S1                 0.0000
     35 ****         5.9003   1.3887  -1.7455 H              1 S1                 0.0000
     36 ****         6.0964   2.5204  -0.4095 H              1 S1                 0.0000
     37 ****         5.3853  -0.4244  -0.2202 H              1 S1                 0.0000
     38 ****         6.6983   0.4041   0.6171 H              1 S1                 0.0000
     39 ****         5.1657   1.6091   2.0191 H              1 S1                 0.0000
     40 ****         3.7514   0.0255   2.8174 H              1 S1                 0.0000
     41 ****        -0.1645   2.5476  -0.0865 LP             1 S1                 0.0000
     42 ****         1.4901   3.0034   0.1467 LP             1 S1                 0.0000
     43 ****         5.1655  -0.6478   2.5374 LP             1 S1                 0.0000
     44 ****         3.8932  -0.9306   1.5536 LP             1 S1                 0.0000
     45 ****        -1.5722   2.1610  -0.2613 LP             1 S1                 0.0000
     46 ****        -3.7965   1.1603   0.2969 LP             1 S1                 0.0000
     47 ****        -3.5275   1.0005  -1.3059 LP             1 S1                 0.0000
@<TRIPOS>BOND
    1    1    2 1     
    2    1   20 1     
    3    1   21 1     
    4    1   22 1     
    5    2    3 1     
    6    2    4 1     
    7    2    5 1     
    8    3   23 1     
    9    3   24 1     
   10    3   25 1     
   11    4   26 1     
   12    4   27 1     
   13    4   28 1     
   14    5   19 1     
   15    5    6 2     
   16    6    7 1     
   17    6   29 1     
   18    7    8 1     
   19    7   18 2     
   20    8    9 am    
   21    8   30 1     
   22    9   10 2     
   23    9   11 am    
   24   11   12 1     
   25   11   31 1     
   26   12   16 1     
   27   12   13 1     
   28   12   32 1     
   29   13   14 1     
   30   13   33 1     
   31   13   34 1     
   32   14   15 1     
   33   14   35 1     
   34   14   36 1     
   35   15   16 1     
   36   15   37 1     
   37   15   38 1     
   38   16   17 1     
   39   16   39 1     
   40   17   40 1     
   41   18   19 1     
   42   10   41 1     
   43   10   42 1     
   44   17   43 1     
   45   17   44 1     
   46   18   45 1     
   47   19   46 1     
   48   19   47 1     
@<TRIPOS>SUBSTRUCTURE
      1 S1             1
@<TRIPOS>SET
LONE_PAIRS      STATIC     ATOMS    <user>   **** ""
7 41 42 43 44 45 46 47
DONOR_HYDROGENS      STATIC     ATOMS    <user>   **** ""
3 30 31 40
ATOM$BLUE        STATIC     ATOMS    COLORGROUP SYSTEM
7 41 42 43 44 45 46 47
ATOM$RED        STATIC     ATOMS    COLORGROUP SYSTEM
3 30 31 40
