AV-unprocessed.smi:1776|AV-procd|sdf|7176|dock5
  -GOLD-   22720 8413D 1   1.00000     0.00000
 Structure written by MMmdl.
 30 31  0  0  0  0  0  0  0  0  2 V2000
  150.8078  141.5304  155.6502 O   0  0  0  0  0  0  0  0  0  0  0  0
  151.2116  140.4233  156.0061 C   0  0  0  0  0  0  0  0  0  0  0  0
  151.8446  140.1628  157.1678 N   0  0  0  0  0  0  0  0  0  0  0  0
  152.1934  141.0181  158.2286 C   0  0  0  0  0  0  0  0  0  0  0  0
  151.7181  142.2820  158.4108 C   0  0  0  0  0  0  0  0  0  0  0  0
  152.1190  143.1119  159.5401 C   0  0  0  0  0  0  0  0  0  0  0  0
  151.6822  144.5548  159.7225 C   0  0  0  0  0  0  0  0  0  0  0  0
  150.3531  144.6533  159.7612 F   0  0  0  0  0  0  0  0  0  0  0  0
  152.1746  145.0639  160.8520 F   0  0  0  0  0  0  0  0  0  0  0  0
  152.1242  145.2944  158.7064 F   0  0  0  0  0  0  0  0  0  0  0  0
  153.0258  142.4740  160.3640 C   0  0  0  0  0  0  0  0  0  0  0  0
  153.5279  141.2237  160.2690 N   0  5  0  0  0  0  0  0  0  0  0  0
  153.1439  140.4553  159.2110 C   0  0  0  0  0  0  0  0  0  0  0  0
  153.5696  139.3093  159.0609 O   0  0  0  0  0  0  0  0  0  0  0  0
  150.9931  139.2023  155.0998 C   0  0  1  0  0  0  0  0  0  0  0  0
  152.2329  138.2822  155.0041 C   0  0  0  0  0  0  0  0  0  0  0  0
  151.9266  137.1633  154.1817 O   0  0  0  0  0  0  0  0  0  0  0  0
  150.8408  136.4146  154.7099 C   0  0  0  0  0  0  0  0  0  0  0  0
  149.6033  137.3223  154.7940 C   0  0  0  0  0  0  0  0  0  0  0  0
  149.9055  138.4399  155.6179 O   0  0  0  0  0  0  0  0  0  0  0  0
  152.1351  139.2048  157.3022 H   0  0  0  0  0  0  0  0  0  0  0  0
  151.0118  142.7185  157.7259 H   0  0  0  0  0  0  0  0  0  0  0  0
  153.4088  143.0581  161.2276 H   0  0  0  0  0  0  0  0  0  0  0  0
  150.7330  139.5722  154.1063 H   0  0  0  0  0  0  0  0  0  0  0  0
  153.0745  138.8140  154.5590 H   0  0  0  0  0  0  0  0  0  0  0  0
  152.5520  137.9420  155.9910 H   0  0  0  0  0  0  0  0  0  0  0  0
  150.6437  135.5635  154.0580 H   0  0  0  0  0  0  0  0  0  0  0  0
  151.0984  136.0153  155.6921 H   0  0  0  0  0  0  0  0  0  0  0  0
  149.2961  137.6567  153.8019 H   0  0  0  0  0  0  0  0  0  0  0  0
  148.7627  136.7791  155.2258 H   0  0  0  0  0  0  0  0  0  0  0  0
  1  2  2  0  0  0  0
  2  3  1  0  0  0  0
  2 15  1  0  0  0  0
  3  4  1  0  0  0  0
  3 21  1  0  0  0  0
  4 13  1  0  0  0  0
  4  5  2  0  0  0  0
  5  6  1  0  0  0  0
  5 22  1  0  0  0  0
  6  7  1  0  0  0  0
  6 11  2  0  0  0  0
  7  8  1  0  0  0  0
  7  9  1  0  0  0  0
  7 10  1  0  0  0  0
 11 12  1  0  0  0  0
 11 23  1  0  0  0  0
 12 13  1  0  0  0  0
 13 14  2  0  0  0  0
 15 20  1  0  0  0  0
 15 16  1  0  0  0  0
 15 24  1  0  0  0  0
 16 17  1  0  0  0  0
 16 25  1  0  0  0  0
 16 26  1  0  0  0  0
 17 18  1  0  0  0  0
 18 19  1  0  0  0  0
 18 27  1  0  0  0  0
 18 28  1  0  0  0  0
 19 20  1  0  0  0  0
 19 29  1  0  0  0  0
 19 30  1  0  0  0  0
M  CHG  1  12  -1
M  END
> <s_m_source_file>
AV-unprocessed.smi

> <i_m_source_file_index>
1776

> <i_lp_mmshare_version>
43012

> <i_f3d_flags>
0

> <s_epik_input>
TzFbQ0gyXVtDSDJdT1tDSDJdW0NASF0xQyg9TylbTkhdYzJbY0hdYyhDKEYpKEYpRilbY0hdW25IXWMyPU8=

> <s_epik_cmdline>
J2VwaWtfcHl0aG9uJywgJy1waCcsICc3LjAnLCAnLXRuJywgJzgnLCAnLW1hJywgJzIwMCcsICctbWV0YWxfYmluZGluZycsICctaW1hZScsICc8aW5maWxlLm1hZT4nLCAnLW9tYWUnLCAnPG91dGZpbGUubWFlPic=

> <r_epik_Ionization_Penalty>
2.46925

> <r_epik_Ionization_Penalty_Charging>
0.0509887

> <r_epik_Ionization_Penalty_Neutral>
2.41826

> <r_epik_State_Penalty>
2.57741

> <r_epik_Charging_Adjusted_Penalty>
2.6284

> <i_epik_Tot_Q>
-1

> <i_epik_Tot_abs_Q>
1

> <r_epik_Metal_State_Penalty>
0.510263

> <b_epik_Metal_Only>
0

> <s_lp_Force_Field>
OPLS_2005

> <r_lp_Energy>
25.1464

> <b_lp_Chiralities_Consistent>
1

> <s_lp_Variant>
AV-unprocessed.smi:1776-4

> <Gold.Version>
5.8.1

> <Gold.Id.Protein>
6NUR|6NUR_protein|mol2

> <Gold.PLP.Fitness>
40.5253

> <Gold.PLP.PLP>
-39.0901

> <Gold.PLP.part.hbond>
-2.0000

> <Gold.PLP.part.metal>
0.0000

> <Gold.PLP.part.buried>
-4.2767

> <Gold.PLP.part.nonpolar>
-33.8339

> <Gold.PLP.part.repulsive>
0.9884

> <Gold.PLP.ligand.clash>
0.0000

> <Gold.PLP.ligand.torsion>
0.5693

> <Gold.PLP.Chemscore.Hbond>
0.8400

> <Gold.PLP.Chemscore.CHOScore>
0.0000

> <Gold.PLP.Chemscore.Metal>
0.0000

> <Gold.Chemscore.Hbonds>
donor molecule, donor type, donor heavy atom, donor atom, acceptor molecule, acceptor atom, score
      P1  H  7989  7998       L1     1  0.02
      P1  H 10752 10765       L1    17  0.73

> <Gold.PLP.Chemscore.Internal.Correction>
0.0537

> <Gold.Rescore>
     Score         DG    S(hbond)    S(metal)    S(lipo)     H(rot)  DE(clash)    DE(int)     intcor
     11.12     -13.72       0.59        0.00      75.44       1.00       0.76       1.84       ----

> <Gold.Chemscore.Fitness>
11.1184

> <Gold.Chemscore.DG>
-13.7231

> <Gold.Chemscore.ZeroCoef>
-5.4800

> <Gold.Chemscore.Hbond>
0.5918

> <Gold.Chemscore.Metal>
0.0000

> <Gold.Chemscore.Lipo>
75.4402

> <Gold.Chemscore.Internal_Hbond>
0.0000

> <Gold.Chemscore.DEClash>
0.7637

> <Gold.Chemscore.DEInternal>
1.8410

> <Gold.Chemscore.Rot>
1.0000

> <Gold.Chemscore.Internal.Correction>
   9.000000E+99

> <Gold.Chemscore.Hbonds>
donor molecule, donor type, donor heavy atom, donor atom, acceptor molecule, acceptor atom, score
      P1  H 10752 10765       L1    17  0.14

> <Gold.Chemscore.Hbond.Weighted>
-1.9766

> <Gold.Chemscore.Metal.Weighted>
-0.0000

> <Gold.Chemscore.Lipo.Weighted>
-8.8265

> <Gold.Chemscore.Internal_Hbond.Weighted>
0.0000

> <Gold.Chemscore.DEClash.Weighted>
0.7637

> <Gold.Chemscore.DEInternal.Weighted>
1.8410

> <Gold.Chemscore.Rot.Weighted>
2.5600

> <Gold.Chemscore.Internal.Correction.Weighted>
   9.000000E+99

> <Gold.Protein.RotatedTorsions>
[ 6907 6896 6895 6894 ] final   76.50 input  -60.11 | X-H torsion
[ 7974 7965 7964 7962 ] final   20.45 input  175.53 | X-H torsion
[ 8008 7997 7996 7995 ] final  -40.91 input   59.86 | X-H torsion
[ 10167 10162 10161 10158 ] final   38.29 input  -65.29 | X-H torsion
[ 10718 10713 10712 10709 ] final   92.71 input   66.30 | X-H torsion
[ 10763 10752 10751 10750 ] final  134.35 input  -60.55 | X-H torsion
[ 11005 11000 10999 10996 ] final -123.81 input  -57.11 | X-H torsion

> <Gold.Protein.ActiveResidues>
 VAL166  LYS551  ARG553  GLY616  TRP617  ASP618  TYR619  PRO620  LYS621  CYS622 
 ASP623  PHE694  ASN695  SER759  ASP760  ASP761  ALA762  ILE779  LEU786  VAL792 
 PHE793  MET794  SER795  GLU796  ALA797  LYS798  CYS799  TRP800  GLU811  SER814 

> <Gold.Protein.RotatedAtoms>
  152.5076  134.3958  159.9399 H   0  0  0  0  0  0  0  0  0  0  0  0  # atno 6907 bound_to 6896
  151.3920  133.3779  159.2730 H   0  0  0  0  0  0  0  0  0  0  0  0  # atno 6908 bound_to 6896
  150.9425  134.8854  159.7680 H   0  0  0  0  0  0  0  0  0  0  0  0  # atno 6909 bound_to 6896
  146.2111  139.8168  142.8688 H   0  0  0  0  0  0  0  0  0  0  0  0  # atno 7974 bound_to 7965
  154.4008  140.1513  156.3105 H   0  0  0  0  0  0  0  0  0  0  0  0  # atno 8008 bound_to 7997
  155.8619  140.3453  155.5741 H   0  0  0  0  0  0  0  0  0  0  0  0  # atno 8009 bound_to 7997
  155.7870  140.0851  157.2019 H   0  0  0  0  0  0  0  0  0  0  0  0  # atno 8010 bound_to 7997
  140.3951  144.1800  150.6132 H   0  0  0  0  0  0  0  0  0  0  0  0  # atno 10167 bound_to 10162
  157.6958  131.0452  150.3922 H   0  0  0  0  0  0  0  0  0  0  0  0  # atno 10718 bound_to 10713
  153.8222  135.3115  155.3411 H   0  0  0  0  0  0  0  0  0  0  0  0  # atno 10763 bound_to 10752
  154.8008  135.4728  154.0274 H   0  0  0  0  0  0  0  0  0  0  0  0  # atno 10764 bound_to 10752
  153.1686  135.6874  153.8729 H   0  0  0  0  0  0  0  0  0  0  0  0  # atno 10765 bound_to 10752
  140.9890  134.0566  157.3677 H   0  0  0  0  0  0  0  0  0  0  0  0  # atno 11005 bound_to 11000
  145.3138  141.0227  143.3539 LP  0  0  0  0  0  0  0  0  0  0  0  0  # atno 17320 bound_to 7965
  144.8916  139.4767  143.6675 LP  0  0  0  0  0  0  0  0  0  0  0  0  # atno 17321 bound_to 7965
  140.4799  143.2383  151.8970 LP  0  0  0  0  0  0  0  0  0  0  0  0  # atno 17342 bound_to 10162
  139.4787  144.5280  151.8707 LP  0  0  0  0  0  0  0  0  0  0  0  0  # atno 17343 bound_to 10162
  156.4325  130.3975  149.6751 LP  0  0  0  0  0  0  0  0  0  0  0  0  # atno 17370 bound_to 10713
  156.3963  130.7652  151.2657 LP  0  0  0  0  0  0  0  0  0  0  0  0  # atno 17371 bound_to 10713
  139.8983  135.0154  156.7144 LP  0  0  0  0  0  0  0  0  0  0  0  0  # atno 17394 bound_to 11000
  140.7070  133.9257  155.8060 LP  0  0  0  0  0  0  0  0  0  0  0  0  # atno 17395 bound_to 11000

$$$$
