#       Name:                AV-unprocessed.smi:712
#       Creating user name   scv26
#       Creation time:       Fri Mar 27 00:46:21 2020


#       File generated by GOLD software.
#

@<TRIPOS>MOLECULE
AV-unprocessed.smi:712
    57    58     1
SMALL
NO_CHARGES


@<TRIPOS>ATOM
      1 ****        -2.6941   2.2720  -2.4874 C.3            1 S1                 0.0000
      2 ****        -2.5742   1.9724  -1.0075 C.2            1 S1                 0.0000
      3 ****        -1.4409   2.4565  -0.2484 C.2            1 S1                 0.0000
      4 ****        -1.3498   2.1533   1.0552 C.2            1 S1                 0.0000
      5 ****        -2.3295   1.3860   1.7114 N.am           1 S1                 0.0000
      6 ****        -2.0898   1.0874   3.1354 C.3            1 S1                 0.0000
      7 ****        -1.2602  -0.1852   3.3804 C.2            1 S1                 0.0000
      8 ****        -0.6485  -0.3094   4.4405 O.2            1 S1                 0.0000
      9 ****        -1.2098  -1.0994   2.3978 N.am           1 S1                 0.0000
     10 ****        -0.3639  -2.2860   2.3750 C.3            1 S1                 0.0000
     11 ****         0.9776  -1.9912   1.6820 C.3            1 S1                 0.0000
     12 ****         0.8050  -1.4758   0.2355 C.3            1 S1                 0.0000
     13 ****         2.0871  -1.2684  -0.4314 N.3            1 S1                 0.0000
     14 ****         1.9408  -0.7946  -1.8091 C.3            1 S1                 0.0000
     15 ****         1.3219   0.6103  -1.9780 C.3            1 S1                 0.0000
     16 ****         1.1687   0.9567  -3.4656 C.3            1 S1                 0.0000
     17 ****         2.1419   1.6910  -1.2544 C.3            1 S1                 0.0000
     18 ****         2.8506  -2.5100  -0.3837 C.3            1 S1                 0.0000
     19 ****         3.0217  -3.0248   1.0555 C.3            1 S1                 0.0000
     20 ****         1.7421  -3.1933   1.6570 O.3            1 S1                 0.0000
     21 ****        -3.4337   0.9147   1.0571 C.2            1 S1                 0.0000
     22 ****        -4.2930   0.2401   1.6243 O.2            1 S1                 0.0000
     23 ****        -3.5183   1.2445  -0.3707 C.2            1 S1                 0.0000
     24 ****        -1.7280   2.5520  -2.9082 H              1 S1                 0.0000
     25 ****        -3.3910   3.0940  -2.6509 H              1 S1                 0.0000
     26 ****        -3.0569   1.3982  -3.0296 H              1 S1                 0.0000
     27 ****        -0.6721   3.0472  -0.7242 H              1 S1                 0.0000
     28 ****        -0.5240   2.4716   1.6753 H              1 S1                 0.0000
     29 ****        -1.5771   1.9291   3.6039 H              1 S1                 0.0000
     30 ****        -3.0304   0.9938   3.6802 H              1 S1                 0.0000
     31 ****        -1.7565  -0.9229   1.5675 H              1 S1                 0.0000
     32 ****        -0.1967  -2.6648   3.3845 H              1 S1                 0.0000
     33 ****        -0.8958  -3.0701   1.8356 H              1 S1                 0.0000
     34 ****         1.5195  -1.2466   2.2687 H              1 S1                 0.0000
     35 ****         0.2016  -2.1839  -0.3344 H              1 S1                 0.0000
     36 ****         0.2479  -0.5405   0.2630 H              1 S1                 0.0000
     37 ****         2.9237  -0.7839  -2.2825 H              1 S1                 0.0000
     38 ****         1.3491  -1.5158  -2.3748 H              1 S1                 0.0000
     39 ****         0.3169   0.6092  -1.5589 H              1 S1                 0.0000
     40 ****         2.1355   0.9789  -3.9695 H              1 S1                 0.0000
     41 ****         0.7031   1.9341  -3.5957 H              1 S1                 0.0000
     42 ****         0.5425   0.2250  -3.9770 H              1 S1                 0.0000
     43 ****         3.1677   1.7227  -1.6225 H              1 S1                 0.0000
     44 ****         2.1782   1.5084  -0.1801 H              1 S1                 0.0000
     45 ****         1.7054   2.6794  -1.4000 H              1 S1                 0.0000
     46 ****         2.3516  -3.2742  -0.9819 H              1 S1                 0.0000
     47 ****         3.8339  -2.3576  -0.8301 H              1 S1                 0.0000
     48 ****         3.5445  -3.9813   1.0562 H              1 S1                 0.0000
     49 ****         3.6217  -2.3307   1.6461 H              1 S1                 0.0000
     50 ****        -4.3671   0.8799  -0.9312 H              1 S1                 0.0000
     51 ****        -0.6938   0.4122   5.1314 LP             1 S1                 0.0000
     52 ****        -0.1059  -1.1318   4.6113 LP             1 S1                 0.0000
     53 ****         2.5775  -0.5457   0.0556 LP             1 S1                 0.0000
     54 ****         1.2351  -3.8830   1.1401 LP             1 S1                 0.0000
     55 ****         1.8707  -3.5090   2.5971 LP             1 S1                 0.0000
     56 ****        -4.1960   0.0204   2.5950 LP             1 S1                 0.0000
     57 ****        -5.0881  -0.0881   1.1144 LP             1 S1                 0.0000
@<TRIPOS>BOND
    1    1    2 1     
    2    1   24 1     
    3    1   25 1     
    4    1   26 1     
    5    2   23 2     
    6    2    3 1     
    7    3    4 2     
    8    3   27 1     
    9    4    5 1     
   10    4   28 1     
   11    5    6 1     
   12    5   21 am    
   13    6    7 1     
   14    6   29 1     
   15    6   30 1     
   16    7    8 2     
   17    7    9 am    
   18    9   10 1     
   19    9   31 1     
   20   10   11 1     
   21   10   32 1     
   22   10   33 1     
   23   11   20 1     
   24   11   12 1     
   25   11   34 1     
   26   12   13 1     
   27   12   35 1     
   28   12   36 1     
   29   13   14 1     
   30   13   18 1     
   31   14   15 1     
   32   14   37 1     
   33   14   38 1     
   34   15   16 1     
   35   15   17 1     
   36   15   39 1     
   37   16   40 1     
   38   16   41 1     
   39   16   42 1     
   40   17   43 1     
   41   17   44 1     
   42   17   45 1     
   43   18   19 1     
   44   18   46 1     
   45   18   47 1     
   46   19   20 1     
   47   19   48 1     
   48   19   49 1     
   49   21   22 2     
   50   21   23 1     
   51   23   50 1     
   52    8   51 1     
   53    8   52 1     
   54   13   53 1     
   55   20   54 1     
   56   20   55 1     
   57   22   56 1     
   58   22   57 1     
@<TRIPOS>SUBSTRUCTURE
      1 S1             1
@<TRIPOS>SET
LONE_PAIRS      STATIC     ATOMS    <user>   **** ""
7 51 52 53 54 55 56 57
DONOR_HYDROGENS      STATIC     ATOMS    <user>   **** ""
1 31
ATOM$BLUE        STATIC     ATOMS    COLORGROUP SYSTEM
7 51 52 53 54 55 56 57
ATOM$RED        STATIC     ATOMS    COLORGROUP SYSTEM
1 31
