AV-unprocessed.smi:1210|AV-procd|sdf|5077|dock2
  -GOLD-   22720 4123D 1   1.00000     0.00000
 Structure written by MMmdl.
 44 45  0  0  0  0  0  0  0  0  1 V2000
  152.9565  137.7442  156.9136 C   0  0  0  0  0  0  0  0  0  0  0  0
  151.7630  137.1635  157.6167 C   0  0  0  0  0  0  0  0  0  0  0  0
  151.7430  137.1243  158.9384 N   0  0  0  0  0  0  0  0  0  0  0  0
  150.5177  136.5477  159.2863 O   0  0  0  0  0  0  0  0  0  0  0  0
  149.8389  136.2612  158.1464 C   0  0  0  0  0  0  0  0  0  0  0  0
  148.4929  135.6391  158.3044 C   0  0  0  0  0  0  0  0  0  0  0  0
  150.5711  136.6254  157.0500 C   0  0  0  0  0  0  0  0  0  0  0  0
  150.2054  136.4946  155.5937 C   0  0  0  0  0  0  0  0  0  0  0  0
  149.9832  135.0217  155.2501 C   0  0  0  0  0  0  0  0  0  0  0  0
  150.3902  134.1432  156.0103 O   0  0  0  0  0  0  0  0  0  0  0  0
  149.3208  134.7672  154.1114 N   0  0  0  0  0  0  0  0  0  0  0  0
  148.9547  133.4407  153.6331 C   0  0  0  0  0  0  0  0  0  0  0  0
  147.4468  133.1804  153.8071 C   0  0  0  0  0  0  0  0  0  0  0  0
  146.8542  132.6261  152.5813 N   0  0  0  0  0  0  0  0  0  0  0  0
  146.7742  133.5491  151.4386 C   0  0  0  0  0  0  0  0  0  0  0  0
  145.3224  133.8545  151.0208 C   0  0  0  0  0  0  0  0  0  0  0  0
  144.6872  132.7750  150.1316 C   0  0  0  0  0  0  0  0  0  0  0  0
  144.5337  131.4057  150.8090 C   0  0  0  0  0  0  0  0  0  0  0  0
  145.8760  130.7791  151.2203 C   0  0  0  0  0  0  0  0  0  0  0  0
  146.4132  131.3459  152.5406 C   0  0  0  0  0  0  0  0  0  0  0  0
  146.4417  130.6028  153.5224 O   0  0  0  0  0  0  0  0  0  0  0  0
  152.7938  138.7959  156.6776 H   0  0  0  0  0  0  0  0  0  0  0  0
  153.1547  137.2216  155.9779 H   0  0  0  0  0  0  0  0  0  0  0  0
  153.8567  137.6757  157.5256 H   0  0  0  0  0  0  0  0  0  0  0  0
  147.7382  136.2134  157.7672 H   0  0  0  0  0  0  0  0  0  0  0  0
  148.1999  135.5946  159.3534 H   0  0  0  0  0  0  0  0  0  0  0  0
  148.4894  134.6231  157.9096 H   0  0  0  0  0  0  0  0  0  0  0  0
  149.3100  137.0709  155.3576 H   0  0  0  0  0  0  0  0  0  0  0  0
  150.9928  136.8850  154.9481 H   0  0  0  0  0  0  0  0  0  0  0  0
  149.0263  135.5519  153.5482 H   0  0  0  0  0  0  0  0  0  0  0  0
  149.2310  133.3808  152.5800 H   0  0  0  0  0  0  0  0  0  0  0  0
  149.5384  132.6775  154.1507 H   0  0  0  0  0  0  0  0  0  0  0  0
  147.2764  132.5158  154.6549 H   0  0  0  0  0  0  0  0  0  0  0  0
  146.9408  134.1082  154.0805 H   0  0  0  0  0  0  0  0  0  0  0  0
  147.2499  134.4979  151.6881 H   0  0  0  0  0  0  0  0  0  0  0  0
  147.3469  133.1571  150.5973 H   0  0  0  0  0  0  0  0  0  0  0  0
  144.7051  134.0336  151.9023 H   0  0  0  0  0  0  0  0  0  0  0  0
  145.3176  134.7904  150.4612 H   0  0  0  0  0  0  0  0  0  0  0  0
  143.7028  133.1188  149.8130 H   0  0  0  0  0  0  0  0  0  0  0  0
  145.2736  132.6650  149.2187 H   0  0  0  0  0  0  0  0  0  0  0  0
  143.8720  131.4888  151.6726 H   0  0  0  0  0  0  0  0  0  0  0  0
  144.0312  130.7312  150.1148 H   0  0  0  0  0  0  0  0  0  0  0  0
  145.7339  129.7054  151.3512 H   0  0  0  0  0  0  0  0  0  0  0  0
  146.6200  130.8840  150.4298 H   0  0  0  0  0  0  0  0  0  0  0  0
  1  2  1  0  0  0  0
  1 22  1  0  0  0  0
  1 23  1  0  0  0  0
  1 24  1  0  0  0  0
  2  7  1  0  0  0  0
  2  3  2  0  0  0  0
  3  4  1  0  0  0  0
  4  5  1  0  0  0  0
  5  6  1  0  0  0  0
  5  7  2  0  0  0  0
  6 25  1  0  0  0  0
  6 26  1  0  0  0  0
  6 27  1  0  0  0  0
  7  8  1  0  0  0  0
  8  9  1  0  0  0  0
  8 28  1  0  0  0  0
  8 29  1  0  0  0  0
  9 10  2  0  0  0  0
  9 11  1  0  0  0  0
 11 12  1  0  0  0  0
 11 30  1  0  0  0  0
 12 13  1  0  0  0  0
 12 31  1  0  0  0  0
 12 32  1  0  0  0  0
 13 14  1  0  0  0  0
 13 33  1  0  0  0  0
 13 34  1  0  0  0  0
 14 20  1  0  0  0  0
 14 15  1  0  0  0  0
 15 16  1  0  0  0  0
 15 35  1  0  0  0  0
 15 36  1  0  0  0  0
 16 17  1  0  0  0  0
 16 37  1  0  0  0  0
 16 38  1  0  0  0  0
 17 18  1  0  0  0  0
 17 39  1  0  0  0  0
 17 40  1  0  0  0  0
 18 19  1  0  0  0  0
 18 41  1  0  0  0  0
 18 42  1  0  0  0  0
 19 20  1  0  0  0  0
 19 43  1  0  0  0  0
 19 44  1  0  0  0  0
 20 21  2  0  0  0  0
M  END
> <s_m_source_file>
AV-unprocessed.smi

> <i_m_source_file_index>
1210

> <i_lp_mmshare_version>
43012

> <i_f3d_flags>
0

> <s_epik_input>
W0NIM11jMW5vYyhbQ0gzXSljMVtDSDJdQyg9TylbTkhdW0NIMl1bQ0gyXU4yW0NIMl1bQ0gyXVtDSDJdW0NIMl1bQ0gyXUMyPU8=

> <s_epik_cmdline>
J2VwaWtfcHl0aG9uJywgJy1waCcsICc3LjAnLCAnLXRuJywgJzgnLCAnLW1hJywgJzIwMCcsICctbWV0YWxfYmluZGluZycsICctaW1hZScsICc8aW5maWxlLm1hZT4nLCAnLW9tYWUnLCAnPG91dGZpbGUubWFlPic=

> <r_lp_tautomer_probability>
1

> <r_epik_Ionization_Penalty>
5.48219e-08

> <r_epik_Ionization_Penalty_Charging>
0

> <r_epik_Ionization_Penalty_Neutral>
5.48219e-08

> <r_epik_State_Penalty>
-0

> <r_epik_Charging_Adjusted_Penalty>
0

> <i_epik_Tot_Q>
0

> <i_epik_Tot_abs_Q>
0

> <r_epik_Metal_State_Penalty>
-0

> <b_epik_Metal_Only>
0

> <s_lp_Force_Field>
OPLS_2005

> <r_lp_Energy>
11.1007

> <b_lp_Chiralities_Consistent>
1

> <s_lp_Variant>
AV-unprocessed.smi:1210-1

> <Gold.Version>
5.8.1

> <Gold.Id.Protein>
6NUR|6NUR_protein|mol2

> <Gold.PLP.Fitness>
36.0102

> <Gold.PLP.PLP>
-31.4096

> <Gold.PLP.part.hbond>
-2.6653

> <Gold.PLP.part.metal>
0.0000

> <Gold.PLP.part.buried>
-5.5909

> <Gold.PLP.part.nonpolar>
-23.6607

> <Gold.PLP.part.repulsive>
0.2114

> <Gold.PLP.ligand.clash>
0.0000

> <Gold.PLP.ligand.torsion>
0.7130

> <Gold.PLP.Chemscore.Hbond>
2.0000

> <Gold.PLP.Chemscore.CHOScore>
0.0000

> <Gold.PLP.Chemscore.Metal>
0.0000

> <Gold.Chemscore.Hbonds>
donor molecule, donor type, donor heavy atom, donor atom, acceptor molecule, acceptor atom, score
      L1  H    11    30       P1  7948  0.86
      P1  H  6896  6909       L1     4  1.00

> <Gold.PLP.Chemscore.Internal.Correction>
0.0267

> <Gold.Rescore>
     Score         DG    S(hbond)    S(metal)    S(lipo)     H(rot)  DE(clash)    DE(int)     intcor
     11.56     -12.30       0.74        0.00      76.45       1.79       0.02       0.71       ----

> <Gold.Chemscore.Fitness>
11.5632

> <Gold.Chemscore.DG>
-12.2975

> <Gold.Chemscore.ZeroCoef>
-5.4800

> <Gold.Chemscore.Hbond>
0.7369

> <Gold.Chemscore.Metal>
0.0000

> <Gold.Chemscore.Lipo>
76.4507

> <Gold.Chemscore.Internal_Hbond>
0.0000

> <Gold.Chemscore.DEClash>
0.0234

> <Gold.Chemscore.DEInternal>
0.7108

> <Gold.Chemscore.Rot>
1.7923

> <Gold.Chemscore.Internal.Correction>
   9.000000E+99

> <Gold.Chemscore.Hbonds>
donor molecule, donor type, donor heavy atom, donor atom, acceptor molecule, acceptor atom, score
      L1  H    11    30       P1  7948  0.63
      P1  H  6896  6909       L1     4  0.10

> <Gold.Chemscore.Hbond.Weighted>
-2.4611

> <Gold.Chemscore.Metal.Weighted>
-0.0000

> <Gold.Chemscore.Lipo.Weighted>
-8.9447

> <Gold.Chemscore.Internal_Hbond.Weighted>
0.0000

> <Gold.Chemscore.DEClash.Weighted>
0.0234

> <Gold.Chemscore.DEInternal.Weighted>
0.7108

> <Gold.Chemscore.Rot.Weighted>
4.5884

> <Gold.Chemscore.Internal.Correction.Weighted>
   9.000000E+99

> <Gold.Protein.RotatedTorsions>
[ 6907 6896 6895 6894 ] final   79.76 input  -60.11 | X-H torsion
[ 7974 7965 7964 7962 ] final   73.40 input  175.53 | X-H torsion
[ 8008 7997 7996 7995 ] final -143.71 input   59.86 | X-H torsion
[ 10167 10162 10161 10158 ] final  -78.90 input  -65.29 | X-H torsion
[ 10718 10713 10712 10709 ] final  105.59 input   66.30 | X-H torsion
[ 10763 10752 10751 10750 ] final   94.78 input  -60.55 | X-H torsion
[ 11005 11000 10999 10996 ] final  132.71 input  -57.11 | X-H torsion

> <Gold.Protein.ActiveResidues>
 VAL166  LYS551  ARG553  GLY616  TRP617  ASP618  TYR619  PRO620  LYS621  CYS622 
 ASP623  PHE694  ASN695  SER759  ASP760  ASP761  ALA762  ILE779  LEU786  VAL792 
 PHE793  MET794  SER795  GLU796  ALA797  LYS798  CYS799  TRP800  GLU811  SER814 

> <Gold.Protein.RotatedAtoms>
  152.5210  134.3461  159.9234 H   0  0  0  0  0  0  0  0  0  0  0  0  # atno 6907 bound_to 6896
  151.3411  133.3955  159.2679 H   0  0  0  0  0  0  0  0  0  0  0  0  # atno 6908 bound_to 6896
  150.9802  134.9177  159.7898 H   0  0  0  0  0  0  0  0  0  0  0  0  # atno 6909 bound_to 6896
  145.7413  139.2722  143.1484 H   0  0  0  0  0  0  0  0  0  0  0  0  # atno 7974 bound_to 7965
  155.5150  140.0586  157.2917 H   0  0  0  0  0  0  0  0  0  0  0  0  # atno 8008 bound_to 7997
  154.4538  140.1962  156.0388 H   0  0  0  0  0  0  0  0  0  0  0  0  # atno 8009 bound_to 7997
  156.0758  140.3254  155.7636 H   0  0  0  0  0  0  0  0  0  0  0  0  # atno 8010 bound_to 7997
  140.4641  143.2445  151.8304 H   0  0  0  0  0  0  0  0  0  0  0  0  # atno 10167 bound_to 10162
  157.6700  131.0831  150.5879 H   0  0  0  0  0  0  0  0  0  0  0  0  # atno 10718 bound_to 10713
  153.2455  135.4277  155.0743 H   0  0  0  0  0  0  0  0  0  0  0  0  # atno 10763 bound_to 10752
  154.8359  135.3413  154.6587 H   0  0  0  0  0  0  0  0  0  0  0  0  # atno 10764 bound_to 10752
  153.7009  135.7028  153.5120 H   0  0  0  0  0  0  0  0  0  0  0  0  # atno 10765 bound_to 10752
  139.9806  134.9549  156.9620 H   0  0  0  0  0  0  0  0  0  0  0  0  # atno 11005 bound_to 11000
  146.0445  140.8132  142.9812 LP  0  0  0  0  0  0  0  0  0  0  0  0  # atno 17320 bound_to 7965
  144.6870  140.2959  143.7271 LP  0  0  0  0  0  0  0  0  0  0  0  0  # atno 17321 bound_to 7965
  139.4810  144.4971  151.9109 LP  0  0  0  0  0  0  0  0  0  0  0  0  # atno 17342 bound_to 10162
  140.4057  144.2435  150.5891 LP  0  0  0  0  0  0  0  0  0  0  0  0  # atno 17343 bound_to 10162
  156.6179  130.4398  149.5833 LP  0  0  0  0  0  0  0  0  0  0  0  0  # atno 17370 bound_to 10713
  156.2378  130.6833  151.1527 LP  0  0  0  0  0  0  0  0  0  0  0  0  # atno 17371 bound_to 10713
  140.5103  134.1008  155.7269 LP  0  0  0  0  0  0  0  0  0  0  0  0  # atno 17394 bound_to 11000
  141.1479  133.9022  157.2171 LP  0  0  0  0  0  0  0  0  0  0  0  0  # atno 17395 bound_to 11000

$$$$
