AV-unprocessed.smi:3335|AV-procd|sdf|12845|dock1
  -GOLD-   2272019233D 1   1.00000     0.00000
 Structure written by MMmdl.
 46 47  0  0  0  0  0  0  0  0  1 V2000
  152.5655  142.5674  163.5706 C   0  0  0  0  0  0  0  0  0  0  0  0
  152.6737  142.5293  162.0737 C   0  0  0  0  0  0  0  0  0  0  0  0
  153.3969  141.6013  161.2721 C   0  0  0  0  0  0  0  0  0  0  0  0
  153.2905  141.8486  159.9775 N   0  0  0  0  0  0  0  0  0  0  0  0
  152.4940  142.9385  159.9031 N   0  0  0  0  0  0  0  0  0  0  0  0
  152.1587  143.5189  158.6088 C   0  0  2  0  0  0  0  0  0  0  0  0
  152.4867  145.0249  158.6009 C   0  0  0  0  0  0  0  0  0  0  0  0
  150.6894  143.2200  158.2050 C   0  0  2  0  0  0  0  0  0  0  0  0
  149.6499  143.9915  159.0393 C   0  0  0  0  0  0  0  0  0  0  0  0
  150.4210  141.7968  158.3981 N   0  0  0  0  0  0  0  0  0  0  0  0
  150.9365  140.9400  157.3163 C   0  0  2  0  0  0  0  0  0  0  0  0
  150.8265  141.6461  155.9512 C   0  0  0  0  0  0  0  0  0  0  0  0
  150.1674  139.6044  157.2722 C   0  0  0  0  0  0  0  0  0  0  0  0
  149.2089  139.4424  158.0305 O   0  0  0  0  0  0  0  0  0  0  0  0
  150.5531  138.6443  156.4030 N   0  0  0  0  0  0  0  0  0  0  0  0
  151.6742  138.8073  155.4778 C   0  0  0  0  0  0  0  0  0  0  0  0
  151.6221  137.6008  154.5404 C   0  0  0  0  0  0  0  0  0  0  0  0
  150.9121  136.5298  155.3550 C   0  0  0  0  0  0  0  0  0  0  0  0
  149.9575  137.3162  156.2533 C   0  0  0  0  0  0  0  0  0  0  0  0
  152.1087  143.3686  161.1558 C   0  0  0  0  0  0  0  0  0  0  0  0
  153.3628  141.9980  164.0488 H   0  0  0  0  0  0  0  0  0  0  0  0
  151.6199  142.1493  163.9154 H   0  0  0  0  0  0  0  0  0  0  0  0
  152.6263  143.5863  163.9535 H   0  0  0  0  0  0  0  0  0  0  0  0
  153.9946  140.7606  161.5919 H   0  0  0  0  0  0  0  0  0  0  0  0
  152.8136  143.0393  157.8791 H   0  0  0  0  0  0  0  0  0  0  0  0
  152.3876  145.4491  157.6017 H   0  0  0  0  0  0  0  0  0  0  0  0
  153.5117  145.2036  158.9265 H   0  0  0  0  0  0  0  0  0  0  0  0
  151.8244  145.5830  159.2633 H   0  0  0  0  0  0  0  0  0  0  0  0
  150.5490  143.5087  157.1622 H   0  0  0  0  0  0  0  0  0  0  0  0
  149.7271  145.0674  158.8825 H   0  0  0  0  0  0  0  0  0  0  0  0
  149.7749  143.8016  160.1060 H   0  0  0  0  0  0  0  0  0  0  0  0
  148.6339  143.7034  158.7660 H   0  0  0  0  0  0  0  0  0  0  0  0
  149.4337  141.6479  158.5503 H   0  0  0  0  0  0  0  0  0  0  0  0
  151.9858  140.7368  157.5274 H   0  0  0  0  0  0  0  0  0  0  0  0
  151.1788  141.0040  155.1432 H   0  0  0  0  0  0  0  0  0  0  0  0
  151.4251  142.5563  155.9177 H   0  0  0  0  0  0  0  0  0  0  0  0
  149.7953  141.9226  155.7270 H   0  0  0  0  0  0  0  0  0  0  0  0
  151.6150  139.7438  154.9211 H   0  0  0  0  0  0  0  0  0  0  0  0
  152.6054  138.8094  156.0461 H   0  0  0  0  0  0  0  0  0  0  0  0
  151.0255  137.8458  153.6606 H   0  0  0  0  0  0  0  0  0  0  0  0
  152.6089  137.2879  154.1981 H   0  0  0  0  0  0  0  0  0  0  0  0
  150.4001  135.7943  154.7337 H   0  0  0  0  0  0  0  0  0  0  0  0
  151.6396  135.9990  155.9706 H   0  0  0  0  0  0  0  0  0  0  0  0
  149.8202  136.8121  157.2108 H   0  0  0  0  0  0  0  0  0  0  0  0
  148.9821  137.4159  155.7747 H   0  0  0  0  0  0  0  0  0  0  0  0
  151.4729  144.2313  161.2901 H   0  0  0  0  0  0  0  0  0  0  0  0
  1  2  1  0  0  0  0
  1 21  1  0  0  0  0
  1 22  1  0  0  0  0
  1 23  1  0  0  0  0
  2 20  2  0  0  0  0
  2  3  1  0  0  0  0
  3  4  2  0  0  0  0
  3 24  1  0  0  0  0
  4  5  1  0  0  0  0
  5  6  1  0  0  0  0
  5 20  1  0  0  0  0
  6  7  1  0  0  0  0
  6  8  1  0  0  0  0
  6 25  1  0  0  0  0
  7 26  1  0  0  0  0
  7 27  1  0  0  0  0
  7 28  1  0  0  0  0
  8  9  1  0  0  0  0
  8 10  1  0  0  0  0
  8 29  1  0  0  0  0
  9 30  1  0  0  0  0
  9 31  1  0  0  0  0
  9 32  1  0  0  0  0
 10 11  1  0  0  0  0
 10 33  1  0  0  0  0
 11 12  1  0  0  0  0
 11 13  1  0  0  0  0
 11 34  1  0  0  0  0
 12 35  1  0  0  0  0
 12 36  1  0  0  0  0
 12 37  1  0  0  0  0
 13 14  2  0  0  0  0
 13 15  1  0  0  0  0
 15 19  1  0  0  0  0
 15 16  1  0  0  0  0
 16 17  1  0  0  0  0
 16 38  1  0  0  0  0
 16 39  1  0  0  0  0
 17 18  1  0  0  0  0
 17 40  1  0  0  0  0
 17 41  1  0  0  0  0
 18 19  1  0  0  0  0
 18 42  1  0  0  0  0
 18 43  1  0  0  0  0
 19 44  1  0  0  0  0
 19 45  1  0  0  0  0
 20 46  1  0  0  0  0
M  END
> <s_m_source_file>
AV-unprocessed.smi

> <i_m_source_file_index>
3335

> <i_lp_mmshare_version>
43012

> <i_f3d_flags>
0

> <s_epik_input>
W0NIM11jMVtjSF1ubihbY0hdMSlbQ0BIXShbQ0gzXSlbQ0BIXShbQ0gzXSlbTkhdW0NASF0oW0NIM10pQyg9TylOMltDSDJdW0NIMl1bQ0gyXVtDSDJdMg==

> <s_epik_cmdline>
J2VwaWtfcHl0aG9uJywgJy1waCcsICc3LjAnLCAnLXRuJywgJzgnLCAnLW1hJywgJzIwMCcsICctbWV0YWxfYmluZGluZycsICctaW1hZScsICc8aW5maWxlLm1hZT4nLCAnLW9tYWUnLCAnPG91dGZpbGUubWFlPic=

> <r_lp_tautomer_probability>
1

> <r_epik_Ionization_Penalty>
0.918803

> <r_epik_Ionization_Penalty_Charging>
0

> <r_epik_Ionization_Penalty_Neutral>
0.918803

> <r_epik_State_Penalty>
0.958258

> <r_epik_Charging_Adjusted_Penalty>
0.958258

> <i_epik_Tot_Q>
0

> <i_epik_Tot_abs_Q>
0

> <r_epik_Metal_State_Penalty>
0.956786

> <b_epik_Metal_Only>
0

> <s_lp_Force_Field>
OPLS_2005

> <r_lp_Energy>
39.0848

> <b_lp_Chiralities_Consistent>
1

> <s_lp_Variant>
AV-unprocessed.smi:3335-9

> <Gold.Version>
5.8.1

> <Gold.Id.Protein>
6NUR|6NUR_protein|mol2

> <Gold.PLP.Fitness>
44.2572

> <Gold.PLP.PLP>
-45.2987

> <Gold.PLP.part.hbond>
0.0000

> <Gold.PLP.part.metal>
0.0000

> <Gold.PLP.part.buried>
-6.4244

> <Gold.PLP.part.nonpolar>
-38.3893

> <Gold.PLP.part.repulsive>
0.0000

> <Gold.PLP.ligand.clash>
0.0000

> <Gold.PLP.ligand.torsion>
0.7852

> <Gold.PLP.Chemscore.Hbond>
0.0000

> <Gold.PLP.Chemscore.CHOScore>
0.0000

> <Gold.PLP.Chemscore.Metal>
0.0000

> <Gold.PLP.Chemscore.Internal.Correction>
0.5289

> <Gold.Rescore>
     Score         DG    S(hbond)    S(metal)    S(lipo)     H(rot)  DE(clash)    DE(int)     intcor
     15.16     -16.04       0.00        0.00     125.73       1.62       0.11       0.78       ----

> <Gold.Chemscore.Fitness>
15.1551

> <Gold.Chemscore.DG>
-16.0423

> <Gold.Chemscore.ZeroCoef>
-5.4800

> <Gold.Chemscore.Hbond>
0.0000

> <Gold.Chemscore.Metal>
0.0000

> <Gold.Chemscore.Lipo>
125.7304

> <Gold.Chemscore.Internal_Hbond>
0.0000

> <Gold.Chemscore.DEClash>
0.1091

> <Gold.Chemscore.DEInternal>
0.7780

> <Gold.Chemscore.Rot>
1.6204

> <Gold.Chemscore.Internal.Correction>
   9.000000E+99

> <Gold.Chemscore.Hbond.Weighted>
-0.0000

> <Gold.Chemscore.Metal.Weighted>
-0.0000

> <Gold.Chemscore.Lipo.Weighted>
-14.7105

> <Gold.Chemscore.Internal_Hbond.Weighted>
0.0000

> <Gold.Chemscore.DEClash.Weighted>
0.1091

> <Gold.Chemscore.DEInternal.Weighted>
0.7780

> <Gold.Chemscore.Rot.Weighted>
4.1482

> <Gold.Chemscore.Internal.Correction.Weighted>
   9.000000E+99

> <Gold.Protein.RotatedTorsions>
[ 6907 6896 6895 6894 ] final  -96.93 input  -60.11 | X-H torsion
[ 7974 7965 7964 7962 ] final   84.71 input  175.53 | X-H torsion
[ 8008 7997 7996 7995 ] final  130.23 input   59.86 | X-H torsion
[ 10167 10162 10161 10158 ] final   35.28 input  -65.29 | X-H torsion
[ 10718 10713 10712 10709 ] final  -41.06 input   66.30 | X-H torsion
[ 10763 10752 10751 10750 ] final   15.64 input  -60.55 | X-H torsion
[ 11005 11000 10999 10996 ] final   -6.27 input  -57.11 | X-H torsion

> <Gold.Protein.ActiveResidues>
 VAL166  LYS551  ARG553  GLY616  TRP617  ASP618  TYR619  PRO620  LYS621  CYS622 
 ASP623  PHE694  ASN695  SER759  ASP760  ASP761  ALA762  ILE779  LEU786  VAL792 
 PHE793  MET794  SER795  GLU796  ALA797  LYS798  CYS799  TRP800  GLU811  SER814 

> <Gold.Protein.RotatedAtoms>
  150.7002  134.1426  159.4110 H   0  0  0  0  0  0  0  0  0  0  0  0  # atno 6907 bound_to 6896
  151.9411  135.0211  160.0545 H   0  0  0  0  0  0  0  0  0  0  0  0  # atno 6908 bound_to 6896
  152.2093  133.4864  159.5138 H   0  0  0  0  0  0  0  0  0  0  0  0  # atno 6909 bound_to 6896
  145.5951  139.2344  143.2277 H   0  0  0  0  0  0  0  0  0  0  0  0  # atno 7974 bound_to 7965
  156.2951  140.2601  156.2728 H   0  0  0  0  0  0  0  0  0  0  0  0  # atno 8008 bound_to 7997
  154.9678  140.0391  157.2239 H   0  0  0  0  0  0  0  0  0  0  0  0  # atno 8009 bound_to 7997
  154.7887  140.2808  155.6013 H   0  0  0  0  0  0  0  0  0  0  0  0  # atno 8010 bound_to 7997
  140.4236  144.1424  150.6150 H   0  0  0  0  0  0  0  0  0  0  0  0  # atno 10167 bound_to 10162
  156.2745  130.4210  149.8403 H   0  0  0  0  0  0  0  0  0  0  0  0  # atno 10718 bound_to 10713
  153.1506  135.6778  153.8887 H   0  0  0  0  0  0  0  0  0  0  0  0  # atno 10763 bound_to 10752
  153.8315  135.3117  155.3420 H   0  0  0  0  0  0  0  0  0  0  0  0  # atno 10764 bound_to 10752
  154.7859  135.4862  154.0032 H   0  0  0  0  0  0  0  0  0  0  0  0  # atno 10765 bound_to 10752
  140.7002  133.8996  155.8678 H   0  0  0  0  0  0  0  0  0  0  0  0  # atno 11005 bound_to 11000
  146.1618  140.6777  142.9274 LP  0  0  0  0  0  0  0  0  0  0  0  0  # atno 17320 bound_to 7965
  144.7334  140.4738  143.6921 LP  0  0  0  0  0  0  0  0  0  0  0  0  # atno 17321 bound_to 7965
  140.4506  143.2488  151.9353 LP  0  0  0  0  0  0  0  0  0  0  0  0  # atno 17342 bound_to 10162
  139.4783  144.5566  151.8304 LP  0  0  0  0  0  0  0  0  0  0  0  0  # atno 17343 bound_to 10162
  156.5872  130.8491  151.3398 LP  0  0  0  0  0  0  0  0  0  0  0  0  # atno 17370 bound_to 10713
  157.7295  130.9671  150.1788 LP  0  0  0  0  0  0  0  0  0  0  0  0  # atno 17371 bound_to 10713
  141.0170  134.0942  157.4161 LP  0  0  0  0  0  0  0  0  0  0  0  0  # atno 17394 bound_to 11000
  139.8899  135.0108  156.6705 LP  0  0  0  0  0  0  0  0  0  0  0  0  # atno 17395 bound_to 11000

$$$$
