AV-unprocessed.smi:109|AV-procd|sdf|1055|dock9
  -GOLD-   2262018123D 1   1.00000     0.00000
 Structure written by MMmdl.
 58 61  0  0  0  0  0  0  0  0  1 V2000
  153.2275  138.4116  155.8984 O   0  0  0  0  0  0  0  0  0  0  0  0
  153.0077  137.9382  157.2095 C   0  0  0  0  0  0  0  0  0  0  0  0
  151.5834  138.3013  157.6630 C   0  0  0  0  0  0  0  0  0  0  0  0
  151.1878  139.7725  157.3867 C   0  0  2  0  0  0  0  0  0  0  0  0
  151.0901  139.9840  155.9405 N   0  0  0  0  0  0  0  0  0  0  0  0
  149.9187  140.2634  155.3263 C   0  0  0  0  0  0  0  0  0  0  0  0
  149.5116  141.5424  155.1156 N   0  0  0  0  0  0  0  0  0  0  0  0
  148.3476  141.7839  154.5050 C   0  0  0  0  0  0  0  0  0  0  0  0
  147.4545  140.9096  154.0350 N   0  0  0  0  0  0  0  0  0  0  0  0
  147.8589  139.6241  154.2483 C   0  0  0  0  0  0  0  0  0  0  0  0
  149.0671  139.2206  154.8801 C   0  0  0  0  0  0  0  0  0  0  0  0
  149.1378  137.8341  154.9173 N   0  0  0  0  0  0  0  0  0  0  0  0
  148.0333  137.4461  154.3373 C   0  0  0  0  0  0  0  0  0  0  0  0
  147.2075  138.4609  153.9025 N   0  0  0  0  0  0  0  0  0  0  0  0
  145.8860  138.3711  153.2053 C   0  0  2  0  0  0  0  0  0  0  0  0
  145.0799  137.5022  153.9445 O   0  0  0  0  0  0  0  0  0  0  0  0
  144.5817  136.4498  153.1206 C   0  0  2  0  0  0  0  0  0  0  0  0
  144.3366  135.1720  153.9423 C   0  0  0  0  0  0  0  0  0  0  0  0
  143.8880  134.1327  153.0995 O   0  0  0  0  0  0  0  0  0  0  0  0
  145.6148  136.3263  151.9920 C   0  0  2  0  0  0  0  0  0  0  0  0
  146.7013  135.4998  152.3774 O   0  0  0  0  0  0  0  0  0  0  0  0
  146.0204  137.7804  151.7888 C   0  0  2  0  0  0  0  0  0  0  0  0
  147.2890  137.9299  151.1734 O   0  0  0  0  0  0  0  0  0  0  0  0
  152.1760  140.8097  157.9935 C   0  0  0  0  0  0  0  0  0  0  0  0
  152.4566  140.5777  159.4996 C   0  0  0  0  0  0  0  0  0  0  0  0
  153.4010  141.6365  160.0927 C   0  0  0  0  0  0  0  0  0  0  0  0
  152.8648  143.0560  159.8721 C   0  0  0  0  0  0  0  0  0  0  0  0
  152.6108  143.3099  158.3819 C   0  0  0  0  0  0  0  0  0  0  0  0
  151.6569  142.2577  157.7961 C   0  0  0  0  0  0  0  0  0  0  0  0
  145.4921  139.3881  153.2205 H   0  0  0  0  0  0  0  0  0  0  0  0
  143.6452  136.7915  152.6751 H   0  0  0  0  0  0  0  0  0  0  0  0
  145.1741  135.9032  151.0886 H   0  0  0  0  0  0  0  0  0  0  0  0
  145.2728  138.2728  151.1655 H   0  0  0  0  0  0  0  0  0  0  0  0
  153.3268  137.6684  155.3233 H   0  0  0  0  0  0  0  0  0  0  0  0
  153.1643  136.8596  157.2180 H   0  0  0  0  0  0  0  0  0  0  0  0
  153.7479  138.3824  157.8755 H   0  0  0  0  0  0  0  0  0  0  0  0
  150.9077  137.6298  157.1364 H   0  0  0  0  0  0  0  0  0  0  0  0
  151.4675  138.0838  158.7257 H   0  0  0  0  0  0  0  0  0  0  0  0
  150.2261  139.9478  157.8680 H   0  0  0  0  0  0  0  0  0  0  0  0
  151.9618  139.9166  155.4351 H   0  0  0  0  0  0  0  0  0  0  0  0
  148.0962  142.8261  154.3749 H   0  0  0  0  0  0  0  0  0  0  0  0
  147.7912  136.4009  154.2117 H   0  0  0  0  0  0  0  0  0  0  0  0
  145.2665  134.8365  154.4025 H   0  0  0  0  0  0  0  0  0  0  0  0
  143.6182  135.3454  154.7441 H   0  0  0  0  0  0  0  0  0  0  0  0
  143.6883  134.4981  152.2511 H   0  0  0  0  0  0  0  0  0  0  0  0
  147.4321  135.6760  151.8051 H   0  0  0  0  0  0  0  0  0  0  0  0
  147.9062  137.3708  151.6201 H   0  0  0  0  0  0  0  0  0  0  0  0
  153.1258  140.7187  157.4637 H   0  0  0  0  0  0  0  0  0  0  0  0
  151.5165  140.5754  160.0529 H   0  0  0  0  0  0  0  0  0  0  0  0
  152.9170  139.6050  159.6639 H   0  0  0  0  0  0  0  0  0  0  0  0
  153.5390  141.4544  161.1588 H   0  0  0  0  0  0  0  0  0  0  0  0
  154.3863  141.5437  159.6339 H   0  0  0  0  0  0  0  0  0  0  0  0
  151.9386  143.1913  160.4320 H   0  0  0  0  0  0  0  0  0  0  0  0
  153.5737  143.7881  160.2605 H   0  0  0  0  0  0  0  0  0  0  0  0
  152.1938  144.3075  158.2412 H   0  0  0  0  0  0  0  0  0  0  0  0
  153.5562  143.2901  157.8383 H   0  0  0  0  0  0  0  0  0  0  0  0
  151.5159  142.4786  156.7381 H   0  0  0  0  0  0  0  0  0  0  0  0
  150.6755  142.3607  158.2609 H   0  0  0  0  0  0  0  0  0  0  0  0
  1  2  1  0  0  0  0
  1 34  1  0  0  0  0
  2  3  1  0  0  0  0
  2 35  1  0  0  0  0
  2 36  1  0  0  0  0
  3  4  1  0  0  0  0
  3 37  1  0  0  0  0
  3 38  1  0  0  0  0
  4  5  1  0  0  0  0
  4 24  1  0  0  0  0
  4 39  1  0  0  0  0
  5  6  1  0  0  0  0
  5 40  1  0  0  0  0
  6 11  1  0  0  0  0
  6  7  2  0  0  0  0
  7  8  1  0  0  0  0
  8  9  2  0  0  0  0
  8 41  1  0  0  0  0
  9 10  1  0  0  0  0
 10 14  1  0  0  0  0
 10 11  2  0  0  0  0
 11 12  1  0  0  0  0
 12 13  2  0  0  0  0
 13 14  1  0  0  0  0
 13 42  1  0  0  0  0
 14 15  1  0  0  0  0
 15 30  1  0  0  0  0
 15 22  1  0  0  0  0
 15 16  1  0  0  0  0
 16 17  1  0  0  0  0
 17 31  1  0  0  0  0
 17 18  1  0  0  0  0
 17 20  1  0  0  0  0
 18 19  1  0  0  0  0
 18 43  1  0  0  0  0
 18 44  1  0  0  0  0
 19 45  1  0  0  0  0
 20 32  1  0  0  0  0
 20 21  1  0  0  0  0
 20 22  1  0  0  0  0
 21 46  1  0  0  0  0
 22 33  1  0  0  0  0
 22 23  1  0  0  0  0
 23 47  1  0  0  0  0
 24 29  1  0  0  0  0
 24 25  1  0  0  0  0
 24 48  1  0  0  0  0
 25 26  1  0  0  0  0
 25 49  1  0  0  0  0
 25 50  1  0  0  0  0
 26 27  1  0  0  0  0
 26 51  1  0  0  0  0
 26 52  1  0  0  0  0
 27 28  1  0  0  0  0
 27 53  1  0  0  0  0
 27 54  1  0  0  0  0
 28 29  1  0  0  0  0
 28 55  1  0  0  0  0
 28 56  1  0  0  0  0
 29 57  1  0  0  0  0
 29 58  1  0  0  0  0
M  END
> <s_m_source_file>
AV-unprocessed.smi

> <i_m_source_file_index>
109

> <i_lp_mmshare_version>
43012

> <i_f3d_flags>
0

> <s_epik_input>
W0NIMl0xW0NIMl1bQ0gyXVtDSDJdW0NIMl1bQ0hdMVtDQEhdKFtDSDJdW0NIMl1bT0hdKVtOSF1jKG5bY0hdbjIpYyhjMjMpbltjSF1uM1tDQEBIXTRPW0NASF0oW0NIMl1bT0hdKVtDQEBIXShbT0hdKVtDQEhdNFtPSF0=

> <s_epik_cmdline>
J2VwaWtfcHl0aG9uJywgJy1waCcsICc3LjAnLCAnLXRuJywgJzgnLCAnLW1hJywgJzIwMCcsICctbWV0YWxfYmluZGluZycsICctaW1hZScsICc8aW5maWxlLm1hZT4nLCAnLW9tYWUnLCAnPG91dGZpbGUubWFlPic=

> <r_lp_tautomer_probability>
1

> <r_epik_Ionization_Penalty>
0.000793976

> <r_epik_Ionization_Penalty_Charging>
0

> <r_epik_Ionization_Penalty_Neutral>
0.000793976

> <r_epik_State_Penalty>
-0

> <r_epik_Charging_Adjusted_Penalty>
0

> <i_epik_Tot_Q>
0

> <i_epik_Tot_abs_Q>
0

> <r_epik_Metal_State_Penalty>
-0

> <b_epik_Metal_Only>
0

> <s_epik_Chemistry_Notes>
This compound contains an acetal/aminal-like group ( X-CH(R)-Y where X, Y are N, S, or O) that may be acid/base labile, releasing an aldehyde.

> <s_lp_Force_Field>
OPLS_2005

> <r_lp_Energy>
59.4654

> <b_lp_Chiralities_Consistent>
1

> <s_lp_Variant>
AV-unprocessed.smi:109-25

> <Gold.Version>
5.8.1

> <Gold.Id.Protein>
6NUR|6NUR_protein|mol2

> <Gold.PLP.Fitness>
53.0712

> <Gold.PLP.PLP>
-41.5520

> <Gold.PLP.part.hbond>
-5.2872

> <Gold.PLP.part.metal>
0.0000

> <Gold.PLP.part.buried>
-1.5649

> <Gold.PLP.part.nonpolar>
-36.4463

> <Gold.PLP.part.repulsive>
1.9819

> <Gold.PLP.ligand.clash>
0.0000

> <Gold.PLP.ligand.torsion>
0.9964

> <Gold.PLP.Chemscore.Hbond>
3.7420

> <Gold.PLP.Chemscore.CHOScore>
0.6593

> <Gold.PLP.Chemscore.Metal>
0.0000

> <Gold.Chemscore.Hbonds>
donor molecule, donor type, donor heavy atom, donor atom, acceptor molecule, acceptor atom, score
      L1  H    21    46       P1  7948  0.85
      L1  H    23    47       P1  7948  0.99
      P1  H  7954  7966       L1    23  0.50
      P1  H  7997  8009       L1     1  0.80
      L1  C     8    41       P1  8028  0.99
      L1  C    13    42       P1  7948  0.21

> <Gold.PLP.Chemscore.Internal.Correction>
0.3081

> <Gold.Rescore>
     Score         DG    S(hbond)    S(metal)    S(lipo)     H(rot)  DE(clash)    DE(int)     intcor
      9.18     -11.88       2.82        0.00      93.93       5.47       0.54       2.17       ----

> <Gold.Chemscore.Fitness>
9.1770

> <Gold.Chemscore.DG>
-11.8840

> <Gold.Chemscore.ZeroCoef>
-5.4800

> <Gold.Chemscore.Hbond>
2.8168

> <Gold.Chemscore.Metal>
0.0000

> <Gold.Chemscore.Lipo>
93.9269

> <Gold.Chemscore.Internal_Hbond>
0.0000

> <Gold.Chemscore.DEClash>
0.5420

> <Gold.Chemscore.DEInternal>
2.1650

> <Gold.Chemscore.Rot>
5.4662

> <Gold.Chemscore.Internal.Correction>
   9.000000E+99

> <Gold.Chemscore.Hbonds>
donor molecule, donor type, donor heavy atom, donor atom, acceptor molecule, acceptor atom, score
      L1  H    21    46       P1  7948  0.81
      L1  H    23    47       P1  7948  0.92
      P1  H  7954  7966       L1    23  0.02
      P1  H  7997  8009       L1     1  0.34

> <Gold.Chemscore.Hbond.Weighted>
-9.4080

> <Gold.Chemscore.Metal.Weighted>
-0.0000

> <Gold.Chemscore.Lipo.Weighted>
-10.9894

> <Gold.Chemscore.Internal_Hbond.Weighted>
0.0000

> <Gold.Chemscore.DEClash.Weighted>
0.5420

> <Gold.Chemscore.DEInternal.Weighted>
2.1650

> <Gold.Chemscore.Rot.Weighted>
13.9935

> <Gold.Chemscore.Internal.Correction.Weighted>
   9.000000E+99

> <Gold.Protein.RotatedTorsions>
[ 6907 6896 6895 6894 ] final  -30.27 input  -60.11 | X-H torsion
[ 7974 7965 7964 7962 ] final  100.94 input  175.53 | X-H torsion
[ 8008 7997 7996 7995 ] final -151.52 input   59.86 | X-H torsion
[ 10167 10162 10161 10158 ] final -116.87 input  -65.29 | X-H torsion
[ 10718 10713 10712 10709 ] final    3.43 input   66.30 | X-H torsion
[ 10763 10752 10751 10750 ] final   59.88 input  -60.55 | X-H torsion
[ 11005 11000 10999 10996 ] final -101.53 input  -57.11 | X-H torsion

> <Gold.Protein.ActiveResidues>
 VAL166  LYS551  ARG553  GLY616  TRP617  ASP618  TYR619  PRO620  LYS621  CYS622 
 ASP623  PHE694  ASN695  SER759  ASP760  ASP761  ALA762  ILE779  LEU786  VAL792 
 PHE793  MET794  SER795  GLU796  ALA797  LYS798  CYS799  TRP800  GLU811  SER814 

> <Gold.Protein.RotatedAtoms>
  151.1078  135.0009  159.8479 H   0  0  0  0  0  0  0  0  0  0  0  0  # atno 6907 bound_to 6896
  152.5441  134.1872  159.8669 H   0  0  0  0  0  0  0  0  0  0  0  0  # atno 6908 bound_to 6896
  151.1920  133.4617  159.2628 H   0  0  0  0  0  0  0  0  0  0  0  0  # atno 6909 bound_to 6896
  145.3789  139.2383  143.3414 H   0  0  0  0  0  0  0  0  0  0  0  0  # atno 7974 bound_to 7965
  155.6406  140.0701  157.2619 H   0  0  0  0  0  0  0  0  0  0  0  0  # atno 8008 bound_to 7997
  154.4184  140.1751  156.1619 H   0  0  0  0  0  0  0  0  0  0  0  0  # atno 8009 bound_to 7997
  155.9858  140.3349  155.6709 H   0  0  0  0  0  0  0  0  0  0  0  0  # atno 8010 bound_to 7997
  140.0745  143.4846  152.1961 H   0  0  0  0  0  0  0  0  0  0  0  0  # atno 10167 bound_to 10162
  156.8778  130.5642  149.5654 H   0  0  0  0  0  0  0  0  0  0  0  0  # atno 10718 bound_to 10713
  152.9906  135.5556  154.5784 H   0  0  0  0  0  0  0  0  0  0  0  0  # atno 10763 bound_to 10752
  154.5170  135.2805  155.1297 H   0  0  0  0  0  0  0  0  0  0  0  0  # atno 10764 bound_to 10752
  154.2665  135.6371  153.5347 H   0  0  0  0  0  0  0  0  0  0  0  0  # atno 10765 bound_to 10752
  141.1227  133.8486  157.1244 H   0  0  0  0  0  0  0  0  0  0  0  0  # atno 11005 bound_to 11000
  146.2851  140.4452  142.8761 LP  0  0  0  0  0  0  0  0  0  0  0  0  # atno 17320 bound_to 7965
  144.8522  140.7018  143.6161 LP  0  0  0  0  0  0  0  0  0  0  0  0  # atno 17321 bound_to 7965
  139.5816  144.7513  151.3625 LP  0  0  0  0  0  0  0  0  0  0  0  0  # atno 17342 bound_to 10162
  140.7109  143.7393  150.7565 LP  0  0  0  0  0  0  0  0  0  0  0  0  # atno 17343 bound_to 10162
  156.0693  130.5729  150.9351 LP  0  0  0  0  0  0  0  0  0  0  0  0  # atno 17370 bound_to 10713
  157.6158  131.0933  150.8712 LP  0  0  0  0  0  0  0  0  0  0  0  0  # atno 17371 bound_to 10713
  140.0197  134.9951  157.0567 LP  0  0  0  0  0  0  0  0  0  0  0  0  # atno 17394 bound_to 11000
  140.4460  134.1632  155.7177 LP  0  0  0  0  0  0  0  0  0  0  0  0  # atno 17395 bound_to 11000

$$$$
