AV-unprocessed.smi:528|AV-procd|sdf|2836|dock2
  -GOLD-   2262023323D 1   1.00000     0.00000
 Structure written by MMmdl.
 45 47  0  0  0  0  0  0  0  0  1 V2000
  151.6641  140.1172  157.7912 C   0  0  0  0  0  0  0  0  0  0  0  0
  151.3325  141.5728  157.4218 C   0  0  1  0  0  0  0  0  0  0  0  0
  150.0736  141.5798  156.6779 N   0  0  0  0  0  0  0  0  0  0  0  0
  149.8655  141.0323  155.4703 C   0  0  0  0  0  0  0  0  0  0  0  0
  150.7205  140.3951  154.8542 O   0  0  0  0  0  0  0  0  0  0  0  0
  148.4675  141.2354  154.8720 C   0  0  0  0  0  0  0  0  0  0  0  0
  147.8600  139.9757  154.4113 N   0  0  0  0  0  0  0  0  0  0  0  0
  148.0620  138.8320  155.2091 C   0  0  0  0  0  0  0  0  0  0  0  0
  147.5721  137.6189  154.8883 C   0  0  0  0  0  0  0  0  0  0  0  0
  147.7601  136.4131  155.7960 C   0  0  0  0  0  0  0  0  0  0  0  0
  149.0536  136.1386  155.9659 F   0  0  0  0  0  0  0  0  0  0  0  0
  147.2280  136.6597  156.9923 F   0  0  0  0  0  0  0  0  0  0  0  0
  147.1652  135.3315  155.2915 F   0  0  0  0  0  0  0  0  0  0  0  0
  146.7814  137.5423  153.6755 C   0  0  0  0  0  0  0  0  0  0  0  0
  146.5730  138.6276  152.9047 C   0  0  0  0  0  0  0  0  0  0  0  0
  147.1313  139.9356  153.2550 C   0  0  0  0  0  0  0  0  0  0  0  0
  146.9543  140.9328  152.5542 O   0  0  0  0  0  0  0  0  0  0  0  0
  151.2082  142.4971  158.6598 C   0  0  2  0  0  0  0  0  0  0  0  0
  150.8046  143.9551  158.3182 C   0  0  0  0  0  0  0  0  0  0  0  0
  151.8901  144.7968  159.0102 C   0  0  1  0  0  0  0  0  0  0  0  0
  151.7205  144.7057  160.5375 C   0  0  0  0  0  0  0  0  0  0  0  0
  152.1898  143.2713  160.8435 C   0  0  0  0  0  0  0  0  0  0  0  0
  152.5262  142.7169  159.4453 C   0  0  2  0  0  0  0  0  0  0  0  0
  153.1298  143.9459  158.7725 C   0  0  0  0  0  0  0  0  0  0  0  0
  152.6376  140.0317  158.2722 H   0  0  0  0  0  0  0  0  0  0  0  0
  151.6929  139.4869  156.9015 H   0  0  0  0  0  0  0  0  0  0  0  0
  150.9193  139.6990  158.4690 H   0  0  0  0  0  0  0  0  0  0  0  0
  152.1410  141.9454  156.7909 H   0  0  0  0  0  0  0  0  0  0  0  0
  149.3045  142.0762  157.1036 H   0  0  0  0  0  0  0  0  0  0  0  0
  147.8442  141.7178  155.6259 H   0  0  0  0  0  0  0  0  0  0  0  0
  148.5164  141.9454  154.0440 H   0  0  0  0  0  0  0  0  0  0  0  0
  148.6464  139.0029  156.1015 H   0  0  0  0  0  0  0  0  0  0  0  0
  146.3537  136.5969  153.3759 H   0  0  0  0  0  0  0  0  0  0  0  0
  145.9819  138.5328  152.0055 H   0  0  0  0  0  0  0  0  0  0  0  0
  150.4589  142.0632  159.3243 H   0  0  0  0  0  0  0  0  0  0  0  0
  150.8333  144.1416  157.2440 H   0  0  0  0  0  0  0  0  0  0  0  0
  149.8008  144.2003  158.6667 H   0  0  0  0  0  0  0  0  0  0  0  0
  151.9535  145.8192  158.6367 H   0  0  0  0  0  0  0  0  0  0  0  0
  152.3548  145.4339  161.0446 H   0  0  0  0  0  0  0  0  0  0  0  0
  150.6903  144.8825  160.8488 H   0  0  0  0  0  0  0  0  0  0  0  0
  153.0781  143.2871  161.4762 H   0  0  0  0  0  0  0  0  0  0  0  0
  151.4281  142.6826  161.3564 H   0  0  0  0  0  0  0  0  0  0  0  0
  153.1859  141.8513  159.4848 H   0  0  0  0  0  0  0  0  0  0  0  0
  153.3588  143.7981  157.7159 H   0  0  0  0  0  0  0  0  0  0  0  0
  154.0183  144.3252  159.2804 H   0  0  0  0  0  0  0  0  0  0  0  0
  1  2  1  0  0  0  0
  1 25  1  0  0  0  0
  1 26  1  0  0  0  0
  1 27  1  0  0  0  0
  2  3  1  0  0  0  0
  2 18  1  0  0  0  0
  2 28  1  0  0  0  0
  3  4  1  0  0  0  0
  3 29  1  0  0  0  0
  4  5  2  0  0  0  0
  4  6  1  0  0  0  0
  6  7  1  0  0  0  0
  6 30  1  0  0  0  0
  6 31  1  0  0  0  0
  7 16  1  0  0  0  0
  7  8  1  0  0  0  0
  8  9  2  0  0  0  0
  8 32  1  0  0  0  0
  9 10  1  0  0  0  0
  9 14  1  0  0  0  0
 10 11  1  0  0  0  0
 10 12  1  0  0  0  0
 10 13  1  0  0  0  0
 14 15  2  0  0  0  0
 14 33  1  0  0  0  0
 15 16  1  0  0  0  0
 15 34  1  0  0  0  0
 16 17  2  0  0  0  0
 18 23  1  0  0  0  0
 18 19  1  0  0  0  0
 18 35  1  0  0  0  0
 19 20  1  0  0  0  0
 19 36  1  0  0  0  0
 19 37  1  0  0  0  0
 20 24  1  0  0  0  0
 20 21  1  0  0  0  0
 20 38  1  0  0  0  0
 21 22  1  0  0  0  0
 21 39  1  0  0  0  0
 21 40  1  0  0  0  0
 22 23  1  0  0  0  0
 22 41  1  0  0  0  0
 22 42  1  0  0  0  0
 23 24  1  0  0  0  0
 23 43  1  0  0  0  0
 24 44  1  0  0  0  0
 24 45  1  0  0  0  0
M  END
> <s_m_source_file>
AV-unprocessed.smi

> <i_m_source_file_index>
528

> <i_lp_mmshare_version>
43012

> <i_f3d_flags>
0

> <s_epik_input>
W0NIMl0xW0NIMl1bQ0BASF0oW0NIMl0yKVtDQEBIXShbQ0gyXVtDQEhdMTIpW0NASF0oW0NIM10pW05IXUMoPU8pW0NIMl1uM1tjSF1jKEMoRikoRilGKVtjSF1bY0hdYzM9Tw==

> <s_epik_cmdline>
J2VwaWtfcHl0aG9uJywgJy1waCcsICc3LjAnLCAnLXRuJywgJzgnLCAnLW1hJywgJzIwMCcsICctbWV0YWxfYmluZGluZycsICctaW1hZScsICc8aW5maWxlLm1hZT4nLCAnLW9tYWUnLCAnPG91dGZpbGUubWFlPic=

> <r_lp_tautomer_probability>
1

> <r_epik_Ionization_Penalty>
4.09479e-08

> <r_epik_Ionization_Penalty_Charging>
1.9321e-08

> <r_epik_Ionization_Penalty_Neutral>
2.16269e-08

> <r_epik_State_Penalty>
-0

> <r_epik_Charging_Adjusted_Penalty>
1.9321e-08

> <i_epik_Tot_Q>
0

> <i_epik_Tot_abs_Q>
0

> <r_epik_Metal_State_Penalty>
-0

> <b_epik_Metal_Only>
0

> <s_lp_Force_Field>
OPLS_2005

> <r_lp_Energy>
62.8614

> <b_lp_Chiralities_Consistent>
1

> <s_lp_Variant>
AV-unprocessed.smi:528-6

> <Gold.Version>
5.8.1

> <Gold.Id.Protein>
6NUR|6NUR_protein|mol2

> <Gold.PLP.Fitness>
41.9188

> <Gold.PLP.PLP>
-39.7550

> <Gold.PLP.part.hbond>
-1.0000

> <Gold.PLP.part.metal>
0.0000

> <Gold.PLP.part.buried>
-2.5721

> <Gold.PLP.part.nonpolar>
-36.6141

> <Gold.PLP.part.repulsive>
0.3733

> <Gold.PLP.ligand.clash>
0.0000

> <Gold.PLP.ligand.torsion>
0.4731

> <Gold.PLP.Chemscore.Hbond>
1.0000

> <Gold.PLP.Chemscore.CHOScore>
0.0000

> <Gold.PLP.Chemscore.Metal>
0.0000

> <Gold.Chemscore.Hbonds>
donor molecule, donor type, donor heavy atom, donor atom, acceptor molecule, acceptor atom, score
      P1  H  7989  7998       L1     5  1.00

> <Gold.PLP.Chemscore.Internal.Correction>
0.1101

> <Gold.Rescore>
     Score         DG    S(hbond)    S(metal)    S(lipo)     H(rot)  DE(clash)    DE(int)     intcor
     16.69     -17.19       0.98        0.00     109.67       1.71       0.17       0.33       ----

> <Gold.Chemscore.Fitness>
16.6889

> <Gold.Chemscore.DG>
-17.1858

> <Gold.Chemscore.ZeroCoef>
-5.4800

> <Gold.Chemscore.Hbond>
0.9755

> <Gold.Chemscore.Metal>
0.0000

> <Gold.Chemscore.Lipo>
109.6721

> <Gold.Chemscore.Internal_Hbond>
0.0000

> <Gold.Chemscore.DEClash>
0.1686

> <Gold.Chemscore.DEInternal>
0.3283

> <Gold.Chemscore.Rot>
1.7125

> <Gold.Chemscore.Internal.Correction>
   9.000000E+99

> <Gold.Chemscore.Hbonds>
donor molecule, donor type, donor heavy atom, donor atom, acceptor molecule, acceptor atom, score
      P1  H  7989  7998       L1     5  0.98

> <Gold.Chemscore.Hbond.Weighted>
-3.2581

> <Gold.Chemscore.Metal.Weighted>
-0.0000

> <Gold.Chemscore.Lipo.Weighted>
-12.8316

> <Gold.Chemscore.Internal_Hbond.Weighted>
0.0000

> <Gold.Chemscore.DEClash.Weighted>
0.1686

> <Gold.Chemscore.DEInternal.Weighted>
0.3283

> <Gold.Chemscore.Rot.Weighted>
4.3840

> <Gold.Chemscore.Internal.Correction.Weighted>
   9.000000E+99

> <Gold.Protein.RotatedTorsions>
[ 6907 6896 6895 6894 ] final   -8.66 input  -60.11 | X-H torsion
[ 7974 7965 7964 7962 ] final   62.16 input  175.53 | X-H torsion
[ 8008 7997 7996 7995 ] final   87.97 input   59.86 | X-H torsion
[ 10167 10162 10161 10158 ] final -113.65 input  -65.29 | X-H torsion
[ 10718 10713 10712 10709 ] final  -80.71 input   66.30 | X-H torsion
[ 10763 10752 10751 10750 ] final   97.45 input  -60.55 | X-H torsion
[ 11005 11000 10999 10996 ] final -178.54 input  -57.11 | X-H torsion

> <Gold.Protein.ActiveResidues>
 VAL166  LYS551  ARG553  GLY616  TRP617  ASP618  TYR619  PRO620  LYS621  CYS622 
 ASP623  PHE694  ASN695  SER759  ASP760  ASP761  ALA762  ILE779  LEU786  VAL792 
 PHE793  MET794  SER795  GLU796  ALA797  LYS798  CYS799  TRP800  GLU811  SER814 

> <Gold.Protein.RotatedAtoms>
  151.4301  135.1008  159.9639 H   0  0  0  0  0  0  0  0  0  0  0  0  # atno 6907 bound_to 6896
  152.4959  133.8625  159.7268 H   0  0  0  0  0  0  0  0  0  0  0  0  # atno 6908 bound_to 6896
  150.9161  133.6879  159.2871 H   0  0  0  0  0  0  0  0  0  0  0  0  # atno 6909 bound_to 6896
  145.8765  139.3414  143.0731 H   0  0  0  0  0  0  0  0  0  0  0  0  # atno 7974 bound_to 7965
  155.9820  140.3376  155.6672 H   0  0  0  0  0  0  0  0  0  0  0  0  # atno 8008 bound_to 7997
  155.6536  140.0708  157.2596 H   0  0  0  0  0  0  0  0  0  0  0  0  # atno 8009 bound_to 7997
  154.4194  140.1721  156.1688 H   0  0  0  0  0  0  0  0  0  0  0  0  # atno 8010 bound_to 7997
  140.1095  143.4540  152.1761 H   0  0  0  0  0  0  0  0  0  0  0  0  # atno 10167 bound_to 10162
  156.0065  130.4582  150.3841 H   0  0  0  0  0  0  0  0  0  0  0  0  # atno 10718 bound_to 10713
  153.2771  135.4183  155.1043 H   0  0  0  0  0  0  0  0  0  0  0  0  # atno 10763 bound_to 10752
  154.8476  135.3486  154.6164 H   0  0  0  0  0  0  0  0  0  0  0  0  # atno 10764 bound_to 10752
  153.6584  135.7049  153.5243 H   0  0  0  0  0  0  0  0  0  0  0  0  # atno 10765 bound_to 10752
  140.4287  134.6539  157.4701 H   0  0  0  0  0  0  0  0  0  0  0  0  # atno 11005 bound_to 11000
  145.9074  140.9202  143.0471 LP  0  0  0  0  0  0  0  0  0  0  0  0  # atno 17320 bound_to 7965
  144.6726  140.1114  143.7455 LP  0  0  0  0  0  0  0  0  0  0  0  0  # atno 17321 bound_to 7965
  139.5627  144.7416  151.4109 LP  0  0  0  0  0  0  0  0  0  0  0  0  # atno 17342 bound_to 10162
  140.6933  143.7808  150.7289 LP  0  0  0  0  0  0  0  0  0  0  0  0  # atno 17343 bound_to 10162
  157.1919  131.0417  151.2695 LP  0  0  0  0  0  0  0  0  0  0  0  0  # atno 17370 bound_to 10713
  157.4053  130.7355  149.6798 LP  0  0  0  0  0  0  0  0  0  0  0  0  # atno 17371 bound_to 10713
  140.0149  134.6634  155.9324 LP  0  0  0  0  0  0  0  0  0  0  0  0  # atno 17394 bound_to 11000
  141.1754  133.6540  156.4811 LP  0  0  0  0  0  0  0  0  0  0  0  0  # atno 17395 bound_to 11000

$$$$
