AV-unprocessed.smi:1115|AV-procd|sdf|4805|dock5
  -GOLD-   22720 3353D 1   1.00000     0.00000
 Structure written by MMmdl.
 51 52  0  0  0  0  0  0  0  0  2 V2000
  152.1528  140.7325  158.4015 C   0  0  0  0  0  0  0  0  0  0  0  0
  151.3203  140.7911  157.2064 N   0  0  0  0  0  0  0  0  0  0  0  0
  150.9354  142.0848  156.6515 C   0  0  0  0  0  0  0  0  0  0  0  0
  150.9446  139.6010  156.5422 C   0  0  0  0  0  0  0  0  0  0  0  0
  151.6815  138.4008  156.7008 C   0  0  0  0  0  0  0  0  0  0  0  0
  151.2679  137.2404  156.0187 C   0  0  0  0  0  0  0  0  0  0  0  0
  150.1200  137.3002  155.1958 C   0  0  0  0  0  0  0  0  0  0  0  0
  149.6160  136.2074  154.4399 N   0  0  0  0  0  0  0  0  0  0  0  0
  149.6928  134.8940  154.7144 C   0  0  0  0  0  0  0  0  0  0  0  0
  150.1916  134.4060  155.7282 O   0  0  0  0  0  0  0  0  0  0  0  0
  149.1240  134.1628  153.7450 N   0  0  0  0  0  0  0  0  0  0  0  0
  149.0347  132.7025  153.7224 C   0  0  0  0  0  0  0  0  0  0  0  0
  147.6483  132.1558  153.2621 C   0  0  0  0  0  0  0  0  0  0  0  0
  146.6549  132.2867  154.4475 C   0  0  0  0  0  0  0  0  0  0  0  0
  147.1062  133.0128  152.0921 C   0  0  0  0  0  0  0  0  0  0  0  0
  147.8089  130.7095  152.8553 N   0  3  0  0  0  0  0  0  0  0  0  0
  148.5212  129.8267  153.8246 C   0  0  0  0  0  0  0  0  0  0  0  0
  148.7442  128.4230  153.2335 C   0  0  0  0  0  0  0  0  0  0  0  0
  147.5046  127.8555  152.8380 O   0  0  0  0  0  0  0  0  0  0  0  0
  146.8734  128.6350  151.8339 C   0  0  0  0  0  0  0  0  0  0  0  0
  146.5620  130.0309  152.3958 C   0  0  0  0  0  0  0  0  0  0  0  0
  149.4602  138.5399  155.0888 C   0  0  0  0  0  0  0  0  0  0  0  0
  149.8517  139.6533  155.7422 N   0  0  0  0  0  0  0  0  0  0  0  0
  153.1052  140.2494  158.1816 H   0  0  0  0  0  0  0  0  0  0  0  0
  151.6506  140.1742  159.1918 H   0  0  0  0  0  0  0  0  0  0  0  0
  152.3674  141.7298  158.7854 H   0  0  0  0  0  0  0  0  0  0  0  0
  151.3537  142.2121  155.6526 H   0  0  0  0  0  0  0  0  0  0  0  0
  151.2938  142.9075  157.2706 H   0  0  0  0  0  0  0  0  0  0  0  0
  149.8500  142.1662  156.5863 H   0  0  0  0  0  0  0  0  0  0  0  0
  152.5586  138.3468  157.3276 H   0  0  0  0  0  0  0  0  0  0  0  0
  151.8480  136.3377  156.1298 H   0  0  0  0  0  0  0  0  0  0  0  0
  149.0965  136.4598  153.6119 H   0  0  0  0  0  0  0  0  0  0  0  0
  148.7319  134.6524  152.9536 H   0  0  0  0  0  0  0  0  0  0  0  0
  149.8258  132.3888  153.0446 H   0  0  0  0  0  0  0  0  0  0  0  0
  149.2962  132.2823  154.6952 H   0  0  0  0  0  0  0  0  0  0  0  0
  146.5883  133.3089  154.8180 H   0  0  0  0  0  0  0  0  0  0  0  0
  146.9499  131.6567  155.2876 H   0  0  0  0  0  0  0  0  0  0  0  0
  145.6355  132.0246  154.1650 H   0  0  0  0  0  0  0  0  0  0  0  0
  146.8936  134.0330  152.4132 H   0  0  0  0  0  0  0  0  0  0  0  0
  146.1768  132.6094  151.6903 H   0  0  0  0  0  0  0  0  0  0  0  0
  147.8197  133.0866  151.2713 H   0  0  0  0  0  0  0  0  0  0  0  0
  149.5054  130.2172  154.0767 H   0  0  0  0  0  0  0  0  0  0  0  0
  147.9519  129.7528  154.7517 H   0  0  0  0  0  0  0  0  0  0  0  0
  149.4262  128.4639  152.3823 H   0  0  0  0  0  0  0  0  0  0  0  0
  149.2060  127.7731  153.9769 H   0  0  0  0  0  0  0  0  0  0  0  0
  147.5052  128.7001  150.9465 H   0  0  0  0  0  0  0  0  0  0  0  0
  145.9511  128.1380  151.5322 H   0  0  0  0  0  0  0  0  0  0  0  0
  145.8622  129.9273  153.2257 H   0  0  0  0  0  0  0  0  0  0  0  0
  146.0544  130.5980  151.6193 H   0  0  0  0  0  0  0  0  0  0  0  0
  148.5858  138.6437  154.4630 H   0  0  0  0  0  0  0  0  0  0  0  0
  148.4133  130.7398  152.0462 H   0  0  0  0  0  0  0  0  0  0  0  0
  1  2  1  0  0  0  0
  1 24  1  0  0  0  0
  1 25  1  0  0  0  0
  1 26  1  0  0  0  0
  2  3  1  0  0  0  0
  2  4  1  0  0  0  0
  3 27  1  0  0  0  0
  3 28  1  0  0  0  0
  3 29  1  0  0  0  0
  4 23  1  0  0  0  0
  4  5  2  0  0  0  0
  5  6  1  0  0  0  0
  5 30  1  0  0  0  0
  6  7  2  0  0  0  0
  6 31  1  0  0  0  0
  7  8  1  0  0  0  0
  7 22  1  0  0  0  0
  8  9  1  0  0  0  0
  8 32  1  0  0  0  0
  9 10  2  0  0  0  0
  9 11  1  0  0  0  0
 11 12  1  0  0  0  0
 11 33  1  0  0  0  0
 12 13  1  0  0  0  0
 12 34  1  0  0  0  0
 12 35  1  0  0  0  0
 13 14  1  0  0  0  0
 13 15  1  0  0  0  0
 13 16  1  0  0  0  0
 14 36  1  0  0  0  0
 14 37  1  0  0  0  0
 14 38  1  0  0  0  0
 15 39  1  0  0  0  0
 15 40  1  0  0  0  0
 15 41  1  0  0  0  0
 16 21  1  0  0  0  0
 16 17  1  0  0  0  0
 16 51  1  0  0  0  0
 17 18  1  0  0  0  0
 17 42  1  0  0  0  0
 17 43  1  0  0  0  0
 18 19  1  0  0  0  0
 18 44  1  0  0  0  0
 18 45  1  0  0  0  0
 19 20  1  0  0  0  0
 20 21  1  0  0  0  0
 20 46  1  0  0  0  0
 20 47  1  0  0  0  0
 21 48  1  0  0  0  0
 21 49  1  0  0  0  0
 22 23  2  0  0  0  0
 22 50  1  0  0  0  0
M  CHG  1  16   1
M  END
> <s_m_source_file>
AV-unprocessed.smi

> <i_m_source_file_index>
1115

> <i_lp_mmshare_version>
43012

> <i_f3d_flags>
0

> <s_epik_input>
W0NIM11OKFtDSDNdKWMxW2NIXVtjSF1jKFtjSF1uMSlbTkhdQyg9TylbTkhdW0NIMl1DKFtDSDNdKShbQ0gzXSlOMltDSDJdW0NIMl1PW0NIMl1bQ0gyXTI=

> <s_epik_cmdline>
J2VwaWtfcHl0aG9uJywgJy1waCcsICc3LjAnLCAnLXRuJywgJzgnLCAnLW1hJywgJzIwMCcsICctbWV0YWxfYmluZGluZycsICctaW1hZScsICc8aW5maWxlLm1hZT4nLCAnLW9tYWUnLCAnPG91dGZpbGUubWFlPic=

> <r_epik_Ionization_Penalty>
1.14783

> <r_epik_Ionization_Penalty_Charging>
0.602531

> <r_epik_Ionization_Penalty_Neutral>
0.545303

> <r_epik_State_Penalty>
1.19446

> <r_epik_Charging_Adjusted_Penalty>
1.79699

> <i_epik_Tot_Q>
1

> <i_epik_Tot_abs_Q>
1

> <r_epik_Metal_State_Penalty>
0.937982

> <b_epik_Metal_Only>
0

> <s_lp_Force_Field>
OPLS_2005

> <r_lp_Energy>
30.1641

> <b_lp_Chiralities_Consistent>
1

> <s_lp_Variant>
AV-unprocessed.smi:1115-4

> <Gold.Version>
5.8.1

> <Gold.Id.Protein>
6NUR|6NUR_protein|mol2

> <Gold.PLP.Fitness>
41.0688

> <Gold.PLP.PLP>
-34.8476

> <Gold.PLP.part.hbond>
-3.1413

> <Gold.PLP.part.metal>
0.0000

> <Gold.PLP.part.buried>
-4.0511

> <Gold.PLP.part.nonpolar>
-27.8315

> <Gold.PLP.part.repulsive>
0.1688

> <Gold.PLP.ligand.clash>
0.0000

> <Gold.PLP.ligand.torsion>
0.8430

> <Gold.PLP.Chemscore.Hbond>
2.6032

> <Gold.PLP.Chemscore.CHOScore>
0.0000

> <Gold.PLP.Chemscore.Metal>
0.0000

> <Gold.Chemscore.Hbonds>
donor molecule, donor type, donor heavy atom, donor atom, acceptor molecule, acceptor atom, score
      L1  H     8    32       P1  7948  0.88
      L1  H    11    33       P1  7948  0.72
      L1  H    16    51       P1 10747  1.00

> <Gold.PLP.Chemscore.Internal.Correction>
0.0975

> <Gold.Rescore>
     Score         DG    S(hbond)    S(metal)    S(lipo)     H(rot)  DE(clash)    DE(int)     intcor
     17.09     -18.41       2.12        0.00      81.99       1.46       0.42       0.90       ----

> <Gold.Chemscore.Fitness>
17.0935

> <Gold.Chemscore.DG>
-18.4131

> <Gold.Chemscore.ZeroCoef>
-5.4800

> <Gold.Chemscore.Hbond>
2.1228

> <Gold.Chemscore.Metal>
0.0000

> <Gold.Chemscore.Lipo>
81.9896

> <Gold.Chemscore.Internal_Hbond>
0.0000

> <Gold.Chemscore.DEClash>
0.4176

> <Gold.Chemscore.DEInternal>
0.9020

> <Gold.Chemscore.Rot>
1.4648

> <Gold.Chemscore.Internal.Correction>
   9.000000E+99

> <Gold.Chemscore.Hbonds>
donor molecule, donor type, donor heavy atom, donor atom, acceptor molecule, acceptor atom, score
      L1  H     8    32       P1  7948  0.85
      L1  H    11    33       P1  7948  0.12
      L1  H    16    51       P1 10747  0.96

> <Gold.Chemscore.Hbond.Weighted>
-7.0902

> <Gold.Chemscore.Metal.Weighted>
-0.0000

> <Gold.Chemscore.Lipo.Weighted>
-9.5928

> <Gold.Chemscore.Internal_Hbond.Weighted>
0.0000

> <Gold.Chemscore.DEClash.Weighted>
0.4176

> <Gold.Chemscore.DEInternal.Weighted>
0.9020

> <Gold.Chemscore.Rot.Weighted>
3.7499

> <Gold.Chemscore.Internal.Correction.Weighted>
   9.000000E+99

> <Gold.Protein.RotatedTorsions>
[ 6907 6896 6895 6894 ] final   83.80 input  -60.11 | X-H torsion
[ 7974 7965 7964 7962 ] final  -16.54 input  175.53 | X-H torsion
[ 8008 7997 7996 7995 ] final  169.20 input   59.86 | X-H torsion
[ 10167 10162 10161 10158 ] final -144.54 input  -65.29 | X-H torsion
[ 10718 10713 10712 10709 ] final   -7.18 input   66.30 | X-H torsion
[ 10763 10752 10751 10750 ] final  -69.28 input  -60.55 | X-H torsion
[ 11005 11000 10999 10996 ] final -176.35 input  -57.11 | X-H torsion

> <Gold.Protein.ActiveResidues>
 VAL166  LYS551  ARG553  GLY616  TRP617  ASP618  TYR619  PRO620  LYS621  CYS622 
 ASP623  PHE694  ASN695  SER759  ASP760  ASP761  ALA762  ILE779  LEU786  VAL792 
 PHE793  MET794  SER795  GLU796  ALA797  LYS798  CYS799  TRP800  GLU811  SER814 

> <Gold.Protein.RotatedAtoms>
  152.5336  134.2840  159.9017 H   0  0  0  0  0  0  0  0  0  0  0  0  # atno 6907 bound_to 6896
  151.2793  133.4210  159.2633 H   0  0  0  0  0  0  0  0  0  0  0  0  # atno 6908 bound_to 6896
  151.0297  134.9546  159.8161 H   0  0  0  0  0  0  0  0  0  0  0  0  # atno 6909 bound_to 6896
  146.1983  140.3650  142.8432 H   0  0  0  0  0  0  0  0  0  0  0  0  # atno 7974 bound_to 7965
  156.1479  140.1570  156.8817 H   0  0  0  0  0  0  0  0  0  0  0  0  # atno 8008 bound_to 7997
  154.5044  140.0817  156.7902 H   0  0  0  0  0  0  0  0  0  0  0  0  # atno 8009 bound_to 7997
  155.3953  140.3412  155.4256 H   0  0  0  0  0  0  0  0  0  0  0  0  # atno 8010 bound_to 7997
  139.7890  143.7993  152.2648 H   0  0  0  0  0  0  0  0  0  0  0  0  # atno 10167 bound_to 10162
  156.7210  130.5151  149.5868 H   0  0  0  0  0  0  0  0  0  0  0  0  # atno 10718 bound_to 10713
  154.4012  135.6030  153.5898 H   0  0  0  0  0  0  0  0  0  0  0  0  # atno 10763 bound_to 10752
  152.9788  135.5907  154.4182 H   0  0  0  0  0  0  0  0  0  0  0  0  # atno 10764 bound_to 10752
  154.3981  135.2842  155.2092 H   0  0  0  0  0  0  0  0  0  0  0  0  # atno 10765 bound_to 10752
  140.4530  134.6325  157.4810 H   0  0  0  0  0  0  0  0  0  0  0  0  # atno 11005 bound_to 11000
  144.8627  140.7163  143.6097 LP  0  0  0  0  0  0  0  0  0  0  0  0  # atno 17320 bound_to 7965
  145.3570  139.1691  143.4404 LP  0  0  0  0  0  0  0  0  0  0  0  0  # atno 17321 bound_to 7965
  139.8079  144.7348  150.9737 LP  0  0  0  0  0  0  0  0  0  0  0  0  # atno 17342 bound_to 10162
  140.7820  143.4280  151.0738 LP  0  0  0  0  0  0  0  0  0  0  0  0  # atno 17343 bound_to 10162
  156.1595  130.6364  151.0700 LP  0  0  0  0  0  0  0  0  0  0  0  0  # atno 17370 bound_to 10713
  157.6898  131.0813  150.7140 LP  0  0  0  0  0  0  0  0  0  0  0  0  # atno 17371 bound_to 10713
  139.9994  134.6860  155.9555 LP  0  0  0  0  0  0  0  0  0  0  0  0  # atno 17394 bound_to 11000
  141.1655  133.6537  156.4466 LP  0  0  0  0  0  0  0  0  0  0  0  0  # atno 17395 bound_to 11000

$$$$
