AV-unprocessed.smi:3154|AV-procd|sdf|12021|dock4
  -GOLD-   2272017433D 1   1.00000     0.00000
 Structure written by MMmdl.
 35 36  0  0  0  0  0  0  0  0  2 V2000
  147.7223  140.9457  154.1389 C   0  0  0  0  0  0  0  0  0  0  0  0
  148.4093  139.5698  154.1209 C   0  0  2  0  0  0  0  0  0  0  0  0
  149.9468  139.6771  154.2518 C   0  0  0  0  0  0  0  0  0  0  0  0
  150.3678  140.3558  155.4641 N   0  0  0  0  0  0  0  0  0  0  0  0
  150.1220  141.6565  155.8514 C   0  0  0  0  0  0  0  0  0  0  0  0
  150.7329  141.8424  157.0583 C   0  0  0  0  0  0  0  0  0  0  0  0
  151.3399  140.5841  157.3281 C   0  0  0  0  0  0  0  0  0  0  0  0
  151.1230  139.6977  156.3696 N   0  0  0  0  0  0  0  0  0  0  0  0
  148.0304  138.8488  152.8858 N   0  3  0  0  0  0  0  0  0  0  0  0
  146.5758  138.6910  152.6651 C   0  0  0  0  0  0  0  0  0  0  0  0
  146.2656  137.8054  151.4571 C   0  0  0  0  0  0  0  0  0  0  0  0
  146.6831  138.1022  150.3369 O   0  0  0  0  0  0  0  0  0  0  0  0
  145.5340  136.7100  151.7076 N   0  0  0  0  0  0  0  0  0  0  0  0
  145.1385  135.7374  150.7405 C   0  0  0  0  0  0  0  0  0  0  0  0
  144.2702  134.5900  151.2091 C   0  0  0  0  0  0  0  0  0  0  0  0
  145.7148  134.3440  150.8722 C   0  0  0  0  0  0  0  0  0  0  0  0
  147.9016  141.4720  155.0769 H   0  0  0  0  0  0  0  0  0  0  0  0
  146.6420  140.8456  154.0290 H   0  0  0  0  0  0  0  0  0  0  0  0
  148.0820  141.5796  153.3278 H   0  0  0  0  0  0  0  0  0  0  0  0
  148.0192  139.0032  154.9680 H   0  0  0  0  0  0  0  0  0  0  0  0
  150.4107  138.6907  154.2506 H   0  0  0  0  0  0  0  0  0  0  0  0
  150.3589  140.2149  153.3968 H   0  0  0  0  0  0  0  0  0  0  0  0
  149.5394  142.3342  155.2448 H   0  0  0  0  0  0  0  0  0  0  0  0
  150.7469  142.7410  157.6570 H   0  0  0  0  0  0  0  0  0  0  0  0
  151.9289  140.2915  158.1849 H   0  0  0  0  0  0  0  0  0  0  0  0
  148.3931  139.3698  152.1003 H   0  0  0  0  0  0  0  0  0  0  0  0
  146.1070  138.2473  153.5430 H   0  0  0  0  0  0  0  0  0  0  0  0
  146.1244  139.6723  152.5132 H   0  0  0  0  0  0  0  0  0  0  0  0
  145.2372  136.5465  152.6590 H   0  0  0  0  0  0  0  0  0  0  0  0
  144.9638  136.0851  149.7231 H   0  0  0  0  0  0  0  0  0  0  0  0
  143.9877  134.5597  152.2597 H   0  0  0  0  0  0  0  0  0  0  0  0
  143.5215  134.2122  150.5155 H   0  0  0  0  0  0  0  0  0  0  0  0
  145.9305  133.8005  149.9544 H   0  0  0  0  0  0  0  0  0  0  0  0
  146.3957  134.1493  151.6986 H   0  0  0  0  0  0  0  0  0  0  0  0
  148.4656  137.9375  152.8875 H   0  0  0  0  0  0  0  0  0  0  0  0
  1  2  1  0  0  0  0
  1 17  1  0  0  0  0
  1 18  1  0  0  0  0
  1 19  1  0  0  0  0
  2  3  1  0  0  0  0
  2  9  1  0  0  0  0
  2 20  1  0  0  0  0
  3  4  1  0  0  0  0
  3 21  1  0  0  0  0
  3 22  1  0  0  0  0
  4  8  1  0  0  0  0
  4  5  1  0  0  0  0
  5  6  2  0  0  0  0
  5 23  1  0  0  0  0
  6  7  1  0  0  0  0
  6 24  1  0  0  0  0
  7  8  2  0  0  0  0
  7 25  1  0  0  0  0
  9 10  1  0  0  0  0
  9 26  1  0  0  0  0
  9 35  1  0  0  0  0
 10 11  1  0  0  0  0
 10 27  1  0  0  0  0
 10 28  1  0  0  0  0
 11 12  2  0  0  0  0
 11 13  1  0  0  0  0
 13 14  1  0  0  0  0
 13 29  1  0  0  0  0
 14 16  1  0  0  0  0
 14 15  1  0  0  0  0
 14 30  1  0  0  0  0
 15 16  1  0  0  0  0
 15 31  1  0  0  0  0
 15 32  1  0  0  0  0
 16 33  1  0  0  0  0
 16 34  1  0  0  0  0
M  CHG  1   9   1
M  END
> <s_m_source_file>
AV-unprocessed.smi

> <i_m_source_file_index>
3154

> <i_lp_mmshare_version>
43012

> <i_f3d_flags>
0

> <s_epik_input>
bjFbY0hdW2NIXVtjSF1uMVtDSDJdW0NAQEhdKFtDSDNdKVtOSF1bQ0gyXUMoPU8pW05IXVtDSF0yW0NIMl1bQ0gyXTI=

> <s_epik_cmdline>
J2VwaWtfcHl0aG9uJywgJy1waCcsICc3LjAnLCAnLXRuJywgJzgnLCAnLW1hJywgJzIwMCcsICctbWV0YWxfYmluZGluZycsICctaW1hZScsICc8aW5maWxlLm1hZT4nLCAnLW9tYWUnLCAnPG91dGZpbGUubWFlPic=

> <r_lp_tautomer_probability>
1

> <r_epik_Ionization_Penalty>
0.12065

> <r_epik_Ionization_Penalty_Charging>
0.120646

> <r_epik_Ionization_Penalty_Neutral>
4.1343e-06

> <r_epik_State_Penalty>
0.110186

> <r_epik_Charging_Adjusted_Penalty>
0.230832

> <i_epik_Tot_Q>
1

> <i_epik_Tot_abs_Q>
1

> <r_epik_Metal_State_Penalty>
0.110197

> <b_epik_Metal_Only>
0

> <s_lp_Force_Field>
OPLS_2005

> <r_lp_Energy>
15.3848

> <b_lp_Chiralities_Consistent>
1

> <s_lp_Variant>
AV-unprocessed.smi:3154-1

> <Gold.Version>
5.8.1

> <Gold.Id.Protein>
6NUR|6NUR_protein|mol2

> <Gold.PLP.Fitness>
44.4141

> <Gold.PLP.PLP>
-30.0528

> <Gold.PLP.part.hbond>
-3.4428

> <Gold.PLP.part.metal>
0.0000

> <Gold.PLP.part.buried>
-0.1401

> <Gold.PLP.part.nonpolar>
-29.4233

> <Gold.PLP.part.repulsive>
2.2990

> <Gold.PLP.ligand.clash>
0.0000

> <Gold.PLP.ligand.torsion>
0.0436

> <Gold.PLP.Chemscore.Hbond>
3.8000

> <Gold.PLP.Chemscore.CHOScore>
1.0000

> <Gold.PLP.Chemscore.Metal>
0.0000

> <Gold.Chemscore.Hbonds>
donor molecule, donor type, donor heavy atom, donor atom, acceptor molecule, acceptor atom, score
      L1  H     9    26       P1  7957  1.00
      L1  H     9    35       P1  7948  1.92
      P1  H  7954  7966       L1    12  0.83
      L1  C     5    23       P1  8028  1.00

> <Gold.PLP.Chemscore.Internal.Correction>
0.0484

> <Gold.Rescore>
     Score         DG    S(hbond)    S(metal)    S(lipo)     H(rot)  DE(clash)    DE(int)     intcor
     14.49     -16.48       2.75        0.00      63.67       2.20       1.88       0.12       ----

> <Gold.Chemscore.Fitness>
14.4856

> <Gold.Chemscore.DG>
-16.4776

> <Gold.Chemscore.ZeroCoef>
-5.4800

> <Gold.Chemscore.Hbond>
2.7517

> <Gold.Chemscore.Metal>
0.0000

> <Gold.Chemscore.Lipo>
63.6724

> <Gold.Chemscore.Internal_Hbond>
0.0000

> <Gold.Chemscore.DEClash>
1.8765

> <Gold.Chemscore.DEInternal>
0.1155

> <Gold.Chemscore.Rot>
2.2042

> <Gold.Chemscore.Internal.Correction>
   9.000000E+99

> <Gold.Chemscore.Hbonds>
donor molecule, donor type, donor heavy atom, donor atom, acceptor molecule, acceptor atom, score
      L1  H     9    26       P1  7957  0.98
      L1  H     9    35       P1  7948  0.86
      P1  H  7954  7966       L1    12  0.79

> <Gold.Chemscore.Hbond.Weighted>
-9.1906

> <Gold.Chemscore.Metal.Weighted>
-0.0000

> <Gold.Chemscore.Lipo.Weighted>
-7.4497

> <Gold.Chemscore.Internal_Hbond.Weighted>
0.0000

> <Gold.Chemscore.DEClash.Weighted>
1.8765

> <Gold.Chemscore.DEInternal.Weighted>
0.1155

> <Gold.Chemscore.Rot.Weighted>
5.6427

> <Gold.Chemscore.Internal.Correction.Weighted>
   9.000000E+99

> <Gold.Protein.RotatedTorsions>
[ 6907 6896 6895 6894 ] final   85.62 input  -60.11 | X-H torsion
[ 7974 7965 7964 7962 ] final  -88.65 input  175.53 | X-H torsion
[ 8008 7997 7996 7995 ] final   49.87 input   59.86 | X-H torsion
[ 10167 10162 10161 10158 ] final  -35.62 input  -65.29 | X-H torsion
[ 10718 10713 10712 10709 ] final  -61.27 input   66.30 | X-H torsion
[ 10763 10752 10751 10750 ] final  -36.46 input  -60.55 | X-H torsion
[ 11005 11000 10999 10996 ] final -125.93 input  -57.11 | X-H torsion

> <Gold.Protein.ActiveResidues>
 VAL166  LYS551  ARG553  GLY616  TRP617  ASP618  TYR619  PRO620  LYS621  CYS622 
 ASP623  PHE694  ASN695  SER759  ASP760  ASP761  ALA762  ILE779  LEU786  VAL792 
 PHE793  MET794  SER795  GLU796  ALA797  LYS798  CYS799  TRP800  GLU811  SER814 

> <Gold.Protein.RotatedAtoms>
  152.5378  134.2558  159.8915 H   0  0  0  0  0  0  0  0  0  0  0  0  # atno 6907 bound_to 6896
  151.2519  133.4339  159.2619 H   0  0  0  0  0  0  0  0  0  0  0  0  # atno 6908 bound_to 6896
  151.0531  134.9700  159.8278 H   0  0  0  0  0  0  0  0  0  0  0  0  # atno 6909 bound_to 6896
  145.4503  140.9560  143.2026 H   0  0  0  0  0  0  0  0  0  0  0  0  # atno 7974 bound_to 7965
  155.4093  140.3441  155.4262 H   0  0  0  0  0  0  0  0  0  0  0  0  # atno 8008 bound_to 7997
  156.1458  140.1556  156.8881 H   0  0  0  0  0  0  0  0  0  0  0  0  # atno 8009 bound_to 7997
  154.5009  140.0815  156.7777 H   0  0  0  0  0  0  0  0  0  0  0  0  # atno 8010 bound_to 7997
  140.7161  143.3465  151.2245 H   0  0  0  0  0  0  0  0  0  0  0  0  # atno 10167 bound_to 10162
  156.0933  130.4197  150.0971 H   0  0  0  0  0  0  0  0  0  0  0  0  # atno 10718 bound_to 10713
  153.8801  135.6822  153.4767 H   0  0  0  0  0  0  0  0  0  0  0  0  # atno 10763 bound_to 10752
  153.1238  135.4728  154.9237 H   0  0  0  0  0  0  0  0  0  0  0  0  # atno 10764 bound_to 10752
  154.7673  135.3228  154.8213 H   0  0  0  0  0  0  0  0  0  0  0  0  # atno 10765 bound_to 10752
  140.9722  134.0789  157.3856 H   0  0  0  0  0  0  0  0  0  0  0  0  # atno 11005 bound_to 11000
  144.8065  139.6041  143.7048 LP  0  0  0  0  0  0  0  0  0  0  0  0  # atno 17320 bound_to 7965
  146.2508  139.6195  142.9428 LP  0  0  0  0  0  0  0  0  0  0  0  0  # atno 17321 bound_to 7965
  139.6985  143.9572  152.2894 LP  0  0  0  0  0  0  0  0  0  0  0  0  # atno 17342 bound_to 10162
  139.9257  144.6772  150.8415 LP  0  0  0  0  0  0  0  0  0  0  0  0  # atno 17343 bound_to 10162
  156.8975  130.9609  151.3580 LP  0  0  0  0  0  0  0  0  0  0  0  0  # atno 17370 bound_to 10713
  157.6088  130.8567  149.8918 LP  0  0  0  0  0  0  0  0  0  0  0  0  # atno 17371 bound_to 10713
  139.8917  135.0120  156.6804 LP  0  0  0  0  0  0  0  0  0  0  0  0  # atno 17394 bound_to 11000
  140.7311  133.9058  155.8212 LP  0  0  0  0  0  0  0  0  0  0  0  0  # atno 17395 bound_to 11000

$$$$
