#       Name:                AV-unprocessed.smi:2961
#       Creating user name   scv26
#       Creation time:       Fri Mar 27 16:21:43 2020


#       File generated by GOLD software.
#

@<TRIPOS>MOLECULE
AV-unprocessed.smi:2961
    53    55     1
SMALL
NO_CHARGES


@<TRIPOS>ATOM
      1 ****        -3.3834   3.3401  -4.3638 C.3            1 S1                 0.0000
      2 ****        -2.3495   3.7357  -3.3153 C.2            1 S1                 0.0000
      3 ****        -2.6109   4.6069  -2.4869 O.2            1 S1                 0.0000
      4 ****        -1.1810   3.0788  -3.3563 N.am           1 S1                 0.0000
      5 ****        -0.0561   3.3058  -2.4528 C.3            1 S1                 0.0000
      6 ****        -0.2974   2.7702  -1.0262 C.3            1 S1                 0.0000
      7 ****        -0.7495   1.3435  -1.0020 C.2            1 S1                 0.0000
      8 ****        -2.0412   0.9201  -0.8991 N.pl3          1 S1                 1.0000
      9 ****        -2.0848  -0.4741  -0.9142 C.ar           1 S1                 0.0000
     10 ****        -3.1610  -1.3523  -0.8318 C.ar           1 S1                 0.0000
     11 ****        -2.8582  -2.7292  -0.8682 C.ar           1 S1                 0.0000
     12 ****        -1.5291  -3.1858  -0.9832 C.ar           1 S1                 0.0000
     13 ****        -0.4469  -2.2854  -1.0699 C.ar           1 S1                 0.0000
     14 ****        -0.7542  -0.9252  -1.0337 C.ar           1 S1                 0.0000
     15 ****         0.0348   0.2307  -1.0889 N.pl3          1 S1                 0.0000
     16 ****         1.4960   0.1066  -1.2062 C.3            1 S1                 0.0000
     17 ****         2.1875   0.0696   0.1641 C.3            1 S1                 0.0000
     18 ****         1.6948  -1.0329   0.9136 O.3            1 S1                 0.0000
     19 ****         2.1381  -1.1969   2.2075 C.ar           1 S1                 0.0000
     20 ****         3.1042  -0.3676   2.8309 C.ar           1 S1                 0.0000
     21 ****         3.4958  -0.6089   4.1620 C.ar           1 S1                 0.0000
     22 ****         2.9316  -1.6772   4.8833 C.ar           1 S1                 0.0000
     23 ****         1.9734  -2.5100   4.2732 C.ar           1 S1                 0.0000
     24 ****         1.3648  -3.6584   5.0512 C.3            1 S1                 0.0000
     25 ****         1.5824  -2.2655   2.9406 C.ar           1 S1                 0.0000
     26 ****        -2.9330   3.3105  -5.3568 H              1 S1                 0.0000
     27 ****        -4.2067   4.0550  -4.3847 H              1 S1                 0.0000
     28 ****        -3.7914   2.3542  -4.1392 H              1 S1                 0.0000
     29 ****        -1.0549   2.3811  -4.0757 H              1 S1                 0.0000
     30 ****         0.8109   2.8083  -2.8872 H              1 S1                 0.0000
     31 ****         0.1874   4.3688  -2.4203 H              1 S1                 0.0000
     32 ****         0.6150   2.8643  -0.4370 H              1 S1                 0.0000
     33 ****        -1.0465   3.3809  -0.5213 H              1 S1                 0.0000
     34 ****        -4.1797  -1.0046  -0.7410 H              1 S1                 0.0000
     35 ****        -3.6607  -3.4497  -0.8040 H              1 S1                 0.0000
     36 ****        -1.3350  -4.2484  -1.0043 H              1 S1                 0.0000
     37 ****         0.5674  -2.6470  -1.1522 H              1 S1                 0.0000
     38 ****         1.7360  -0.7814  -1.7910 H              1 S1                 0.0000
     39 ****         1.8589   0.9578  -1.7816 H              1 S1                 0.0000
     40 ****         3.2658  -0.0208   0.0268 H              1 S1                 0.0000
     41 ****         1.9914   1.0038   0.6929 H              1 S1                 0.0000
     42 ****         3.5608   0.4598   2.3095 H              1 S1                 0.0000
     43 ****         4.2316   0.0280   4.6306 H              1 S1                 0.0000
     44 ****         3.2364  -1.8557   5.9043 H              1 S1                 0.0000
     45 ****         0.8627  -4.3635   4.3878 H              1 S1                 0.0000
     46 ****         0.6343  -3.2819   5.7674 H              1 S1                 0.0000
     47 ****         2.1360  -4.2003   5.5994 H              1 S1                 0.0000
     48 ****         0.8460  -2.9015   2.4714 H              1 S1                 0.0000
     49 ****        -2.8339   1.5444  -0.8217 H              1 S1                 0.0000
     50 ****        -3.5034   5.0576  -2.5000 LP             1 S1                 0.0000
     51 ****        -1.9308   4.8643  -1.8004 LP             1 S1                 0.0000
     52 ****         1.9360  -1.8632   0.4111 LP             1 S1                 0.0000
     53 ****         0.6995  -0.9434   0.9513 LP             1 S1                 0.0000
@<TRIPOS>BOND
    1    1    2 1     
    2    1   26 1     
    3    1   27 1     
    4    1   28 1     
    5    2    3 2     
    6    2    4 am    
    7    4    5 1     
    8    4   29 1     
    9    5    6 1     
   10    5   30 1     
   11    5   31 1     
   12    6    7 1     
   13    6   32 1     
   14    6   33 1     
   15    7   15 1     
   16    7    8 2     
   17    8    9 1     
   18    8   49 1     
   19    9   14 ar    
   20    9   10 ar    
   21   10   11 ar    
   22   10   34 1     
   23   11   12 ar    
   24   11   35 1     
   25   12   13 ar    
   26   12   36 1     
   27   13   14 ar    
   28   13   37 1     
   29   14   15 1     
   30   15   16 1     
   31   16   17 1     
   32   16   38 1     
   33   16   39 1     
   34   17   18 1     
   35   17   40 1     
   36   17   41 1     
   37   18   19 1     
   38   19   25 ar    
   39   19   20 ar    
   40   20   21 ar    
   41   20   42 1     
   42   21   22 ar    
   43   21   43 1     
   44   22   23 ar    
   45   22   44 1     
   46   23   24 1     
   47   23   25 ar    
   48   24   45 1     
   49   24   46 1     
   50   24   47 1     
   51   25   48 1     
   52    3   50 1     
   53    3   51 1     
   54   18   52 1     
   55   18   53 1     
@<TRIPOS>SUBSTRUCTURE
      1 S1             1
@<TRIPOS>SET
LONE_PAIRS      STATIC     ATOMS    <user>   **** ""
4 50 51 52 53
DONOR_HYDROGENS      STATIC     ATOMS    <user>   **** ""
2 29 49
ATOM$BLUE        STATIC     ATOMS    COLORGROUP SYSTEM
4 50 51 52 53
ATOM$RED        STATIC     ATOMS    COLORGROUP SYSTEM
2 29 49
