#       Name:                AV-unprocessed.smi:3123
#       Creating user name   scv26
#       Creation time:       Fri Mar 27 17:28:31 2020


#       File generated by GOLD software.
#

@<TRIPOS>MOLECULE
AV-unprocessed.smi:3123
    34    35     1
SMALL
NO_CHARGES


@<TRIPOS>ATOM
      1 ****        -3.8782   1.1999   1.2999 N.4            1 S1                 1.0000
      2 ****        -3.3649  -0.1791   1.2792 C.3            1 S1                 0.0000
      3 ****        -1.8525  -0.1880   1.3584 C.ar           1 S1                 0.0000
      4 ****        -1.1991  -0.1947   2.6071 C.ar           1 S1                 0.0000
      5 ****         0.2093  -0.1969   2.6260 C.ar           1 S1                 0.0000
      6 ****         0.9642  -0.1912   1.5070 N.ar           1 S1                 0.0000
      7 ****         0.3358  -0.1858   0.3068 C.ar           1 S1                 0.0000
      8 ****         1.1181  -0.1843  -0.8564 N.3            1 S1                 0.0000
      9 ****         1.8936   1.0373  -1.0334 C.3            1 S1                 0.0000
     10 ****         2.6206   1.0074  -2.3893 C.3            1 S1                 0.0000
     11 ****         3.4274  -0.1641  -2.4740 O.3            1 S1                 0.0000
     12 ****         2.6534  -1.3562  -2.3723 C.3            1 S1                 0.0000
     13 ****         1.9281  -1.3862  -1.0157 C.3            1 S1                 0.0000
     14 ****        -1.0701  -0.1815   0.1855 C.ar           1 S1                 0.0000
     15 ****        -4.8867   1.1871   1.2480 H              1 S1                 0.0000
     16 ****        -3.5050   1.7080   0.5109 H              1 S1                 0.0000
     17 ****        -3.7850  -0.7349   2.1180 H              1 S1                 0.0000
     18 ****        -3.6950  -0.6745   0.3655 H              1 S1                 0.0000
     19 ****        -1.7587  -0.1993   3.5309 H              1 S1                 0.0000
     20 ****         0.7435  -0.2026   3.5646 H              1 S1                 0.0000
     21 ****         1.2344   1.9047  -0.9807 H              1 S1                 0.0000
     22 ****         2.6210   1.1339  -0.2260 H              1 S1                 0.0000
     23 ****         1.9067   1.0304  -3.2142 H              1 S1                 0.0000
     24 ****         3.2571   1.8861  -2.4940 H              1 S1                 0.0000
     25 ****         1.9404  -1.4110  -3.1965 H              1 S1                 0.0000
     26 ****         3.3140  -2.2183  -2.4646 H              1 S1                 0.0000
     27 ****         2.6590  -1.4506  -0.2082 H              1 S1                 0.0000
     28 ****         1.2937  -2.2711  -0.9493 H              1 S1                 0.0000
     29 ****        -1.5362  -0.1762  -0.7896 H              1 S1                 0.0000
     30 ****        -3.5895   1.6515   2.1559 H              1 S1                 0.0000
     31 ****         1.9627  -0.1910   1.5626 LP             1 S1                 0.0000
     32 ****         0.4560  -0.2001  -1.6056 LP             1 S1                 0.0000
     33 ****         4.0963  -0.1495  -1.7307 LP             1 S1                 0.0000
     34 ****         3.9052  -0.1638  -3.3524 LP             1 S1                 0.0000
@<TRIPOS>BOND
    1    1    2 1     
    2    1   15 1     
    3    1   16 1     
    4    1   30 1     
    5    2    3 1     
    6    2   17 1     
    7    2   18 1     
    8    3   14 ar    
    9    3    4 ar    
   10    4    5 ar    
   11    4   19 1     
   12    5    6 ar    
   13    5   20 1     
   14    6    7 ar    
   15    7    8 1     
   16    7   14 ar    
   17    8   13 1     
   18    8    9 1     
   19    9   10 1     
   20    9   21 1     
   21    9   22 1     
   22   10   11 1     
   23   10   23 1     
   24   10   24 1     
   25   11   12 1     
   26   12   13 1     
   27   12   25 1     
   28   12   26 1     
   29   13   27 1     
   30   13   28 1     
   31   14   29 1     
   32    6   31 1     
   33    8   32 1     
   34   11   33 1     
   35   11   34 1     
@<TRIPOS>SUBSTRUCTURE
      1 S1             1
@<TRIPOS>SET
LONE_PAIRS      STATIC     ATOMS    <user>   **** ""
4 31 32 33 34
DONOR_HYDROGENS      STATIC     ATOMS    <user>   **** ""
3 15 16 30
ATOM$BLUE        STATIC     ATOMS    COLORGROUP SYSTEM
4 31 32 33 34
ATOM$RED        STATIC     ATOMS    COLORGROUP SYSTEM
3 15 16 30
