AV-unprocessed.smi:1684|AV-procd|sdf|6754|dock4
  -GOLD-   22720 7513D 1   1.00000     0.00000
 Structure written by MMmdl.
 42 43  0  0  0  0  0  0  0  0  1 V2000
  142.7655  137.1127  153.5387 C   0  0  0  0  0  0  0  0  0  0  0  0
  143.6729  136.3819  152.5624 C   0  0  0  0  0  0  0  0  0  0  0  0
  143.3252  135.0818  152.1380 C   0  0  0  0  0  0  0  0  0  0  0  0
  144.1658  134.4067  151.2366 C   0  0  0  0  0  0  0  0  0  0  0  0
  145.3269  135.0645  150.7957 C   0  0  0  0  0  0  0  0  0  0  0  0
  145.6664  136.3069  151.1955 N   0  0  0  0  0  0  0  0  0  0  0  0
  144.8656  136.9730  152.0650 C   0  0  0  0  0  0  0  0  0  0  0  0
  145.1572  138.2880  152.5252 N   0  0  0  0  0  0  0  0  0  0  0  0
  146.3209  138.7727  152.9928 C   0  0  0  0  0  0  0  0  0  0  0  0
  147.3609  138.1261  153.1225 O   0  0  0  0  0  0  0  0  0  0  0  0
  146.2058  140.0696  153.3165 N   0  0  0  0  0  0  0  0  0  0  0  0
  147.2555  140.9028  153.9014 C   0  0  1  0  0  0  0  0  0  0  0  0
  146.7947  142.3666  153.9131 C   0  0  0  0  0  0  0  0  0  0  0  0
  147.5924  140.4069  155.3234 C   0  0  0  0  0  0  0  0  0  0  0  0
  148.9873  140.0225  155.5466 N   0  0  0  0  0  0  0  0  0  0  0  0
  149.5196  139.1756  154.4810 C   0  0  0  0  0  0  0  0  0  0  0  0
  150.9908  138.8000  154.7296 C   0  0  0  0  0  0  0  0  0  0  0  0
  151.7694  139.9830  154.8774 O   0  0  0  0  0  0  0  0  0  0  0  0
  151.3089  140.8142  155.9376 C   0  0  0  0  0  0  0  0  0  0  0  0
  149.8396  141.1974  155.6905 C   0  0  0  0  0  0  0  0  0  0  0  0
  141.9015  136.5050  153.8089 H   0  0  0  0  0  0  0  0  0  0  0  0
  142.3987  138.0402  153.0983 H   0  0  0  0  0  0  0  0  0  0  0  0
  143.3060  137.3528  154.4547 H   0  0  0  0  0  0  0  0  0  0  0  0
  142.4252  134.6048  152.4975 H   0  0  0  0  0  0  0  0  0  0  0  0
  143.9275  133.4111  150.8925 H   0  0  0  0  0  0  0  0  0  0  0  0
  146.0007  134.5819  150.1034 H   0  0  0  0  0  0  0  0  0  0  0  0
  144.3847  138.9363  152.4946 H   0  0  0  0  0  0  0  0  0  0  0  0
  145.3094  140.5117  153.1762 H   0  0  0  0  0  0  0  0  0  0  0  0
  148.1589  140.8632  153.2921 H   0  0  0  0  0  0  0  0  0  0  0  0
  147.5681  143.0167  154.3227 H   0  0  0  0  0  0  0  0  0  0  0  0
  145.8961  142.4975  154.5168 H   0  0  0  0  0  0  0  0  0  0  0  0
  146.5725  142.7159  152.9041 H   0  0  0  0  0  0  0  0  0  0  0  0
  147.3051  141.1696  156.0490 H   0  0  0  0  0  0  0  0  0  0  0  0
  146.9562  139.5458  155.5332 H   0  0  0  0  0  0  0  0  0  0  0  0
  148.9384  138.2581  154.3983 H   0  0  0  0  0  0  0  0  0  0  0  0
  149.4346  139.6889  153.5220 H   0  0  0  0  0  0  0  0  0  0  0  0
  151.0842  138.1801  155.6225 H   0  0  0  0  0  0  0  0  0  0  0  0
  151.3801  138.2185  153.8936 H   0  0  0  0  0  0  0  0  0  0  0  0
  151.4179  140.2945  156.8908 H   0  0  0  0  0  0  0  0  0  0  0  0
  151.9305  141.7084  155.9862 H   0  0  0  0  0  0  0  0  0  0  0  0
  149.7740  141.8147  154.7932 H   0  0  0  0  0  0  0  0  0  0  0  0
  149.4851  141.8128  156.5183 H   0  0  0  0  0  0  0  0  0  0  0  0
  1  2  1  0  0  0  0
  1 21  1  0  0  0  0
  1 22  1  0  0  0  0
  1 23  1  0  0  0  0
  2  7  1  0  0  0  0
  2  3  2  0  0  0  0
  3  4  1  0  0  0  0
  3 24  1  0  0  0  0
  4  5  2  0  0  0  0
  4 25  1  0  0  0  0
  5  6  1  0  0  0  0
  5 26  1  0  0  0  0
  6  7  2  0  0  0  0
  7  8  1  0  0  0  0
  8  9  1  0  0  0  0
  8 27  1  0  0  0  0
  9 10  2  0  0  0  0
  9 11  1  0  0  0  0
 11 12  1  0  0  0  0
 11 28  1  0  0  0  0
 12 13  1  0  0  0  0
 12 14  1  0  0  0  0
 12 29  1  0  0  0  0
 13 30  1  0  0  0  0
 13 31  1  0  0  0  0
 13 32  1  0  0  0  0
 14 15  1  0  0  0  0
 14 33  1  0  0  0  0
 14 34  1  0  0  0  0
 15 20  1  0  0  0  0
 15 16  1  0  0  0  0
 16 17  1  0  0  0  0
 16 35  1  0  0  0  0
 16 36  1  0  0  0  0
 17 18  1  0  0  0  0
 17 37  1  0  0  0  0
 17 38  1  0  0  0  0
 18 19  1  0  0  0  0
 19 20  1  0  0  0  0
 19 39  1  0  0  0  0
 19 40  1  0  0  0  0
 20 41  1  0  0  0  0
 20 42  1  0  0  0  0
M  END
> <s_m_source_file>
AV-unprocessed.smi

> <i_m_source_file_index>
1684

> <i_lp_mmshare_version>
43012

> <i_f3d_flags>
0

> <s_epik_input>
W0NIM11jMVtjSF1bY0hdW2NIXW5jMVtOSF1DKD1PKVtOSF1bQ0BIXShbQ0gzXSlbQ0gyXU4yW0NIMl1bQ0gyXU9bQ0gyXVtDSDJdMg==

> <s_epik_cmdline>
J2VwaWtfcHl0aG9uJywgJy1waCcsICc3LjAnLCAnLXRuJywgJzgnLCAnLW1hJywgJzIwMCcsICctbWV0YWxfYmluZGluZycsICctaW1hZScsICc8aW5maWxlLm1hZT4nLCAnLW9tYWUnLCAnPG91dGZpbGUubWFlPic=

> <r_epik_Ionization_Penalty>
0.26605

> <r_epik_Ionization_Penalty_Charging>
0

> <r_epik_Ionization_Penalty_Neutral>
0.26605

> <r_epik_State_Penalty>
0.257924

> <r_epik_Charging_Adjusted_Penalty>
0.257924

> <i_epik_Tot_Q>
0

> <i_epik_Tot_abs_Q>
0

> <r_epik_Metal_State_Penalty>
0.257922

> <b_epik_Metal_Only>
0

> <s_lp_Force_Field>
OPLS_2005

> <r_lp_Energy>
28.5554

> <b_lp_Chiralities_Consistent>
1

> <s_lp_Variant>
AV-unprocessed.smi:1684-2

> <Gold.Version>
5.8.1

> <Gold.Id.Protein>
6NUR|6NUR_protein|mol2

> <Gold.PLP.Fitness>
42.4907

> <Gold.PLP.PLP>
-33.0798

> <Gold.PLP.part.hbond>
-4.0000

> <Gold.PLP.part.metal>
0.0000

> <Gold.PLP.part.buried>
-4.7666

> <Gold.PLP.part.nonpolar>
-27.6739

> <Gold.PLP.part.repulsive>
2.8640

> <Gold.PLP.ligand.clash>
0.0000

> <Gold.PLP.ligand.torsion>
1.3143

> <Gold.PLP.Chemscore.Hbond>
3.0000

> <Gold.PLP.Chemscore.CHOScore>
0.9902

> <Gold.PLP.Chemscore.Metal>
0.0000

> <Gold.Chemscore.Hbonds>
donor molecule, donor type, donor heavy atom, donor atom, acceptor molecule, acceptor atom, score
      L1  H     8    27       P1 10175  1.00
      L1  H    11    28       P1 10175  1.00
      P1  H  7989  7998       L1    18  0.99
      L1  C     5    26       P1  7921  0.99

> <Gold.PLP.Chemscore.Internal.Correction>
0.0689

> <Gold.Rescore>
     Score         DG    S(hbond)    S(metal)    S(lipo)     H(rot)  DE(clash)    DE(int)     intcor
     13.79     -17.84       2.47        0.00      66.95       1.46       1.29       2.76       ----

> <Gold.Chemscore.Fitness>
13.7937

> <Gold.Chemscore.DG>
-17.8423

> <Gold.Chemscore.ZeroCoef>
-5.4800

> <Gold.Chemscore.Hbond>
2.4737

> <Gold.Chemscore.Metal>
0.0000

> <Gold.Chemscore.Lipo>
66.9470

> <Gold.Chemscore.Internal_Hbond>
0.0000

> <Gold.Chemscore.DEClash>
1.2882

> <Gold.Chemscore.DEInternal>
2.7604

> <Gold.Chemscore.Rot>
1.4581

> <Gold.Chemscore.Internal.Correction>
   9.000000E+99

> <Gold.Chemscore.Hbonds>
donor molecule, donor type, donor heavy atom, donor atom, acceptor molecule, acceptor atom, score
      L1  H     8    27       P1 10175  0.98
      L1  H    11    28       P1 10175  0.89
      P1  H  7989  7998       L1    18  0.39

> <Gold.Chemscore.Hbond.Weighted>
-8.2622

> <Gold.Chemscore.Metal.Weighted>
-0.0000

> <Gold.Chemscore.Lipo.Weighted>
-7.8328

> <Gold.Chemscore.Internal_Hbond.Weighted>
0.0000

> <Gold.Chemscore.DEClash.Weighted>
1.2882

> <Gold.Chemscore.DEInternal.Weighted>
2.7604

> <Gold.Chemscore.Rot.Weighted>
3.7327

> <Gold.Chemscore.Internal.Correction.Weighted>
   9.000000E+99

> <Gold.Protein.RotatedTorsions>
[ 6907 6896 6895 6894 ] final   52.12 input  -60.11 | X-H torsion
[ 7974 7965 7964 7962 ] final  162.65 input  175.53 | X-H torsion
[ 8008 7997 7996 7995 ] final -171.67 input   59.86 | X-H torsion
[ 10167 10162 10161 10158 ] final -147.03 input  -65.29 | X-H torsion
[ 10718 10713 10712 10709 ] final  141.48 input   66.30 | X-H torsion
[ 10763 10752 10751 10750 ] final   -4.61 input  -60.55 | X-H torsion
[ 11005 11000 10999 10996 ] final   48.60 input  -57.11 | X-H torsion

> <Gold.Protein.ActiveResidues>
 VAL166  LYS551  ARG553  GLY616  TRP617  ASP618  TYR619  PRO620  LYS621  CYS622 
 ASP623  PHE694  ASN695  SER759  ASP760  ASP761  ALA762  ILE779  LEU786  VAL792 
 PHE793  MET794  SER795  GLU796  ALA797  LYS798  CYS799  TRP800  GLU811  SER814 

> <Gold.Protein.RotatedAtoms>
  152.3199  134.7393  160.0315 H   0  0  0  0  0  0  0  0  0  0  0  0  # atno 6907 bound_to 6896
  151.7845  133.3347  159.3489 H   0  0  0  0  0  0  0  0  0  0  0  0  # atno 6908 bound_to 6896
  150.7364  134.5831  159.5993 H   0  0  0  0  0  0  0  0  0  0  0  0  # atno 6909 bound_to 6896
  144.7626  139.8070  143.6327 H   0  0  0  0  0  0  0  0  0  0  0  0  # atno 7974 bound_to 7965
  155.9346  140.1097  157.1105 H   0  0  0  0  0  0  0  0  0  0  0  0  # atno 8008 bound_to 7997
  154.4077  140.1231  156.4913 H   0  0  0  0  0  0  0  0  0  0  0  0  # atno 8009 bound_to 7997
  155.7038  140.3471  155.4946 H   0  0  0  0  0  0  0  0  0  0  0  0  # atno 8010 bound_to 7997
  139.7659  143.8309  152.2616 H   0  0  0  0  0  0  0  0  0  0  0  0  # atno 10167 bound_to 10162
  157.3915  131.1005  151.0641 H   0  0  0  0  0  0  0  0  0  0  0  0  # atno 10718 bound_to 10713
  153.3873  135.7000  153.6521 H   0  0  0  0  0  0  0  0  0  0  0  0  # atno 10763 bound_to 10752
  153.5108  135.3632  155.2586 H   0  0  0  0  0  0  0  0  0  0  0  0  # atno 10764 bound_to 10752
  154.8699  135.4134  154.3182 H   0  0  0  0  0  0  0  0  0  0  0  0  # atno 10765 bound_to 10752
  140.1176  134.4872  155.8624 H   0  0  0  0  0  0  0  0  0  0  0  0  # atno 11005 bound_to 11000
  146.1704  139.4853  142.9931 LP  0  0  0  0  0  0  0  0  0  0  0  0  # atno 17320 bound_to 7965
  145.6570  141.0250  143.1729 LP  0  0  0  0  0  0  0  0  0  0  0  0  # atno 17321 bound_to 7965
  139.8329  144.7246  150.9428 LP  0  0  0  0  0  0  0  0  0  0  0  0  # atno 17342 bound_to 10162
  140.7811  143.4054  151.1080 LP  0  0  0  0  0  0  0  0  0  0  0  0  # atno 17343 bound_to 10162
  157.1673  130.6252  149.5629 LP  0  0  0  0  0  0  0  0  0  0  0  0  # atno 17370 bound_to 10713
  155.9799  130.4797  150.6745 LP  0  0  0  0  0  0  0  0  0  0  0  0  # atno 17371 bound_to 10713
  141.2144  133.6749  156.6826 LP  0  0  0  0  0  0  0  0  0  0  0  0  # atno 17394 bound_to 11000
  140.3008  134.8165  157.4096 LP  0  0  0  0  0  0  0  0  0  0  0  0  # atno 17395 bound_to 11000

$$$$
