AV-unprocessed.smi:1803|AV-procd|sdf|7281|dock9
  -GOLD-   22720 8543D 1   1.00000     0.00000
 Structure written by MMmdl.
 36 38  0  0  0  0  0  0  0  0  2 V2000
  145.0924  138.3475  153.2956 O   0  0  0  0  0  0  0  0  0  0  0  0
  146.0185  137.6642  152.8630 C   0  0  0  0  0  0  0  0  0  0  0  0
  147.3037  138.0262  153.0649 N   0  0  0  0  0  0  0  0  0  0  0  0
  147.8801  139.1439  153.7376 C   0  0  0  0  0  0  0  0  0  0  0  0
  149.0858  139.1386  154.3297 N   0  0  0  0  0  0  0  0  0  0  0  0
  149.3963  140.3672  154.8967 N   0  0  0  0  0  0  0  0  0  0  0  0
  148.4174  141.2556  154.7059 C   0  0  0  0  0  0  0  0  0  0  0  0
  147.0206  140.6762  153.8156 S   0  0  0  0  0  0  0  0  0  0  0  0
  145.8191  136.5287  152.1740 N   0  0  0  0  0  0  0  0  0  0  0  0
  144.5208  135.9576  151.8314 C   0  0  2  0  0  0  0  0  0  0  0  0
  143.5706  135.8700  153.0387 C   0  0  0  0  0  0  0  0  0  0  0  0
  142.8119  134.5391  152.8675 C   0  0  0  0  0  0  0  0  0  0  0  0
  143.2604  133.9980  151.5706 N   0  3  2  0  0  0  0  0  0  0  0  0
  143.1507  132.5358  151.3764 C   0  0  0  0  0  0  0  0  0  0  0  0
  143.5856  132.1801  149.9404 C   0  0  0  0  0  0  0  0  0  0  0  0
  144.9833  132.7424  149.6104 C   0  0  0  0  0  0  0  0  0  0  0  0
  145.0651  134.2492  149.9218 C   0  0  0  0  0  0  0  0  0  0  0  0
  144.6288  134.5002  151.3754 C   0  0  1  0  0  0  0  0  0  0  0  0
  147.9804  137.3738  152.6955 H   0  0  0  0  0  0  0  0  0  0  0  0
  148.5190  142.2595  155.0911 H   0  0  0  0  0  0  0  0  0  0  0  0
  146.6362  136.0254  151.8577 H   0  0  0  0  0  0  0  0  0  0  0  0
  144.0334  136.5489  151.0532 H   0  0  0  0  0  0  0  0  0  0  0  0
  144.1213  135.8605  153.9807 H   0  0  0  0  0  0  0  0  0  0  0  0
  142.8923  136.7235  153.0658 H   0  0  0  0  0  0  0  0  0  0  0  0
  143.0770  133.8519  153.6726 H   0  0  0  0  0  0  0  0  0  0  0  0
  141.7298  134.6722  152.8778 H   0  0  0  0  0  0  0  0  0  0  0  0
  143.7742  132.0156  152.1052 H   0  0  0  0  0  0  0  0  0  0  0  0
  142.1212  132.2195  151.5472 H   0  0  0  0  0  0  0  0  0  0  0  0
  143.5754  131.0984  149.8034 H   0  0  0  0  0  0  0  0  0  0  0  0
  142.8603  132.5861  149.2338 H   0  0  0  0  0  0  0  0  0  0  0  0
  145.7349  132.2103  150.1950 H   0  0  0  0  0  0  0  0  0  0  0  0
  145.2231  132.5619  148.5620 H   0  0  0  0  0  0  0  0  0  0  0  0
  146.0831  134.6052  149.7630 H   0  0  0  0  0  0  0  0  0  0  0  0
  144.4264  134.8068  149.2353 H   0  0  0  0  0  0  0  0  0  0  0  0
  145.2961  133.9618  152.0530 H   0  0  0  0  0  0  0  0  0  0  0  0
  142.6913  134.4399  150.8627 H   0  0  0  0  0  0  0  0  0  0  0  0
  1  2  2  0  0  0  0
  2  3  1  0  0  0  0
  2  9  1  0  0  0  0
  3  4  1  0  0  0  0
  3 19  1  0  0  0  0
  4  8  1  0  0  0  0
  4  5  2  0  0  0  0
  5  6  1  0  0  0  0
  6  7  2  0  0  0  0
  7  8  1  0  0  0  0
  7 20  1  0  0  0  0
  9 10  1  0  0  0  0
  9 21  1  0  0  0  0
 10 18  1  0  0  0  0
 10 11  1  0  0  0  0
 10 22  1  0  0  0  0
 11 12  1  0  0  0  0
 11 23  1  0  0  0  0
 11 24  1  0  0  0  0
 12 13  1  0  0  0  0
 12 25  1  0  0  0  0
 12 26  1  0  0  0  0
 13 18  1  0  0  0  0
 13 14  1  0  0  0  0
 13 36  1  0  0  0  0
 14 15  1  0  0  0  0
 14 27  1  0  0  0  0
 14 28  1  0  0  0  0
 15 16  1  0  0  0  0
 15 29  1  0  0  0  0
 15 30  1  0  0  0  0
 16 17  1  0  0  0  0
 16 31  1  0  0  0  0
 16 32  1  0  0  0  0
 17 18  1  0  0  0  0
 17 33  1  0  0  0  0
 17 34  1  0  0  0  0
 18 35  1  0  0  0  0
M  CHG  1  13   1
M  END
> <s_m_source_file>
AV-unprocessed.smi

> <i_m_source_file_index>
1803

> <i_lp_mmshare_version>
43012

> <i_f3d_flags>
0

> <s_epik_input>
czFbY0hdbm5jMVtOSF1DKD1PKVtOSF1bQ0BIXShbQ0gyXVtDSDJdMilbQ0BASF0oTjIzKVtDSDJdW0NIMl1bQ0gyXVtDSDJdMw==

> <s_epik_cmdline>
J2VwaWtfcHl0aG9uJywgJy1waCcsICc3LjAnLCAnLXRuJywgJzgnLCAnLW1hJywgJzIwMCcsICctbWV0YWxfYmluZGluZycsICctaW1hZScsICc8aW5maWxlLm1hZT4nLCAnLW9tYWUnLCAnPG91dGZpbGUubWFlPic=

> <r_lp_tautomer_probability>
1

> <r_epik_Ionization_Penalty>
0.00213286

> <r_epik_Ionization_Penalty_Charging>
0.00107044

> <r_epik_Ionization_Penalty_Neutral>
0.00106242

> <r_epik_State_Penalty>
-0

> <r_epik_Charging_Adjusted_Penalty>
0.00107044

> <i_epik_Tot_Q>
1

> <i_epik_Tot_abs_Q>
1

> <r_epik_Metal_State_Penalty>
0.292783

> <b_epik_Metal_Only>
0

> <s_lp_Force_Field>
OPLS_2005

> <r_lp_Energy>
35.8307

> <b_lp_Chiralities_Consistent>
1

> <s_lp_Variant>
AV-unprocessed.smi:1803-3

> <Gold.Version>
5.8.1

> <Gold.Id.Protein>
6NUR|6NUR_protein|mol2

> <Gold.PLP.Fitness>
35.7458

> <Gold.PLP.PLP>
-24.2331

> <Gold.PLP.part.hbond>
-2.7860

> <Gold.PLP.part.metal>
0.0000

> <Gold.PLP.part.buried>
-0.6124

> <Gold.PLP.part.nonpolar>
-26.7892

> <Gold.PLP.part.repulsive>
4.8822

> <Gold.PLP.ligand.clash>
0.0000

> <Gold.PLP.ligand.torsion>
0.3224

> <Gold.PLP.Chemscore.Hbond>
3.0493

> <Gold.PLP.Chemscore.CHOScore>
1.0000

> <Gold.PLP.Chemscore.Metal>
0.0000

> <Gold.Chemscore.Hbonds>
donor molecule, donor type, donor heavy atom, donor atom, acceptor molecule, acceptor atom, score
      L1  H     3    19       P1  7948  1.00
      L1  H     9    21       P1  7948  0.27
      L1  H    13    36       P1 10186  1.45
      L1  C     7    20       P1  8028  0.98

> <Gold.PLP.Chemscore.Internal.Correction>
0.0096

> <Gold.Rescore>
     Score         DG    S(hbond)    S(metal)    S(lipo)     H(rot)  DE(clash)    DE(int)     intcor
     12.96     -17.83       1.91        0.00      72.85       1.00       3.30       1.58       ----

> <Gold.Chemscore.Fitness>
12.9572

> <Gold.Chemscore.DG>
-17.8332

> <Gold.Chemscore.ZeroCoef>
-5.4800

> <Gold.Chemscore.Hbond>
1.9130

> <Gold.Chemscore.Metal>
0.0000

> <Gold.Chemscore.Lipo>
72.8519

> <Gold.Chemscore.Internal_Hbond>
0.0000

> <Gold.Chemscore.DEClash>
3.2950

> <Gold.Chemscore.DEInternal>
1.5811

> <Gold.Chemscore.Rot>
1.0000

> <Gold.Chemscore.Internal.Correction>
   9.000000E+99

> <Gold.Chemscore.Hbonds>
donor molecule, donor type, donor heavy atom, donor atom, acceptor molecule, acceptor atom, score
      L1  H     3    19       P1  7948  1.00
      L1  H     9    21       P1  7948  0.27
      L1  H    13    36       P1 10186  0.16

> <Gold.Chemscore.Hbond.Weighted>
-6.3896

> <Gold.Chemscore.Metal.Weighted>
-0.0000

> <Gold.Chemscore.Lipo.Weighted>
-8.5237

> <Gold.Chemscore.Internal_Hbond.Weighted>
0.0000

> <Gold.Chemscore.DEClash.Weighted>
3.2950

> <Gold.Chemscore.DEInternal.Weighted>
1.5811

> <Gold.Chemscore.Rot.Weighted>
2.5600

> <Gold.Chemscore.Internal.Correction.Weighted>
   9.000000E+99

> <Gold.Protein.RotatedTorsions>
[ 6907 6896 6895 6894 ] final  112.78 input  -60.11 | X-H torsion
[ 7974 7965 7964 7962 ] final  131.17 input  175.53 | X-H torsion
[ 8008 7997 7996 7995 ] final   29.07 input   59.86 | X-H torsion
[ 10167 10162 10161 10158 ] final   92.11 input  -65.29 | X-H torsion
[ 10718 10713 10712 10709 ] final  165.43 input   66.30 | X-H torsion
[ 10763 10752 10751 10750 ] final   63.21 input  -60.55 | X-H torsion
[ 11005 11000 10999 10996 ] final  -19.03 input  -57.11 | X-H torsion

> <Gold.Protein.ActiveResidues>
 VAL166  LYS551  ARG553  GLY616  TRP617  ASP618  TYR619  PRO620  LYS621  CYS622 
 ASP623  PHE694  ASN695  SER759  ASP760  ASP761  ALA762  ILE779  LEU786  VAL792 
 PHE793  MET794  SER795  GLU796  ALA797  LYS798  CYS799  TRP800  GLU811  SER814 

> <Gold.Protein.RotatedAtoms>
  152.4898  133.8468  159.7180 H   0  0  0  0  0  0  0  0  0  0  0  0  # atno 6907 bound_to 6896
  150.9016  133.7102  159.2884 H   0  0  0  0  0  0  0  0  0  0  0  0  # atno 6908 bound_to 6896
  151.4541  135.1036  159.9758 H   0  0  0  0  0  0  0  0  0  0  0  0  # atno 6909 bound_to 6896
  145.0102  139.4228  143.5249 H   0  0  0  0  0  0  0  0  0  0  0  0  # atno 7974 bound_to 7965
  155.0687  140.3198  155.4637 H   0  0  0  0  0  0  0  0  0  0  0  0  # atno 8008 bound_to 7997
  156.2796  140.2116  156.5759 H   0  0  0  0  0  0  0  0  0  0  0  0  # atno 8009 bound_to 7997
  154.7073  140.0501  157.0503 H   0  0  0  0  0  0  0  0  0  0  0  0  # atno 8010 bound_to 7997
  139.8309  144.6688  150.9401 H   0  0  0  0  0  0  0  0  0  0  0  0  # atno 10167 bound_to 10162
  157.0803  131.0390  151.2577 H   0  0  0  0  0  0  0  0  0  0  0  0  # atno 10718 bound_to 10713
  153.0010  135.5437  154.6316 H   0  0  0  0  0  0  0  0  0  0  0  0  # atno 10763 bound_to 10752
  154.5592  135.2832  155.0938 H   0  0  0  0  0  0  0  0  0  0  0  0  # atno 10764 bound_to 10752
  154.2147  135.6461  153.5178 H   0  0  0  0  0  0  0  0  0  0  0  0  # atno 10765 bound_to 10752
  140.8327  133.7985  155.9775 H   0  0  0  0  0  0  0  0  0  0  0  0  # atno 11005 bound_to 11000
  146.3468  139.9541  142.8725 LP  0  0  0  0  0  0  0  0  0  0  0  0  # atno 17320 bound_to 7965
  145.2034  140.9864  143.4142 LP  0  0  0  0  0  0  0  0  0  0  0  0  # atno 17321 bound_to 7965
  140.7807  143.4002  151.1162 LP  0  0  0  0  0  0  0  0  0  0  0  0  # atno 17342 bound_to 10162
  139.7656  143.8570  152.3110 LP  0  0  0  0  0  0  0  0  0  0  0  0  # atno 17343 bound_to 10162
  157.4805  130.7762  149.7410 LP  0  0  0  0  0  0  0  0  0  0  0  0  # atno 17370 bound_to 10713
  155.9925  130.3930  150.2938 LP  0  0  0  0  0  0  0  0  0  0  0  0  # atno 17371 bound_to 10713
  140.8981  134.2412  157.5057 LP  0  0  0  0  0  0  0  0  0  0  0  0  # atno 17394 bound_to 11000
  139.8704  134.9693  156.4663 LP  0  0  0  0  0  0  0  0  0  0  0  0  # atno 17395 bound_to 11000

$$$$
