AV-unprocessed.smi:2480|AV-procd|sdf|9769|dock7
  -GOLD-   2272013413D 1   1.00000     0.00000
 Structure written by MMmdl.
 33 34  0  0  0  0  0  0  0  0  3 V2000
  151.2357  141.3195  156.6748 O   0  0  0  0  0  0  0  0  0  0  0  0
  150.4756  142.2604  156.4565 C   0  0  0  0  0  0  0  0  0  0  0  0
  149.4145  142.2176  155.6270 N   0  0  0  0  0  0  0  0  0  0  0  0
  148.8952  141.1244  154.8764 C   0  0  0  0  0  0  0  0  0  0  0  0
  149.6547  139.9595  154.6067 C   0  0  0  0  0  0  0  0  0  0  0  0
  149.0669  138.9178  153.8650 C   0  0  0  0  0  0  0  0  0  0  0  0
  147.8090  138.9688  153.3850 N   0  0  0  0  0  0  0  0  0  0  0  0
  147.0906  140.0849  153.6247 C   0  0  0  0  0  0  0  0  0  0  0  0
  147.5766  141.1980  154.3485 C   0  0  0  0  0  0  0  0  0  0  0  0
  146.7022  142.3713  154.5376 N   0  3  0  0  0  0  0  0  0  0  0  0
  146.1435  142.8548  153.5580 O   0  0  0  0  0  0  0  0  0  0  0  0
  146.5570  142.7907  155.6806 O   0  5  0  0  0  0  0  0  0  0  0  0
  150.6524  143.4516  157.0587 N   0  0  0  0  0  0  0  0  0  0  0  0
  151.6936  143.8468  158.0109 C   0  0  2  0  0  0  0  0  0  0  0  0
  152.0056  142.7080  158.9742 C   0  0  0  0  0  0  0  0  0  0  0  0
  152.1562  142.8715  160.2996 C   0  0  0  0  0  0  0  0  0  0  0  0
  152.0447  144.2155  160.9949 C   0  0  0  0  0  0  0  0  0  0  0  0
  152.1129  145.3877  160.0004 C   0  0  0  0  0  0  0  0  0  0  0  0
  151.2506  145.1238  158.7567 C   0  0  0  0  0  0  0  0  0  0  0  0
  148.8528  143.0565  155.6018 H   0  0  0  0  0  0  0  0  0  0  0  0
  150.6731  139.8463  154.9444 H   0  0  0  0  0  0  0  0  0  0  0  0
  149.6254  138.0188  153.6491 H   0  0  0  0  0  0  0  0  0  0  0  0
  146.0925  140.0922  153.2118 H   0  0  0  0  0  0  0  0  0  0  0  0
  149.9992  144.1791  156.8058 H   0  0  0  0  0  0  0  0  0  0  0  0
  152.6167  144.0774  157.4766 H   0  0  0  0  0  0  0  0  0  0  0  0
  152.1088  141.7201  158.5491 H   0  0  0  0  0  0  0  0  0  0  0  0
  152.3563  142.0148  160.9262 H   0  0  0  0  0  0  0  0  0  0  0  0
  151.1004  144.2370  161.5400 H   0  0  0  0  0  0  0  0  0  0  0  0
  152.8415  144.3077  161.7335 H   0  0  0  0  0  0  0  0  0  0  0  0
  151.8003  146.3103  160.4901 H   0  0  0  0  0  0  0  0  0  0  0  0
  153.1475  145.5401  159.6899 H   0  0  0  0  0  0  0  0  0  0  0  0
  151.2900  145.9806  158.0831 H   0  0  0  0  0  0  0  0  0  0  0  0
  150.2099  145.0287  159.0707 H   0  0  0  0  0  0  0  0  0  0  0  0
  1  2  2  0  0  0  0
  2  3  1  0  0  0  0
  2 13  1  0  0  0  0
  3  4  1  0  0  0  0
  3 20  1  0  0  0  0
  4  9  1  0  0  0  0
  4  5  2  0  0  0  0
  5  6  1  0  0  0  0
  5 21  1  0  0  0  0
  6  7  2  0  0  0  0
  6 22  1  0  0  0  0
  7  8  1  0  0  0  0
  8  9  2  0  0  0  0
  8 23  1  0  0  0  0
  9 10  1  0  0  0  0
 10 11  2  0  0  0  0
 10 12  1  0  0  0  0
 13 14  1  0  0  0  0
 13 24  1  0  0  0  0
 14 19  1  0  0  0  0
 14 15  1  0  0  0  0
 14 25  1  0  0  0  0
 15 16  2  0  0  0  0
 15 26  1  0  0  0  0
 16 17  1  0  0  0  0
 16 27  1  0  0  0  0
 17 18  1  0  0  0  0
 17 28  1  0  0  0  0
 17 29  1  0  0  0  0
 18 19  1  0  0  0  0
 18 30  1  0  0  0  0
 18 31  1  0  0  0  0
 19 32  1  0  0  0  0
 19 33  1  0  0  0  0
M  CHG  1  10   1
M  CHG  1  12  -1
M  END
> <s_m_source_file>
AV-unprocessed.smi

> <i_m_source_file_index>
2480

> <i_lp_mmshare_version>
43012

> <i_f3d_flags>
0

> <s_epik_input>
W0NIMl0xW0NIMl1bQ0gyXVtDSF09W0NIXVtDQEhdMVtOSF1DKD1PKVtOSF1jMltjSF1bY0hdbltjSF1jMltOK10oPU8pW08tXQ==

> <s_epik_cmdline>
J2VwaWtfcHl0aG9uJywgJy1waCcsICc3LjAnLCAnLXRuJywgJzgnLCAnLW1hJywgJzIwMCcsICctbWV0YWxfYmluZGluZycsICctaW1hZScsICc8aW5maWxlLm1hZT4nLCAnLW9tYWUnLCAnPG91dGZpbGUubWFlPic=

> <r_lp_tautomer_probability>
1

> <r_epik_Ionization_Penalty>
0.000149203

> <r_epik_Ionization_Penalty_Charging>
0

> <r_epik_Ionization_Penalty_Neutral>
0.000149203

> <r_epik_State_Penalty>
-0

> <r_epik_Charging_Adjusted_Penalty>
0

> <i_epik_Tot_Q>
0

> <i_epik_Tot_abs_Q>
2

> <r_epik_Metal_State_Penalty>
-0

> <b_epik_Metal_Only>
0

> <s_lp_Force_Field>
OPLS_2005

> <r_lp_Energy>
27.2011

> <b_lp_Chiralities_Consistent>
1

> <s_lp_Variant>
AV-unprocessed.smi:2480-1

> <Gold.Version>
5.8.1

> <Gold.Id.Protein>
6NUR|6NUR_protein|mol2

> <Gold.PLP.Fitness>
47.9383

> <Gold.PLP.PLP>
-38.9874

> <Gold.PLP.part.hbond>
-2.0000

> <Gold.PLP.part.metal>
0.0000

> <Gold.PLP.part.buried>
-3.6990

> <Gold.PLP.part.nonpolar>
-34.8449

> <Gold.PLP.part.repulsive>
1.8766

> <Gold.PLP.ligand.clash>
0.0000

> <Gold.PLP.ligand.torsion>
1.2344

> <Gold.PLP.Chemscore.Hbond>
1.8560

> <Gold.PLP.Chemscore.CHOScore>
1.9477

> <Gold.PLP.Chemscore.Metal>
0.0000

> <Gold.Chemscore.Hbonds>
donor molecule, donor type, donor heavy atom, donor atom, acceptor molecule, acceptor atom, score
      L1  H     3    20       P1  8028  0.91
      L1  H    13    24       P1  8028  0.94
      L1  C     6    22       P1  7948  0.79
      L1  C     8    23       P1 10175  0.96

> <Gold.PLP.Chemscore.Internal.Correction>
0.0085

> <Gold.Rescore>
     Score         DG    S(hbond)    S(metal)    S(lipo)     H(rot)  DE(clash)    DE(int)     intcor
     16.12     -21.14       1.87        0.00     102.41       1.00       0.26       4.76       ----

> <Gold.Chemscore.Fitness>
16.1227

> <Gold.Chemscore.DG>
-21.1393

> <Gold.Chemscore.ZeroCoef>
-5.4800

> <Gold.Chemscore.Hbond>
1.8673

> <Gold.Chemscore.Metal>
0.0000

> <Gold.Chemscore.Lipo>
102.4145

> <Gold.Chemscore.Internal_Hbond>
0.0000

> <Gold.Chemscore.DEClash>
0.2578

> <Gold.Chemscore.DEInternal>
4.7588

> <Gold.Chemscore.Rot>
1.0000

> <Gold.Chemscore.Internal.Correction>
   9.000000E+99

> <Gold.Chemscore.Hbonds>
donor molecule, donor type, donor heavy atom, donor atom, acceptor molecule, acceptor atom, score
      L1  H     3    20       P1  8028  0.89
      L1  H    13    24       P1  8028  0.86

> <Gold.Chemscore.Hbond.Weighted>
-6.2368

> <Gold.Chemscore.Metal.Weighted>
-0.0000

> <Gold.Chemscore.Lipo.Weighted>
-11.9825

> <Gold.Chemscore.Internal_Hbond.Weighted>
0.0000

> <Gold.Chemscore.DEClash.Weighted>
0.2578

> <Gold.Chemscore.DEInternal.Weighted>
4.7588

> <Gold.Chemscore.Rot.Weighted>
2.5600

> <Gold.Chemscore.Internal.Correction.Weighted>
   9.000000E+99

> <Gold.Protein.RotatedTorsions>
[ 6907 6896 6895 6894 ] final  151.77 input  -60.11 | X-H torsion
[ 7974 7965 7964 7962 ] final  111.42 input  175.53 | X-H torsion
[ 8008 7997 7996 7995 ] final   12.65 input   59.86 | X-H torsion
[ 10167 10162 10161 10158 ] final  175.55 input  -65.29 | X-H torsion
[ 10718 10713 10712 10709 ] final  -16.59 input   66.30 | X-H torsion
[ 10763 10752 10751 10750 ] final  -27.36 input  -60.55 | X-H torsion
[ 11005 11000 10999 10996 ] final   55.15 input  -57.11 | X-H torsion

> <Gold.Protein.ActiveResidues>
 VAL166  LYS551  ARG553  GLY616  TRP617  ASP618  TYR619  PRO620  LYS621  CYS622 
 ASP623  PHE694  ASN695  SER759  ASP760  ASP761  ALA762  ILE779  LEU786  VAL792 
 PHE793  MET794  SER795  GLU796  ALA797  LYS798  CYS799  TRP800  GLU811  SER814 

> <Gold.Protein.RotatedAtoms>
  152.0960  133.4225  159.4565 H   0  0  0  0  0  0  0  0  0  0  0  0  # atno 6907 bound_to 6896
  150.6863  134.2816  159.4639 H   0  0  0  0  0  0  0  0  0  0  0  0  # atno 6908 bound_to 6896
  152.0672  134.9556  160.0625 H   0  0  0  0  0  0  0  0  0  0  0  0  # atno 6909 bound_to 6896
  145.2424  139.2773  143.4110 H   0  0  0  0  0  0  0  0  0  0  0  0  # atno 7974 bound_to 7965
  154.8235  140.2888  155.5770 H   0  0  0  0  0  0  0  0  0  0  0  0  # atno 8008 bound_to 7997
  156.3000  140.2545  156.3078 H   0  0  0  0  0  0  0  0  0  0  0  0  # atno 8009 bound_to 7997
  154.9311  140.0383  157.2038 H   0  0  0  0  0  0  0  0  0  0  0  0  # atno 8010 bound_to 7997
  139.5181  144.3019  152.0371 H   0  0  0  0  0  0  0  0  0  0  0  0  # atno 10167 bound_to 10162
  156.5854  130.4785  149.6302 H   0  0  0  0  0  0  0  0  0  0  0  0  # atno 10718 bound_to 10713
  153.7309  135.6939  153.4989 H   0  0  0  0  0  0  0  0  0  0  0  0  # atno 10763 bound_to 10752
  153.2137  135.4394  155.0408 H   0  0  0  0  0  0  0  0  0  0  0  0  # atno 10764 bound_to 10752
  154.8253  135.3443  154.6838 H   0  0  0  0  0  0  0  0  0  0  0  0  # atno 10765 bound_to 10752
  140.0630  134.5576  155.9131 H   0  0  0  0  0  0  0  0  0  0  0  0  # atno 11005 bound_to 11000
  146.3325  140.2792  142.8609 LP  0  0  0  0  0  0  0  0  0  0  0  0  # atno 17320 bound_to 7965
  144.9577  140.8243  143.5533 LP  0  0  0  0  0  0  0  0  0  0  0  0  # atno 17321 bound_to 7965
  140.2466  144.4213  150.6238 LP  0  0  0  0  0  0  0  0  0  0  0  0  # atno 17342 bound_to 10162
  140.6254  143.2180  151.6608 LP  0  0  0  0  0  0  0  0  0  0  0  0  # atno 17343 bound_to 10162
  156.2595  130.6954  151.1718 LP  0  0  0  0  0  0  0  0  0  0  0  0  # atno 17370 bound_to 10713
  157.7316  131.0606  150.5668 LP  0  0  0  0  0  0  0  0  0  0  0  0  # atno 17371 bound_to 10713
  141.1981  133.6599  156.5775 LP  0  0  0  0  0  0  0  0  0  0  0  0  # atno 17394 bound_to 11000
  140.3741  134.7580  157.4618 LP  0  0  0  0  0  0  0  0  0  0  0  0  # atno 17395 bound_to 11000

$$$$
