#       Name:                AV-unprocessed.smi:1508
#       Creating user name   scv26
#       Creation time:       Fri Mar 27 06:21:08 2020


#       File generated by GOLD software.
#

@<TRIPOS>MOLECULE
AV-unprocessed.smi:1508
    42    43     1
SMALL
NO_CHARGES


@<TRIPOS>ATOM
      1 ****        -0.8876   1.1235  -3.0233 C.3            1 S1                 0.0000
      2 ****        -1.2363   0.5517  -1.6408 C.3            1 S1                 0.0000
      3 ****        -0.5355  -0.7925  -1.3028 C.3            1 S1                 0.0000
      4 ****         1.0137  -0.6580  -1.2725 C.3            1 S1                 0.0000
      5 ****         1.5129   0.0226  -0.0779 N.am           1 S1                 0.0000
      6 ****         1.8100   1.3269   0.0113 C.2            1 S1                 0.0000
      7 ****         1.6839   2.1167  -0.9232 O.2            1 S1                 0.0000
      8 ****         2.2501   1.6412   1.2402 N.am           1 S1                 0.0000
      9 ****         2.6428   2.9136   1.7261 C.2            1 S1                 0.0000
     10 ****         3.0413   3.0024   3.0002 N.2            1 S1                 0.0000
     11 ****         3.3963   4.3007   3.3450 N.2            1 S1                 0.0000
     12 ****         3.2518   5.1411   2.3158 C.2            1 S1                 0.0000
     13 ****         2.6647   4.4309   0.8225 S.3            1 S1                 0.0000
     14 ****        -1.0450  -1.3733  -0.0227 N.4            1 S1                 1.0000
     15 ****        -2.5142  -1.4947   0.1035 C.3            1 S1                 0.0000
     16 ****        -2.7332  -2.5163   1.2130 C.3            1 S1                 0.0000
     17 ****        -1.6052  -3.5160   0.9892 C.3            1 S1                 0.0000
     18 ****        -0.4814  -2.7011   0.3345 C.3            1 S1                 0.0000
     19 ****        -1.4967   2.0017  -3.2379 H              1 S1                 0.0000
     20 ****        -1.0744   0.3932  -3.8110 H              1 S1                 0.0000
     21 ****         0.1536   1.4348  -3.0916 H              1 S1                 0.0000
     22 ****        -1.0255   1.2948  -0.8716 H              1 S1                 0.0000
     23 ****        -2.3176   0.4206  -1.6372 H              1 S1                 0.0000
     24 ****        -0.7915  -1.4950  -2.0978 H              1 S1                 0.0000
     25 ****         1.4674  -1.6487  -1.2786 H              1 S1                 0.0000
     26 ****         1.3934  -0.1841  -2.1775 H              1 S1                 0.0000
     27 ****         1.6646  -0.5503   0.7395 H              1 S1                 0.0000
     28 ****         2.3084   0.8876   1.9090 H              1 S1                 0.0000
     29 ****         3.4924   6.1869   2.4371 H              1 S1                 0.0000
     30 ****        -2.9859  -0.5400   0.3384 H              1 S1                 0.0000
     31 ****        -2.9364  -1.8676  -0.8315 H              1 S1                 0.0000
     32 ****        -2.6161  -2.0369   2.1857 H              1 S1                 0.0000
     33 ****        -3.7217  -2.9754   1.1796 H              1 S1                 0.0000
     34 ****        -1.2889  -3.9989   1.9145 H              1 S1                 0.0000
     35 ****        -1.9378  -4.2988   0.3058 H              1 S1                 0.0000
     36 ****        -0.1133  -3.2328  -0.5442 H              1 S1                 0.0000
     37 ****         0.3590  -2.5648   1.0157 H              1 S1                 0.0000
     38 ****        -0.7623  -0.7445   0.7154 H              1 S1                 0.0000
     39 ****         1.3439   1.7953  -1.8070 LP             1 S1                 0.0000
     40 ****         1.9214   3.0801  -0.7991 LP             1 S1                 0.0000
     41 ****         3.0792   2.2263   3.6297 LP             1 S1                 0.0000
     42 ****         3.7199   4.5727   4.2512 LP             1 S1                 0.0000
@<TRIPOS>BOND
    1    1    2 1     
    2    1   19 1     
    3    1   20 1     
    4    1   21 1     
    5    2    3 1     
    6    2   22 1     
    7    2   23 1     
    8    3    4 1     
    9    3   14 1     
   10    3   24 1     
   11    4    5 1     
   12    4   25 1     
   13    4   26 1     
   14    5    6 am    
   15    5   27 1     
   16    6    7 2     
   17    6    8 am    
   18    8    9 1     
   19    8   28 1     
   20    9   13 1     
   21    9   10 2     
   22   10   11 1     
   23   11   12 2     
   24   12   13 1     
   25   12   29 1     
   26   14   18 1     
   27   14   15 1     
   28   14   38 1     
   29   15   16 1     
   30   15   30 1     
   31   15   31 1     
   32   16   17 1     
   33   16   32 1     
   34   16   33 1     
   35   17   18 1     
   36   17   34 1     
   37   17   35 1     
   38   18   36 1     
   39   18   37 1     
   40    7   39 1     
   41    7   40 1     
   42   10   41 1     
   43   11   42 1     
@<TRIPOS>SUBSTRUCTURE
      1 S1             1
@<TRIPOS>SET
LONE_PAIRS      STATIC     ATOMS    <user>   **** ""
4 39 40 41 42
DONOR_HYDROGENS      STATIC     ATOMS    <user>   **** ""
3 27 28 38
ATOM$BLUE        STATIC     ATOMS    COLORGROUP SYSTEM
4 39 40 41 42
ATOM$RED        STATIC     ATOMS    COLORGROUP SYSTEM
3 27 28 38
