#       Name:                AV-unprocessed.smi:485
#       Creating user name   scv26
#       Creation time:       Thu Mar 26 23:12:27 2020


#       File generated by GOLD software.
#

@<TRIPOS>MOLECULE
AV-unprocessed.smi:485
    41    43     1
SMALL
NO_CHARGES


@<TRIPOS>ATOM
      1 ****         0.3050   3.4993   0.4690 O.3            1 S1                 0.0000
      2 ****        -0.5076   3.2928  -0.6660 C.3            1 S1                 0.0000
      3 ****        -1.4725   2.1577  -0.4994 C.2            1 S1                 0.0000
      4 ****        -2.7804   2.3702  -0.3473 N.2            1 S1                 0.0000
      5 ****        -3.2890   1.0898  -0.2560 C.ar           1 S1                 0.0000
      6 ****        -4.6185   0.6400  -0.0893 C.ar           1 S1                 0.0000
      7 ****        -4.9031  -0.7401  -0.0301 C.ar           1 S1                 0.0000
      8 ****        -3.8652  -1.6880  -0.1388 C.ar           1 S1                 0.0000
      9 ****        -2.5337  -1.2609  -0.3047 C.ar           1 S1                 0.0000
     10 ****        -2.2540   0.1181  -0.3586 C.ar           1 S1                 0.0000
     11 ****        -1.0828   0.8561  -0.5033 N.pl3          1 S1                 0.0000
     12 ****         0.2605   0.3055  -0.6444 C.3            1 S1                 0.0000
     13 ****         0.7859  -0.3368   0.6563 C.3            1 S1                 0.0000
     14 ****         0.7679   0.6067   1.7093 O.3            1 S1                 0.0000
     15 ****         2.1647  -0.9451   0.4536 C.ar           1 S1                 0.0000
     16 ****         2.3032  -2.3403   0.2895 C.ar           1 S1                 0.0000
     17 ****         3.5770  -2.9095   0.0956 C.ar           1 S1                 0.0000
     18 ****         4.7191  -2.0865   0.0620 C.ar           1 S1                 0.0000
     19 ****         4.5868  -0.6937   0.2202 C.ar           1 S1                 0.0000
     20 ****         3.3134  -0.1240   0.4142 C.ar           1 S1                 0.0000
     21 ****         0.8749   4.2336   0.3003 H              1 S1                 0.0000
     22 ****        -1.0628   4.2108  -0.8619 H              1 S1                 0.0000
     23 ****         0.1186   3.1182  -1.5407 H              1 S1                 0.0000
     24 ****        -5.4208   1.3584  -0.0080 H              1 S1                 0.0000
     25 ****        -5.9228  -1.0726   0.0976 H              1 S1                 0.0000
     26 ****        -4.0915  -2.7433  -0.0946 H              1 S1                 0.0000
     27 ****        -1.7376  -1.9853  -0.3894 H              1 S1                 0.0000
     28 ****         0.2324  -0.4408  -1.4392 H              1 S1                 0.0000
     29 ****         0.9460   1.0811  -0.9830 H              1 S1                 0.0000
     30 ****         0.1075  -1.1362   0.9550 H              1 S1                 0.0000
     31 ****         0.9908   0.1627   2.5127 H              1 S1                 0.0000
     32 ****         1.4330  -2.9802   0.3113 H              1 S1                 0.0000
     33 ****         3.6780  -3.9777  -0.0281 H              1 S1                 0.0000
     34 ****         5.6956  -2.5235  -0.0866 H              1 S1                 0.0000
     35 ****         5.4621  -0.0615   0.1926 H              1 S1                 0.0000
     36 ****         3.2206   0.9460   0.5314 H              1 S1                 0.0000
     37 ****         0.8523   2.6811   0.6453 LP             1 S1                 0.0000
     38 ****        -0.2694   3.6938   1.2641 LP             1 S1                 0.0000
     39 ****        -3.2709   3.2408  -0.3089 LP             1 S1                 0.0000
     40 ****        -0.1448   1.0078   1.7874 LP             1 S1                 0.0000
     41 ****         1.4349   1.3290   1.5266 LP             1 S1                 0.0000
@<TRIPOS>BOND
    1    1    2 1     
    2    1   21 1     
    3    2    3 1     
    4    2   22 1     
    5    2   23 1     
    6    3   11 1     
    7    3    4 2     
    8    4    5 1     
    9    5   10 ar    
   10    5    6 ar    
   11    6    7 ar    
   12    6   24 1     
   13    7    8 ar    
   14    7   25 1     
   15    8    9 ar    
   16    8   26 1     
   17    9   10 ar    
   18    9   27 1     
   19   10   11 1     
   20   11   12 1     
   21   12   13 1     
   22   12   28 1     
   23   12   29 1     
   24   13   14 1     
   25   13   15 1     
   26   13   30 1     
   27   14   31 1     
   28   15   20 ar    
   29   15   16 ar    
   30   16   17 ar    
   31   16   32 1     
   32   17   18 ar    
   33   17   33 1     
   34   18   19 ar    
   35   18   34 1     
   36   19   20 ar    
   37   19   35 1     
   38   20   36 1     
   39    1   37 1     
   40    1   38 1     
   41    4   39 1     
   42   14   40 1     
   43   14   41 1     
@<TRIPOS>SUBSTRUCTURE
      1 S1             1
@<TRIPOS>SET
LONE_PAIRS      STATIC     ATOMS    <user>   **** ""
5 37 38 39 40 41
DONOR_HYDROGENS      STATIC     ATOMS    <user>   **** ""
2 21 31
ATOM$BLUE        STATIC     ATOMS    COLORGROUP SYSTEM
5 37 38 39 40 41
ATOM$RED        STATIC     ATOMS    COLORGROUP SYSTEM
2 21 31
