AV-unprocessed.smi:1150|AV-procd|sdf|4893|dock9
  -GOLD-   22720 3463D 1   1.00000     0.00000
 Structure written by MMmdl.
 50 51  0  0  0  0  0  0  0  0  1 V2000
  145.3793  138.2432  155.8725 C   0  0  0  0  0  0  0  0  0  0  0  0
  145.8554  137.1840  154.8680 C   0  0  0  0  0  0  0  0  0  0  0  0
  146.1135  137.7478  153.4553 C   0  0  2  0  0  0  0  0  0  0  0  0
  146.3922  136.6564  152.5231 N   0  0  0  0  0  0  0  0  0  0  0  0
  145.5027  135.7783  152.0338 C   0  0  0  0  0  0  0  0  0  0  0  0
  144.3506  135.6657  152.4506 O   0  0  0  0  0  0  0  0  0  0  0  0
  145.9778  134.9354  150.8496 C   0  0  0  0  0  0  0  0  0  0  0  0
  145.9694  133.4782  151.2476 C   0  0  0  0  0  0  0  0  0  0  0  0
  145.0366  132.4755  150.8505 C   0  0  0  0  0  0  0  0  0  0  0  0
  143.8586  132.6172  149.9300 C   0  0  0  0  0  0  0  0  0  0  0  0
  145.2820  131.3048  151.4151 N   0  0  0  0  0  0  0  0  0  0  0  0
  146.3682  131.5154  152.1849 N   0  0  0  0  0  0  0  0  0  0  0  0
  146.9080  130.4216  152.9685 C   0  0  0  0  0  0  0  0  0  0  0  0
  146.8144  132.8193  152.1005 C   0  0  0  0  0  0  0  0  0  0  0  0
  147.9997  133.3063  152.8696 C   0  0  0  0  0  0  0  0  0  0  0  0
  147.2602  138.7959  153.4198 C   0  0  0  0  0  0  0  0  0  0  0  0
  148.4938  138.3246  154.2251 C   0  0  0  0  0  0  0  0  0  0  0  0
  149.6481  139.3365  154.1607 C   0  0  0  0  0  0  0  0  0  0  0  0
  149.1949  140.7207  154.6455 C   0  0  0  0  0  0  0  0  0  0  0  0
  147.9866  141.2132  153.8368 C   0  0  0  0  0  0  0  0  0  0  0  0
  146.8281  140.2053  153.8982 C   0  0  0  0  0  0  0  0  0  0  0  0
  145.2510  137.8066  156.8631 H   0  0  0  0  0  0  0  0  0  0  0  0
  144.4229  138.6752  155.5772 H   0  0  0  0  0  0  0  0  0  0  0  0
  146.1010  139.0560  155.9592 H   0  0  0  0  0  0  0  0  0  0  0  0
  146.7730  136.7344  155.2492 H   0  0  0  0  0  0  0  0  0  0  0  0
  145.1183  136.3819  154.8268 H   0  0  0  0  0  0  0  0  0  0  0  0
  145.1971  138.2595  153.1557 H   0  0  0  0  0  0  0  0  0  0  0  0
  147.3153  136.6494  152.1146 H   0  0  0  0  0  0  0  0  0  0  0  0
  145.3256  135.1260  149.9971 H   0  0  0  0  0  0  0  0  0  0  0  0
  146.9749  135.2595  150.5502 H   0  0  0  0  0  0  0  0  0  0  0  0
  143.1596  133.3646  150.3053 H   0  0  0  0  0  0  0  0  0  0  0  0
  143.3125  131.6794  149.8229 H   0  0  0  0  0  0  0  0  0  0  0  0
  144.1772  132.9296  148.9357 H   0  0  0  0  0  0  0  0  0  0  0  0
  147.8876  130.1425  152.5800 H   0  0  0  0  0  0  0  0  0  0  0  0
  146.2487  129.5537  152.9254 H   0  0  0  0  0  0  0  0  0  0  0  0
  147.0113  130.7318  154.0087 H   0  0  0  0  0  0  0  0  0  0  0  0
  148.2810  134.3146  152.5660 H   0  0  0  0  0  0  0  0  0  0  0  0
  148.8612  132.6575  152.7108 H   0  0  0  0  0  0  0  0  0  0  0  0
  147.7829  133.3271  153.9376 H   0  0  0  0  0  0  0  0  0  0  0  0
  147.5809  138.8868  152.3808 H   0  0  0  0  0  0  0  0  0  0  0  0
  148.2245  138.1726  155.2697 H   0  0  0  0  0  0  0  0  0  0  0  0
  148.8360  137.3583  153.8534 H   0  0  0  0  0  0  0  0  0  0  0  0
  150.4827  138.9855  154.7681 H   0  0  0  0  0  0  0  0  0  0  0  0
  150.0174  139.4080  153.1369 H   0  0  0  0  0  0  0  0  0  0  0  0
  148.9325  140.6719  155.7033 H   0  0  0  0  0  0  0  0  0  0  0  0
  150.0161  141.4328  154.5615 H   0  0  0  0  0  0  0  0  0  0  0  0
  147.6563  142.1807  154.2162 H   0  0  0  0  0  0  0  0  0  0  0  0
  148.2799  141.3715  152.7983 H   0  0  0  0  0  0  0  0  0  0  0  0
  146.0041  140.5779  153.2908 H   0  0  0  0  0  0  0  0  0  0  0  0
  146.4596  140.1617  154.9233 H   0  0  0  0  0  0  0  0  0  0  0  0
  1  2  1  0  0  0  0
  1 22  1  0  0  0  0
  1 23  1  0  0  0  0
  1 24  1  0  0  0  0
  2  3  1  0  0  0  0
  2 25  1  0  0  0  0
  2 26  1  0  0  0  0
  3  4  1  0  0  0  0
  3 16  1  0  0  0  0
  3 27  1  0  0  0  0
  4  5  1  0  0  0  0
  4 28  1  0  0  0  0
  5  6  2  0  0  0  0
  5  7  1  0  0  0  0
  7  8  1  0  0  0  0
  7 29  1  0  0  0  0
  7 30  1  0  0  0  0
  8 14  2  0  0  0  0
  8  9  1  0  0  0  0
  9 10  1  0  0  0  0
  9 11  2  0  0  0  0
 10 31  1  0  0  0  0
 10 32  1  0  0  0  0
 10 33  1  0  0  0  0
 11 12  1  0  0  0  0
 12 13  1  0  0  0  0
 12 14  1  0  0  0  0
 13 34  1  0  0  0  0
 13 35  1  0  0  0  0
 13 36  1  0  0  0  0
 14 15  1  0  0  0  0
 15 37  1  0  0  0  0
 15 38  1  0  0  0  0
 15 39  1  0  0  0  0
 16 21  1  0  0  0  0
 16 17  1  0  0  0  0
 16 40  1  0  0  0  0
 17 18  1  0  0  0  0
 17 41  1  0  0  0  0
 17 42  1  0  0  0  0
 18 19  1  0  0  0  0
 18 43  1  0  0  0  0
 18 44  1  0  0  0  0
 19 20  1  0  0  0  0
 19 45  1  0  0  0  0
 19 46  1  0  0  0  0
 20 21  1  0  0  0  0
 20 47  1  0  0  0  0
 20 48  1  0  0  0  0
 21 49  1  0  0  0  0
 21 50  1  0  0  0  0
M  END
> <s_m_source_file>
AV-unprocessed.smi

> <i_m_source_file_index>
1150

> <i_lp_mmshare_version>
43012

> <i_f3d_flags>
0

> <s_epik_input>
W0NIMl0xW0NIMl1bQ0gyXVtDSDJdW0NIMl1bQ0hdMVtDQEhdKFtDSDJdW0NIM10pW05IXUMoPU8pW0NIMl1jMmMoW0NIM10pbm4oW0NIM10pYzJbQ0gzXQ==

> <s_epik_cmdline>
J2VwaWtfcHl0aG9uJywgJy1waCcsICc3LjAnLCAnLXRuJywgJzgnLCAnLW1hJywgJzIwMCcsICctbWV0YWxfYmluZGluZycsICctaW1hZScsICc8aW5maWxlLm1hZT4nLCAnLW9tYWUnLCAnPG91dGZpbGUubWFlPic=

> <r_lp_tautomer_probability>
1

> <r_epik_Ionization_Penalty>
0.00328092

> <r_epik_Ionization_Penalty_Charging>
0

> <r_epik_Ionization_Penalty_Neutral>
0.00328092

> <r_epik_State_Penalty>
0.00231765

> <r_epik_Charging_Adjusted_Penalty>
0.00231765

> <i_epik_Tot_Q>
0

> <i_epik_Tot_abs_Q>
0

> <r_epik_Metal_State_Penalty>
-0

> <b_epik_Metal_Only>
0

> <s_lp_Force_Field>
OPLS_2005

> <r_lp_Energy>
6.65813

> <b_lp_Chiralities_Consistent>
1

> <s_lp_Variant>
AV-unprocessed.smi:1150-1

> <Gold.Version>
5.8.1

> <Gold.Id.Protein>
6NUR|6NUR_protein|mol2

> <Gold.PLP.Fitness>
36.5228

> <Gold.PLP.PLP>
-34.9176

> <Gold.PLP.part.hbond>
-1.0000

> <Gold.PLP.part.metal>
0.0000

> <Gold.PLP.part.buried>
-3.6967

> <Gold.PLP.part.nonpolar>
-30.5354

> <Gold.PLP.part.repulsive>
0.2800

> <Gold.PLP.ligand.clash>
0.0000

> <Gold.PLP.ligand.torsion>
0.7325

> <Gold.PLP.Chemscore.Hbond>
1.0000

> <Gold.PLP.Chemscore.CHOScore>
0.0000

> <Gold.PLP.Chemscore.Metal>
0.0000

> <Gold.Chemscore.Hbonds>
donor molecule, donor type, donor heavy atom, donor atom, acceptor molecule, acceptor atom, score
      L1  H     4    28       P1  7948  1.00

> <Gold.PLP.Chemscore.Internal.Correction>
0.0703

> <Gold.Rescore>
     Score         DG    S(hbond)    S(metal)    S(lipo)     H(rot)  DE(clash)    DE(int)     intcor
     14.75     -15.55       0.99        0.00      88.70       1.42       0.04       0.76       ----

> <Gold.Chemscore.Fitness>
14.7517

> <Gold.Chemscore.DG>
-15.5485

> <Gold.Chemscore.ZeroCoef>
-5.4800

> <Gold.Chemscore.Hbond>
0.9937

> <Gold.Chemscore.Metal>
0.0000

> <Gold.Chemscore.Lipo>
88.7026

> <Gold.Chemscore.Internal_Hbond>
0.0000

> <Gold.Chemscore.DEClash>
0.0397

> <Gold.Chemscore.DEInternal>
0.7571

> <Gold.Chemscore.Rot>
1.4174

> <Gold.Chemscore.Internal.Correction>
   9.000000E+99

> <Gold.Chemscore.Hbonds>
donor molecule, donor type, donor heavy atom, donor atom, acceptor molecule, acceptor atom, score
      L1  H     4    28       P1  7948  1.00

> <Gold.Chemscore.Hbond.Weighted>
-3.3189

> <Gold.Chemscore.Metal.Weighted>
-0.0000

> <Gold.Chemscore.Lipo.Weighted>
-10.3782

> <Gold.Chemscore.Internal_Hbond.Weighted>
0.0000

> <Gold.Chemscore.DEClash.Weighted>
0.0397

> <Gold.Chemscore.DEInternal.Weighted>
0.7571

> <Gold.Chemscore.Rot.Weighted>
3.6286

> <Gold.Chemscore.Internal.Correction.Weighted>
   9.000000E+99

> <Gold.Protein.RotatedTorsions>
[ 6907 6896 6895 6894 ] final  121.30 input  -60.11 | X-H torsion
[ 7974 7965 7964 7962 ] final -159.37 input  175.53 | X-H torsion
[ 8008 7997 7996 7995 ] final  -46.55 input   59.86 | X-H torsion
[ 10167 10162 10161 10158 ] final  127.00 input  -65.29 | X-H torsion
[ 10718 10713 10712 10709 ] final   15.82 input   66.30 | X-H torsion
[ 10763 10752 10751 10750 ] final -142.52 input  -60.55 | X-H torsion
[ 11005 11000 10999 10996 ] final  -38.10 input  -57.11 | X-H torsion

> <Gold.Protein.ActiveResidues>
 VAL166  LYS551  ARG553  GLY616  TRP617  ASP618  TYR619  PRO620  LYS621  CYS622 
 ASP623  PHE694  ASN695  SER759  ASP760  ASP761  ALA762  ILE779  LEU786  VAL792 
 PHE793  MET794  SER795  GLU796  ALA797  LYS798  CYS799  TRP800  GLU811  SER814 

> <Gold.Protein.RotatedAtoms>
  152.4332  133.7314  159.6589 H   0  0  0  0  0  0  0  0  0  0  0  0  # atno 6907 bound_to 6896
  150.8213  133.8237  159.3144 H   0  0  0  0  0  0  0  0  0  0  0  0  # atno 6908 bound_to 6896
  151.5919  135.1055  160.0092 H   0  0  0  0  0  0  0  0  0  0  0  0  # atno 6909 bound_to 6896
  144.7468  140.3695  143.6079 H   0  0  0  0  0  0  0  0  0  0  0  0  # atno 7974 bound_to 7965
  154.4008  140.1368  156.4029 H   0  0  0  0  0  0  0  0  0  0  0  0  # atno 8008 bound_to 7997
  155.7807  140.3481  155.5275 H   0  0  0  0  0  0  0  0  0  0  0  0  # atno 8009 bound_to 7997
  155.8677  140.0966  157.1561 H   0  0  0  0  0  0  0  0  0  0  0  0  # atno 8010 bound_to 7997
  139.5601  144.6876  151.4068 H   0  0  0  0  0  0  0  0  0  0  0  0  # atno 10167 bound_to 10162
  157.0590  130.6301  149.5782 H   0  0  0  0  0  0  0  0  0  0  0  0  # atno 10718 bound_to 10713
  154.8505  135.3493  154.6042 H   0  0  0  0  0  0  0  0  0  0  0  0  # atno 10763 bound_to 10752
  153.6650  135.6988  153.5170 H   0  0  0  0  0  0  0  0  0  0  0  0  # atno 10764 bound_to 10752
  153.2787  135.4270  155.1015 H   0  0  0  0  0  0  0  0  0  0  0  0  # atno 10765 bound_to 10752
  141.0002  133.6959  156.2008 H   0  0  0  0  0  0  0  0  0  0  0  0  # atno 11005 bound_to 11000
  145.7093  139.1680  143.2548 LP  0  0  0  0  0  0  0  0  0  0  0  0  # atno 17320 bound_to 7965
  146.1359  140.7123  142.9390 LP  0  0  0  0  0  0  0  0  0  0  0  0  # atno 17321 bound_to 7965
  140.6879  143.7930  150.7213 LP  0  0  0  0  0  0  0  0  0  0  0  0  # atno 17342 bound_to 10162
  140.1403  143.4447  152.2198 LP  0  0  0  0  0  0  0  0  0  0  0  0  # atno 17343 bound_to 10162
  155.9984  130.5058  150.7570 LP  0  0  0  0  0  0  0  0  0  0  0  0  # atno 17370 bound_to 10713
  157.4970  131.0915  151.0360 LP  0  0  0  0  0  0  0  0  0  0  0  0  # atno 17371 bound_to 10713
  140.6902  134.4674  157.5588 LP  0  0  0  0  0  0  0  0  0  0  0  0  # atno 17394 bound_to 11000
  139.9035  134.8502  156.1800 LP  0  0  0  0  0  0  0  0  0  0  0  0  # atno 17395 bound_to 11000

$$$$
