#       Name:                AV-unprocessed.smi:2886
#       Creating user name   scv26
#       Creation time:       Fri Mar 27 15:56:24 2020


#       File generated by GOLD software.
#

@<TRIPOS>MOLECULE
AV-unprocessed.smi:2886
    33    35     1
SMALL
NO_CHARGES


@<TRIPOS>ATOM
      1 ****        -4.2060  -3.1053  -0.9100 O.2            1 S1                 0.0000
      2 ****        -3.6725  -1.9992  -0.9690 C.2            1 S1                 0.0000
      3 ****        -4.2948  -0.8938  -1.4768 N.pl3          1 S1                -1.0000
      4 ****        -3.7002   0.2775  -1.5261 N.pl3          1 S1                 1.0000
      5 ****        -2.4617   0.4935  -1.0942 C.2            1 S1                 0.0000
      6 ****        -1.6990  -0.5765  -0.5479 C.2            1 S1                 0.0000
      7 ****        -0.4016  -0.4052  -0.0816 N.pl3          1 S1                 0.0000
      8 ****         0.4148   0.8015  -0.0436 C.3            1 S1                 0.0000
      9 ****         0.6461   1.3345   1.3709 C.3            1 S1                 0.0000
     10 ****         2.1781   1.4265   1.4201 C.3            1 S1                 0.0000
     11 ****         2.8200   0.0411   1.5677 C.3            1 S1                 0.0000
     12 ****         2.5958  -0.5543   0.1790 C.3            1 S1                 0.0000
     13 ****         1.8541   0.5852  -0.5415 C.3            1 S1                 0.0000
     14 ****         2.4790   1.7058   0.0621 O.3            1 S1                 0.0000
     15 ****        -2.2950  -1.8021  -0.4813 C.2            1 S1                 0.0000
     16 ****        -1.4492  -3.1655   0.1741 Cl             1 S1                 0.0000
     17 ****        -4.1917   1.0993  -1.9113 H              1 S1                 0.0000
     18 ****        -2.0832   1.5039  -1.1788 H              1 S1                 0.0000
     19 ****         0.0930  -1.2483   0.1749 H              1 S1                 0.0000
     20 ****        -0.0331   1.5865  -0.6518 H              1 S1                 0.0000
     21 ****         0.1900   2.3187   1.4828 H              1 S1                 0.0000
     22 ****         0.2498   0.6862   2.1537 H              1 S1                 0.0000
     23 ****         2.5553   2.1657   2.1274 H              1 S1                 0.0000
     24 ****         3.8864   0.1268   1.7794 H              1 S1                 0.0000
     25 ****         2.3601  -0.5485   2.3617 H              1 S1                 0.0000
     26 ****         3.5525  -0.7534  -0.3050 H              1 S1                 0.0000
     27 ****         2.0322  -1.4872   0.2013 H              1 S1                 0.0000
     28 ****         1.9445   0.5532  -1.6276 H              1 S1                 0.0000
     29 ****        -5.1407  -3.2280  -1.2435 LP             1 S1                 0.0000
     30 ****        -3.7052  -3.8822  -0.5284 LP             1 S1                 0.0000
     31 ****        -5.2299  -0.9783  -1.8209 LP             1 S1                 0.0000
     32 ****         3.4644   1.7216  -0.1076 LP             1 S1                 0.0000
     33 ****         2.0747   2.5686  -0.2414 LP             1 S1                 0.0000
@<TRIPOS>BOND
    1    1    2 2     
    2    2    3 1     
    3    2   15 1     
    4    3    4 1     
    5    4    5 2     
    6    4   17 1     
    7    5    6 1     
    8    5   18 1     
    9    6   15 2     
   10    6    7 1     
   11    7    8 1     
   12    7   19 1     
   13    8   13 1     
   14    8    9 1     
   15    8   20 1     
   16    9   10 1     
   17    9   21 1     
   18    9   22 1     
   19   10   14 1     
   20   10   11 1     
   21   10   23 1     
   22   11   12 1     
   23   11   24 1     
   24   11   25 1     
   25   12   13 1     
   26   12   26 1     
   27   12   27 1     
   28   13   14 1     
   29   13   28 1     
   30   15   16 1     
   31    1   29 1     
   32    1   30 1     
   33    3   31 1     
   34   14   32 1     
   35   14   33 1     
@<TRIPOS>SUBSTRUCTURE
      1 S1             1
@<TRIPOS>SET
LONE_PAIRS      STATIC     ATOMS    <user>   **** ""
5 29 30 31 32 33
DONOR_HYDROGENS      STATIC     ATOMS    <user>   **** ""
2 17 19
ATOM$BLUE        STATIC     ATOMS    COLORGROUP SYSTEM
5 29 30 31 32 33
ATOM$RED        STATIC     ATOMS    COLORGROUP SYSTEM
2 17 19
