AV-unprocessed.smi:740|AV-procd|sdf|3551|dock6
  -GOLD-   22720 0543D 1   1.00000     0.00000
 Structure written by MMmdl.
 45 47  0  0  0  0  0  0  0  0  2 V2000
  152.4490  143.4752  161.3617 C   0  0  0  0  0  0  0  0  0  0  0  0
  152.1984  142.7258  160.0642 C   0  0  0  0  0  0  0  0  0  0  0  0
  151.3108  143.2897  159.1207 C   0  0  0  0  0  0  0  0  0  0  0  0
  151.1035  142.5819  157.9429 C   0  0  0  0  0  0  0  0  0  0  0  0
  150.3046  142.8687  156.8344 N   0  3  0  0  0  0  0  0  0  0  0  0
  150.4286  141.8720  155.9152 C   0  0  0  0  0  0  0  0  0  0  0  0
  151.2926  140.9509  156.4214 N   0  0  0  0  0  0  0  0  0  0  0  0
  151.7647  139.6908  155.8301 C   0  0  0  0  0  0  0  0  0  0  0  0
  150.6758  138.9727  155.0092 C   0  0  1  0  0  0  0  0  0  0  0  0
  150.4297  139.7139  153.8302 O   0  0  0  0  0  0  0  0  0  0  0  0
  151.1094  137.5442  154.6191 C   0  0  0  0  0  0  0  0  0  0  0  0
  150.3727  136.5195  155.3679 N   0  0  0  0  0  0  0  0  0  0  0  0
  150.9472  135.6361  156.1957 C   0  0  0  0  0  0  0  0  0  0  0  0
  152.1492  135.5459  156.4437 O   0  0  0  0  0  0  0  0  0  0  0  0
  149.9060  134.7232  156.8279 C   0  0  0  0  0  0  0  0  0  0  0  0
  148.5833  135.2308  156.2341 C   0  0  1  0  0  0  0  0  0  0  0  0
  147.5722  135.7057  157.2908 C   0  0  0  0  0  0  0  0  0  0  0  0
  149.0403  136.3755  155.3317 C   0  0  0  0  0  0  0  0  0  0  0  0
  148.2550  137.0585  154.6742 O   0  0  0  0  0  0  0  0  0  0  0  0
  151.7408  141.3522  157.6859 C   0  0  0  0  0  0  0  0  0  0  0  0
  152.6179  140.7824  158.6063 C   0  0  0  0  0  0  0  0  0  0  0  0
  152.8451  141.4887  159.8092 C   0  0  0  0  0  0  0  0  0  0  0  0
  153.8013  140.8932  160.8288 C   0  0  0  0  0  0  0  0  0  0  0  0
  151.8455  144.3813  161.4218 H   0  0  0  0  0  0  0  0  0  0  0  0
  153.4969  143.7666  161.4377 H   0  0  0  0  0  0  0  0  0  0  0  0
  152.1990  142.8520  162.2206 H   0  0  0  0  0  0  0  0  0  0  0  0
  150.8163  144.2319  159.3064 H   0  0  0  0  0  0  0  0  0  0  0  0
  149.9313  141.8210  154.9573 H   0  0  0  0  0  0  0  0  0  0  0  0
  152.6582  139.8787  155.2343 H   0  0  0  0  0  0  0  0  0  0  0  0
  152.0797  139.0554  156.6588 H   0  0  0  0  0  0  0  0  0  0  0  0
  149.7579  138.9404  155.5979 H   0  0  0  0  0  0  0  0  0  0  0  0
  150.0260  139.1428  153.1946 H   0  0  0  0  0  0  0  0  0  0  0  0
  151.0174  137.3937  153.5418 H   0  0  0  0  0  0  0  0  0  0  0  0
  152.1719  137.4158  154.8332 H   0  0  0  0  0  0  0  0  0  0  0  0
  150.0978  133.6837  156.5595 H   0  0  0  0  0  0  0  0  0  0  0  0
  149.9389  134.8129  157.9144 H   0  0  0  0  0  0  0  0  0  0  0  0
  148.1321  134.4546  155.6146 H   0  0  0  0  0  0  0  0  0  0  0  0
  146.6374  136.0224  156.8272 H   0  0  0  0  0  0  0  0  0  0  0  0
  147.9594  136.5455  157.8693 H   0  0  0  0  0  0  0  0  0  0  0  0
  147.3356  134.9033  157.9899 H   0  0  0  0  0  0  0  0  0  0  0  0
  153.1131  139.8428  158.4129 H   0  0  0  0  0  0  0  0  0  0  0  0
  154.2544  139.9720  160.4613 H   0  0  0  0  0  0  0  0  0  0  0  0
  153.2750  140.6600  161.7547 H   0  0  0  0  0  0  0  0  0  0  0  0
  154.6074  141.5917  161.0542 H   0  0  0  0  0  0  0  0  0  0  0  0
  149.7176  143.6840  156.7113 H   0  0  0  0  0  0  0  0  0  0  0  0
  1  2  1  0  0  0  0
  1 24  1  0  0  0  0
  1 25  1  0  0  0  0
  1 26  1  0  0  0  0
  2 22  1  0  0  0  0
  2  3  2  0  0  0  0
  3  4  1  0  0  0  0
  3 27  1  0  0  0  0
  4 20  2  0  0  0  0
  4  5  1  0  0  0  0
  5  6  2  0  0  0  0
  5 45  1  0  0  0  0
  6  7  1  0  0  0  0
  6 28  1  0  0  0  0
  7  8  1  0  0  0  0
  7 20  1  0  0  0  0
  8  9  1  0  0  0  0
  8 29  1  0  0  0  0
  8 30  1  0  0  0  0
  9 10  1  0  0  0  0
  9 11  1  0  0  0  0
  9 31  1  0  0  0  0
 10 32  1  0  0  0  0
 11 12  1  0  0  0  0
 11 33  1  0  0  0  0
 11 34  1  0  0  0  0
 12 18  1  0  0  0  0
 12 13  1  0  0  0  0
 13 14  2  0  0  0  0
 13 15  1  0  0  0  0
 15 16  1  0  0  0  0
 15 35  1  0  0  0  0
 15 36  1  0  0  0  0
 16 17  1  0  0  0  0
 16 18  1  0  0  0  0
 16 37  1  0  0  0  0
 17 38  1  0  0  0  0
 17 39  1  0  0  0  0
 17 40  1  0  0  0  0
 18 19  2  0  0  0  0
 20 21  1  0  0  0  0
 21 22  2  0  0  0  0
 21 41  1  0  0  0  0
 22 23  1  0  0  0  0
 23 42  1  0  0  0  0
 23 43  1  0  0  0  0
 23 44  1  0  0  0  0
M  CHG  1   5   1
M  END
> <s_m_source_file>
AV-unprocessed.smi

> <i_m_source_file_index>
740

> <i_lp_mmshare_version>
43012

> <i_f3d_flags>
0

> <s_epik_input>
W0NIM11jKFtjSF0xKWMoW0NIM10pW2NIXWMoYzEyKW4oW2NIXW4yKVtDSDJdW0NASF0oW09IXSlbQ0gyXU4zQyg9TylbQ0gyXVtDQEBIXShbQ0gzXSlDMz1P

> <s_epik_cmdline>
J2VwaWtfcHl0aG9uJywgJy1waCcsICc3LjAnLCAnLXRuJywgJzgnLCAnLW1hJywgJzIwMCcsICctbWV0YWxfYmluZGluZycsICctaW1hZScsICc8aW5maWxlLm1hZT4nLCAnLW9tYWUnLCAnPG91dGZpbGUubWFlPic=

> <r_lp_tautomer_probability>
1

> <r_epik_Ionization_Penalty>
1.08202

> <r_epik_Ionization_Penalty_Charging>
1.08202

> <r_epik_Ionization_Penalty_Neutral>
1.16605e-06

> <r_epik_State_Penalty>
1.13754

> <r_epik_Charging_Adjusted_Penalty>
2.21956

> <i_epik_Tot_Q>
1

> <i_epik_Tot_abs_Q>
1

> <r_epik_Metal_State_Penalty>
5.13645

> <b_epik_Metal_Only>
0

> <s_lp_Force_Field>
OPLS_2005

> <r_lp_Energy>
22.2654

> <b_lp_Chiralities_Consistent>
1

> <s_lp_Variant>
AV-unprocessed.smi:740-6

> <Gold.Version>
5.8.1

> <Gold.Id.Protein>
6NUR|6NUR_protein|mol2

> <Gold.PLP.Fitness>
53.4170

> <Gold.PLP.PLP>
-43.1471

> <Gold.PLP.part.hbond>
-4.0000

> <Gold.PLP.part.metal>
0.0000

> <Gold.PLP.part.buried>
-4.3306

> <Gold.PLP.part.nonpolar>
-34.0219

> <Gold.PLP.part.repulsive>
0.4722

> <Gold.PLP.ligand.clash>
0.0000

> <Gold.PLP.ligand.torsion>
1.0781

> <Gold.PLP.Chemscore.Hbond>
4.1354

> <Gold.PLP.Chemscore.CHOScore>
0.0000

> <Gold.PLP.Chemscore.Metal>
0.0000

> <Gold.Chemscore.Hbonds>
donor molecule, donor type, donor heavy atom, donor atom, acceptor molecule, acceptor atom, score
      L1  H     5    45       P1  8028  1.98
      L1  H    10    32       P1  7957  0.15
      P1  H  7989  7998       L1    10  1.00
      P1  H 10752 10765       L1    14  1.00

> <Gold.PLP.Chemscore.Internal.Correction>
0.0200

> <Gold.Rescore>
     Score         DG    S(hbond)    S(metal)    S(lipo)     H(rot)  DE(clash)    DE(int)     intcor
     18.76     -21.37       2.97        0.00     102.92       2.37       0.52       2.09       ----

> <Gold.Chemscore.Fitness>
18.7614

> <Gold.Chemscore.DG>
-21.3656

> <Gold.Chemscore.ZeroCoef>
-5.4800

> <Gold.Chemscore.Hbond>
2.9693

> <Gold.Chemscore.Metal>
0.0000

> <Gold.Chemscore.Lipo>
102.9202

> <Gold.Chemscore.Internal_Hbond>
0.0000

> <Gold.Chemscore.DEClash>
0.5168

> <Gold.Chemscore.DEInternal>
2.0875

> <Gold.Chemscore.Rot>
2.3724

> <Gold.Chemscore.Internal.Correction>
   9.000000E+99

> <Gold.Chemscore.Hbonds>
donor molecule, donor type, donor heavy atom, donor atom, acceptor molecule, acceptor atom, score
      L1  H     5    45       P1  8028  0.93
      L1  H    10    32       P1  7957  0.15
      P1  H  7989  7998       L1    10  0.84
      P1  H 10752 10765       L1    14  0.81

> <Gold.Chemscore.Hbond.Weighted>
-9.9174

> <Gold.Chemscore.Metal.Weighted>
-0.0000

> <Gold.Chemscore.Lipo.Weighted>
-12.0417

> <Gold.Chemscore.Internal_Hbond.Weighted>
0.0000

> <Gold.Chemscore.DEClash.Weighted>
0.5168

> <Gold.Chemscore.DEInternal.Weighted>
2.0875

> <Gold.Chemscore.Rot.Weighted>
6.0734

> <Gold.Chemscore.Internal.Correction.Weighted>
   9.000000E+99

> <Gold.Protein.RotatedTorsions>
[ 6907 6896 6895 6894 ] final  170.93 input  -60.11 | X-H torsion
[ 7974 7965 7964 7962 ] final   26.05 input  175.53 | X-H torsion
[ 8008 7997 7996 7995 ] final  133.17 input   59.86 | X-H torsion
[ 10167 10162 10161 10158 ] final  115.97 input  -65.29 | X-H torsion
[ 10718 10713 10712 10709 ] final  173.99 input   66.30 | X-H torsion
[ 10763 10752 10751 10750 ] final -154.54 input  -60.55 | X-H torsion
[ 11005 11000 10999 10996 ] final   43.55 input  -57.11 | X-H torsion

> <Gold.Protein.ActiveResidues>
 VAL166  LYS551  ARG553  GLY616  TRP617  ASP618  TYR619  PRO620  LYS621  CYS622 
 ASP623  PHE694  ASN695  SER759  ASP760  ASP761  ALA762  ILE779  LEU786  VAL792 
 PHE793  MET794  SER795  GLU796  ALA797  LYS798  CYS799  TRP800  GLU811  SER814 

> <Gold.Protein.RotatedAtoms>
  151.8083  133.3378  159.3547 H   0  0  0  0  0  0  0  0  0  0  0  0  # atno 6907 bound_to 6896
  150.7335  134.5688  159.5889 H   0  0  0  0  0  0  0  0  0  0  0  0  # atno 6908 bound_to 6896
  152.3093  134.7517  160.0391 H   0  0  0  0  0  0  0  0  0  0  0  0  # atno 6909 bound_to 6896
  146.1857  139.7381  142.8868 H   0  0  0  0  0  0  0  0  0  0  0  0  # atno 7974 bound_to 7965
  156.2990  140.2528  156.3209 H   0  0  0  0  0  0  0  0  0  0  0  0  # atno 8008 bound_to 7997
  154.9236  140.0400  157.2030 H   0  0  0  0  0  0  0  0  0  0  0  0  # atno 8009 bound_to 7997
  154.8287  140.2872  155.5741 H   0  0  0  0  0  0  0  0  0  0  0  0  # atno 8010 bound_to 7997
  139.6280  144.7111  151.2493 H   0  0  0  0  0  0  0  0  0  0  0  0  # atno 10167 bound_to 10162
  156.9562  131.0046  151.2938 H   0  0  0  0  0  0  0  0  0  0  0  0  # atno 10718 bound_to 10713
  154.7851  135.3188  154.7903 H   0  0  0  0  0  0  0  0  0  0  0  0  # atno 10763 bound_to 10752
  153.8605  135.6854  153.4787 H   0  0  0  0  0  0  0  0  0  0  0  0  # atno 10764 bound_to 10752
  153.1500  135.4703  154.9562 H   0  0  0  0  0  0  0  0  0  0  0  0  # atno 10765 bound_to 10752
  140.1634  134.4313  155.8303 H   0  0  0  0  0  0  0  0  0  0  0  0  # atno 11005 bound_to 11000
  145.3944  141.0377  143.3105 LP  0  0  0  0  0  0  0  0  0  0  0  0  # atno 17320 bound_to 7965
  144.8394  139.5497  143.6907 LP  0  0  0  0  0  0  0  0  0  0  0  0  # atno 17321 bound_to 7965
  140.7422  143.6533  150.8229 LP  0  0  0  0  0  0  0  0  0  0  0  0  # atno 17342 bound_to 10162
  140.0154  143.5599  152.2822 LP  0  0  0  0  0  0  0  0  0  0  0  0  # atno 17343 bound_to 10162
  157.5689  130.8296  149.8364 LP  0  0  0  0  0  0  0  0  0  0  0  0  # atno 17370 bound_to 10713
  156.0341  130.3756  150.1606 LP  0  0  0  0  0  0  0  0  0  0  0  0  # atno 17371 bound_to 10713
  141.2211  133.6923  156.7635 LP  0  0  0  0  0  0  0  0  0  0  0  0  # atno 17394 bound_to 11000
  140.2463  134.8575  157.3623 LP  0  0  0  0  0  0  0  0  0  0  0  0  # atno 17395 bound_to 11000

$$$$
