AV-unprocessed.smi:613|AV-procd|sdf|3066|dock8
  -GOLD-   2262023593D 1   1.00000     0.00000
 Structure written by MMmdl.
 39 40  0  0  0  0  0  0  0  0  2 V2000
  150.7132  140.4663  157.7596 C   0  0  0  0  0  0  0  0  0  0  0  0
  150.5433  141.8520  157.3388 N   0  0  0  0  0  0  0  0  0  0  0  0
  149.7906  142.1244  156.1136 C   0  0  0  0  0  0  0  0  0  0  0  0
  148.8429  140.9729  155.7303 C   0  0  2  0  0  0  0  0  0  0  0  0
  148.3852  141.0757  154.2614 C   0  0  0  0  0  0  0  0  0  0  0  0
  147.4214  140.0274  153.9136 N   0  0  0  0  0  0  0  0  0  0  0  0
  146.9690  140.0689  152.5166 C   0  0  0  0  0  0  0  0  0  0  0  0
  146.5117  138.7165  151.9544 C   0  0  0  0  0  0  0  0  0  0  0  0
  145.1961  138.5122  151.8519 N   0  0  0  0  0  0  0  0  0  0  0  0
  147.3353  137.8701  151.6127 O   0  0  0  0  0  0  0  0  0  0  0  0
  146.2962  140.0674  154.8428 C   0  0  0  0  0  0  0  0  0  0  0  0
  146.7595  139.9839  156.3062 C   0  0  0  0  0  0  0  0  0  0  0  0
  147.6905  141.0280  156.5675 O   0  0  0  0  0  0  0  0  0  0  0  0
  150.7834  142.8833  158.2770 C   0  0  0  0  0  0  0  0  0  0  0  0
  151.5343  142.6851  159.4619 C   0  0  0  0  0  0  0  0  0  0  0  0
  151.7189  143.7683  160.3375 C   0  0  0  0  0  0  0  0  0  0  0  0
  151.1432  144.9989  159.9802 C   0  0  0  0  0  0  0  0  0  0  0  0
  150.4325  145.1797  158.8464 N   0  0  0  0  0  0  0  0  0  0  0  0
  150.2761  144.1227  158.0313 N   0  3  0  0  0  0  0  0  0  0  0  0
  151.7554  140.2649  158.0090 H   0  0  0  0  0  0  0  0  0  0  0  0
  150.4241  139.7781  156.9647 H   0  0  0  0  0  0  0  0  0  0  0  0
  150.0941  140.2475  158.6303 H   0  0  0  0  0  0  0  0  0  0  0  0
  149.2479  143.0679  156.1745 H   0  0  0  0  0  0  0  0  0  0  0  0
  150.5180  142.2647  155.3131 H   0  0  0  0  0  0  0  0  0  0  0  0
  149.3510  140.0177  155.8767 H   0  0  0  0  0  0  0  0  0  0  0  0
  147.9434  142.0576  154.0824 H   0  0  0  0  0  0  0  0  0  0  0  0
  149.2684  141.0131  153.6254 H   0  0  0  0  0  0  0  0  0  0  0  0
  146.1233  140.7521  152.4266 H   0  0  0  0  0  0  0  0  0  0  0  0
  147.7595  140.4778  151.8842 H   0  0  0  0  0  0  0  0  0  0  0  0
  144.8468  137.6398  151.4830 H   0  0  0  0  0  0  0  0  0  0  0  0
  144.5537  139.2361  152.1403 H   0  0  0  0  0  0  0  0  0  0  0  0
  145.7258  140.9866  154.6983 H   0  0  0  0  0  0  0  0  0  0  0  0
  145.6126  139.2425  154.6378 H   0  0  0  0  0  0  0  0  0  0  0  0
  145.9093  140.0876  156.9806 H   0  0  0  0  0  0  0  0  0  0  0  0
  147.2183  139.0161  156.5142 H   0  0  0  0  0  0  0  0  0  0  0  0
  151.9674  141.7285  159.7129 H   0  0  0  0  0  0  0  0  0  0  0  0
  152.2825  143.6597  161.2524 H   0  0  0  0  0  0  0  0  0  0  0  0
  151.2551  145.8627  160.6192 H   0  0  0  0  0  0  0  0  0  0  0  0
  149.7347  144.2531  157.1764 H   0  0  0  0  0  0  0  0  0  0  0  0
  1  2  1  0  0  0  0
  1 20  1  0  0  0  0
  1 21  1  0  0  0  0
  1 22  1  0  0  0  0
  2  3  1  0  0  0  0
  2 14  1  0  0  0  0
  3  4  1  0  0  0  0
  3 23  1  0  0  0  0
  3 24  1  0  0  0  0
  4 13  1  0  0  0  0
  4  5  1  0  0  0  0
  4 25  1  0  0  0  0
  5  6  1  0  0  0  0
  5 26  1  0  0  0  0
  5 27  1  0  0  0  0
  6  7  1  0  0  0  0
  6 11  1  0  0  0  0
  7  8  1  0  0  0  0
  7 28  1  0  0  0  0
  7 29  1  0  0  0  0
  8  9  1  0  0  0  0
  8 10  2  0  0  0  0
  9 30  1  0  0  0  0
  9 31  1  0  0  0  0
 11 12  1  0  0  0  0
 11 32  1  0  0  0  0
 11 33  1  0  0  0  0
 12 13  1  0  0  0  0
 12 34  1  0  0  0  0
 12 35  1  0  0  0  0
 14 19  1  0  0  0  0
 14 15  2  0  0  0  0
 15 16  1  0  0  0  0
 15 36  1  0  0  0  0
 16 17  2  0  0  0  0
 16 37  1  0  0  0  0
 17 18  1  0  0  0  0
 17 38  1  0  0  0  0
 18 19  2  0  0  0  0
 19 39  1  0  0  0  0
M  CHG  1  19   1
M  END
> <s_m_source_file>
AV-unprocessed.smi

> <i_m_source_file_index>
613

> <i_lp_mmshare_version>
43012

> <i_f3d_flags>
0

> <s_epik_input>
bjFuW2NIXVtjSF1bY0hdYzFOKFtDSDNdKVtDSDJdW0NAQEhdMltDSDJdTihbQ0gyXVtDSDJdTzIpW0NIMl1DKD1PKVtOSDJd

> <s_epik_cmdline>
J2VwaWtfcHl0aG9uJywgJy1waCcsICc3LjAnLCAnLXRuJywgJzgnLCAnLW1hJywgJzIwMCcsICctbWV0YWxfYmluZGluZycsICctaW1hZScsICc8aW5maWxlLm1hZT4nLCAnLW9tYWUnLCAnPG91dGZpbGUubWFlPic=

> <r_lp_tautomer_probability>
0.966961

> <r_epik_Ionization_Penalty>
1.86301

> <r_epik_Ionization_Penalty_Charging>
1.86058

> <r_epik_Ionization_Penalty_Neutral>
0.00243207

> <r_epik_State_Penalty>
1.48112

> <r_epik_Charging_Adjusted_Penalty>
3.3417

> <i_epik_Tot_Q>
1

> <i_epik_Tot_abs_Q>
1

> <r_epik_Metal_State_Penalty>
1.50193

> <b_epik_Metal_Only>
0

> <s_lp_Force_Field>
OPLS_2005

> <r_lp_Energy>
27.1625

> <b_lp_Chiralities_Consistent>
1

> <s_lp_Variant>
AV-unprocessed.smi:613-3

> <Gold.Version>
5.8.1

> <Gold.Id.Protein>
6NUR|6NUR_protein|mol2

> <Gold.PLP.Fitness>
40.5440

> <Gold.PLP.PLP>
-30.3507

> <Gold.PLP.part.hbond>
-4.0020

> <Gold.PLP.part.metal>
0.0000

> <Gold.PLP.part.buried>
-1.7521

> <Gold.PLP.part.nonpolar>
-31.4323

> <Gold.PLP.part.repulsive>
5.9189

> <Gold.PLP.ligand.clash>
0.0000

> <Gold.PLP.ligand.torsion>
1.0122

> <Gold.PLP.Chemscore.Hbond>
4.0000

> <Gold.PLP.Chemscore.CHOScore>
0.0000

> <Gold.PLP.Chemscore.Metal>
0.0000

> <Gold.Chemscore.Hbonds>
donor molecule, donor type, donor heavy atom, donor atom, acceptor molecule, acceptor atom, score
      L1  H     9    31       P1 10175  0.99
      L1  H    19    39       P1  8028  2.00
      P1  H  7954  7966       L1    10  1.00

> <Gold.PLP.Chemscore.Internal.Correction>
0.2178

> <Gold.Rescore>
     Score         DG    S(hbond)    S(metal)    S(lipo)     H(rot)  DE(clash)    DE(int)     intcor
     15.27     -18.54       2.99        0.00      75.30       2.23       2.48       0.80       ----

> <Gold.Chemscore.Fitness>
15.2680

> <Gold.Chemscore.DG>
-18.5396

> <Gold.Chemscore.ZeroCoef>
-5.4800

> <Gold.Chemscore.Hbond>
2.9851

> <Gold.Chemscore.Metal>
0.0000

> <Gold.Chemscore.Lipo>
75.3018

> <Gold.Chemscore.Internal_Hbond>
0.0000

> <Gold.Chemscore.DEClash>
2.4751

> <Gold.Chemscore.DEInternal>
0.7965

> <Gold.Chemscore.Rot>
2.2348

> <Gold.Chemscore.Internal.Correction>
   9.000000E+99

> <Gold.Chemscore.Hbonds>
donor molecule, donor type, donor heavy atom, donor atom, acceptor molecule, acceptor atom, score
      L1  H     9    30       P1 10171  0.01
      L1  H     9    31       P1 10175  0.92
      L1  H    19    39       P1  8028  0.45
      P1  H  7954  7966       L1    10  0.99

> <Gold.Chemscore.Hbond.Weighted>
-9.9703

> <Gold.Chemscore.Metal.Weighted>
-0.0000

> <Gold.Chemscore.Lipo.Weighted>
-8.8103

> <Gold.Chemscore.Internal_Hbond.Weighted>
0.0000

> <Gold.Chemscore.DEClash.Weighted>
2.4751

> <Gold.Chemscore.DEInternal.Weighted>
0.7965

> <Gold.Chemscore.Rot.Weighted>
5.7211

> <Gold.Chemscore.Internal.Correction.Weighted>
   9.000000E+99

> <Gold.Protein.RotatedTorsions>
[ 6907 6896 6895 6894 ] final    9.32 input  -60.11 | X-H torsion
[ 7974 7965 7964 7962 ] final   38.00 input  175.53 | X-H torsion
[ 8008 7997 7996 7995 ] final -161.29 input   59.86 | X-H torsion
[ 10167 10162 10161 10158 ] final -116.74 input  -65.29 | X-H torsion
[ 10718 10713 10712 10709 ] final -159.11 input   66.30 | X-H torsion
[ 10763 10752 10751 10750 ] final  -46.60 input  -60.55 | X-H torsion
[ 11005 11000 10999 10996 ] final  -93.62 input  -57.11 | X-H torsion

> <Gold.Protein.ActiveResidues>
 VAL166  LYS551  ARG553  GLY616  TRP617  ASP618  TYR619  PRO620  LYS621  CYS622 
 ASP623  PHE694  ASN695  SER759  ASP760  ASP761  ALA762  ILE779  LEU786  VAL792 
 PHE793  MET794  SER795  GLU796  ALA797  LYS798  CYS799  TRP800  GLU811  SER814 

> <Gold.Protein.RotatedAtoms>
  151.7203  135.0895  160.0282 H   0  0  0  0  0  0  0  0  0  0  0  0  # atno 6907 bound_to 6896
  152.3606  133.6287  159.6020 H   0  0  0  0  0  0  0  0  0  0  0  0  # atno 6908 bound_to 6896
  150.7601  133.9346  159.3479 H   0  0  0  0  0  0  0  0  0  0  0  0  # atno 6909 bound_to 6896
  146.1095  139.5826  142.9361 H   0  0  0  0  0  0  0  0  0  0  0  0  # atno 7974 bound_to 7965
  155.7901  140.0877  157.2013 H   0  0  0  0  0  0  0  0  0  0  0  0  # atno 8008 bound_to 7997
  154.3986  140.1492  156.3210 H   0  0  0  0  0  0  0  0  0  0  0  0  # atno 8009 bound_to 7997
  155.8568  140.3432  155.5732 H   0  0  0  0  0  0  0  0  0  0  0  0  # atno 8010 bound_to 7997
  140.0759  143.4833  152.1953 H   0  0  0  0  0  0  0  0  0  0  0  0  # atno 10167 bound_to 10162
  156.5635  130.8657  151.2817 H   0  0  0  0  0  0  0  0  0  0  0  0  # atno 10718 bound_to 10713
  154.0476  135.6635  153.4797 H   0  0  0  0  0  0  0  0  0  0  0  0  # atno 10763 bound_to 10752
  153.0476  135.5104  154.7781 H   0  0  0  0  0  0  0  0  0  0  0  0  # atno 10764 bound_to 10752
  154.6778  135.3040  154.9621 H   0  0  0  0  0  0  0  0  0  0  0  0  # atno 10765 bound_to 10752
  141.1492  133.7900  157.0185 H   0  0  0  0  0  0  0  0  0  0  0  0  # atno 11005 bound_to 11000
  145.5692  141.0396  143.2183 LP  0  0  0  0  0  0  0  0  0  0  0  0  # atno 17320 bound_to 7965
  144.7499  139.7220  143.7277 LP  0  0  0  0  0  0  0  0  0  0  0  0  # atno 17321 bound_to 7965
  139.5808  144.7509  151.3645 LP  0  0  0  0  0  0  0  0  0  0  0  0  # atno 17342 bound_to 10162
  140.7102  143.7410  150.7553 LP  0  0  0  0  0  0  0  0  0  0  0  0  # atno 17343 bound_to 10162
  157.7363  130.9777  150.2131 LP  0  0  0  0  0  0  0  0  0  0  0  0  # atno 17370 bound_to 10713
  156.2777  130.3729  149.7966 LP  0  0  0  0  0  0  0  0  0  0  0  0  # atno 17371 bound_to 10713
  140.0831  134.9636  157.1656 LP  0  0  0  0  0  0  0  0  0  0  0  0  # atno 17394 bound_to 11000
  140.3549  134.2558  155.7194 LP  0  0  0  0  0  0  0  0  0  0  0  0  # atno 17395 bound_to 11000

$$$$
