AV-unprocessed.smi:245|AV-procd|sdf|1877|dock2
  -GOLD-   2262020523D 1   1.00000     0.00000
 Structure written by MMmdl.
 54 58  0  0  0  0  0  0  0  0  1 V2000
  153.0054  138.5436  158.7223 O   0  0  0  0  0  0  0  0  0  0  0  0
  152.6114  139.6795  158.4683 C   0  0  0  0  0  0  0  0  0  0  0  0
  151.5641  139.8874  157.3595 C   0  0  0  0  0  0  0  0  0  0  0  0
  151.1213  141.2780  157.1603 N   0  0  0  0  0  0  0  0  0  0  0  0
  149.9827  141.3175  156.4266 C   0  0  0  0  0  0  0  0  0  0  0  0
  149.9919  140.9077  155.1304 N   0  0  0  0  0  0  0  0  0  0  0  0
  148.8727  140.9664  154.4028 C   0  0  0  0  0  0  0  0  0  0  0  0
  147.6639  141.4024  154.7639 N   0  0  0  0  0  0  0  0  0  0  0  0
  147.6560  141.8294  156.0597 C   0  0  0  0  0  0  0  0  0  0  0  0
  148.7635  141.8214  156.9530 C   0  0  0  0  0  0  0  0  0  0  0  0
  148.3818  142.3201  158.1913 N   0  0  0  0  0  0  0  0  0  0  0  0
  147.1163  142.6026  158.0408 C   0  0  0  0  0  0  0  0  0  0  0  0
  146.6004  142.3538  156.7870 N   0  0  0  0  0  0  0  0  0  0  0  0
  145.2452  142.5474  156.3525 C   0  0  0  0  0  0  0  0  0  0  0  0
  144.8995  142.8607  154.8931 C   0  0  0  0  0  0  0  0  0  0  0  0
  143.7849  143.8276  155.3541 C   0  0  0  0  0  0  0  0  0  0  0  0
  143.7789  145.1976  154.6585 C   0  0  0  0  0  0  0  0  0  0  0  0
  143.5899  145.0693  153.2640 O   0  0  0  0  0  0  0  0  0  0  0  0
  142.3349  143.2947  155.3206 C   0  0  0  0  0  0  0  0  0  0  0  0
  141.6989  143.4842  154.0729 O   0  0  0  0  0  0  0  0  0  0  0  0
  144.4853  143.8192  156.7322 C   0  0  0  0  0  0  0  0  0  0  0  0
  151.2453  142.2054  158.2919 C   0  0  2  0  0  0  0  0  0  0  0  0
  150.9332  143.6792  157.9307 C   0  0  0  0  0  0  0  0  0  0  0  0
  151.0980  144.5971  159.1541 C   0  0  0  0  0  0  0  0  0  0  0  0
  152.5012  144.4760  159.7691 C   0  0  0  0  0  0  0  0  0  0  0  0
  152.8444  143.0142  160.0978 C   0  0  0  0  0  0  0  0  0  0  0  0
  152.6818  142.1232  158.8543 C   0  0  1  0  0  0  0  0  0  0  0  0
  153.0589  140.7465  159.1480 N   0  0  0  0  0  0  0  0  0  0  0  0
  151.9867  139.5159  156.4252 H   0  0  0  0  0  0  0  0  0  0  0  0
  150.7084  139.2506  157.5935 H   0  0  0  0  0  0  0  0  0  0  0  0
  148.9584  140.6160  153.3848 H   0  0  0  0  0  0  0  0  0  0  0  0
  146.5233  143.0002  158.8512 H   0  0  0  0  0  0  0  0  0  0  0  0
  144.6897  141.6660  156.6752 H   0  0  0  0  0  0  0  0  0  0  0  0
  145.7014  143.3713  154.3588 H   0  0  0  0  0  0  0  0  0  0  0  0
  144.5467  141.9999  154.3240 H   0  0  0  0  0  0  0  0  0  0  0  0
  142.9991  145.8434  155.0638 H   0  0  0  0  0  0  0  0  0  0  0  0
  144.7237  145.7186  154.8174 H   0  0  0  0  0  0  0  0  0  0  0  0
  143.2623  144.2014  153.0837 H   0  0  0  0  0  0  0  0  0  0  0  0
  142.3106  142.2278  155.5448 H   0  0  0  0  0  0  0  0  0  0  0  0
  141.7205  143.7861  156.0756 H   0  0  0  0  0  0  0  0  0  0  0  0
  142.0169  142.8286  153.4710 H   0  0  0  0  0  0  0  0  0  0  0  0
  143.8179  143.7021  157.5865 H   0  0  0  0  0  0  0  0  0  0  0  0
  145.1528  144.6701  156.8776 H   0  0  0  0  0  0  0  0  0  0  0  0
  150.5484  141.8807  159.0675 H   0  0  0  0  0  0  0  0  0  0  0  0
  151.5961  144.0116  157.1304 H   0  0  0  0  0  0  0  0  0  0  0  0
  149.9178  143.7905  157.5520 H   0  0  0  0  0  0  0  0  0  0  0  0
  150.9059  145.6321  158.8703 H   0  0  0  0  0  0  0  0  0  0  0  0
  150.3489  144.3392  159.9039 H   0  0  0  0  0  0  0  0  0  0  0  0
  153.2391  144.8745  159.0717 H   0  0  0  0  0  0  0  0  0  0  0  0
  152.5672  145.0862  160.6702 H   0  0  0  0  0  0  0  0  0  0  0  0
  153.8666  142.9544  160.4735 H   0  0  0  0  0  0  0  0  0  0  0  0
  152.1966  142.6561  160.8992 H   0  0  0  0  0  0  0  0  0  0  0  0
  153.3773  142.4735  158.0892 H   0  0  0  0  0  0  0  0  0  0  0  0
  153.7318  140.5968  159.8858 H   0  0  0  0  0  0  0  0  0  0  0  0
  1  2  2  0  0  0  0
  2 28  1  0  0  0  0
  2  3  1  0  0  0  0
  3  4  1  0  0  0  0
  3 29  1  0  0  0  0
  3 30  1  0  0  0  0
  4  5  1  0  0  0  0
  4 22  1  0  0  0  0
  5 10  1  0  0  0  0
  5  6  2  0  0  0  0
  6  7  1  0  0  0  0
  7  8  2  0  0  0  0
  7 31  1  0  0  0  0
  8  9  1  0  0  0  0
  9 13  1  0  0  0  0
  9 10  2  0  0  0  0
 10 11  1  0  0  0  0
 11 12  2  0  0  0  0
 12 13  1  0  0  0  0
 12 32  1  0  0  0  0
 13 14  1  0  0  0  0
 14 21  1  0  0  0  0
 14 15  1  0  0  0  0
 14 33  1  0  0  0  0
 15 16  1  0  0  0  0
 15 34  1  0  0  0  0
 15 35  1  0  0  0  0
 16 17  1  0  0  0  0
 16 19  1  0  0  0  0
 16 21  1  0  0  0  0
 17 18  1  0  0  0  0
 17 36  1  0  0  0  0
 17 37  1  0  0  0  0
 18 38  1  0  0  0  0
 19 20  1  0  0  0  0
 19 39  1  0  0  0  0
 19 40  1  0  0  0  0
 20 41  1  0  0  0  0
 21 42  1  0  0  0  0
 21 43  1  0  0  0  0
 22 27  1  0  0  0  0
 22 23  1  0  0  0  0
 22 44  1  0  0  0  0
 23 24  1  0  0  0  0
 23 45  1  0  0  0  0
 23 46  1  0  0  0  0
 24 25  1  0  0  0  0
 24 47  1  0  0  0  0
 24 48  1  0  0  0  0
 25 26  1  0  0  0  0
 25 49  1  0  0  0  0
 25 50  1  0  0  0  0
 26 27  1  0  0  0  0
 26 51  1  0  0  0  0
 26 52  1  0  0  0  0
 27 28  1  0  0  0  0
 27 53  1  0  0  0  0
 28 54  1  0  0  0  0
M  END
> <s_m_source_file>
AV-unprocessed.smi

> <i_m_source_file_index>
245

> <i_lp_mmshare_version>
43012

> <i_f3d_flags>
0

> <s_epik_input>
W0NIMl0xW0NIMl1bQ0gyXVtDSDJdW0NASF0oW0NASF0xMilbTkhdQyg9TylbQ0gyXU4yYyhuW2NIXW4zKWMoYzM0KW5bY0hdbjRbQ0hdKFtDSDJdNSlbQ0gyXUM1KFtDSDJdW09IXSlbQ0gyXVtPSF0=

> <s_epik_cmdline>
J2VwaWtfcHl0aG9uJywgJy1waCcsICc3LjAnLCAnLXRuJywgJzgnLCAnLW1hJywgJzIwMCcsICctbWV0YWxfYmluZGluZycsICctaW1hZScsICc8aW5maWxlLm1hZT4nLCAnLW9tYWUnLCAnPG91dGZpbGUubWFlPic=

> <r_lp_tautomer_probability>
1

> <r_epik_Ionization_Penalty>
0.000702616

> <r_epik_Ionization_Penalty_Charging>
0

> <r_epik_Ionization_Penalty_Neutral>
0.000702616

> <r_epik_State_Penalty>
0.000343985

> <r_epik_Charging_Adjusted_Penalty>
0.000343985

> <i_epik_Tot_Q>
0

> <i_epik_Tot_abs_Q>
0

> <r_epik_Metal_State_Penalty>
-0

> <b_epik_Metal_Only>
0

> <s_lp_Force_Field>
OPLS_2005

> <r_lp_Energy>
50.1647

> <b_lp_Chiralities_Consistent>
1

> <s_lp_Variant>
AV-unprocessed.smi:245-2

> <Gold.Version>
5.8.1

> <Gold.Id.Protein>
6NUR|6NUR_protein|mol2

> <Gold.PLP.Fitness>
50.5315

> <Gold.PLP.PLP>
-42.9419

> <Gold.PLP.part.hbond>
-3.4552

> <Gold.PLP.part.metal>
0.0000

> <Gold.PLP.part.buried>
-7.0750

> <Gold.PLP.part.nonpolar>
-33.1283

> <Gold.PLP.part.repulsive>
0.4944

> <Gold.PLP.ligand.clash>
0.0000

> <Gold.PLP.ligand.torsion>
1.3575

> <Gold.PLP.Chemscore.Hbond>
2.1706

> <Gold.PLP.Chemscore.CHOScore>
1.0000

> <Gold.PLP.Chemscore.Metal>
0.0000

> <Gold.Chemscore.Hbonds>
donor molecule, donor type, donor heavy atom, donor atom, acceptor molecule, acceptor atom, score
      L1  H    18    38       P1 10174  1.00
      L1  H    20    41       P1 10174  0.92
      P1  H  7989  7998       L1     6  0.24
      L1  C     7    31       P1  7957  1.00

> <Gold.PLP.Chemscore.Internal.Correction>
0.7928

> <Gold.Rescore>
     Score         DG    S(hbond)    S(metal)    S(lipo)     H(rot)  DE(clash)    DE(int)     intcor
     11.00     -15.21       2.01        0.00      97.63       3.28       1.45       2.76       ----

> <Gold.Chemscore.Fitness>
11.0019

> <Gold.Chemscore.DG>
-15.2136

> <Gold.Chemscore.ZeroCoef>
-5.4800

> <Gold.Chemscore.Hbond>
2.0051

> <Gold.Chemscore.Metal>
0.0000

> <Gold.Chemscore.Lipo>
97.6282

> <Gold.Chemscore.Internal_Hbond>
0.0000

> <Gold.Chemscore.DEClash>
1.4470

> <Gold.Chemscore.DEInternal>
2.7646

> <Gold.Chemscore.Rot>
3.2758

> <Gold.Chemscore.Internal.Correction>
   9.000000E+99

> <Gold.Chemscore.Hbonds>
donor molecule, donor type, donor heavy atom, donor atom, acceptor molecule, acceptor atom, score
      L1  H    18    38       P1 10174  0.93
      L1  H    20    41       P1 10174  0.84
      P1  H  7989  7998       L1     6  0.08

> <Gold.Chemscore.Hbond.Weighted>
-6.6970

> <Gold.Chemscore.Metal.Weighted>
-0.0000

> <Gold.Chemscore.Lipo.Weighted>
-11.4225

> <Gold.Chemscore.Internal_Hbond.Weighted>
0.0000

> <Gold.Chemscore.DEClash.Weighted>
1.4470

> <Gold.Chemscore.DEInternal.Weighted>
2.7646

> <Gold.Chemscore.Rot.Weighted>
8.3859

> <Gold.Chemscore.Internal.Correction.Weighted>
   9.000000E+99

> <Gold.Protein.RotatedTorsions>
[ 6907 6896 6895 6894 ] final   21.63 input  -60.11 | X-H torsion
[ 7974 7965 7964 7962 ] final  -99.00 input  175.53 | X-H torsion
[ 8008 7997 7996 7995 ] final  -54.38 input   59.86 | X-H torsion
[ 10167 10162 10161 10158 ] final  113.05 input  -65.29 | X-H torsion
[ 10718 10713 10712 10709 ] final   77.97 input   66.30 | X-H torsion
[ 10763 10752 10751 10750 ] final   33.83 input  -60.55 | X-H torsion
[ 11005 11000 10999 10996 ] final  -69.83 input  -57.11 | X-H torsion

> <Gold.Protein.ActiveResidues>
 VAL166  LYS551  ARG553  GLY616  TRP617  ASP618  TYR619  PRO620  LYS621  CYS622 
 ASP623  PHE694  ASN695  SER759  ASP760  ASP761  ALA762  ILE779  LEU786  VAL792 
 PHE793  MET794  SER795  GLU796  ALA797  LYS798  CYS799  TRP800  GLU811  SER814 

> <Gold.Protein.RotatedAtoms>
  151.9147  135.0324  160.0517 H   0  0  0  0  0  0  0  0  0  0  0  0  # atno 6907 bound_to 6896
  152.2250  133.5008  159.5192 H   0  0  0  0  0  0  0  0  0  0  0  0  # atno 6908 bound_to 6896
  150.7010  134.1209  159.4077 H   0  0  0  0  0  0  0  0  0  0  0  0  # atno 6909 bound_to 6896
  145.3132  140.9405  143.2757 H   0  0  0  0  0  0  0  0  0  0  0  0  # atno 7974 bound_to 7965
  154.4161  140.1177  156.5306 H   0  0  0  0  0  0  0  0  0  0  0  0  # atno 8008 bound_to 7997
  155.6609  140.3496  155.4763 H   0  0  0  0  0  0  0  0  0  0  0  0  # atno 8009 bound_to 7997
  155.9714  140.1142  157.0799 H   0  0  0  0  0  0  0  0  0  0  0  0  # atno 8010 bound_to 7997
  139.6490  144.7127  151.2085 H   0  0  0  0  0  0  0  0  0  0  0  0  # atno 10167 bound_to 10162
  157.6729  130.9846  150.1718 H   0  0  0  0  0  0  0  0  0  0  0  0  # atno 10718 bound_to 10713
  153.0193  135.6376  154.1573 H   0  0  0  0  0  0  0  0  0  0  0  0  # atno 10763 bound_to 10752
  154.1309  135.2840  155.3187 H   0  0  0  0  0  0  0  0  0  0  0  0  # atno 10764 bound_to 10752
  154.6195  135.5529  153.7621 H   0  0  0  0  0  0  0  0  0  0  0  0  # atno 10765 bound_to 10752
  141.1562  133.6774  156.6660 H   0  0  0  0  0  0  0  0  0  0  0  0  # atno 11005 bound_to 11000
  144.8999  139.4664  143.6638 LP  0  0  0  0  0  0  0  0  0  0  0  0  # atno 17320 bound_to 7965
  146.3110  139.7746  142.9020 LP  0  0  0  0  0  0  0  0  0  0  0  0  # atno 17321 bound_to 7965
  140.7528  143.6182  150.8539 LP  0  0  0  0  0  0  0  0  0  0  0  0  # atno 17342 bound_to 10162
  139.9828  143.5932  152.2937 LP  0  0  0  0  0  0  0  0  0  0  0  0  # atno 17343 bound_to 10162
  156.2471  130.3696  149.8273 LP  0  0  0  0  0  0  0  0  0  0  0  0  # atno 17370 bound_to 10713
  156.6057  130.8565  151.3442 LP  0  0  0  0  0  0  0  0  0  0  0  0  # atno 17371 bound_to 10713
  140.3211  134.8007  157.4253 LP  0  0  0  0  0  0  0  0  0  0  0  0  # atno 17394 bound_to 11000
  140.1096  134.5363  155.8278 LP  0  0  0  0  0  0  0  0  0  0  0  0  # atno 17395 bound_to 11000

$$$$
