#       Name:                AV-unprocessed.smi:213
#       Creating user name   scv26
#       Creation time:       Thu Mar 26 20:01:30 2020


#       File generated by GOLD software.
#

@<TRIPOS>MOLECULE
AV-unprocessed.smi:213
    68    71     1
SMALL
NO_CHARGES


@<TRIPOS>ATOM
      1 ****        -2.7948  -0.1587  -0.8681 C.3            1 S1                 0.0000
      2 ****        -2.2967   0.2850   0.5194 C.3            1 S1                 0.0000
      3 ****        -3.4490   0.4186   1.5410 C.3            1 S1                 0.0000
      4 ****        -4.1849  -0.8135   1.8296 N.3            1 S1                 0.0000
      5 ****        -5.3808  -0.5335   2.6173 C.3            1 S1                 0.0000
      6 ****        -6.1769  -1.8119   2.9310 C.3            1 S1                 0.0000
      7 ****        -5.3366  -2.7401   3.6086 O.3            1 S1                 0.0000
      8 ****        -4.1764  -3.0789   2.8564 C.3            1 S1                 0.0000
      9 ****        -3.3747  -1.8054   2.5350 C.3            1 S1                 0.0000
     10 ****        -1.5310   1.5317   0.4280 N.pl3          1 S1                 0.0000
     11 ****        -2.1890   2.7947   0.0981 C.3            1 S1                 0.0000
     12 ****        -0.1820   1.5430   0.6095 C.ar           1 S1                 0.0000
     13 ****         0.3775   2.6605   1.1462 N.ar           1 S1                 0.0000
     14 ****         1.6949   2.7320   1.3542 C.ar           1 S1                 0.0000
     15 ****         2.6296   1.8165   1.0983 N.ar           1 S1                 0.0000
     16 ****         2.0832   0.6964   0.5469 C.ar           1 S1                 0.0000
     17 ****         0.7027   0.4744   0.2693 C.ar           1 S1                 0.0000
     18 ****         0.5454  -0.7814  -0.3100 N.2            1 S1                 0.0000
     19 ****         1.7521  -1.2739  -0.3580 C.2            1 S1                 0.0000
     20 ****         2.7378  -0.4485   0.1300 N.pl3          1 S1                 0.0000
     21 ****         4.1608  -0.7295   0.1847 C.3            1 S1                 0.0000
     22 ****         4.9783   0.0764  -0.8475 C.3            1 S1                 0.0000
     23 ****         6.3312  -0.3063  -0.7019 O.3            1 S1                 0.0000
     24 ****         4.5464  -0.1423  -2.3146 C.3            1 S1                 0.0000
     25 ****         5.4234   0.5677  -3.3471 C.3            1 S1                 0.0000
     26 ****         4.5187   0.6738  -4.5629 C.3            1 S1                 0.0000
     27 ****         3.1089   0.5256  -3.9852 C.3            1 S1                 0.0000
     28 ****         3.2857   0.4563  -2.5770 O.3            1 S1                 0.0000
     29 ****        -3.2733  -1.1369  -0.8189 H              1 S1                 0.0000
     30 ****        -1.9701  -0.2361  -1.5768 H              1 S1                 0.0000
     31 ****        -3.5214   0.5415  -1.2805 H              1 S1                 0.0000
     32 ****        -1.6327  -0.4851   0.9021 H              1 S1                 0.0000
     33 ****        -3.0548   0.8256   2.4736 H              1 S1                 0.0000
     34 ****        -4.1514   1.1645   1.1671 H              1 S1                 0.0000
     35 ****        -5.1021  -0.0452   3.5525 H              1 S1                 0.0000
     36 ****        -6.0228   0.1656   2.0803 H              1 S1                 0.0000
     37 ****        -7.0346  -1.5799   3.5625 H              1 S1                 0.0000
     38 ****        -6.5642  -2.2609   2.0150 H              1 S1                 0.0000
     39 ****        -3.5676  -3.7746   3.4339 H              1 S1                 0.0000
     40 ****        -4.4670  -3.5930   1.9389 H              1 S1                 0.0000
     41 ****        -2.5099  -2.0878   1.9364 H              1 S1                 0.0000
     42 ****        -2.9892  -1.3775   3.4616 H              1 S1                 0.0000
     43 ****        -1.6071   3.3557  -0.6340 H              1 S1                 0.0000
     44 ****        -2.3038   3.4083   0.9920 H              1 S1                 0.0000
     45 ****        -3.1793   2.6309  -0.3254 H              1 S1                 0.0000
     46 ****         2.0508   3.6553   1.7867 H              1 S1                 0.0000
     47 ****         1.9579  -2.2529  -0.7657 H              1 S1                 0.0000
     48 ****         4.5090  -0.5120   1.1953 H              1 S1                 0.0000
     49 ****         4.3057  -1.7996   0.0288 H              1 S1                 0.0000
     50 ****         4.9139   1.1391  -0.6107 H              1 S1                 0.0000
     51 ****         6.4076  -1.2249  -0.9097 H              1 S1                 0.0000
     52 ****         4.4923  -1.2086  -2.5434 H              1 S1                 0.0000
     53 ****         5.6813   1.5677  -2.9949 H              1 S1                 0.0000
     54 ****         6.3511   0.0343  -3.5561 H              1 S1                 0.0000
     55 ****         4.6554   1.6241  -5.0796 H              1 S1                 0.0000
     56 ****         4.7221  -0.1288  -5.2726 H              1 S1                 0.0000
     57 ****         2.4590   1.3599  -4.2497 H              1 S1                 0.0000
     58 ****         2.6425  -0.3952  -4.3376 H              1 S1                 0.0000
     59 ****        -4.4402  -1.1958   0.9415 LP             1 S1                 0.0000
     60 ****        -5.8585  -3.5746   3.7855 LP             1 S1                 0.0000
     61 ****        -5.0487  -2.3366   4.4770 LP             1 S1                 0.0000
     62 ****        -0.2040   3.4373   1.3877 LP             1 S1                 0.0000
     63 ****         3.6044   1.9360   1.2864 LP             1 S1                 0.0000
     64 ****        -0.3032  -1.2102  -0.6201 LP             1 S1                 0.0000
     65 ****         6.6268  -0.1480   0.2401 LP             1 S1                 0.0000
     66 ****         6.9019   0.2288  -1.3248 LP             1 S1                 0.0000
     67 ****         3.2609   1.3769  -2.1875 LP             1 S1                 0.0000
     68 ****         2.5578  -0.0969  -2.1717 LP             1 S1                 0.0000
@<TRIPOS>BOND
    1    1    2 1     
    2    1   29 1     
    3    1   30 1     
    4    1   31 1     
    5    2    3 1     
    6    2   10 1     
    7    2   32 1     
    8    3    4 1     
    9    3   33 1     
   10    3   34 1     
   11    4    9 1     
   12    4    5 1     
   13    5    6 1     
   14    5   35 1     
   15    5   36 1     
   16    6    7 1     
   17    6   37 1     
   18    6   38 1     
   19    7    8 1     
   20    8    9 1     
   21    8   39 1     
   22    8   40 1     
   23    9   41 1     
   24    9   42 1     
   25   10   11 1     
   26   10   12 1     
   27   11   43 1     
   28   11   44 1     
   29   11   45 1     
   30   12   17 ar    
   31   12   13 ar    
   32   13   14 ar    
   33   14   15 ar    
   34   14   46 1     
   35   15   16 ar    
   36   16   20 1     
   37   16   17 ar    
   38   17   18 1     
   39   18   19 2     
   40   19   20 1     
   41   19   47 1     
   42   20   21 1     
   43   21   22 1     
   44   21   48 1     
   45   21   49 1     
   46   22   23 1     
   47   22   24 1     
   48   22   50 1     
   49   23   51 1     
   50   24   28 1     
   51   24   25 1     
   52   24   52 1     
   53   25   26 1     
   54   25   53 1     
   55   25   54 1     
   56   26   27 1     
   57   26   55 1     
   58   26   56 1     
   59   27   28 1     
   60   27   57 1     
   61   27   58 1     
   62    4   59 1     
   63    7   60 1     
   64    7   61 1     
   65   13   62 1     
   66   15   63 1     
   67   18   64 1     
   68   23   65 1     
   69   23   66 1     
   70   28   67 1     
   71   28   68 1     
@<TRIPOS>SUBSTRUCTURE
      1 S1             1
@<TRIPOS>SET
LONE_PAIRS      STATIC     ATOMS    <user>   **** ""
10 59 60 61 62 63 64 65 66 67 68
DONOR_HYDROGENS      STATIC     ATOMS    <user>   **** ""
1 51
ATOM$BLUE        STATIC     ATOMS    COLORGROUP SYSTEM
10 59 60 61 62 63 64 65 66 67 68
ATOM$RED        STATIC     ATOMS    COLORGROUP SYSTEM
1 51
