AV-unprocessed.smi:1537|AV-procd|sdf|6191|dock2
  -GOLD-   22720 6353D 1   1.00000     0.00000
 Structure written by MMmdl.
 43 43  0  0  0  0  0  0  0  0  1 V2000
  154.0516  141.4410  160.9153 C   0  0  0  0  0  0  0  0  0  0  0  0
  153.0807  142.6219  160.8125 C   0  0  0  0  0  0  0  0  0  0  0  0
  152.2941  142.6058  159.5450 C   0  0  0  0  0  0  0  0  0  0  0  0
  151.6093  141.5422  159.1172 N   0  0  0  0  0  0  0  0  0  0  0  0
  150.9902  141.7597  157.8813 C   0  0  0  0  0  0  0  0  0  0  0  0
  150.1752  140.6704  157.2473 C   0  0  0  0  0  0  0  0  0  0  0  0
  149.5136  141.1820  155.9669 C   0  0  0  0  0  0  0  0  0  0  0  0
  150.1786  141.3148  154.9395 O   0  0  0  0  0  0  0  0  0  0  0  0
  148.2038  141.4695  156.0433 N   0  0  0  0  0  0  0  0  0  0  0  0
  147.3840  141.9811  154.9470 C   0  0  1  0  0  0  0  0  0  0  0  0
  146.8127  140.7768  154.1803 C   0  0  0  0  0  0  0  0  0  0  0  0
  146.2045  142.8056  155.4882 C   0  0  0  0  0  0  0  0  0  0  0  0
  145.8876  142.7345  156.6765 O   0  0  0  0  0  0  0  0  0  0  0  0
  145.5629  143.5696  154.5865 N   0  0  0  0  0  0  0  0  0  0  0  0
  144.4151  144.4602  154.7955 C   0  0  0  0  0  0  0  0  0  0  0  0
  143.1839  143.5611  155.0035 C   0  0  0  0  0  0  0  0  0  0  0  0
  144.1835  145.3484  153.5549 C   0  0  0  0  0  0  0  0  0  0  0  0
  144.6189  145.3273  156.0557 C   0  0  0  0  0  0  0  0  0  0  0  0
  151.2209  143.0156  157.3762 C   0  0  0  0  0  0  0  0  0  0  0  0
  152.2356  143.9639  158.4276 S   0  0  0  0  0  0  0  0  0  0  0  0
  154.6142  141.4802  161.8481 H   0  0  0  0  0  0  0  0  0  0  0  0
  154.7677  141.4487  160.0932 H   0  0  0  0  0  0  0  0  0  0  0  0
  153.5184  140.4901  160.8868 H   0  0  0  0  0  0  0  0  0  0  0  0
  152.3903  142.6116  161.6568 H   0  0  0  0  0  0  0  0  0  0  0  0
  153.6308  143.5616  160.8700 H   0  0  0  0  0  0  0  0  0  0  0  0
  150.7952  139.8042  157.0119 H   0  0  0  0  0  0  0  0  0  0  0  0
  149.4048  140.3188  157.9349 H   0  0  0  0  0  0  0  0  0  0  0  0
  147.7414  141.3326  156.9305 H   0  0  0  0  0  0  0  0  0  0  0  0
  147.9952  142.5874  154.2753 H   0  0  0  0  0  0  0  0  0  0  0  0
  146.1923  141.0979  153.3426 H   0  0  0  0  0  0  0  0  0  0  0  0
  146.2025  140.1383  154.8212 H   0  0  0  0  0  0  0  0  0  0  0  0
  147.6148  140.1612  153.7715 H   0  0  0  0  0  0  0  0  0  0  0  0
  145.9170  143.5374  153.6416 H   0  0  0  0  0  0  0  0  0  0  0  0
  142.2824  144.1534  155.1647 H   0  0  0  0  0  0  0  0  0  0  0  0
  143.3078  142.9110  155.8706 H   0  0  0  0  0  0  0  0  0  0  0  0
  143.0052  142.9230  154.1372 H   0  0  0  0  0  0  0  0  0  0  0  0
  144.0720  144.7471  152.6517 H   0  0  0  0  0  0  0  0  0  0  0  0
  145.0058  146.0440  153.3880 H   0  0  0  0  0  0  0  0  0  0  0  0
  143.2779  145.9460  153.6641 H   0  0  0  0  0  0  0  0  0  0  0  0
  143.7296  145.9205  156.2708 H   0  0  0  0  0  0  0  0  0  0  0  0
  145.4479  146.0260  155.9447 H   0  0  0  0  0  0  0  0  0  0  0  0
  144.8218  144.7115  156.9326 H   0  0  0  0  0  0  0  0  0  0  0  0
  150.8629  143.4352  156.4476 H   0  0  0  0  0  0  0  0  0  0  0  0
  1  2  1  0  0  0  0
  1 21  1  0  0  0  0
  1 22  1  0  0  0  0
  1 23  1  0  0  0  0
  2  3  1  0  0  0  0
  2 24  1  0  0  0  0
  2 25  1  0  0  0  0
  3 20  1  0  0  0  0
  3  4  2  0  0  0  0
  4  5  1  0  0  0  0
  5  6  1  0  0  0  0
  5 19  2  0  0  0  0
  6  7  1  0  0  0  0
  6 26  1  0  0  0  0
  6 27  1  0  0  0  0
  7  8  2  0  0  0  0
  7  9  1  0  0  0  0
  9 10  1  0  0  0  0
  9 28  1  0  0  0  0
 10 11  1  0  0  0  0
 10 12  1  0  0  0  0
 10 29  1  0  0  0  0
 11 30  1  0  0  0  0
 11 31  1  0  0  0  0
 11 32  1  0  0  0  0
 12 13  2  0  0  0  0
 12 14  1  0  0  0  0
 14 15  1  0  0  0  0
 14 33  1  0  0  0  0
 15 16  1  0  0  0  0
 15 17  1  0  0  0  0
 15 18  1  0  0  0  0
 16 34  1  0  0  0  0
 16 35  1  0  0  0  0
 16 36  1  0  0  0  0
 17 37  1  0  0  0  0
 17 38  1  0  0  0  0
 17 39  1  0  0  0  0
 18 40  1  0  0  0  0
 18 41  1  0  0  0  0
 18 42  1  0  0  0  0
 19 20  1  0  0  0  0
 19 43  1  0  0  0  0
M  END
> <s_m_source_file>
AV-unprocessed.smi

> <i_m_source_file_index>
1537

> <i_lp_mmshare_version>
43012

> <i_f3d_flags>
0

> <s_epik_input>
W0NIM11bQ0gyXWMxbmMoW2NIXXMxKVtDSDJdQyg9TylbTkhdW0NASF0oW0NIM10pQyg9TylbTkhdQyhbQ0gzXSkoW0NIM10pW0NIM10=

> <s_epik_cmdline>
J2VwaWtfcHl0aG9uJywgJy1waCcsICc3LjAnLCAnLXRuJywgJzgnLCAnLW1hJywgJzIwMCcsICctbWV0YWxfYmluZGluZycsICctaW1hZScsICc8aW5maWxlLm1hZT4nLCAnLW9tYWUnLCAnPG91dGZpbGUubWFlPic=

> <r_lp_tautomer_probability>
1

> <r_epik_Ionization_Penalty>
4.05444e-05

> <r_epik_Ionization_Penalty_Charging>
0

> <r_epik_Ionization_Penalty_Neutral>
4.05444e-05

> <r_epik_State_Penalty>
-0

> <r_epik_Charging_Adjusted_Penalty>
0

> <i_epik_Tot_Q>
0

> <i_epik_Tot_abs_Q>
0

> <r_epik_Metal_State_Penalty>
-0

> <b_epik_Metal_Only>
0

> <s_lp_Force_Field>
OPLS_2005

> <r_lp_Energy>
-2.34744

> <b_lp_Chiralities_Consistent>
1

> <s_lp_Variant>
AV-unprocessed.smi:1537-2

> <Gold.Version>
5.8.1

> <Gold.Id.Protein>
6NUR|6NUR_protein|mol2

> <Gold.PLP.Fitness>
38.0140

> <Gold.PLP.PLP>
-36.0249

> <Gold.PLP.part.hbond>
-1.0000

> <Gold.PLP.part.metal>
0.0000

> <Gold.PLP.part.buried>
-4.1315

> <Gold.PLP.part.nonpolar>
-30.8821

> <Gold.PLP.part.repulsive>
0.3241

> <Gold.PLP.ligand.clash>
0.0000

> <Gold.PLP.ligand.torsion>
1.2819

> <Gold.PLP.Chemscore.Hbond>
0.4917

> <Gold.PLP.Chemscore.CHOScore>
1.0000

> <Gold.PLP.Chemscore.Metal>
0.0000

> <Gold.Chemscore.Hbonds>
donor molecule, donor type, donor heavy atom, donor atom, acceptor molecule, acceptor atom, score
      P1  H  7989  7998       L1     8  0.47
      L1  C    19    43       P1  8028  1.00

> <Gold.PLP.Chemscore.Internal.Correction>
0.0779

> <Gold.Rescore>
     Score         DG    S(hbond)    S(metal)    S(lipo)     H(rot)  DE(clash)    DE(int)     intcor
     11.30     -14.08       0.54        0.00      99.11       1.88       0.40       2.39       ----

> <Gold.Chemscore.Fitness>
11.2985

> <Gold.Chemscore.DG>
-14.0823

> <Gold.Chemscore.ZeroCoef>
-5.4800

> <Gold.Chemscore.Hbond>
0.5421

> <Gold.Chemscore.Metal>
0.0000

> <Gold.Chemscore.Lipo>
99.1098

> <Gold.Chemscore.Internal_Hbond>
0.0000

> <Gold.Chemscore.DEClash>
0.3961

> <Gold.Chemscore.DEInternal>
2.3877

> <Gold.Chemscore.Rot>
1.8766

> <Gold.Chemscore.Internal.Correction>
   9.000000E+99

> <Gold.Chemscore.Hbonds>
donor molecule, donor type, donor heavy atom, donor atom, acceptor molecule, acceptor atom, score
      P1  H  7989  7998       L1     8  0.46

> <Gold.Chemscore.Hbond.Weighted>
-1.8106

> <Gold.Chemscore.Metal.Weighted>
-0.0000

> <Gold.Chemscore.Lipo.Weighted>
-11.5958

> <Gold.Chemscore.Internal_Hbond.Weighted>
0.0000

> <Gold.Chemscore.DEClash.Weighted>
0.3961

> <Gold.Chemscore.DEInternal.Weighted>
2.3877

> <Gold.Chemscore.Rot.Weighted>
4.8042

> <Gold.Chemscore.Internal.Correction.Weighted>
   9.000000E+99

> <Gold.Protein.RotatedTorsions>
[ 6907 6896 6895 6894 ] final  -98.48 input  -60.11 | X-H torsion
[ 7974 7965 7964 7962 ] final   11.40 input  175.53 | X-H torsion
[ 8008 7997 7996 7995 ] final -146.68 input   59.86 | X-H torsion
[ 10167 10162 10161 10158 ] final  135.05 input  -65.29 | X-H torsion
[ 10718 10713 10712 10709 ] final -160.15 input   66.30 | X-H torsion
[ 10763 10752 10751 10750 ] final  -40.88 input  -60.55 | X-H torsion
[ 11005 11000 10999 10996 ] final  -26.13 input  -57.11 | X-H torsion

> <Gold.Protein.ActiveResidues>
 VAL166  LYS551  ARG553  GLY616  TRP617  ASP618  TYR619  PRO620  LYS621  CYS622 
 ASP623  PHE694  ASN695  SER759  ASP760  ASP761  ALA762  ILE779  LEU786  VAL792 
 PHE793  MET794  SER795  GLU796  ALA797  LYS798  CYS799  TRP800  GLU811  SER814 

> <Gold.Protein.RotatedAtoms>
  150.7048  134.1188  159.4026 H   0  0  0  0  0  0  0  0  0  0  0  0  # atno 6907 bound_to 6896
  151.9174  135.0311  160.0528 H   0  0  0  0  0  0  0  0  0  0  0  0  # atno 6908 bound_to 6896
  152.2285  133.5004  159.5239 H   0  0  0  0  0  0  0  0  0  0  0  0  # atno 6909 bound_to 6896
  146.2371  139.9490  142.8473 H   0  0  0  0  0  0  0  0  0  0  0  0  # atno 7974 bound_to 7965
  155.5633  140.0627  157.2824 H   0  0  0  0  0  0  0  0  0  0  0  0  # atno 8008 bound_to 7997
  154.4383  140.1882  156.0850 H   0  0  0  0  0  0  0  0  0  0  0  0  # atno 8009 bound_to 7997
  156.0430  140.3293  155.7269 H   0  0  0  0  0  0  0  0  0  0  0  0  # atno 8010 bound_to 7997
  139.5232  144.6536  151.5228 H   0  0  0  0  0  0  0  0  0  0  0  0  # atno 10167 bound_to 10162
  156.5781  130.8718  151.2857 H   0  0  0  0  0  0  0  0  0  0  0  0  # atno 10718 bound_to 10713
  153.9532  135.6748  153.4744 H   0  0  0  0  0  0  0  0  0  0  0  0  # atno 10763 bound_to 10752
  153.0874  135.4892  154.8620 H   0  0  0  0  0  0  0  0  0  0  0  0  # atno 10764 bound_to 10752
  154.7314  135.3139  154.8845 H   0  0  0  0  0  0  0  0  0  0  0  0  # atno 10765 bound_to 10752
  140.9001  133.7530  156.0532 H   0  0  0  0  0  0  0  0  0  0  0  0  # atno 11005 bound_to 11000
  145.1879  140.9798  143.4228 LP  0  0  0  0  0  0  0  0  0  0  0  0  # atno 17320 bound_to 7965
  144.9883  139.3715  143.6227 LP  0  0  0  0  0  0  0  0  0  0  0  0  # atno 17321 bound_to 7965
  140.6352  143.8997  150.6641 LP  0  0  0  0  0  0  0  0  0  0  0  0  # atno 17342 bound_to 10162
  140.2314  143.3732  152.1562 LP  0  0  0  0  0  0  0  0  0  0  0  0  # atno 17343 bound_to 10162
  157.7333  130.9728  150.1970 LP  0  0  0  0  0  0  0  0  0  0  0  0  # atno 17370 bound_to 10713
  156.2655  130.3715  149.8085 LP  0  0  0  0  0  0  0  0  0  0  0  0  # atno 17371 bound_to 10713
  140.8241  134.3255  157.5372 LP  0  0  0  0  0  0  0  0  0  0  0  0  # atno 17394 bound_to 11000
  139.8741  134.9326  156.3558 LP  0  0  0  0  0  0  0  0  0  0  0  0  # atno 17395 bound_to 11000

$$$$
