#       Name:                AV-unprocessed.smi:109
#       Creating user name   scv26
#       Creation time:       Thu Mar 26 18:07:01 2020


#       File generated by GOLD software.
#

@<TRIPOS>MOLECULE
AV-unprocessed.smi:109
    71    74     1
SMALL
NO_CHARGES


@<TRIPOS>ATOM
      1 ****        -1.8610   2.8599  -4.2310 O.3            1 S1                 0.0000
      2 ****        -1.4793   2.3396  -2.9758 C.3            1 S1                 0.0000
      3 ****        -2.7194   2.1706  -2.0813 C.3            1 S1                 0.0000
      4 ****        -2.4100   1.6771  -0.6459 C.3            1 S1                 0.0000
      5 ****        -1.7740   0.3589  -0.7087 N.pl3          1 S1                 0.0000
      6 ****        -0.4400   0.1928  -0.5640 C.ar           1 S1                 0.0000
      7 ****         0.3959   1.2524  -0.4125 N.ar           1 S1                 0.0000
      8 ****         1.7100   1.0544  -0.2786 C.ar           1 S1                 0.0000
      9 ****         2.3819  -0.0983  -0.2683 N.ar           1 S1                 0.0000
     10 ****         1.5491  -1.1685  -0.4186 C.ar           1 S1                 0.0000
     11 ****         0.1355  -1.1042  -0.5704 C.ar           1 S1                 0.0000
     12 ****        -0.3840  -2.3857  -0.6954 N.2            1 S1                 0.0000
     13 ****         0.6651  -3.1595  -0.6196 C.2            1 S1                 0.0000
     14 ****         1.8693  -2.5123  -0.4502 N.pl3          1 S1                 0.0000
     15 ****         3.2252  -3.1422  -0.3318 C.3            1 S1                 0.0000
     16 ****         4.1608  -2.3673  -1.0223 O.3            1 S1                 0.0000
     17 ****         5.1939  -1.9313  -0.1422 C.3            1 S1                 0.0000
     18 ****         6.5199  -1.7484  -0.9015 C.3            1 S1                 0.0000
     19 ****         7.5102  -1.2208  -0.0445 O.3            1 S1                 0.0000
     20 ****         5.1824  -2.9466   1.0102 C.3            1 S1                 0.0000
     21 ****         5.9372  -4.1015   0.6927 O.3            1 S1                 0.0000
     22 ****         3.7067  -3.2933   1.1263 C.3            1 S1                 0.0000
     23 ****         3.0595  -2.4255   2.0404 O.3            1 S1                 0.0000
     24 ****        -3.6695   1.6010   0.2650 C.3            1 S1                 0.0000
     25 ****        -4.4066   2.9577   0.3995 C.3            1 S1                 0.0000
     26 ****        -5.6287   2.8742   1.3291 C.3            1 S1                 0.0000
     27 ****        -5.2449   2.3467   2.7167 C.3            1 S1                 0.0000
     28 ****        -4.5386   0.9910   2.6015 C.3            1 S1                 0.0000
     29 ****        -3.3111   1.0823   1.6821 C.3            1 S1                 0.0000
     30 ****         3.1278  -4.1019  -0.8407 H              1 S1                 0.0000
     31 ****         4.8854  -0.9641   0.2563 H              1 S1                 0.0000
     32 ****         5.5868  -2.5235   1.9307 H              1 S1                 0.0000
     33 ****         3.5421  -4.3178   1.4626 H              1 S1                 0.0000
     34 ****        -2.4455   2.2441  -4.6459 H              1 S1                 0.0000
     35 ****        -0.9735   1.3876  -3.1365 H              1 S1                 0.0000
     36 ****        -0.7624   3.0195  -2.5148 H              1 S1                 0.0000
     37 ****        -3.2089   3.1419  -2.0409 H              1 S1                 0.0000
     38 ****        -3.4260   1.4898  -2.5581 H              1 S1                 0.0000
     39 ****        -1.7402   2.4018  -0.1834 H              1 S1                 0.0000
     40 ****        -2.4076  -0.4204  -0.8140 H              1 S1                 0.0000
     41 ****         2.3084   1.9459  -0.1631 H              1 S1                 0.0000
     42 ****         0.5882  -4.2353  -0.6839 H              1 S1                 0.0000
     43 ****         6.8682  -2.6870  -1.3332 H              1 S1                 0.0000
     44 ****         6.3782  -1.0532  -1.7294 H              1 S1                 0.0000
     45 ****         8.2991  -1.0824  -0.5463 H              1 S1                 0.0000
     46 ****         6.8434  -3.8481   0.6029 H              1 S1                 0.0000
     47 ****         2.1284  -2.5791   1.9900 H              1 S1                 0.0000
     48 ****        -4.3654   0.8902  -0.1840 H              1 S1                 0.0000
     49 ****        -3.7164   3.7159   0.7721 H              1 S1                 0.0000
     50 ****        -4.7594   3.3079  -0.5690 H              1 S1                 0.0000
     51 ****        -6.0914   3.8572   1.4221 H              1 S1                 0.0000
     52 ****        -6.3805   2.2207   0.8849 H              1 S1                 0.0000
     53 ****        -4.5894   3.0623   3.2144 H              1 S1                 0.0000
     54 ****        -6.1348   2.2529   3.3399 H              1 S1                 0.0000
     55 ****        -4.2372   0.6441   3.5903 H              1 S1                 0.0000
     56 ****        -5.2336   0.2465   2.2112 H              1 S1                 0.0000
     57 ****        -2.8537   0.0942   1.6303 H              1 S1                 0.0000
     58 ****        -2.5667   1.7387   2.1345 H              1 S1                 0.0000
     59 ****        -1.0506   2.9927  -4.8016 LP             1 S1                 0.0000
     60 ****        -2.3274   3.7355  -4.1054 LP             1 S1                 0.0000
     61 ****         0.0272   2.1818  -0.4012 LP             1 S1                 0.0000
     62 ****         3.3739  -0.1691  -0.1633 LP             1 S1                 0.0000
     63 ****        -1.3398  -2.6539  -0.8156 LP             1 S1                 0.0000
     64 ****         3.7027  -1.5690  -1.4133 LP             1 S1                 0.0000
     65 ****         4.5630  -2.9138  -1.7569 LP             1 S1                 0.0000
     66 ****         7.6917  -1.8655   0.6981 LP             1 S1                 0.0000
     67 ****         7.1969  -0.3515   0.3378 LP             1 S1                 0.0000
     68 ****         5.6092  -4.4943  -0.1664 LP             1 S1                 0.0000
     69 ****         5.8458  -4.7770   1.4244 LP             1 S1                 0.0000
     70 ****         3.2583  -1.4749   1.8020 LP             1 S1                 0.0000
     71 ****         3.3825  -2.6109   2.9685 LP             1 S1                 0.0000
@<TRIPOS>BOND
    1    1    2 1     
    2    1   34 1     
    3    2    3 1     
    4    2   35 1     
    5    2   36 1     
    6    3    4 1     
    7    3   37 1     
    8    3   38 1     
    9    4    5 1     
   10    4   24 1     
   11    4   39 1     
   12    5    6 1     
   13    5   40 1     
   14    6   11 ar    
   15    6    7 ar    
   16    7    8 ar    
   17    8    9 ar    
   18    8   41 1     
   19    9   10 ar    
   20   10   14 1     
   21   10   11 ar    
   22   11   12 1     
   23   12   13 2     
   24   13   14 1     
   25   13   42 1     
   26   14   15 1     
   27   15   30 1     
   28   15   22 1     
   29   15   16 1     
   30   16   17 1     
   31   17   31 1     
   32   17   18 1     
   33   17   20 1     
   34   18   19 1     
   35   18   43 1     
   36   18   44 1     
   37   19   45 1     
   38   20   32 1     
   39   20   21 1     
   40   20   22 1     
   41   21   46 1     
   42   22   33 1     
   43   22   23 1     
   44   23   47 1     
   45   24   29 1     
   46   24   25 1     
   47   24   48 1     
   48   25   26 1     
   49   25   49 1     
   50   25   50 1     
   51   26   27 1     
   52   26   51 1     
   53   26   52 1     
   54   27   28 1     
   55   27   53 1     
   56   27   54 1     
   57   28   29 1     
   58   28   55 1     
   59   28   56 1     
   60   29   57 1     
   61   29   58 1     
   62    1   59 1     
   63    1   60 1     
   64    7   61 1     
   65    9   62 1     
   66   12   63 1     
   67   16   64 1     
   68   16   65 1     
   69   19   66 1     
   70   19   67 1     
   71   21   68 1     
   72   21   69 1     
   73   23   70 1     
   74   23   71 1     
@<TRIPOS>SUBSTRUCTURE
      1 S1             1
@<TRIPOS>SET
LONE_PAIRS      STATIC     ATOMS    <user>   **** ""
13 59 60 61 62 63 64 65 66 67 68 69 70 71
DONOR_HYDROGENS      STATIC     ATOMS    <user>   **** ""
5 34 40 45 46 47
ATOM$BLUE        STATIC     ATOMS    COLORGROUP SYSTEM
13 59 60 61 62 63 64 65 66 67 68 69 70 71
ATOM$RED        STATIC     ATOMS    COLORGROUP SYSTEM
5 34 40 45 46 47
