AV-unprocessed.smi:1184|AV-procd|sdf|4971|dock5
  -GOLD-   22720 3563D 1   1.00000     0.00000
 Structure written by MMmdl.
 43 44  0  0  0  0  0  0  0  0  2 V2000
  143.2353  132.5610  148.4735 C   0  0  0  0  0  0  0  0  0  0  0  0
  143.8295  132.4526  149.8847 C   0  0  0  0  0  0  0  0  0  0  0  0
  143.4702  133.6126  150.7348 N   0  3  1  0  0  0  0  0  0  0  0  0
  143.8306  133.4740  152.1641 C   0  0  0  0  0  0  0  0  0  0  0  0
  144.1249  134.8902  152.6508 C   0  0  0  0  0  0  0  0  0  0  0  0
  144.7877  135.5276  151.4335 C   0  0  2  0  0  0  0  0  0  0  0  0
  144.8076  137.0680  151.4695 C   0  0  0  0  0  0  0  0  0  0  0  0
  145.6238  137.5813  152.5652 N   0  0  0  0  0  0  0  0  0  0  0  0
  146.4525  138.6350  152.4968 C   0  0  0  0  0  0  0  0  0  0  0  0
  146.6354  139.2903  151.4713 O   0  0  0  0  0  0  0  0  0  0  0  0
  147.1894  139.0087  153.7830 C   0  0  0  0  0  0  0  0  0  0  0  0
  148.2917  139.9886  153.4714 C   0  0  0  0  0  0  0  0  0  0  0  0
  149.6831  139.7291  153.3002 C   0  0  0  0  0  0  0  0  0  0  0  0
  150.4178  138.4220  153.3841 C   0  0  0  0  0  0  0  0  0  0  0  0
  150.3614  140.8316  153.0318 N   0  0  0  0  0  0  0  0  0  0  0  0
  149.4223  141.8668  153.0185 O   0  0  0  0  0  0  0  0  0  0  0  0
  148.1997  141.3409  153.2827 C   0  0  0  0  0  0  0  0  0  0  0  0
  147.0564  142.2978  153.3127 C   0  0  0  0  0  0  0  0  0  0  0  0
  144.0129  134.9080  150.2593 C   0  0  0  0  0  0  0  0  0  0  0  0
  143.5606  131.7250  147.8541 H   0  0  0  0  0  0  0  0  0  0  0  0
  143.5531  133.4808  147.9816 H   0  0  0  0  0  0  0  0  0  0  0  0
  142.1453  132.5485  148.4923 H   0  0  0  0  0  0  0  0  0  0  0  0
  143.5099  131.5259  150.3635 H   0  0  0  0  0  0  0  0  0  0  0  0
  144.9161  132.4046  149.8011 H   0  0  0  0  0  0  0  0  0  0  0  0
  143.0341  132.9943  152.7337 H   0  0  0  0  0  0  0  0  0  0  0  0
  144.7304  132.8648  152.2649 H   0  0  0  0  0  0  0  0  0  0  0  0
  143.1928  135.4041  152.8903 H   0  0  0  0  0  0  0  0  0  0  0  0
  144.7594  134.9078  153.5376 H   0  0  0  0  0  0  0  0  0  0  0  0
  145.8160  135.1641  151.3908 H   0  0  0  0  0  0  0  0  0  0  0  0
  145.1418  137.4740  150.5131 H   0  0  0  0  0  0  0  0  0  0  0  0
  143.7933  137.4393  151.6179 H   0  0  0  0  0  0  0  0  0  0  0  0
  145.5354  137.1108  153.4545 H   0  0  0  0  0  0  0  0  0  0  0  0
  146.4795  139.4164  154.5037 H   0  0  0  0  0  0  0  0  0  0  0  0
  147.5860  138.1000  154.2374 H   0  0  0  0  0  0  0  0  0  0  0  0
  149.8057  137.6468  153.8442 H   0  0  0  0  0  0  0  0  0  0  0  0
  151.3261  138.5181  153.9794 H   0  0  0  0  0  0  0  0  0  0  0  0
  150.7050  138.0722  152.3923 H   0  0  0  0  0  0  0  0  0  0  0  0
  146.2001  141.8697  153.8337 H   0  0  0  0  0  0  0  0  0  0  0  0
  146.7426  142.5547  152.3010 H   0  0  0  0  0  0  0  0  0  0  0  0
  147.3347  143.2185  153.8258 H   0  0  0  0  0  0  0  0  0  0  0  0
  144.6466  134.8053  149.3769 H   0  0  0  0  0  0  0  0  0  0  0  0
  143.1642  135.5336  149.9815 H   0  0  0  0  0  0  0  0  0  0  0  0
  142.4650  133.7066  150.6957 H   0  0  0  0  0  0  0  0  0  0  0  0
  1  2  1  0  0  0  0
  1 20  1  0  0  0  0
  1 21  1  0  0  0  0
  1 22  1  0  0  0  0
  2  3  1  0  0  0  0
  2 23  1  0  0  0  0
  2 24  1  0  0  0  0
  3 19  1  0  0  0  0
  3  4  1  0  0  0  0
  3 43  1  0  0  0  0
  4  5  1  0  0  0  0
  4 25  1  0  0  0  0
  4 26  1  0  0  0  0
  5  6  1  0  0  0  0
  5 27  1  0  0  0  0
  5 28  1  0  0  0  0
  6  7  1  0  0  0  0
  6 19  1  0  0  0  0
  6 29  1  0  0  0  0
  7  8  1  0  0  0  0
  7 30  1  0  0  0  0
  7 31  1  0  0  0  0
  8  9  1  0  0  0  0
  8 32  1  0  0  0  0
  9 10  2  0  0  0  0
  9 11  1  0  0  0  0
 11 12  1  0  0  0  0
 11 33  1  0  0  0  0
 11 34  1  0  0  0  0
 12 17  2  0  0  0  0
 12 13  1  0  0  0  0
 13 14  1  0  0  0  0
 13 15  2  0  0  0  0
 14 35  1  0  0  0  0
 14 36  1  0  0  0  0
 14 37  1  0  0  0  0
 15 16  1  0  0  0  0
 16 17  1  0  0  0  0
 17 18  1  0  0  0  0
 18 38  1  0  0  0  0
 18 39  1  0  0  0  0
 18 40  1  0  0  0  0
 19 41  1  0  0  0  0
 19 42  1  0  0  0  0
M  CHG  1   3   1
M  END
> <s_m_source_file>
AV-unprocessed.smi

> <i_m_source_file_index>
1184

> <i_lp_mmshare_version>
43012

> <i_f3d_flags>
0

> <s_epik_input>
W0NIM11bQ0gyXU4xW0NIMl1bQ0gyXVtDQEhdKFtDSDJdMSlbQ0gyXVtOSF1DKD1PKVtDSDJdYzJjKFtDSDNdKW5vYzJbQ0gzXQ==

> <s_epik_cmdline>
J2VwaWtfcHl0aG9uJywgJy1waCcsICc3LjAnLCAnLXRuJywgJzgnLCAnLW1hJywgJzIwMCcsICctbWV0YWxfYmluZGluZycsICctaW1hZScsICc8aW5maWxlLm1hZT4nLCAnLW9tYWUnLCAnPG91dGZpbGUubWFlPic=

> <r_epik_Ionization_Penalty>
0.000590726

> <r_epik_Ionization_Penalty_Charging>
0.000590692

> <r_epik_Ionization_Penalty_Neutral>
3.44741e-08

> <r_epik_State_Penalty>
0.000371644

> <r_epik_Charging_Adjusted_Penalty>
0.000962336

> <i_epik_Tot_Q>
1

> <i_epik_Tot_abs_Q>
1

> <r_epik_Metal_State_Penalty>
-0

> <b_epik_Metal_Only>
0

> <s_lp_Force_Field>
OPLS_2005

> <r_lp_Energy>
22.6293

> <b_lp_Chiralities_Consistent>
1

> <s_lp_Variant>
AV-unprocessed.smi:1184-3

> <Gold.Version>
5.8.1

> <Gold.Id.Protein>
6NUR|6NUR_protein|mol2

> <Gold.PLP.Fitness>
45.4330

> <Gold.PLP.PLP>
-35.8488

> <Gold.PLP.part.hbond>
-3.7874

> <Gold.PLP.part.metal>
0.0000

> <Gold.PLP.part.buried>
-0.4852

> <Gold.PLP.part.nonpolar>
-31.3151

> <Gold.PLP.part.repulsive>
1.9683

> <Gold.PLP.ligand.clash>
0.0000

> <Gold.PLP.ligand.torsion>
0.6103

> <Gold.PLP.Chemscore.Hbond>
3.5840

> <Gold.PLP.Chemscore.CHOScore>
0.0000

> <Gold.PLP.Chemscore.Metal>
0.0000

> <Gold.Chemscore.Hbonds>
donor molecule, donor type, donor heavy atom, donor atom, acceptor molecule, acceptor atom, score
      L1  H     3    43       P1 10186  1.70
      P1  H  7989  7998       L1    15  0.03

> <Gold.PLP.Chemscore.Internal.Correction>
0.0528

> <Gold.Rescore>
     Score         DG    S(hbond)    S(metal)    S(lipo)     H(rot)  DE(clash)    DE(int)     intcor
     14.96     -17.45       1.75        0.00      88.88       1.67       1.70       0.79       ----

> <Gold.Chemscore.Fitness>
14.9611

> <Gold.Chemscore.DG>
-17.4547

> <Gold.Chemscore.ZeroCoef>
-5.4800

> <Gold.Chemscore.Hbond>
1.7505

> <Gold.Chemscore.Metal>
0.0000

> <Gold.Chemscore.Lipo>
88.8831

> <Gold.Chemscore.Internal_Hbond>
0.0000

> <Gold.Chemscore.DEClash>
1.7021

> <Gold.Chemscore.DEInternal>
0.7915

> <Gold.Chemscore.Rot>
1.6684

> <Gold.Chemscore.Internal.Correction>
   9.000000E+99

> <Gold.Chemscore.Hbonds>
donor molecule, donor type, donor heavy atom, donor atom, acceptor molecule, acceptor atom, score
      L1  H     3    43       P1 10186  0.71
      P1  H  7989  7998       L1    15  0.04

> <Gold.Chemscore.Hbond.Weighted>
-5.8466

> <Gold.Chemscore.Metal.Weighted>
-0.0000

> <Gold.Chemscore.Lipo.Weighted>
-10.3993

> <Gold.Chemscore.Internal_Hbond.Weighted>
0.0000

> <Gold.Chemscore.DEClash.Weighted>
1.7021

> <Gold.Chemscore.DEInternal.Weighted>
0.7915

> <Gold.Chemscore.Rot.Weighted>
4.2712

> <Gold.Chemscore.Internal.Correction.Weighted>
   9.000000E+99

> <Gold.Protein.RotatedTorsions>
[ 6907 6896 6895 6894 ] final   96.38 input  -60.11 | X-H torsion
[ 7974 7965 7964 7962 ] final -117.97 input  175.53 | X-H torsion
[ 8008 7997 7996 7995 ] final  119.49 input   59.86 | X-H torsion
[ 10167 10162 10161 10158 ] final -167.53 input  -65.29 | X-H torsion
[ 10718 10713 10712 10709 ] final   42.61 input   66.30 | X-H torsion
[ 10763 10752 10751 10750 ] final   65.11 input  -60.55 | X-H torsion
[ 11005 11000 10999 10996 ] final -154.41 input  -57.11 | X-H torsion

> <Gold.Protein.ActiveResidues>
 VAL166  LYS551  ARG553  GLY616  TRP617  ASP618  TYR619  PRO620  LYS621  CYS622 
 ASP623  PHE694  ASN695  SER759  ASP760  ASP761  ALA762  ILE779  LEU786  VAL792 
 PHE793  MET794  SER795  GLU796  ALA797  LYS798  CYS799  TRP800  GLU811  SER814 

> <Gold.Protein.RotatedAtoms>
  152.5435  134.0896  159.8270 H   0  0  0  0  0  0  0  0  0  0  0  0  # atno 6907 bound_to 6896
  151.0987  133.5253  159.2618 H   0  0  0  0  0  0  0  0  0  0  0  0  # atno 6908 bound_to 6896
  151.2016  135.0454  159.8929 H   0  0  0  0  0  0  0  0  0  0  0  0  # atno 6909 bound_to 6896
  145.0791  140.8413  143.4050 H   0  0  0  0  0  0  0  0  0  0  0  0  # atno 7974 bound_to 7965
  156.2598  140.2852  156.1000 H   0  0  0  0  0  0  0  0  0  0  0  0  # atno 8008 bound_to 7997
  155.1370  140.0395  157.2806 H   0  0  0  0  0  0  0  0  0  0  0  0  # atno 8009 bound_to 7997
  154.6557  140.2555  155.7170 H   0  0  0  0  0  0  0  0  0  0  0  0  # atno 8010 bound_to 7997
  139.6044  144.0944  152.1777 H   0  0  0  0  0  0  0  0  0  0  0  0  # atno 10167 bound_to 10162
  157.4067  130.7891  149.7395 H   0  0  0  0  0  0  0  0  0  0  0  0  # atno 10718 bound_to 10713
  153.0083  135.5368  154.6616 H   0  0  0  0  0  0  0  0  0  0  0  0  # atno 10763 bound_to 10752
  154.5823  135.2851  155.0722 H   0  0  0  0  0  0  0  0  0  0  0  0  # atno 10764 bound_to 10752
  154.1847  135.6510  153.5096 H   0  0  0  0  0  0  0  0  0  0  0  0  # atno 10765 bound_to 10752
  140.6977  134.3972  157.5213 H   0  0  0  0  0  0  0  0  0  0  0  0  # atno 11005 bound_to 11000
  145.1200  139.2700  143.5593 LP  0  0  0  0  0  0  0  0  0  0  0  0  # atno 17320 bound_to 7965
  146.3530  140.0821  142.8617 LP  0  0  0  0  0  0  0  0  0  0  0  0  # atno 17321 bound_to 7965
  140.0548  144.5904  150.7308 LP  0  0  0  0  0  0  0  0  0  0  0  0  # atno 17342 bound_to 10162
  140.7273  143.2650  151.4074 LP  0  0  0  0  0  0  0  0  0  0  0  0  # atno 17343 bound_to 10162
  155.9838  130.3997  150.3342 LP  0  0  0  0  0  0  0  0  0  0  0  0  # atno 17370 bound_to 10713
  157.1475  131.0312  151.2900 LP  0  0  0  0  0  0  0  0  0  0  0  0  # atno 17371 bound_to 10713
  139.8905  134.8802  156.2364 LP  0  0  0  0  0  0  0  0  0  0  0  0  # atno 17394 bound_to 11000
  141.0190  133.7052  156.1236 LP  0  0  0  0  0  0  0  0  0  0  0  0  # atno 17395 bound_to 11000

$$$$
