AV-unprocessed.smi:618|AV-procd|sdf|3085|dock4
  -GOLD-   22720 0 03D 1   1.00000     0.00000
 Structure written by MMmdl.
 40 42  0  0  0  0  0  0  0  0  1 V2000
  150.3820  135.0338  156.1636 O   0  0  0  0  0  0  0  0  0  0  0  0
  149.9139  135.3457  155.0691 C   0  0  0  0  0  0  0  0  0  0  0  0
  149.2455  134.4933  154.2795 N   0  0  0  0  0  0  0  0  0  0  0  0
  148.9612  133.0979  154.5981 C   0  0  0  0  0  0  0  0  0  0  0  0
  147.6099  132.6486  154.0175 C   0  0  1  0  0  0  0  0  0  0  0  0
  147.4410  133.0958  152.5468 C   0  0  0  0  0  0  0  0  0  0  0  0
  146.2073  132.5586  152.0059 N   0  0  0  0  0  0  0  0  0  0  0  0
  145.9343  132.8218  150.6122 C   0  0  0  0  0  0  0  0  0  0  0  0
  144.8322  131.8124  150.2443 C   0  0  0  0  0  0  0  0  0  0  0  0
  144.9350  130.7170  151.3290 C   0  0  0  0  0  0  0  0  0  0  0  0
  146.1909  131.1239  152.1012 C   0  0  2  0  0  0  0  0  0  0  0  0
  146.3062  130.6760  153.5651 C   0  0  0  0  0  0  0  0  0  0  0  0
  147.5170  131.2200  154.0958 O   0  0  0  0  0  0  0  0  0  0  0  0
  149.9802  136.5680  154.5140 N   0  0  0  0  0  0  0  0  0  0  0  0
  150.5977  137.7419  155.0244 C   0  0  0  0  0  0  0  0  0  0  0  0
  151.4616  137.7679  156.1462 C   0  0  0  0  0  0  0  0  0  0  0  0
  152.0250  138.9965  156.5417 C   0  0  0  0  0  0  0  0  0  0  0  0
  151.7109  140.1510  155.7989 C   0  0  0  0  0  0  0  0  0  0  0  0
  150.8998  140.1390  154.7202 N   0  0  0  0  0  0  0  0  0  0  0  0
  150.3635  138.9575  154.3469 C   0  0  0  0  0  0  0  0  0  0  0  0
  148.8923  134.8383  153.3991 H   0  0  0  0  0  0  0  0  0  0  0  0
  149.7614  132.4958  154.1668 H   0  0  0  0  0  0  0  0  0  0  0  0
  148.9948  132.9256  155.6752 H   0  0  0  0  0  0  0  0  0  0  0  0
  146.8043  133.0814  154.6137 H   0  0  0  0  0  0  0  0  0  0  0  0
  147.4318  134.1843  152.4824 H   0  0  0  0  0  0  0  0  0  0  0  0
  148.2894  132.7495  151.9543 H   0  0  0  0  0  0  0  0  0  0  0  0
  145.6296  133.8560  150.4499 H   0  0  0  0  0  0  0  0  0  0  0  0
  146.8255  132.6322  150.0114 H   0  0  0  0  0  0  0  0  0  0  0  0
  143.8477  132.2810  150.2708 H   0  0  0  0  0  0  0  0  0  0  0  0
  144.9863  131.4121  149.2420 H   0  0  0  0  0  0  0  0  0  0  0  0
  144.0570  130.7453  151.9759 H   0  0  0  0  0  0  0  0  0  0  0  0
  145.0164  129.7141  150.9092 H   0  0  0  0  0  0  0  0  0  0  0  0
  147.0527  130.7256  151.5609 H   0  0  0  0  0  0  0  0  0  0  0  0
  145.4535  131.0193  154.1528 H   0  0  0  0  0  0  0  0  0  0  0  0
  146.3374  129.5887  153.6357 H   0  0  0  0  0  0  0  0  0  0  0  0
  149.4790  136.6868  153.6458 H   0  0  0  0  0  0  0  0  0  0  0  0
  151.7142  136.8770  156.6996 H   0  0  0  0  0  0  0  0  0  0  0  0
  152.6874  139.0513  157.3930 H   0  0  0  0  0  0  0  0  0  0  0  0
  152.1272  141.1086  156.0750 H   0  0  0  0  0  0  0  0  0  0  0  0
  149.7215  138.9855  153.4783 H   0  0  0  0  0  0  0  0  0  0  0  0
  1  2  2  0  0  0  0
  2  3  1  0  0  0  0
  2 14  1  0  0  0  0
  3  4  1  0  0  0  0
  3 21  1  0  0  0  0
  4  5  1  0  0  0  0
  4 22  1  0  0  0  0
  4 23  1  0  0  0  0
  5 13  1  0  0  0  0
  5  6  1  0  0  0  0
  5 24  1  0  0  0  0
  6  7  1  0  0  0  0
  6 25  1  0  0  0  0
  6 26  1  0  0  0  0
  7 11  1  0  0  0  0
  7  8  1  0  0  0  0
  8  9  1  0  0  0  0
  8 27  1  0  0  0  0
  8 28  1  0  0  0  0
  9 10  1  0  0  0  0
  9 29  1  0  0  0  0
  9 30  1  0  0  0  0
 10 11  1  0  0  0  0
 10 31  1  0  0  0  0
 10 32  1  0  0  0  0
 11 12  1  0  0  0  0
 11 33  1  0  0  0  0
 12 13  1  0  0  0  0
 12 34  1  0  0  0  0
 12 35  1  0  0  0  0
 14 15  1  0  0  0  0
 14 36  1  0  0  0  0
 15 20  1  0  0  0  0
 15 16  2  0  0  0  0
 16 17  1  0  0  0  0
 16 37  1  0  0  0  0
 17 18  2  0  0  0  0
 17 38  1  0  0  0  0
 18 19  1  0  0  0  0
 18 39  1  0  0  0  0
 19 20  2  0  0  0  0
 20 40  1  0  0  0  0
M  END
> <s_m_source_file>
AV-unprocessed.smi

> <i_m_source_file_index>
618

> <i_lp_mmshare_version>
43012

> <i_f3d_flags>
0

> <s_epik_input>
W2NIXTFuW2NIXVtjSF1bY0hdYzFbTkhdQyg9TylbTkhdW0NIMl1bQ0BIXShbQ0gyXTIpT1tDSDJdW0NAQEhdKE4yMylbQ0gyXVtDSDJdW0NIMl0z

> <s_epik_cmdline>
J2VwaWtfcHl0aG9uJywgJy1waCcsICc3LjAnLCAnLXRuJywgJzgnLCAnLW1hJywgJzIwMCcsICctbWV0YWxfYmluZGluZycsICctaW1hZScsICc8aW5maWxlLm1hZT4nLCAnLW9tYWUnLCAnPG91dGZpbGUubWFlPic=

> <r_epik_Ionization_Penalty>
1.07277

> <r_epik_Ionization_Penalty_Charging>
0

> <r_epik_Ionization_Penalty_Neutral>
1.07277

> <r_epik_State_Penalty>
1.13623

> <r_epik_Charging_Adjusted_Penalty>
1.13623

> <i_epik_Tot_Q>
0

> <i_epik_Tot_abs_Q>
0

> <r_epik_Metal_State_Penalty>
1.13277

> <b_epik_Metal_Only>
0

> <s_lp_Force_Field>
OPLS_2005

> <r_lp_Energy>
50.6397

> <b_lp_Chiralities_Consistent>
1

> <s_lp_Variant>
AV-unprocessed.smi:618-12

> <Gold.Version>
5.8.1

> <Gold.Id.Protein>
6NUR|6NUR_protein|mol2

> <Gold.PLP.Fitness>
46.9608

> <Gold.PLP.PLP>
-36.7457

> <Gold.PLP.part.hbond>
-4.0455

> <Gold.PLP.part.metal>
0.0000

> <Gold.PLP.part.buried>
-3.6410

> <Gold.PLP.part.nonpolar>
-30.0755

> <Gold.PLP.part.repulsive>
0.4014

> <Gold.PLP.ligand.clash>
0.0000

> <Gold.PLP.ligand.torsion>
0.2929

> <Gold.PLP.Chemscore.Hbond>
2.7200

> <Gold.PLP.Chemscore.CHOScore>
0.8799

> <Gold.PLP.Chemscore.Metal>
0.0000

> <Gold.Chemscore.Hbonds>
donor molecule, donor type, donor heavy atom, donor atom, acceptor molecule, acceptor atom, score
      L1  H     3    21       P1  7948  0.98
      L1  H    14    36       P1  7948  1.00
      P1  H  7989  7998       L1    19  1.00
      L1  C    20    40       P1  7957  0.97

> <Gold.PLP.Chemscore.Internal.Correction>
0.0010

> <Gold.Rescore>
     Score         DG    S(hbond)    S(metal)    S(lipo)     H(rot)  DE(clash)    DE(int)     intcor
     15.75     -17.17       1.30        0.00      90.15       1.25       0.00       1.42       ----

> <Gold.Chemscore.Fitness>
15.7516

> <Gold.Chemscore.DG>
-17.1682

> <Gold.Chemscore.ZeroCoef>
-5.4800

> <Gold.Chemscore.Hbond>
1.2967

> <Gold.Chemscore.Metal>
0.0000

> <Gold.Chemscore.Lipo>
90.1464

> <Gold.Chemscore.Internal_Hbond>
0.0000

> <Gold.Chemscore.DEClash>
0.0000

> <Gold.Chemscore.DEInternal>
1.4166

> <Gold.Chemscore.Rot>
1.2461

> <Gold.Chemscore.Internal.Correction>
   9.000000E+99

> <Gold.Chemscore.Hbonds>
donor molecule, donor type, donor heavy atom, donor atom, acceptor molecule, acceptor atom, score
      L1  H     3    21       P1  7948  0.26
      L1  H    14    36       P1  7948  0.83
      P1  H  7989  7998       L1    19  0.57

> <Gold.Chemscore.Hbond.Weighted>
-4.3311

> <Gold.Chemscore.Metal.Weighted>
-0.0000

> <Gold.Chemscore.Lipo.Weighted>
-10.5471

> <Gold.Chemscore.Internal_Hbond.Weighted>
0.0000

> <Gold.Chemscore.DEClash.Weighted>
0.0000

> <Gold.Chemscore.DEInternal.Weighted>
1.4166

> <Gold.Chemscore.Rot.Weighted>
3.1901

> <Gold.Chemscore.Internal.Correction.Weighted>
   9.000000E+99

> <Gold.Protein.RotatedTorsions>
[ 6907 6896 6895 6894 ] final -147.24 input  -60.11 | X-H torsion
[ 7974 7965 7964 7962 ] final   83.84 input  175.53 | X-H torsion
[ 8008 7997 7996 7995 ] final  123.64 input   59.86 | X-H torsion
[ 10167 10162 10161 10158 ] final   43.40 input  -65.29 | X-H torsion
[ 10718 10713 10712 10709 ] final  -42.91 input   66.30 | X-H torsion
[ 10763 10752 10751 10750 ] final   99.95 input  -60.55 | X-H torsion
[ 11005 11000 10999 10996 ] final   18.93 input  -57.11 | X-H torsion

> <Gold.Protein.ActiveResidues>
 VAL166  LYS551  ARG553  GLY616  TRP617  ASP618  TYR619  PRO620  LYS621  CYS622 
 ASP623  PHE694  ASN695  SER759  ASP760  ASP761  ALA762  ILE779  LEU786  VAL792 
 PHE793  MET794  SER795  GLU796  ALA797  LYS798  CYS799  TRP800  GLU811  SER814 

> <Gold.Protein.RotatedAtoms>
  151.1529  133.4895  159.2594 H   0  0  0  0  0  0  0  0  0  0  0  0  # atno 6907 bound_to 6896
  151.1534  135.0238  159.8688 H   0  0  0  0  0  0  0  0  0  0  0  0  # atno 6908 bound_to 6896
  152.5463  134.1411  159.8532 H   0  0  0  0  0  0  0  0  0  0  0  0  # atno 6909 bound_to 6896
  145.6066  139.2361  143.2215 H   0  0  0  0  0  0  0  0  0  0  0  0  # atno 7974 bound_to 7965
  156.2773  140.2758  156.1660 H   0  0  0  0  0  0  0  0  0  0  0  0  # atno 8008 bound_to 7997
  155.0704  140.0387  157.2624 H   0  0  0  0  0  0  0  0  0  0  0  0  # atno 8009 bound_to 7997
  154.7044  140.2656  155.6694 H   0  0  0  0  0  0  0  0  0  0  0  0  # atno 8010 bound_to 7997
  140.3448  144.2425  150.6151 H   0  0  0  0  0  0  0  0  0  0  0  0  # atno 10167 bound_to 10162
  156.2546  130.4191  149.8611 H   0  0  0  0  0  0  0  0  0  0  0  0  # atno 10718 bound_to 10713
  153.3079  135.4095  155.1310 H   0  0  0  0  0  0  0  0  0  0  0  0  # atno 10763 bound_to 10752
  154.8568  135.3557  154.5763 H   0  0  0  0  0  0  0  0  0  0  0  0  # atno 10764 bound_to 10752
  153.6191  135.7065  153.5376 H   0  0  0  0  0  0  0  0  0  0  0  0  # atno 10765 bound_to 10752
  140.4193  134.1536  155.7672 H   0  0  0  0  0  0  0  0  0  0  0  0  # atno 11005 bound_to 11000
  146.1536  140.6890  142.9310 LP  0  0  0  0  0  0  0  0  0  0  0  0  # atno 17320 bound_to 7965
  144.7287  140.4605  143.6954 LP  0  0  0  0  0  0  0  0  0  0  0  0  # atno 17321 bound_to 7965
  140.5275  143.2251  151.8291 LP  0  0  0  0  0  0  0  0  0  0  0  0  # atno 17342 bound_to 10162
  139.4835  144.4761  151.9365 LP  0  0  0  0  0  0  0  0  0  0  0  0  # atno 17343 bound_to 10162
  156.6147  130.8601  151.3462 LP  0  0  0  0  0  0  0  0  0  0  0  0  # atno 17370 bound_to 10713
  157.7228  130.9581  150.1507 LP  0  0  0  0  0  0  0  0  0  0  0  0  # atno 17371 bound_to 10713
  141.1790  133.8453  157.1322 LP  0  0  0  0  0  0  0  0  0  0  0  0  # atno 17394 bound_to 11000
  140.0211  134.9945  157.0594 LP  0  0  0  0  0  0  0  0  0  0  0  0  # atno 17395 bound_to 11000

$$$$
