#       Name:                AV-unprocessed.smi:1645
#       Creating user name   scv26
#       Creation time:       Fri Mar 27 07:31:34 2020


#       File generated by GOLD software.
#

@<TRIPOS>MOLECULE
AV-unprocessed.smi:1645
    59    62     1
SMALL
NO_CHARGES


@<TRIPOS>ATOM
      1 ****        -0.3988   1.8100  -0.0604 O.2            1 S1                 0.0000
      2 ****        -0.9578   0.7077  -0.0425 C.2            1 S1                 0.0000
      3 ****        -0.2371  -0.4244  -0.1277 N.am           1 S1                 0.0000
      4 ****         1.1730  -0.5945  -0.1549 C.ar           1 S1                 0.0000
      5 ****         1.6792  -1.7908  -0.7013 C.ar           1 S1                 0.0000
      6 ****         3.0703  -2.0186  -0.7240 C.ar           1 S1                 0.0000
      7 ****         3.9538  -1.0500  -0.1840 C.ar           1 S1                 0.0000
      8 ****         5.3601  -1.1908  -0.1621 N.3            1 S1                 0.0000
      9 ****         6.0257  -0.8206   1.0914 C.3            1 S1                 0.0000
     10 ****         7.5377  -0.6215   0.8904 C.3            1 S1                 0.0000
     11 ****         8.1732  -1.8453   0.2168 C.3            1 S1                 0.0000
     12 ****         7.4510  -2.1439  -1.1037 C.3            1 S1                 0.0000
     13 ****         5.9400  -2.3271  -0.8811 C.3            1 S1                 0.0000
     14 ****         3.4167   0.0777   0.3417 N.pl3          1 S1                 1.0000
     15 ****         2.0919   0.3377   0.3805 C.ar           1 S1                 0.0000
     16 ****        -2.2917   0.4560   0.0385 N.pl3          1 S1                -1.0000
     17 ****        -3.3322   1.4814   0.1372 C.3            1 S1                 0.0000
     18 ****        -3.4630   2.0324   1.5711 C.3            1 S1                 0.0000
     19 ****        -4.9684   2.2785   1.7858 C.3            1 S1                 0.0000
     20 ****        -5.6208   1.8644   0.5287 N.4            1 S1                 1.0000
     21 ****        -7.0193   1.3893   0.6165 C.3            1 S1                 0.0000
     22 ****        -7.5535   1.1145  -0.8040 C.3            1 S1                 0.0000
     23 ****        -6.6260   0.1680  -1.5946 C.3            1 S1                 0.0000
     24 ****        -5.1684   0.6704  -1.5775 C.3            1 S1                 0.0000
     25 ****        -4.7247   0.8913  -0.1164 C.3            1 S1                 0.0000
     26 ****        -0.7787  -1.2718  -0.2142 H              1 S1                 0.0000
     27 ****         1.0061  -2.5338  -1.1038 H              1 S1                 0.0000
     28 ****         3.4301  -2.9447  -1.1454 H              1 S1                 0.0000
     29 ****         5.6109   0.0953   1.5117 H              1 S1                 0.0000
     30 ****         5.8494  -1.6092   1.8239 H              1 S1                 0.0000
     31 ****         7.7115   0.2636   0.2770 H              1 S1                 0.0000
     32 ****         8.0186  -0.4315   1.8503 H              1 S1                 0.0000
     33 ****         9.2338  -1.6686   0.0356 H              1 S1                 0.0000
     34 ****         8.1067  -2.7094   0.8791 H              1 S1                 0.0000
     35 ****         7.6198  -1.3245  -1.8039 H              1 S1                 0.0000
     36 ****         7.8706  -3.0374  -1.5667 H              1 S1                 0.0000
     37 ****         5.7526  -3.2408  -0.3151 H              1 S1                 0.0000
     38 ****         5.4613  -2.4412  -1.8542 H              1 S1                 0.0000
     39 ****         1.8254   1.2714   0.8524 H              1 S1                 0.0000
     40 ****        -3.1755   2.3132  -0.5519 H              1 S1                 0.0000
     41 ****        -3.1076   1.3124   2.3103 H              1 S1                 0.0000
     42 ****        -2.8779   2.9439   1.6982 H              1 S1                 0.0000
     43 ****        -5.3319   1.6767   2.6205 H              1 S1                 0.0000
     44 ****        -5.1920   3.3237   2.0027 H              1 S1                 0.0000
     45 ****        -7.0658   0.4848   1.2248 H              1 S1                 0.0000
     46 ****        -7.6322   2.1437   1.1105 H              1 S1                 0.0000
     47 ****        -8.5583   0.6943  -0.7501 H              1 S1                 0.0000
     48 ****        -7.6442   2.0587  -1.3426 H              1 S1                 0.0000
     49 ****        -6.6693  -0.8301  -1.1571 H              1 S1                 0.0000
     50 ****        -6.9772   0.0702  -2.6222 H              1 S1                 0.0000
     51 ****        -4.5239  -0.0569  -2.0742 H              1 S1                 0.0000
     52 ****        -5.0982   1.5961  -2.1525 H              1 S1                 0.0000
     53 ****        -4.8097  -0.0538   0.4258 H              1 S1                 0.0000
     54 ****        -5.6164   2.6783  -0.0688 H              1 S1                 0.0000
     55 ****         4.0500   0.7740   0.7345 H              1 S1                 0.0000
     56 ****         0.5967   1.8646  -0.1387 LP             1 S1                 0.0000
     57 ****        -0.9420   2.6472   0.0034 LP             1 S1                 0.0000
     58 ****         5.6158  -0.4436  -0.7756 LP             1 S1                 0.0000
     59 ****        -2.5836  -0.5004   0.0300 LP             1 S1                 0.0000
@<TRIPOS>BOND
    1    1    2 2     
    2    2    3 am    
    3    2   16 1     
    4    3    4 1     
    5    3   26 1     
    6    4   15 ar    
    7    4    5 ar    
    8    5    6 ar    
    9    5   27 1     
   10    6    7 ar    
   11    6   28 1     
   12    7    8 1     
   13    7   14 ar    
   14    8   13 1     
   15    8    9 1     
   16    9   10 1     
   17    9   29 1     
   18    9   30 1     
   19   10   11 1     
   20   10   31 1     
   21   10   32 1     
   22   11   12 1     
   23   11   33 1     
   24   11   34 1     
   25   12   13 1     
   26   12   35 1     
   27   12   36 1     
   28   13   37 1     
   29   13   38 1     
   30   14   15 ar    
   31   14   55 1     
   32   15   39 1     
   33   16   17 1     
   34   17   25 1     
   35   17   18 1     
   36   17   40 1     
   37   18   19 1     
   38   18   41 1     
   39   18   42 1     
   40   19   20 1     
   41   19   43 1     
   42   19   44 1     
   43   20   25 1     
   44   20   21 1     
   45   20   54 1     
   46   21   22 1     
   47   21   45 1     
   48   21   46 1     
   49   22   23 1     
   50   22   47 1     
   51   22   48 1     
   52   23   24 1     
   53   23   49 1     
   54   23   50 1     
   55   24   25 1     
   56   24   51 1     
   57   24   52 1     
   58   25   53 1     
   59    1   56 1     
   60    1   57 1     
   61    8   58 1     
   62   16   59 1     
@<TRIPOS>SUBSTRUCTURE
      1 S1             1
@<TRIPOS>SET
LONE_PAIRS      STATIC     ATOMS    <user>   **** ""
4 56 57 58 59
DONOR_HYDROGENS      STATIC     ATOMS    <user>   **** ""
3 26 55 54
ATOM$BLUE        STATIC     ATOMS    COLORGROUP SYSTEM
4 56 57 58 59
ATOM$RED        STATIC     ATOMS    COLORGROUP SYSTEM
3 26 55 54
