#       Name:                AV-unprocessed.smi:359
#       Creating user name   scv26
#       Creation time:       Thu Mar 26 22:35:37 2020


#       File generated by GOLD software.
#

@<TRIPOS>MOLECULE
AV-unprocessed.smi:359
    38    39     1
SMALL
NO_CHARGES


@<TRIPOS>ATOM
      1 ****        -5.0279  -1.4376  -1.7936 C.3            1 S1                 0.0000
      2 ****        -4.0641  -0.3525  -1.8597 N.pl3          1 S1                 0.0000
      3 ****        -2.6787  -0.4474  -1.8788 C.2            1 S1                 0.0000
      4 ****        -1.8166   0.7222  -1.9473 C.2            1 S1                 0.0000
      5 ****        -0.5313   0.6413  -1.9643 N.2            1 S1                 0.0000
      6 ****         0.0744  -0.5980  -1.9105 N.am           1 S1                 0.0000
      7 ****         1.5412  -0.5462  -1.9056 C.3            1 S1                 0.0000
      8 ****         2.1112  -0.6511  -0.4814 C.3            1 S1                 0.0000
      9 ****         1.7310   0.5036   0.2560 O.3            1 S1                 0.0000
     10 ****         2.1006   0.5852   1.5810 C.ar           1 S1                 0.0000
     11 ****         1.6515   1.7116   2.3010 C.ar           1 S1                 0.0000
     12 ****         1.9776   1.8754   3.6611 C.ar           1 S1                 0.0000
     13 ****         2.7623   0.9089   4.3174 C.ar           1 S1                 0.0000
     14 ****         3.1605   1.1045   5.9849 Cl             1 S1                 0.0000
     15 ****         3.2217  -0.2177   3.6095 C.ar           1 S1                 0.0000
     16 ****         2.8946  -0.3813   2.2490 C.ar           1 S1                 0.0000
     17 ****        -0.5931  -1.7879  -1.8454 C.2            1 S1                 0.0000
     18 ****        -0.0080  -2.8707  -1.7949 O.2            1 S1                 0.0000
     19 ****        -2.0574  -1.6566  -1.8339 C.2            1 S1                 0.0000
     20 ****        -2.9880  -3.1155  -1.7532 Cl             1 S1                 0.0000
     21 ****        -6.0420  -1.0383  -1.8123 H              1 S1                 0.0000
     22 ****        -4.9014  -2.0104  -0.8746 H              1 S1                 0.0000
     23 ****        -4.9082  -2.1087  -2.6445 H              1 S1                 0.0000
     24 ****        -4.4619   0.5744  -1.9214 H              1 S1                 0.0000
     25 ****        -2.3208   1.6875  -1.9847 H              1 S1                 0.0000
     26 ****         1.9450  -1.3501  -2.5236 H              1 S1                 0.0000
     27 ****         1.8903   0.3772  -2.3715 H              1 S1                 0.0000
     28 ****         1.7494  -1.5581   0.0054 H              1 S1                 0.0000
     29 ****         3.1992  -0.7102  -0.5339 H              1 S1                 0.0000
     30 ****         1.0480   2.4578   1.8054 H              1 S1                 0.0000
     31 ****         1.6237   2.7427   4.1987 H              1 S1                 0.0000
     32 ****         3.8267  -0.9600   4.1093 H              1 S1                 0.0000
     33 ****         3.2663  -1.2574   1.7399 H              1 S1                 0.0000
     34 ****         0.0244   1.4710  -2.0161 LP             1 S1                 0.0000
     35 ****         0.7331   0.5602   0.2233 LP             1 S1                 0.0000
     36 ****         2.1252   1.2954  -0.2103 LP             1 S1                 0.0000
     37 ****         0.9915  -2.8997  -1.8007 LP             1 S1                 0.0000
     38 ****        -0.5326  -3.7208  -1.7480 LP             1 S1                 0.0000
@<TRIPOS>BOND
    1    1    2 1     
    2    1   21 1     
    3    1   22 1     
    4    1   23 1     
    5    2    3 1     
    6    2   24 1     
    7    3   19 2     
    8    3    4 1     
    9    4    5 2     
   10    4   25 1     
   11    5    6 1     
   12    6    7 1     
   13    6   17 am    
   14    7    8 1     
   15    7   26 1     
   16    7   27 1     
   17    8    9 1     
   18    8   28 1     
   19    8   29 1     
   20    9   10 1     
   21   10   16 ar    
   22   10   11 ar    
   23   11   12 ar    
   24   11   30 1     
   25   12   13 ar    
   26   12   31 1     
   27   13   14 1     
   28   13   15 ar    
   29   15   16 ar    
   30   15   32 1     
   31   16   33 1     
   32   17   18 2     
   33   17   19 1     
   34   19   20 1     
   35    5   34 1     
   36    9   35 1     
   37    9   36 1     
   38   18   37 1     
   39   18   38 1     
@<TRIPOS>SUBSTRUCTURE
      1 S1             1
@<TRIPOS>SET
LONE_PAIRS      STATIC     ATOMS    <user>   **** ""
5 34 35 36 37 38
DONOR_HYDROGENS      STATIC     ATOMS    <user>   **** ""
1 24
ATOM$BLUE        STATIC     ATOMS    COLORGROUP SYSTEM
5 34 35 36 37 38
ATOM$RED        STATIC     ATOMS    COLORGROUP SYSTEM
1 24
