AV-unprocessed.smi:2636|AV-procd|sdf|10258|dock5
  -GOLD-   2272014263D 1   1.00000     0.00000
 Structure written by MMmdl.
 36 37  0  0  0  0  0  0  0  0  1 V2000
  148.3721  141.8117  154.2804 C   0  0  0  0  0  0  0  0  0  0  0  0
  149.2935  140.6038  154.3055 C   0  0  0  0  0  0  0  0  0  0  0  0
  150.4606  140.5936  154.9986 C   0  0  0  0  0  0  0  0  0  0  0  0
  151.3126  139.5020  155.0450 N   0  0  0  0  0  0  0  0  0  0  0  0
  152.5101  139.4725  155.8751 C   0  0  0  0  0  0  0  0  0  0  0  0
  152.2232  139.0095  157.1626 O   0  0  0  0  0  0  0  0  0  0  0  0
  152.0013  140.0189  158.1401 C   0  0  0  0  0  0  0  0  0  0  0  0
  153.1910  140.1142  159.0753 C   0  0  0  0  0  0  0  0  0  0  0  0
  153.5516  141.1626  159.8420 C   0  0  0  0  0  0  0  0  0  0  0  0
  152.9330  142.4978  159.9105 C   0  0  0  0  0  0  0  0  0  0  0  0
  152.6811  143.2746  158.7566 C   0  0  0  0  0  0  0  0  0  0  0  0
  152.0644  144.5364  158.8629 C   0  0  0  0  0  0  0  0  0  0  0  0
  151.6984  145.0367  160.1261 C   0  0  0  0  0  0  0  0  0  0  0  0
  151.9536  144.2752  161.2820 C   0  0  0  0  0  0  0  0  0  0  0  0
  152.5686  143.0127  161.1729 C   0  0  0  0  0  0  0  0  0  0  0  0
  150.9753  138.3186  154.3563 C   0  0  0  0  0  0  0  0  0  0  0  0
  151.6770  137.3074  154.3719 O   0  0  0  0  0  0  0  0  0  0  0  0
  149.7792  138.3313  153.6407 N   0  0  0  0  0  0  0  0  0  0  0  0
  148.8909  139.4076  153.5591 C   0  0  0  0  0  0  0  0  0  0  0  0
  147.8616  139.2957  152.8953 O   0  0  0  0  0  0  0  0  0  0  0  0
  149.5297  137.4884  153.1443 H   0  0  0  0  0  0  0  0  0  0  0  0
  148.7679  142.6349  154.8761 H   0  0  0  0  0  0  0  0  0  0  0  0
  147.3922  141.5504  154.6817 H   0  0  0  0  0  0  0  0  0  0  0  0
  148.2407  142.1704  153.2590 H   0  0  0  0  0  0  0  0  0  0  0  0
  150.7395  141.4787  155.5526 H   0  0  0  0  0  0  0  0  0  0  0  0
  153.2484  138.8167  155.4097 H   0  0  0  0  0  0  0  0  0  0  0  0
  152.9464  140.4717  155.9247 H   0  0  0  0  0  0  0  0  0  0  0  0
  151.8543  140.9833  157.6529 H   0  0  0  0  0  0  0  0  0  0  0  0
  151.1012  139.7927  158.7044 H   0  0  0  0  0  0  0  0  0  0  0  0
  153.7943  139.2199  159.1298 H   0  0  0  0  0  0  0  0  0  0  0  0
  154.4189  141.0327  160.4729 H   0  0  0  0  0  0  0  0  0  0  0  0
  152.9690  142.9132  157.7805 H   0  0  0  0  0  0  0  0  0  0  0  0
  151.8751  145.1212  157.9750 H   0  0  0  0  0  0  0  0  0  0  0  0
  151.2259  146.0044  160.2087 H   0  0  0  0  0  0  0  0  0  0  0  0
  151.6754  144.6581  162.2528 H   0  0  0  0  0  0  0  0  0  0  0  0
  152.7533  142.4337  162.0662 H   0  0  0  0  0  0  0  0  0  0  0  0
  1  2  1  0  0  0  0
  1 22  1  0  0  0  0
  1 23  1  0  0  0  0
  1 24  1  0  0  0  0
  2 19  1  0  0  0  0
  2  3  2  0  0  0  0
  3  4  1  0  0  0  0
  3 25  1  0  0  0  0
  4  5  1  0  0  0  0
  4 16  1  0  0  0  0
  5  6  1  0  0  0  0
  5 26  1  0  0  0  0
  5 27  1  0  0  0  0
  6  7  1  0  0  0  0
  7  8  1  0  0  0  0
  7 28  1  0  0  0  0
  7 29  1  0  0  0  0
  8  9  2  0  0  0  0
  8 30  1  0  0  0  0
  9 10  1  0  0  0  0
  9 31  1  0  0  0  0
 10 15  1  0  0  0  0
 10 11  2  0  0  0  0
 11 12  1  0  0  0  0
 11 32  1  0  0  0  0
 12 13  2  0  0  0  0
 12 33  1  0  0  0  0
 13 14  1  0  0  0  0
 13 34  1  0  0  0  0
 14 15  2  0  0  0  0
 14 35  1  0  0  0  0
 15 36  1  0  0  0  0
 16 17  2  0  0  0  0
 16 18  1  0  0  0  0
 18 21  1  0  0  0  0
 18 19  1  0  0  0  0
 19 20  2  0  0  0  0
M  END
> <s_m_source_file>
AV-unprocessed.smi

> <i_m_source_file_index>
2636

> <i_lp_mmshare_version>
43012

> <i_f3d_flags>
0

> <s_epik_input>
Tz1jMVtuSF1jKD1PKW4oW2NIXWMxW0NIM10pW0NIMl1PW0NIMl0vW0NIXT1bQ0hdL2MyW2NIXVtjSF1bY0hdW2NIXVtjSF0y

> <s_epik_cmdline>
J2VwaWtfcHl0aG9uJywgJy1waCcsICc3LjAnLCAnLXRuJywgJzgnLCAnLW1hJywgJzIwMCcsICctbWV0YWxfYmluZGluZycsICctaW1hZScsICc8aW5maWxlLm1hZT4nLCAnLW9tYWUnLCAnPG91dGZpbGUubWFlPic=

> <r_lp_tautomer_probability>
0.999537

> <r_epik_Ionization_Penalty>
0.00179702

> <r_epik_Ionization_Penalty_Charging>
0.00179702

> <r_epik_Ionization_Penalty_Neutral>
9.83266e-13

> <r_epik_State_Penalty>
0.00121868

> <r_epik_Charging_Adjusted_Penalty>
0.0030157

> <i_epik_Tot_Q>
0

> <i_epik_Tot_abs_Q>
0

> <r_epik_Metal_State_Penalty>
0.826903

> <b_epik_Metal_Only>
0

> <s_epik_Chemistry_Notes>
This compound contains an acetal/aminal-like group ( X-CH(R)-Y where X, Y are N, S, or O) that may be acid/base labile, releasing an aldehyde.

> <s_lp_Force_Field>
OPLS_2005

> <r_lp_Energy>
2.54145

> <b_lp_Chiralities_Consistent>
1

> <s_lp_Variant>
AV-unprocessed.smi:2636-2

> <Gold.Version>
5.8.1

> <Gold.Id.Protein>
6NUR|6NUR_protein|mol2

> <Gold.PLP.Fitness>
54.1436

> <Gold.PLP.PLP>
-51.1923

> <Gold.PLP.part.hbond>
-2.0000

> <Gold.PLP.part.metal>
0.0000

> <Gold.PLP.part.buried>
-2.7326

> <Gold.PLP.part.nonpolar>
-46.1759

> <Gold.PLP.part.repulsive>
1.0159

> <Gold.PLP.ligand.clash>
0.0000

> <Gold.PLP.ligand.torsion>
1.5621

> <Gold.PLP.Chemscore.Hbond>
2.0000

> <Gold.PLP.Chemscore.CHOScore>
0.0000

> <Gold.PLP.Chemscore.Metal>
0.0000

> <Gold.Chemscore.Hbonds>
donor molecule, donor type, donor heavy atom, donor atom, acceptor molecule, acceptor atom, score
      L1  H    18    21       P1  7948  1.00
      P1  H 10752 10764       L1    17  0.84

> <Gold.PLP.Chemscore.Internal.Correction>
0.0754

> <Gold.Rescore>
     Score         DG    S(hbond)    S(metal)    S(lipo)     H(rot)  DE(clash)    DE(int)     intcor
     18.32     -19.60       1.93        0.00     107.58       1.92       0.13       1.15       ----

> <Gold.Chemscore.Fitness>
18.3186

> <Gold.Chemscore.DG>
-19.5967

> <Gold.Chemscore.ZeroCoef>
-5.4800

> <Gold.Chemscore.Hbond>
1.9310

> <Gold.Chemscore.Metal>
0.0000

> <Gold.Chemscore.Lipo>
107.5772

> <Gold.Chemscore.Internal_Hbond>
0.0000

> <Gold.Chemscore.DEClash>
0.1323

> <Gold.Chemscore.DEInternal>
1.1459

> <Gold.Chemscore.Rot>
1.9216

> <Gold.Chemscore.Internal.Correction>
   9.000000E+99

> <Gold.Chemscore.Hbonds>
donor molecule, donor type, donor heavy atom, donor atom, acceptor molecule, acceptor atom, score
      L1  H    18    21       P1  7948  0.85
      P1  H 10752 10764       L1    17  0.80

> <Gold.Chemscore.Hbond.Weighted>
-6.4495

> <Gold.Chemscore.Metal.Weighted>
-0.0000

> <Gold.Chemscore.Lipo.Weighted>
-12.5865

> <Gold.Chemscore.Internal_Hbond.Weighted>
0.0000

> <Gold.Chemscore.DEClash.Weighted>
0.1323

> <Gold.Chemscore.DEInternal.Weighted>
1.1459

> <Gold.Chemscore.Rot.Weighted>
4.9193

> <Gold.Chemscore.Internal.Correction.Weighted>
   9.000000E+99

> <Gold.Protein.RotatedTorsions>
[ 6907 6896 6895 6894 ] final  -74.54 input  -60.11 | X-H torsion
[ 7974 7965 7964 7962 ] final   82.38 input  175.53 | X-H torsion
[ 8008 7997 7996 7995 ] final -120.68 input   59.86 | X-H torsion
[ 10167 10162 10161 10158 ] final   73.83 input  -65.29 | X-H torsion
[ 10718 10713 10712 10709 ] final -116.95 input   66.30 | X-H torsion
[ 10763 10752 10751 10750 ] final  -67.78 input  -60.55 | X-H torsion
[ 11005 11000 10999 10996 ] final  141.03 input  -57.11 | X-H torsion

> <Gold.Protein.ActiveResidues>
 VAL166  LYS551  ARG553  GLY616  TRP617  ASP618  TYR619  PRO620  LYS621  CYS622 
 ASP623  PHE694  ASN695  SER759  ASP760  ASP761  ALA762  ILE779  LEU786  VAL792 
 PHE793  MET794  SER795  GLU796  ALA797  LYS798  CYS799  TRP800  GLU811  SER814 

> <Gold.Protein.RotatedAtoms>
  150.7090  134.4854  159.5489 H   0  0  0  0  0  0  0  0  0  0  0  0  # atno 6907 bound_to 6896
  152.2483  134.8156  160.0459 H   0  0  0  0  0  0  0  0  0  0  0  0  # atno 6908 bound_to 6896
  151.8913  133.3481  159.3836 H   0  0  0  0  0  0  0  0  0  0  0  0  # atno 6909 bound_to 6896
  145.6259  139.2395  143.2112 H   0  0  0  0  0  0  0  0  0  0  0  0  # atno 7974 bound_to 7965
  155.1357  140.0401  157.2786 H   0  0  0  0  0  0  0  0  0  0  0  0  # atno 8008 bound_to 7997
  154.6510  140.2569  155.7188 H   0  0  0  0  0  0  0  0  0  0  0  0  # atno 8009 bound_to 7997
  156.2577  140.2836  156.0943 H   0  0  0  0  0  0  0  0  0  0  0  0  # atno 8010 bound_to 7997
  140.0203  144.5546  150.7587 H   0  0  0  0  0  0  0  0  0  0  0  0  # atno 10167 bound_to 10162
  156.0999  130.6163  150.9101 H   0  0  0  0  0  0  0  0  0  0  0  0  # atno 10718 bound_to 10713
  154.3795  135.6077  153.5783 H   0  0  0  0  0  0  0  0  0  0  0  0  # atno 10763 bound_to 10752
  152.9788  135.5857  154.4427 H   0  0  0  0  0  0  0  0  0  0  0  0  # atno 10764 bound_to 10752
  154.4194  135.2845  155.1963 H   0  0  0  0  0  0  0  0  0  0  0  0  # atno 10765 bound_to 10752
  140.0371  134.9323  157.0773 H   0  0  0  0  0  0  0  0  0  0  0  0  # atno 11005 bound_to 11000
  146.1395  140.7077  142.9374 LP  0  0  0  0  0  0  0  0  0  0  0  0  # atno 17320 bound_to 7965
  144.7213  140.4381  143.7006 LP  0  0  0  0  0  0  0  0  0  0  0  0  # atno 17321 bound_to 7965
  140.7345  143.2730  151.3829 LP  0  0  0  0  0  0  0  0  0  0  0  0  # atno 17342 bound_to 10162
  139.6144  144.1032  152.2331 LP  0  0  0  0  0  0  0  0  0  0  0  0  # atno 17343 bound_to 10162
  157.6167  131.0932  150.8697 LP  0  0  0  0  0  0  0  0  0  0  0  0  # atno 17370 bound_to 10713
  156.8827  130.5185  149.5290 LP  0  0  0  0  0  0  0  0  0  0  0  0  # atno 17371 bound_to 10713
  140.4129  134.1962  155.7163 LP  0  0  0  0  0  0  0  0  0  0  0  0  # atno 17394 bound_to 11000
  141.1863  133.8305  157.1073 LP  0  0  0  0  0  0  0  0  0  0  0  0  # atno 17395 bound_to 11000

$$$$
