#       Name:                AV-unprocessed.smi:1966
#       Creating user name   scv26
#       Creation time:       Fri Mar 27 10:12:19 2020


#       File generated by GOLD software.
#

@<TRIPOS>MOLECULE
AV-unprocessed.smi:1966
    61    62     1
SMALL
NO_CHARGES


@<TRIPOS>ATOM
      1 ****        -5.5720  -2.6624   3.1772 C.3            1 S1                 0.0000
      2 ****        -4.9440  -1.7236   2.1532 C.2            1 S1                 0.0000
      3 ****        -4.7087  -0.5523   2.4487 O.2            1 S1                 0.0000
      4 ****        -4.6784  -2.2536   0.9490 N.am           1 S1                 0.0000
      5 ****        -4.0647  -1.5452  -0.1768 C.3            1 S1                 0.0000
      6 ****        -2.5358  -1.5215   0.0207 C.2            1 S1                 0.0000
      7 ****        -1.9422  -2.5518   0.3415 O.2            1 S1                 0.0000
      8 ****        -1.9452  -0.3289  -0.1822 N.am           1 S1                 0.0000
      9 ****        -0.5689   0.0164  -0.0981 C.ar           1 S1                 0.0000
     10 ****         0.4978  -0.9113  -0.1429 C.ar           1 S1                 0.0000
     11 ****         1.8205  -0.4338  -0.0698 C.ar           1 S1                 0.0000
     12 ****         2.0502   0.9576   0.0379 C.ar           1 S1                 0.0000
     13 ****         3.3696   1.4529   0.1076 N.3            1 S1                 0.0000
     14 ****         3.5784   2.8856  -0.0800 C.3            1 S1                 0.0000
     15 ****         5.0692   3.1810  -0.3222 C.3            1 S1                 0.0000
     16 ****         5.3490   4.6856  -0.3971 C.3            1 S1                 0.0000
     17 ****         5.8431   2.6388   0.7473 O.3            1 S1                 0.0000
     18 ****         5.6873   1.2315   0.9456 C.3            1 S1                 0.0000
     19 ****         6.3500   0.4094  -0.1742 C.3            1 S1                 0.0000
     20 ****         4.2015   0.8829   1.1635 C.3            1 S1                 0.0000
     21 ****         1.0262   1.8451   0.0645 N.ar           1 S1                 0.0000
     22 ****        -0.2396   1.3830  -0.0027 C.ar           1 S1                 0.0000
     23 ****        -4.4246  -2.2926  -1.4950 C.3            1 S1                 0.0000
     24 ****        -3.7843  -1.6599  -2.7484 C.3            1 S1                 0.0000
     25 ****        -5.9496  -2.3835  -1.7017 C.3            1 S1                 0.0000
     26 ****        -4.9361  -3.5337   3.3365 H              1 S1                 0.0000
     27 ****        -6.5475  -3.0041   2.8304 H              1 S1                 0.0000
     28 ****        -5.7067  -2.1582   4.1349 H              1 S1                 0.0000
     29 ****        -4.9018  -3.2270   0.8017 H              1 S1                 0.0000
     30 ****        -4.4516  -0.5248  -0.2221 H              1 S1                 0.0000
     31 ****        -2.5701   0.4406  -0.3746 H              1 S1                 0.0000
     32 ****         0.3362  -1.9721  -0.2490 H              1 S1                 0.0000
     33 ****         2.6406  -1.1348  -0.1174 H              1 S1                 0.0000
     34 ****         2.9970   3.2428  -0.9311 H              1 S1                 0.0000
     35 ****         3.2254   3.4187   0.8041 H              1 S1                 0.0000
     36 ****         5.3824   2.7333  -1.2655 H              1 S1                 0.0000
     37 ****         4.7877   5.1491  -1.2088 H              1 S1                 0.0000
     38 ****         6.4076   4.8766  -0.5743 H              1 S1                 0.0000
     39 ****         5.0710   5.1858   0.5311 H              1 S1                 0.0000
     40 ****         6.2209   0.9957   1.8667 H              1 S1                 0.0000
     41 ****         6.3459  -0.6523   0.0733 H              1 S1                 0.0000
     42 ****         7.3881   0.7106  -0.3157 H              1 S1                 0.0000
     43 ****         5.8351   0.5198  -1.1283 H              1 S1                 0.0000
     44 ****         3.8672   1.2942   2.1169 H              1 S1                 0.0000
     45 ****         4.0884  -0.1983   1.2350 H              1 S1                 0.0000
     46 ****        -1.0166   2.1334   0.0216 H              1 S1                 0.0000
     47 ****        -4.0503  -3.3157  -1.4244 H              1 S1                 0.0000
     48 ****        -4.0695  -0.6126  -2.8518 H              1 S1                 0.0000
     49 ****        -4.1006  -2.1788  -3.6536 H              1 S1                 0.0000
     50 ****        -2.6957  -1.7094  -2.7247 H              1 S1                 0.0000
     51 ****        -6.4001  -1.3918  -1.7502 H              1 S1                 0.0000
     52 ****        -6.4399  -2.9322  -0.8974 H              1 S1                 0.0000
     53 ****        -6.1902  -2.9019  -2.6303 H              1 S1                 0.0000
     54 ****        -4.9295  -0.2133   3.3632 LP             1 S1                 0.0000
     55 ****        -4.2967   0.0604   1.7743 LP             1 S1                 0.0000
     56 ****        -2.4519  -3.4021   0.4735 LP             1 S1                 0.0000
     57 ****        -0.9506  -2.5382   0.4700 LP             1 S1                 0.0000
     58 ****         3.7192   1.0755  -0.7499 LP             1 S1                 0.0000
     59 ****         5.5759   3.1035   1.5915 LP             1 S1                 0.0000
     60 ****         6.8077   2.8214   0.5572 LP             1 S1                 0.0000
     61 ****         1.2059   2.8264   0.1328 LP             1 S1                 0.0000
@<TRIPOS>BOND
    1    1    2 1     
    2    1   26 1     
    3    1   27 1     
    4    1   28 1     
    5    2    3 2     
    6    2    4 am    
    7    4    5 1     
    8    4   29 1     
    9    5    6 1     
   10    5   23 1     
   11    5   30 1     
   12    6    7 2     
   13    6    8 am    
   14    8    9 1     
   15    8   31 1     
   16    9   22 ar    
   17    9   10 ar    
   18   10   11 ar    
   19   10   32 1     
   20   11   12 ar    
   21   11   33 1     
   22   12   13 1     
   23   12   21 ar    
   24   13   20 1     
   25   13   14 1     
   26   14   15 1     
   27   14   34 1     
   28   14   35 1     
   29   15   16 1     
   30   15   17 1     
   31   15   36 1     
   32   16   37 1     
   33   16   38 1     
   34   16   39 1     
   35   17   18 1     
   36   18   19 1     
   37   18   20 1     
   38   18   40 1     
   39   19   41 1     
   40   19   42 1     
   41   19   43 1     
   42   20   44 1     
   43   20   45 1     
   44   21   22 ar    
   45   22   46 1     
   46   23   24 1     
   47   23   25 1     
   48   23   47 1     
   49   24   48 1     
   50   24   49 1     
   51   24   50 1     
   52   25   51 1     
   53   25   52 1     
   54   25   53 1     
   55    3   54 1     
   56    3   55 1     
   57    7   56 1     
   58    7   57 1     
   59   13   58 1     
   60   17   59 1     
   61   17   60 1     
   62   21   61 1     
@<TRIPOS>SUBSTRUCTURE
      1 S1             1
@<TRIPOS>SET
LONE_PAIRS      STATIC     ATOMS    <user>   **** ""
8 54 55 56 57 58 59 60 61
DONOR_HYDROGENS      STATIC     ATOMS    <user>   **** ""
2 29 31
ATOM$BLUE        STATIC     ATOMS    COLORGROUP SYSTEM
8 54 55 56 57 58 59 60 61
ATOM$RED        STATIC     ATOMS    COLORGROUP SYSTEM
2 29 31
