#       Name:                AV-unprocessed.smi:1351
#       Creating user name   scv26
#       Creation time:       Fri Mar 27 05:11:45 2020


#       File generated by GOLD software.
#

@<TRIPOS>MOLECULE
AV-unprocessed.smi:1351
    39    40     1
SMALL
NO_CHARGES


@<TRIPOS>ATOM
      1 ****        -5.2084  -0.6396   0.0318 C.3            1 S1                 0.0000
      2 ****        -4.4214   0.3586   0.7471 N.pl3          1 S1                 0.0000
      3 ****        -5.0838   1.4369   1.4691 C.3            1 S1                 0.0000
      4 ****        -3.0125   0.3343   0.6618 C.ar           1 S1                 0.0000
      5 ****        -2.1813   1.3032   1.2756 C.ar           1 S1                 0.0000
      6 ****        -0.7806   1.2113   1.1434 C.ar           1 S1                 0.0000
      7 ****        -0.2120   0.1500   0.4090 C.ar           1 S1                 0.0000
      8 ****         1.2035   0.1111   0.2895 N.am           1 S1                 0.0000
      9 ****         1.9940  -0.9151  -0.0777 C.2            1 S1                 0.0000
     10 ****         1.5902  -2.0518  -0.3222 O.2            1 S1                 0.0000
     11 ****         3.4980  -0.6164  -0.1352 C.3            1 S1                 0.0000
     12 ****         4.2637  -1.4215  -1.1864 C.3            1 S1                 0.0000
     13 ****         5.4841  -0.5531  -1.3989 C.3            1 S1                 0.0000
     14 ****         4.9163   0.8593  -1.2683 C.3            1 S1                 0.0000
     15 ****         3.7165   0.7434  -0.5062 O.3            1 S1                 0.0000
     16 ****        -1.0838  -0.7880  -0.1928 C.ar           1 S1                 0.0000
     17 ****        -2.4201  -0.6607  -0.0428 N.pl3          1 S1                 1.0000
     18 ****        -4.9492  -1.6451   0.3648 H              1 S1                 0.0000
     19 ****        -5.0284  -0.5719  -1.0417 H              1 S1                 0.0000
     20 ****        -6.2760  -0.4986   0.2011 H              1 S1                 0.0000
     21 ****        -4.8353   2.4030   1.0284 H              1 S1                 0.0000
     22 ****        -4.7776   1.4410   2.5156 H              1 S1                 0.0000
     23 ****        -6.1679   1.3265   1.4408 H              1 S1                 0.0000
     24 ****        -2.5950   2.1209   1.8464 H              1 S1                 0.0000
     25 ****        -0.1486   1.9537   1.6089 H              1 S1                 0.0000
     26 ****         1.6859   0.9622   0.5409 H              1 S1                 0.0000
     27 ****         3.9367  -0.7794   0.8504 H              1 S1                 0.0000
     28 ****         4.5203  -2.4259  -0.8481 H              1 S1                 0.0000
     29 ****         3.6945  -1.5045  -2.1140 H              1 S1                 0.0000
     30 ****         6.2108  -0.7372  -0.6064 H              1 S1                 0.0000
     31 ****         5.9744  -0.7284  -2.3569 H              1 S1                 0.0000
     32 ****         5.6223   1.5399  -0.7919 H              1 S1                 0.0000
     33 ****         4.6646   1.2655  -2.2486 H              1 S1                 0.0000
     34 ****        -0.7760  -1.6271  -0.7979 H              1 S1                 0.0000
     35 ****        -3.0184  -1.3554  -0.4900 H              1 S1                 0.0000
     36 ****         0.6149  -2.2616  -0.2531 LP             1 S1                 0.0000
     37 ****         2.2374  -2.7656  -0.5899 LP             1 S1                 0.0000
     38 ****         3.7942   1.3026   0.3192 LP             1 S1                 0.0000
     39 ****         2.9444   1.0642  -1.0547 LP             1 S1                 0.0000
@<TRIPOS>BOND
    1    1    2 1     
    2    1   18 1     
    3    1   19 1     
    4    1   20 1     
    5    2    3 1     
    6    2    4 1     
    7    3   21 1     
    8    3   22 1     
    9    3   23 1     
   10    4   17 ar    
   11    4    5 ar    
   12    5    6 ar    
   13    5   24 1     
   14    6    7 ar    
   15    6   25 1     
   16    7    8 1     
   17    7   16 ar    
   18    8    9 am    
   19    8   26 1     
   20    9   10 2     
   21    9   11 1     
   22   11   15 1     
   23   11   12 1     
   24   11   27 1     
   25   12   13 1     
   26   12   28 1     
   27   12   29 1     
   28   13   14 1     
   29   13   30 1     
   30   13   31 1     
   31   14   15 1     
   32   14   32 1     
   33   14   33 1     
   34   16   17 ar    
   35   16   34 1     
   36   17   35 1     
   37   10   36 1     
   38   10   37 1     
   39   15   38 1     
   40   15   39 1     
@<TRIPOS>SUBSTRUCTURE
      1 S1             1
@<TRIPOS>SET
LONE_PAIRS      STATIC     ATOMS    <user>   **** ""
4 36 37 38 39
DONOR_HYDROGENS      STATIC     ATOMS    <user>   **** ""
2 26 35
ATOM$BLUE        STATIC     ATOMS    COLORGROUP SYSTEM
4 36 37 38 39
ATOM$RED        STATIC     ATOMS    COLORGROUP SYSTEM
2 26 35
