AV-unprocessed.smi:2792|AV-procd|sdf|10773|dock5
  -GOLD-   2272015213D 1   1.00000     0.00000
 Structure written by MMmdl.
 44 46  0  0  0  0  0  0  0  0  1 V2000
  146.8496  138.2776  153.8729 C   0  0  0  0  0  0  0  0  0  0  0  0
  146.6436  139.5970  154.6353 C   0  0  0  0  0  0  0  0  0  0  0  0
  147.0518  140.8829  153.8704 C   0  0  2  0  0  0  0  0  0  0  0  0
  146.3686  142.1417  154.4371 C   0  0  0  0  0  0  0  0  0  0  0  0
  146.6254  140.7419  152.5283 O   0  0  0  0  0  0  0  0  0  0  0  0
  148.5885  141.0944  153.8675 C   0  0  0  0  0  0  0  0  0  0  0  0
  149.2109  141.0055  155.1800 N   0  0  0  0  0  0  0  0  0  0  0  0
  148.6763  141.4283  156.3771 C   0  0  0  0  0  0  0  0  0  0  0  0
  149.4310  141.2360  157.4247 N   0  0  0  0  0  0  0  0  0  0  0  0
  150.5777  140.6473  156.9073 C   0  0  0  0  0  0  0  0  0  0  0  0
  151.7881  140.1809  157.4812 C   0  0  0  0  0  0  0  0  0  0  0  0
  152.0087  140.2640  158.8117 N   0  0  0  0  0  0  0  0  0  0  0  0
  153.0826  141.1067  159.3280 C   0  0  0  0  0  0  0  0  0  0  0  0
  152.6255  142.4105  159.9632 C   0  0  0  0  0  0  0  0  0  0  0  0
  152.2363  143.5020  159.1570 C   0  0  0  0  0  0  0  0  0  0  0  0
  151.8102  144.7056  159.7513 C   0  0  0  0  0  0  0  0  0  0  0  0
  151.7734  144.8241  161.1540 C   0  0  0  0  0  0  0  0  0  0  0  0
  152.1639  143.7388  161.9621 C   0  0  0  0  0  0  0  0  0  0  0  0
  152.5908  142.5351  161.3679 C   0  0  0  0  0  0  0  0  0  0  0  0
  152.7231  139.6554  156.6465 N   0  0  0  0  0  0  0  0  0  0  0  0
  152.4834  139.5825  155.3335 C   0  0  0  0  0  0  0  0  0  0  0  0
  151.3982  139.9715  154.6597 N   0  0  0  0  0  0  0  0  0  0  0  0
  150.4602  140.5015  155.4968 C   0  0  0  0  0  0  0  0  0  0  0  0
  146.6136  137.4270  154.5124 H   0  0  0  0  0  0  0  0  0  0  0  0
  147.8821  138.1621  153.5428 H   0  0  0  0  0  0  0  0  0  0  0  0
  146.2036  138.2113  152.9978 H   0  0  0  0  0  0  0  0  0  0  0  0
  145.5944  139.6689  154.9242 H   0  0  0  0  0  0  0  0  0  0  0  0
  147.2061  139.5303  155.5671 H   0  0  0  0  0  0  0  0  0  0  0  0
  146.6052  142.2748  155.4932 H   0  0  0  0  0  0  0  0  0  0  0  0
  145.2834  142.0970  154.3430 H   0  0  0  0  0  0  0  0  0  0  0  0
  146.6956  143.0401  153.9124 H   0  0  0  0  0  0  0  0  0  0  0  0
  147.3866  140.7449  151.9682 H   0  0  0  0  0  0  0  0  0  0  0  0
  149.0716  140.3657  153.2145 H   0  0  0  0  0  0  0  0  0  0  0  0
  148.8258  142.0745  153.4512 H   0  0  0  0  0  0  0  0  0  0  0  0
  147.6972  141.8788  156.4501 H   0  0  0  0  0  0  0  0  0  0  0  0
  151.6160  139.6057  159.4691 H   0  0  0  0  0  0  0  0  0  0  0  0
  153.6794  140.5345  160.0394 H   0  0  0  0  0  0  0  0  0  0  0  0
  153.7479  141.3497  158.4993 H   0  0  0  0  0  0  0  0  0  0  0  0
  152.2607  143.4184  158.0803 H   0  0  0  0  0  0  0  0  0  0  0  0
  151.5105  145.5373  159.1310 H   0  0  0  0  0  0  0  0  0  0  0  0
  151.4452  145.7467  161.6101 H   0  0  0  0  0  0  0  0  0  0  0  0
  152.1351  143.8285  163.0379 H   0  0  0  0  0  0  0  0  0  0  0  0
  152.8859  141.7060  161.9942 H   0  0  0  0  0  0  0  0  0  0  0  0
  153.2740  139.1510  154.7378 H   0  0  0  0  0  0  0  0  0  0  0  0
  1  2  1  0  0  0  0
  1 24  1  0  0  0  0
  1 25  1  0  0  0  0
  1 26  1  0  0  0  0
  2  3  1  0  0  0  0
  2 27  1  0  0  0  0
  2 28  1  0  0  0  0
  3  4  1  0  0  0  0
  3  5  1  0  0  0  0
  3  6  1  0  0  0  0
  4 29  1  0  0  0  0
  4 30  1  0  0  0  0
  4 31  1  0  0  0  0
  5 32  1  0  0  0  0
  6  7  1  0  0  0  0
  6 33  1  0  0  0  0
  6 34  1  0  0  0  0
  7 23  1  0  0  0  0
  7  8  1  0  0  0  0
  8  9  2  0  0  0  0
  8 35  1  0  0  0  0
  9 10  1  0  0  0  0
 10 23  2  0  0  0  0
 10 11  1  0  0  0  0
 11 12  1  0  0  0  0
 11 20  2  0  0  0  0
 12 13  1  0  0  0  0
 12 36  1  0  0  0  0
 13 14  1  0  0  0  0
 13 37  1  0  0  0  0
 13 38  1  0  0  0  0
 14 19  1  0  0  0  0
 14 15  2  0  0  0  0
 15 16  1  0  0  0  0
 15 39  1  0  0  0  0
 16 17  2  0  0  0  0
 16 40  1  0  0  0  0
 17 18  1  0  0  0  0
 17 41  1  0  0  0  0
 18 19  2  0  0  0  0
 18 42  1  0  0  0  0
 19 43  1  0  0  0  0
 20 21  1  0  0  0  0
 21 22  2  0  0  0  0
 21 44  1  0  0  0  0
 22 23  1  0  0  0  0
M  END
> <s_m_source_file>
AV-unprocessed.smi

> <i_m_source_file_index>
2792

> <i_lp_mmshare_version>
43012

> <i_f3d_flags>
0

> <s_epik_input>
W0NIM11bQ0gyXVtDQEBdKFtDSDNdKShbT0hdKVtDSDJdbihbY0hdbjEpYyhjMTIpbltjSF1uYzJbTkhdW0NIMl1jM1tjSF1bY0hdW2NIXVtjSF1bY0hdMw==

> <s_epik_cmdline>
J2VwaWtfcHl0aG9uJywgJy1waCcsICc3LjAnLCAnLXRuJywgJzgnLCAnLW1hJywgJzIwMCcsICctbWV0YWxfYmluZGluZycsICctaW1hZScsICc8aW5maWxlLm1hZT4nLCAnLW9tYWUnLCAnPG91dGZpbGUubWFlPic=

> <r_lp_tautomer_probability>
1

> <r_epik_Ionization_Penalty>
0.00163025

> <r_epik_Ionization_Penalty_Charging>
0

> <r_epik_Ionization_Penalty_Neutral>
0.00163025

> <r_epik_State_Penalty>
-0

> <r_epik_Charging_Adjusted_Penalty>
0

> <i_epik_Tot_Q>
0

> <i_epik_Tot_abs_Q>
0

> <r_epik_Metal_State_Penalty>
-0

> <b_epik_Metal_Only>
0

> <s_lp_Force_Field>
OPLS_2005

> <r_lp_Energy>
12.9035

> <b_lp_Chiralities_Consistent>
1

> <s_lp_Variant>
AV-unprocessed.smi:2792-2

> <Gold.Version>
5.8.1

> <Gold.Id.Protein>
6NUR|6NUR_protein|mol2

> <Gold.PLP.Fitness>
57.6741

> <Gold.PLP.PLP>
-52.8243

> <Gold.PLP.part.hbond>
-3.6543

> <Gold.PLP.part.metal>
0.0000

> <Gold.PLP.part.buried>
-1.1294

> <Gold.PLP.part.nonpolar>
-47.1026

> <Gold.PLP.part.repulsive>
0.2820

> <Gold.PLP.ligand.clash>
0.0000

> <Gold.PLP.ligand.torsion>
1.6452

> <Gold.PLP.Chemscore.Hbond>
2.6588

> <Gold.PLP.Chemscore.CHOScore>
0.0000

> <Gold.PLP.Chemscore.Metal>
0.0000

> <Gold.Chemscore.Hbonds>
donor molecule, donor type, donor heavy atom, donor atom, acceptor molecule, acceptor atom, score
      P1  H  7989  7998       L1    22  0.88
      P1  H  7997  8009       L1    20  1.00

> <Gold.PLP.Chemscore.Internal.Correction>
0.1639

> <Gold.Rescore>
     Score         DG    S(hbond)    S(metal)    S(lipo)     H(rot)  DE(clash)    DE(int)     intcor
     14.26     -17.75       1.53        0.00     116.54       2.52       2.09       1.39       ----

> <Gold.Chemscore.Fitness>
14.2637

> <Gold.Chemscore.DG>
-17.7504

> <Gold.Chemscore.ZeroCoef>
-5.4800

> <Gold.Chemscore.Hbond>
1.5266

> <Gold.Chemscore.Metal>
0.0000

> <Gold.Chemscore.Lipo>
116.5430

> <Gold.Chemscore.Internal_Hbond>
0.0000

> <Gold.Chemscore.DEClash>
2.0929

> <Gold.Chemscore.DEInternal>
1.3938

> <Gold.Chemscore.Rot>
2.5250

> <Gold.Chemscore.Internal.Correction>
   9.000000E+99

> <Gold.Chemscore.Hbonds>
donor molecule, donor type, donor heavy atom, donor atom, acceptor molecule, acceptor atom, score
      L1  H     5    32       P1  7957  0.06
      P1  H  7989  7998       L1    22  0.61
      P1  H  7997  8009       L1    20  0.25

> <Gold.Chemscore.Hbond.Weighted>
-5.0988

> <Gold.Chemscore.Metal.Weighted>
-0.0000

> <Gold.Chemscore.Lipo.Weighted>
-13.6355

> <Gold.Chemscore.Internal_Hbond.Weighted>
0.0000

> <Gold.Chemscore.DEClash.Weighted>
2.0929

> <Gold.Chemscore.DEInternal.Weighted>
1.3938

> <Gold.Chemscore.Rot.Weighted>
6.4639

> <Gold.Chemscore.Internal.Correction.Weighted>
   9.000000E+99

> <Gold.Protein.RotatedTorsions>
[ 6907 6896 6895 6894 ] final  -11.68 input  -60.11 | X-H torsion
[ 7974 7965 7964 7962 ] final  164.96 input  175.53 | X-H torsion
[ 8008 7997 7996 7995 ] final  179.59 input   59.86 | X-H torsion
[ 10167 10162 10161 10158 ] final   36.01 input  -65.29 | X-H torsion
[ 10718 10713 10712 10709 ] final    4.27 input   66.30 | X-H torsion
[ 10763 10752 10751 10750 ] final -152.34 input  -60.55 | X-H torsion
[ 11005 11000 10999 10996 ] final   38.38 input  -57.11 | X-H torsion

> <Gold.Protein.ActiveResidues>
 VAL166  LYS551  ARG553  GLY616  TRP617  ASP618  TYR619  PRO620  LYS621  CYS622 
 ASP623  PHE694  ASN695  SER759  ASP760  ASP761  ALA762  ILE779  LEU786  VAL792 
 PHE793  MET794  SER795  GLU796  ALA797  LYS798  CYS799  TRP800  GLU811  SER814 

> <Gold.Protein.RotatedAtoms>
  151.3824  135.0942  159.9499 H   0  0  0  0  0  0  0  0  0  0  0  0  # atno 6907 bound_to 6896
  152.5104  133.9059  159.7474 H   0  0  0  0  0  0  0  0  0  0  0  0  # atno 6908 bound_to 6896
  150.9495  133.6510  159.2803 H   0  0  0  0  0  0  0  0  0  0  0  0  # atno 6909 bound_to 6896
  144.7522  139.8402  143.6362 H   0  0  0  0  0  0  0  0  0  0  0  0  # atno 7974 bound_to 7965
  156.0417  140.1305  157.0148 H   0  0  0  0  0  0  0  0  0  0  0  0  # atno 8008 bound_to 7997
  154.4394  140.1029  156.6317 H   0  0  0  0  0  0  0  0  0  0  0  0  # atno 8009 bound_to 7997
  155.5657  140.3465  155.4504 H   0  0  0  0  0  0  0  0  0  0  0  0  # atno 8010 bound_to 7997
  140.4168  144.1516  150.6144 H   0  0  0  0  0  0  0  0  0  0  0  0  # atno 10167 bound_to 10162
  156.8901  130.5684  149.5650 H   0  0  0  0  0  0  0  0  0  0  0  0  # atno 10718 bound_to 10713
  154.8000  135.3238  154.7572 H   0  0  0  0  0  0  0  0  0  0  0  0  # atno 10763 bound_to 10752
  153.8242  135.6885  153.4827 H   0  0  0  0  0  0  0  0  0  0  0  0  # atno 10764 bound_to 10752
  153.1712  135.4622  154.9848 H   0  0  0  0  0  0  0  0  0  0  0  0  # atno 10765 bound_to 10752
  140.2132  134.3730  155.8039 H   0  0  0  0  0  0  0  0  0  0  0  0  # atno 11005 bound_to 11000
  146.1488  139.4565  143.0062 LP  0  0  0  0  0  0  0  0  0  0  0  0  # atno 17320 bound_to 7965
  145.6902  141.0166  143.1559 LP  0  0  0  0  0  0  0  0  0  0  0  0  # atno 17321 bound_to 7965
  140.4578  143.2461  151.9261 LP  0  0  0  0  0  0  0  0  0  0  0  0  # atno 17342 bound_to 10162
  139.4782  144.5498  151.8403 LP  0  0  0  0  0  0  0  0  0  0  0  0  # atno 17343 bound_to 10162
  156.0633  130.5681  150.9238 LP  0  0  0  0  0  0  0  0  0  0  0  0  # atno 17370 bound_to 10713
  157.6089  131.0937  150.8830 LP  0  0  0  0  0  0  0  0  0  0  0  0  # atno 17371 bound_to 10713
  141.2225  133.7154  156.8453 LP  0  0  0  0  0  0  0  0  0  0  0  0  # atno 17394 bound_to 11000
  140.1928  134.8953  157.3080 LP  0  0  0  0  0  0  0  0  0  0  0  0  # atno 17395 bound_to 11000

$$$$
