AV-unprocessed.smi:2795|AV-procd|sdf|10780|dock4
  -GOLD-   2272015213D 1   1.00000     0.00000
 Structure written by MMmdl.
 36 37  0  0  0  0  0  0  0  0  1 V2000
  151.5963  136.0032  156.1477 C   0  0  0  0  0  0  0  0  0  0  0  0
  151.5303  137.4087  155.8009 N   0  0  0  0  0  0  0  0  0  0  0  0
  151.4217  137.9292  154.5710 C   0  0  0  0  0  0  0  0  0  0  0  0
  151.3824  139.2542  154.5368 N   0  0  0  0  0  0  0  0  0  0  0  0
  151.4750  139.6221  155.8763 C   0  0  0  0  0  0  0  0  0  0  0  0
  151.5684  138.4969  156.6683 C   0  0  0  0  0  0  0  0  0  0  0  0
  151.6872  138.3492  158.1543 C   0  0  0  0  0  0  0  0  0  0  0  0
  152.8762  139.1052  158.7740 C   0  0  0  0  0  0  0  0  0  0  0  0
  152.6485  140.5456  158.7834 N   0  0  0  0  0  0  0  0  0  0  0  0
  153.4819  141.4548  159.3123 C   0  0  0  0  0  0  0  0  0  0  0  0
  154.5359  141.1562  159.8745 O   0  0  0  0  0  0  0  0  0  0  0  0
  153.0584  142.9222  159.1900 C   0  0  2  0  0  0  0  0  0  0  0  0
  152.5795  143.4958  160.5413 C   0  0  0  0  0  0  0  0  0  0  0  0
  152.0779  144.9330  160.3645 C   0  0  0  0  0  0  0  0  0  0  0  0
  151.0229  144.9759  159.2541 C   0  0  0  0  0  0  0  0  0  0  0  0
  151.5693  144.3286  157.9715 C   0  0  0  0  0  0  0  0  0  0  0  0
  151.9976  142.9965  158.2395 O   0  0  0  0  0  0  0  0  0  0  0  0
  151.4601  135.3873  155.2580 H   0  0  0  0  0  0  0  0  0  0  0  0
  150.8125  135.7631  156.8665 H   0  0  0  0  0  0  0  0  0  0  0  0
  152.5680  135.7795  156.5887 H   0  0  0  0  0  0  0  0  0  0  0  0
  151.3702  137.3231  153.6783 H   0  0  0  0  0  0  0  0  0  0  0  0
  151.4675  140.6630  156.1646 H   0  0  0  0  0  0  0  0  0  0  0  0
  150.7603  138.6924  158.6150 H   0  0  0  0  0  0  0  0  0  0  0  0
  151.7719  137.2897  158.3989 H   0  0  0  0  0  0  0  0  0  0  0  0
  153.0256  138.7830  159.8049 H   0  0  0  0  0  0  0  0  0  0  0  0
  153.7994  138.8780  158.2381 H   0  0  0  0  0  0  0  0  0  0  0  0
  151.7996  140.8771  158.3485 H   0  0  0  0  0  0  0  0  0  0  0  0
  153.9046  143.5076  158.8239 H   0  0  0  0  0  0  0  0  0  0  0  0
  151.7728  142.8839  160.9484 H   0  0  0  0  0  0  0  0  0  0  0  0
  153.3887  143.4728  161.2721 H   0  0  0  0  0  0  0  0  0  0  0  0
  151.6625  145.3089  161.2999 H   0  0  0  0  0  0  0  0  0  0  0  0
  152.9128  145.5855  160.1055 H   0  0  0  0  0  0  0  0  0  0  0  0
  150.1284  144.4425  159.5779 H   0  0  0  0  0  0  0  0  0  0  0  0
  150.7209  146.0053  159.0597 H   0  0  0  0  0  0  0  0  0  0  0  0
  150.7930  144.3007  157.2067 H   0  0  0  0  0  0  0  0  0  0  0  0
  152.3964  144.9117  157.5638 H   0  0  0  0  0  0  0  0  0  0  0  0
  1  2  1  0  0  0  0
  1 18  1  0  0  0  0
  1 19  1  0  0  0  0
  1 20  1  0  0  0  0
  2  6  1  0  0  0  0
  2  3  1  0  0  0  0
  3  4  2  0  0  0  0
  3 21  1  0  0  0  0
  4  5  1  0  0  0  0
  5  6  2  0  0  0  0
  5 22  1  0  0  0  0
  6  7  1  0  0  0  0
  7  8  1  0  0  0  0
  7 23  1  0  0  0  0
  7 24  1  0  0  0  0
  8  9  1  0  0  0  0
  8 25  1  0  0  0  0
  8 26  1  0  0  0  0
  9 10  1  0  0  0  0
  9 27  1  0  0  0  0
 10 11  2  0  0  0  0
 10 12  1  0  0  0  0
 12 17  1  0  0  0  0
 12 13  1  0  0  0  0
 12 28  1  0  0  0  0
 13 14  1  0  0  0  0
 13 29  1  0  0  0  0
 13 30  1  0  0  0  0
 14 15  1  0  0  0  0
 14 31  1  0  0  0  0
 14 32  1  0  0  0  0
 15 16  1  0  0  0  0
 15 33  1  0  0  0  0
 15 34  1  0  0  0  0
 16 17  1  0  0  0  0
 16 35  1  0  0  0  0
 16 36  1  0  0  0  0
M  END
> <s_m_source_file>
AV-unprocessed.smi

> <i_m_source_file_index>
2795

> <i_lp_mmshare_version>
43012

> <i_f3d_flags>
0

> <s_epik_input>
W0NIM11uMVtjSF1uW2NIXWMxW0NIMl1bQ0gyXVtOSF1DKD1PKVtDQEBIXTJbQ0gyXVtDSDJdW0NIMl1bQ0gyXU8y

> <s_epik_cmdline>
J2VwaWtfcHl0aG9uJywgJy1waCcsICc3LjAnLCAnLXRuJywgJzgnLCAnLW1hJywgJzIwMCcsICctbWV0YWxfYmluZGluZycsICctaW1hZScsICc8aW5maWxlLm1hZT4nLCAnLW9tYWUnLCAnPG91dGZpbGUubWFlPic=

> <r_lp_tautomer_probability>
1

> <r_epik_Ionization_Penalty>
0.870864

> <r_epik_Ionization_Penalty_Charging>
0.870864

> <r_epik_Ionization_Penalty_Neutral>
4.06047e-08

> <r_epik_State_Penalty>
0.90819

> <r_epik_Charging_Adjusted_Penalty>
1.77905

> <i_epik_Tot_Q>
0

> <i_epik_Tot_abs_Q>
0

> <r_epik_Metal_State_Penalty>
0.360563

> <b_epik_Metal_Only>
0

> <s_lp_Force_Field>
OPLS_2005

> <r_lp_Energy>
9.35516

> <b_lp_Chiralities_Consistent>
1

> <s_lp_Variant>
AV-unprocessed.smi:2795-3

> <Gold.Version>
5.8.1

> <Gold.Id.Protein>
6NUR|6NUR_protein|mol2

> <Gold.PLP.Fitness>
41.6581

> <Gold.PLP.PLP>
-36.4628

> <Gold.PLP.part.hbond>
-1.0000

> <Gold.PLP.part.metal>
0.0000

> <Gold.PLP.part.buried>
-6.0807

> <Gold.PLP.part.nonpolar>
-30.2114

> <Gold.PLP.part.repulsive>
0.2823

> <Gold.PLP.ligand.clash>
0.0000

> <Gold.PLP.ligand.torsion>
0.3798

> <Gold.PLP.Chemscore.Hbond>
1.0000

> <Gold.PLP.Chemscore.CHOScore>
0.9834

> <Gold.PLP.Chemscore.Metal>
0.0000

> <Gold.Chemscore.Hbonds>
donor molecule, donor type, donor heavy atom, donor atom, acceptor molecule, acceptor atom, score
      P1  H  7989  7998       L1     4  1.00
      L1  C     3    21       P1  7949  0.90

> <Gold.PLP.Chemscore.Internal.Correction>
0.0047

> <Gold.Rescore>
     Score         DG    S(hbond)    S(metal)    S(lipo)     H(rot)  DE(clash)    DE(int)     intcor
     13.64     -13.81       0.97        0.00      81.93       1.76       0.06       0.11       ----

> <Gold.Chemscore.Fitness>
13.6386

> <Gold.Chemscore.DG>
-13.8064

> <Gold.Chemscore.ZeroCoef>
-5.4800

> <Gold.Chemscore.Hbond>
0.9709

> <Gold.Chemscore.Metal>
0.0000

> <Gold.Chemscore.Lipo>
81.9265

> <Gold.Chemscore.Internal_Hbond>
0.0000

> <Gold.Chemscore.DEClash>
0.0576

> <Gold.Chemscore.DEInternal>
0.1102

> <Gold.Chemscore.Rot>
1.7585

> <Gold.Chemscore.Internal.Correction>
   9.000000E+99

> <Gold.Chemscore.Hbonds>
donor molecule, donor type, donor heavy atom, donor atom, acceptor molecule, acceptor atom, score
      P1  H  7989  7998       L1     4  0.60

> <Gold.Chemscore.Hbond.Weighted>
-3.2428

> <Gold.Chemscore.Metal.Weighted>
-0.0000

> <Gold.Chemscore.Lipo.Weighted>
-9.5854

> <Gold.Chemscore.Internal_Hbond.Weighted>
0.0000

> <Gold.Chemscore.DEClash.Weighted>
0.0576

> <Gold.Chemscore.DEInternal.Weighted>
0.1102

> <Gold.Chemscore.Rot.Weighted>
4.5018

> <Gold.Chemscore.Internal.Correction.Weighted>
   9.000000E+99

> <Gold.Protein.RotatedTorsions>
[ 6907 6896 6895 6894 ] final  133.14 input  -60.11 | X-H torsion
[ 7974 7965 7964 7962 ] final   78.31 input  175.53 | X-H torsion
[ 8008 7997 7996 7995 ] final    0.07 input   59.86 | X-H torsion
[ 10167 10162 10161 10158 ] final   19.59 input  -65.29 | X-H torsion
[ 10718 10713 10712 10709 ] final -120.05 input   66.30 | X-H torsion
[ 10763 10752 10751 10750 ] final   13.38 input  -60.55 | X-H torsion
[ 11005 11000 10999 10996 ] final -163.51 input  -57.11 | X-H torsion

> <Gold.Protein.ActiveResidues>
 VAL166  LYS551  ARG553  GLY616  TRP617  ASP618  TYR619  PRO620  LYS621  CYS622 
 ASP623  PHE694  ASN695  SER759  ASP760  ASP761  ALA762  ILE779  LEU786  VAL792 
 PHE793  MET794  SER795  GLU796  ALA797  LYS798  CYS799  TRP800  GLU811  SER814 

> <Gold.Protein.RotatedAtoms>
  152.3250  133.5895  159.5770 H   0  0  0  0  0  0  0  0  0  0  0  0  # atno 6907 bound_to 6896
  150.7392  133.9954  159.3629 H   0  0  0  0  0  0  0  0  0  0  0  0  # atno 6908 bound_to 6896
  151.7834  135.0756  160.0428 H   0  0  0  0  0  0  0  0  0  0  0  0  # atno 6909 bound_to 6896
  145.6788  139.2517  143.1826 H   0  0  0  0  0  0  0  0  0  0  0  0  # atno 7974 bound_to 7965
  154.6638  140.2596  155.7080 H   0  0  0  0  0  0  0  0  0  0  0  0  # atno 8008 bound_to 7997
  156.2630  140.2843  156.1043 H   0  0  0  0  0  0  0  0  0  0  0  0  # atno 8009 bound_to 7997
  155.1268  140.0378  157.2755 H   0  0  0  0  0  0  0  0  0  0  0  0  # atno 8010 bound_to 7997
  140.5568  143.9410  150.6614 H   0  0  0  0  0  0  0  0  0  0  0  0  # atno 10167 bound_to 10162
  156.1228  130.6336  150.9492 H   0  0  0  0  0  0  0  0  0  0  0  0  # atno 10718 bound_to 10713
  153.1726  135.6815  153.8586 H   0  0  0  0  0  0  0  0  0  0  0  0  # atno 10763 bound_to 10752
  153.7945  135.3164  155.3384 H   0  0  0  0  0  0  0  0  0  0  0  0  # atno 10764 bound_to 10752
  154.8008  135.4779  154.0364 H   0  0  0  0  0  0  0  0  0  0  0  0  # atno 10765 bound_to 10752
  140.5973  134.4984  157.5201 H   0  0  0  0  0  0  0  0  0  0  0  0  # atno 11005 bound_to 11000
  146.0982  140.7575  142.9562 LP  0  0  0  0  0  0  0  0  0  0  0  0  # atno 17320 bound_to 7965
  144.7033  140.3745  143.7138 LP  0  0  0  0  0  0  0  0  0  0  0  0  # atno 17321 bound_to 7965
  140.2850  143.3363  152.1115 LP  0  0  0  0  0  0  0  0  0  0  0  0  # atno 17342 bound_to 10162
  139.5051  144.6789  151.6058 LP  0  0  0  0  0  0  0  0  0  0  0  0  # atno 17343 bound_to 10162
  157.6411  131.0910  150.8250 LP  0  0  0  0  0  0  0  0  0  0  0  0  # atno 17370 bound_to 10713
  156.8344  130.5027  149.5328 LP  0  0  0  0  0  0  0  0  0  0  0  0  # atno 17371 bound_to 10713
  139.9248  134.8078  156.1102 LP  0  0  0  0  0  0  0  0  0  0  0  0  # atno 17394 bound_to 11000
  141.0896  133.6720  156.2510 LP  0  0  0  0  0  0  0  0  0  0  0  0  # atno 17395 bound_to 11000

$$$$
