AV-unprocessed.smi:1988|AV-procd|sdf|8058|dock4
  -GOLD-   2272010263D 1   1.00000     0.00000
 Structure written by MMmdl.
 37 38  0  0  0  0  0  0  0  0  1 V2000
  148.0048  132.8302  161.9050 C   0  0  0  0  0  0  0  0  0  0  0  0
  147.0191  133.9631  161.8884 C   0  0  0  0  0  0  0  0  0  0  0  0
  146.1814  134.1085  162.9011 N   0  0  0  0  0  0  0  0  0  0  0  0
  145.3931  135.2205  162.5907 O   0  0  0  0  0  0  0  0  0  0  0  0
  145.7903  135.7052  161.3868 C   0  0  0  0  0  0  0  0  0  0  0  0
  145.0558  136.8934  160.8648 C   0  0  0  0  0  0  0  0  0  0  0  0
  146.8196  134.9567  160.8861 C   0  0  0  0  0  0  0  0  0  0  0  0
  147.5521  135.1276  159.5802 C   0  0  0  0  0  0  0  0  0  0  0  0
  148.2050  136.5078  159.5553 C   0  0  0  0  0  0  0  0  0  0  0  0
  147.5650  137.4971  159.9112 O   0  0  0  0  0  0  0  0  0  0  0  0
  149.4650  136.5612  159.0961 N   0  0  0  0  0  0  0  0  0  0  0  0
  150.2259  137.7814  158.8500 C   0  0  0  0  0  0  0  0  0  0  0  0
  150.2661  138.1214  157.3477 C   0  0  2  0  0  0  0  0  0  0  0  0
  150.9255  137.0085  156.5104 C   0  0  0  0  0  0  0  0  0  0  0  0
  151.1518  137.5337  155.0889 C   0  0  0  0  0  0  0  0  0  0  0  0
  151.5197  139.3182  155.2744 S   0  0  0  0  0  0  0  0  0  0  0  0
  152.9729  139.5311  155.1968 O   0  0  0  0  0  0  0  0  0  0  0  0
  150.5948  140.0873  154.4283 O   0  0  0  0  0  0  0  0  0  0  0  0
  150.9932  139.4392  157.0252 C   0  0  0  0  0  0  0  0  0  0  0  0
  148.9212  133.0957  161.3785 H   0  0  0  0  0  0  0  0  0  0  0  0
  147.5879  131.9466  161.4212 H   0  0  0  0  0  0  0  0  0  0  0  0
  148.2797  132.5537  162.9232 H   0  0  0  0  0  0  0  0  0  0  0  0
  144.5063  136.6371  159.9590 H   0  0  0  0  0  0  0  0  0  0  0  0
  145.7484  137.6994  160.6229 H   0  0  0  0  0  0  0  0  0  0  0  0
  144.3422  137.2698  161.5982 H   0  0  0  0  0  0  0  0  0  0  0  0
  148.3257  134.3692  159.4543 H   0  0  0  0  0  0  0  0  0  0  0  0
  146.8827  135.0209  158.7256 H   0  0  0  0  0  0  0  0  0  0  0  0
  149.9070  135.6916  158.8351 H   0  0  0  0  0  0  0  0  0  0  0  0
  149.8235  138.6195  159.4216 H   0  0  0  0  0  0  0  0  0  0  0  0
  151.2401  137.6224  159.2170 H   0  0  0  0  0  0  0  0  0  0  0  0
  149.2392  138.2232  156.9926 H   0  0  0  0  0  0  0  0  0  0  0  0
  151.8913  136.7541  156.9493 H   0  0  0  0  0  0  0  0  0  0  0  0
  150.3279  136.0963  156.5062 H   0  0  0  0  0  0  0  0  0  0  0  0
  151.9682  137.0305  154.5707 H   0  0  0  0  0  0  0  0  0  0  0  0
  150.2451  137.4368  154.4914 H   0  0  0  0  0  0  0  0  0  0  0  0
  150.3671  140.3203  157.1675 H   0  0  0  0  0  0  0  0  0  0  0  0
  151.8906  139.5514  157.6344 H   0  0  0  0  0  0  0  0  0  0  0  0
  1  2  1  0  0  0  0
  1 20  1  0  0  0  0
  1 21  1  0  0  0  0
  1 22  1  0  0  0  0
  2  7  1  0  0  0  0
  2  3  2  0  0  0  0
  3  4  1  0  0  0  0
  4  5  1  0  0  0  0
  5  6  1  0  0  0  0
  5  7  2  0  0  0  0
  6 23  1  0  0  0  0
  6 24  1  0  0  0  0
  6 25  1  0  0  0  0
  7  8  1  0  0  0  0
  8  9  1  0  0  0  0
  8 26  1  0  0  0  0
  8 27  1  0  0  0  0
  9 10  2  0  0  0  0
  9 11  1  0  0  0  0
 11 12  1  0  0  0  0
 11 28  1  0  0  0  0
 12 13  1  0  0  0  0
 12 29  1  0  0  0  0
 12 30  1  0  0  0  0
 13 19  1  0  0  0  0
 13 14  1  0  0  0  0
 13 31  1  0  0  0  0
 14 15  1  0  0  0  0
 14 32  1  0  0  0  0
 14 33  1  0  0  0  0
 15 16  1  0  0  0  0
 15 34  1  0  0  0  0
 15 35  1  0  0  0  0
 16 17  2  0  0  0  0
 16 18  2  0  0  0  0
 16 19  1  0  0  0  0
 19 36  1  0  0  0  0
 19 37  1  0  0  0  0
M  END
> <s_m_source_file>
AV-unprocessed.smi

> <i_m_source_file_index>
1988

> <i_lp_mmshare_version>
43012

> <i_f3d_flags>
0

> <s_epik_input>
W0NIM11jMW5vYyhbQ0gzXSljMVtDSDJdQyg9TylbTkhdW0NIMl1bQ0BASF0oW0NIMl0yKVtDSDJdW0NIMl1TMig9Tyk9Tw==

> <s_epik_cmdline>
J2VwaWtfcHl0aG9uJywgJy1waCcsICc3LjAnLCAnLXRuJywgJzgnLCAnLW1hJywgJzIwMCcsICctbWV0YWxfYmluZGluZycsICctaW1hZScsICc8aW5maWxlLm1hZT4nLCAnLW9tYWUnLCAnPG91dGZpbGUubWFlPic=

> <r_lp_tautomer_probability>
1

> <r_epik_Ionization_Penalty>
2.7503e-08

> <r_epik_Ionization_Penalty_Charging>
0

> <r_epik_Ionization_Penalty_Neutral>
2.7503e-08

> <r_epik_State_Penalty>
-0

> <r_epik_Charging_Adjusted_Penalty>
0

> <i_epik_Tot_Q>
0

> <i_epik_Tot_abs_Q>
0

> <r_epik_Metal_State_Penalty>
-0

> <b_epik_Metal_Only>
0

> <s_lp_Force_Field>
OPLS_2005

> <r_lp_Energy>
-3.10021

> <b_lp_Chiralities_Consistent>
1

> <s_lp_Variant>
AV-unprocessed.smi:1988-1

> <Gold.Version>
5.8.1

> <Gold.Id.Protein>
6NUR|6NUR_protein|mol2

> <Gold.PLP.Fitness>
35.4004

> <Gold.PLP.PLP>
-27.5309

> <Gold.PLP.part.hbond>
-4.6708

> <Gold.PLP.part.metal>
0.0000

> <Gold.PLP.part.buried>
-6.7125

> <Gold.PLP.part.nonpolar>
-17.2365

> <Gold.PLP.part.repulsive>
0.3046

> <Gold.PLP.ligand.clash>
0.0000

> <Gold.PLP.ligand.torsion>
0.3217

> <Gold.PLP.Chemscore.Hbond>
2.8320

> <Gold.PLP.Chemscore.CHOScore>
0.0000

> <Gold.PLP.Chemscore.Metal>
0.0000

> <Gold.Chemscore.Hbonds>
donor molecule, donor type, donor heavy atom, donor atom, acceptor molecule, acceptor atom, score
      P1  H  6934  6947       L1    10  0.83
      P1  H  7989  7998       L1    18  1.00
      P1  H  7997  8009       L1    17  1.00

> <Gold.PLP.Chemscore.Internal.Correction>
0.0169

> <Gold.Rescore>
     Score         DG    S(hbond)    S(metal)    S(lipo)     H(rot)  DE(clash)    DE(int)     intcor
     13.79     -16.58       2.79        0.00      52.21       1.70       0.03       2.75       ----

> <Gold.Chemscore.Fitness>
13.7913

> <Gold.Chemscore.DG>
-16.5792

> <Gold.Chemscore.ZeroCoef>
-5.4800

> <Gold.Chemscore.Hbond>
2.7939

> <Gold.Chemscore.Metal>
0.0000

> <Gold.Chemscore.Lipo>
52.2115

> <Gold.Chemscore.Internal_Hbond>
0.0000

> <Gold.Chemscore.DEClash>
0.0338

> <Gold.Chemscore.DEInternal>
2.7541

> <Gold.Chemscore.Rot>
1.6958

> <Gold.Chemscore.Internal.Correction>
   9.000000E+99

> <Gold.Chemscore.Hbonds>
donor molecule, donor type, donor heavy atom, donor atom, acceptor molecule, acceptor atom, score
      P1  H  6934  6947       L1    10  0.81
      P1  H  7989  7998       L1    18  0.29
      P1  H  7997  8009       L1    17  1.00

> <Gold.Chemscore.Hbond.Weighted>
-9.3317

> <Gold.Chemscore.Metal.Weighted>
-0.0000

> <Gold.Chemscore.Lipo.Weighted>
-6.1087

> <Gold.Chemscore.Internal_Hbond.Weighted>
0.0000

> <Gold.Chemscore.DEClash.Weighted>
0.0338

> <Gold.Chemscore.DEInternal.Weighted>
2.7541

> <Gold.Chemscore.Rot.Weighted>
4.3413

> <Gold.Chemscore.Internal.Correction.Weighted>
   9.000000E+99

> <Gold.Protein.RotatedTorsions>
[ 6907 6896 6895 6894 ] final   40.50 input  -60.11 | X-H torsion
[ 7974 7965 7964 7962 ] final   95.47 input  175.53 | X-H torsion
[ 8008 7997 7996 7995 ] final -134.50 input   59.86 | X-H torsion
[ 10167 10162 10161 10158 ] final -110.56 input  -65.29 | X-H torsion
[ 10718 10713 10712 10709 ] final   35.86 input   66.30 | X-H torsion
[ 10763 10752 10751 10750 ] final  -33.74 input  -60.55 | X-H torsion
[ 11005 11000 10999 10996 ] final  100.74 input  -57.11 | X-H torsion

> <Gold.Protein.ActiveResidues>
 VAL166  LYS551  ARG553  GLY616  TRP617  ASP618  TYR619  PRO620  LYS621  CYS622 
 ASP623  PHE694  ASN695  SER759  ASP760  ASP761  ALA762  ILE779  LEU786  VAL792 
 PHE793  MET794  SER795  GLU796  ALA797  LYS798  CYS799  TRP800  GLU811  SER814 

> <Gold.Protein.RotatedAtoms>
  152.1832  134.8736  160.0524 H   0  0  0  0  0  0  0  0  0  0  0  0  # atno 6907 bound_to 6896
  151.9652  133.3703  159.4058 H   0  0  0  0  0  0  0  0  0  0  0  0  # atno 6908 bound_to 6896
  150.6921  134.4121  159.5210 H   0  0  0  0  0  0  0  0  0  0  0  0  # atno 6909 bound_to 6896
  145.4517  139.2293  143.3036 H   0  0  0  0  0  0  0  0  0  0  0  0  # atno 7974 bound_to 7965
  155.3632  140.0484  157.3046 H   0  0  0  0  0  0  0  0  0  0  0  0  # atno 8008 bound_to 7997
  154.5167  140.2211  155.9015 H   0  0  0  0  0  0  0  0  0  0  0  0  # atno 8009 bound_to 7997
  156.1645  140.3109  155.8870 H   0  0  0  0  0  0  0  0  0  0  0  0  # atno 8010 bound_to 7997
  140.1431  143.4262  152.1548 H   0  0  0  0  0  0  0  0  0  0  0  0  # atno 10167 bound_to 10162
  157.3278  130.7482  149.6827 H   0  0  0  0  0  0  0  0  0  0  0  0  # atno 10718 bound_to 10713
  153.8353  135.6862  153.4809 H   0  0  0  0  0  0  0  0  0  0  0  0  # atno 10763 bound_to 10752
  153.1486  135.4627  154.9601 H   0  0  0  0  0  0  0  0  0  0  0  0  # atno 10764 bound_to 10752
  154.7869  135.3288  154.7812 H   0  0  0  0  0  0  0  0  0  0  0  0  # atno 10765 bound_to 10752
  139.8771  134.9153  156.4802 H   0  0  0  0  0  0  0  0  0  0  0  0  # atno 11005 bound_to 11000
  146.2500  140.5277  142.8897 LP  0  0  0  0  0  0  0  0  0  0  0  0  # atno 17320 bound_to 7965
  144.8057  140.6295  143.6448 LP  0  0  0  0  0  0  0  0  0  0  0  0  # atno 17321 bound_to 7965
  139.5462  144.7300  151.4576 LP  0  0  0  0  0  0  0  0  0  0  0  0  # atno 17342 bound_to 10162
  140.6748  143.8214  150.7044 LP  0  0  0  0  0  0  0  0  0  0  0  0  # atno 17343 bound_to 10162
  155.9692  130.4204  150.4420 LP  0  0  0  0  0  0  0  0  0  0  0  0  # atno 17370 bound_to 10713
  157.2447  131.0533  151.2415 LP  0  0  0  0  0  0  0  0  0  0  0  0  # atno 17371 bound_to 10713
  140.8733  133.7972  155.9387 LP  0  0  0  0  0  0  0  0  0  0  0  0  # atno 17394 bound_to 11000
  140.8930  134.2472  157.5084 LP  0  0  0  0  0  0  0  0  0  0  0  0  # atno 17395 bound_to 11000

$$$$
