AV-unprocessed.smi:3220|AV-procd|sdf|12297|dock10
  -GOLD-   2272018143D 1   1.00000     0.00000
 Structure written by MMmdl.
 33 34  0  0  0  0  0  0  0  0  1 V2000
  149.5724  140.8457  158.0238 C   0  0  0  0  0  0  0  0  0  0  0  0
  150.1497  142.1521  157.4595 C   0  0  2  0  0  0  0  0  0  0  0  0
  150.7496  141.9491  156.0543 C   0  0  0  0  0  0  0  0  0  0  0  0
  149.7941  141.3812  155.1187 N   0  0  0  0  0  0  0  0  0  0  0  0
  148.4800  141.7441  154.9104 C   0  0  0  0  0  0  0  0  0  0  0  0
  147.9796  140.9215  153.9425 C   0  0  0  0  0  0  0  0  0  0  0  0
  149.0794  140.0814  153.6119 C   0  0  0  0  0  0  0  0  0  0  0  0
  150.1649  140.3613  154.3147 N   0  0  0  0  0  0  0  0  0  0  0  0
  151.1714  142.6737  158.3643 N   0  0  0  0  0  0  0  0  0  0  0  0
  152.3260  142.0656  158.6805 C   0  0  0  0  0  0  0  0  0  0  0  0
  152.6865  141.0037  158.1725 O   0  0  0  0  0  0  0  0  0  0  0  0
  153.2210  142.7700  159.7167 C   0  0  2  0  0  0  0  0  0  0  0  0
  153.4415  141.9498  161.0055 C   0  0  0  0  0  0  0  0  0  0  0  0
  152.8605  142.8159  162.1114 C   0  0  0  0  0  0  0  0  0  0  0  0
  151.9041  143.7304  161.3615 C   0  0  0  0  0  0  0  0  0  0  0  0
  152.6072  143.9843  160.1553 O   0  0  0  0  0  0  0  0  0  0  0  0
  148.7970  140.4457  157.3701 H   0  0  0  0  0  0  0  0  0  0  0  0
  149.1239  141.0049  159.0049 H   0  0  0  0  0  0  0  0  0  0  0  0
  150.3447  140.0831  158.1298 H   0  0  0  0  0  0  0  0  0  0  0  0
  149.3331  142.8720  157.3759 H   0  0  0  0  0  0  0  0  0  0  0  0
  151.1104  142.8969  155.6518 H   0  0  0  0  0  0  0  0  0  0  0  0
  151.6122  141.2830  156.1044 H   0  0  0  0  0  0  0  0  0  0  0  0
  148.0139  142.5439  155.4670 H   0  0  0  0  0  0  0  0  0  0  0  0
  146.9803  140.9196  153.5333 H   0  0  0  0  0  0  0  0  0  0  0  0
  149.1213  139.2819  152.8871 H   0  0  0  0  0  0  0  0  0  0  0  0
  150.9682  143.5507  158.8221 H   0  0  0  0  0  0  0  0  0  0  0  0
  154.1724  143.0104  159.2411 H   0  0  0  0  0  0  0  0  0  0  0  0
  152.9235  140.9900  160.9805 H   0  0  0  0  0  0  0  0  0  0  0  0
  154.4978  141.7428  161.1790 H   0  0  0  0  0  0  0  0  0  0  0  0
  152.3695  142.2379  162.8949 H   0  0  0  0  0  0  0  0  0  0  0  0
  153.6517  143.4089  162.5718 H   0  0  0  0  0  0  0  0  0  0  0  0
  150.9636  143.2212  161.1461 H   0  0  0  0  0  0  0  0  0  0  0  0
  151.6846  144.6508  161.9029 H   0  0  0  0  0  0  0  0  0  0  0  0
  1  2  1  0  0  0  0
  1 17  1  0  0  0  0
  1 18  1  0  0  0  0
  1 19  1  0  0  0  0
  2  3  1  0  0  0  0
  2  9  1  0  0  0  0
  2 20  1  0  0  0  0
  3  4  1  0  0  0  0
  3 21  1  0  0  0  0
  3 22  1  0  0  0  0
  4  8  1  0  0  0  0
  4  5  1  0  0  0  0
  5  6  2  0  0  0  0
  5 23  1  0  0  0  0
  6  7  1  0  0  0  0
  6 24  1  0  0  0  0
  7  8  2  0  0  0  0
  7 25  1  0  0  0  0
  9 10  1  0  0  0  0
  9 26  1  0  0  0  0
 10 11  2  0  0  0  0
 10 12  1  0  0  0  0
 12 16  1  0  0  0  0
 12 13  1  0  0  0  0
 12 27  1  0  0  0  0
 13 14  1  0  0  0  0
 13 28  1  0  0  0  0
 13 29  1  0  0  0  0
 14 15  1  0  0  0  0
 14 30  1  0  0  0  0
 14 31  1  0  0  0  0
 15 16  1  0  0  0  0
 15 32  1  0  0  0  0
 15 33  1  0  0  0  0
M  END
> <s_m_source_file>
AV-unprocessed.smi

> <i_m_source_file_index>
3220

> <i_lp_mmshare_version>
43012

> <i_f3d_flags>
0

> <s_epik_input>
bjFbY0hdW2NIXVtjSF1uMVtDSDJdW0NAQEhdKFtDSDNdKVtOSF1DKD1PKVtDQEBIXTJbQ0gyXVtDSDJdW0NIMl1PMg==

> <s_epik_cmdline>
J2VwaWtfcHl0aG9uJywgJy1waCcsICc3LjAnLCAnLXRuJywgJzgnLCAnLW1hJywgJzIwMCcsICctbWV0YWxfYmluZGluZycsICctaW1hZScsICc8aW5maWxlLm1hZT4nLCAnLW9tYWUnLCAnPG91dGZpbGUubWFlPic=

> <r_lp_tautomer_probability>
1

> <r_epik_Ionization_Penalty>
0.00033363

> <r_epik_Ionization_Penalty_Charging>
0

> <r_epik_Ionization_Penalty_Neutral>
0.00033363

> <r_epik_State_Penalty>
-0

> <r_epik_Charging_Adjusted_Penalty>
0

> <i_epik_Tot_Q>
0

> <i_epik_Tot_abs_Q>
0

> <r_epik_Metal_State_Penalty>
-0

> <b_epik_Metal_Only>
0

> <s_lp_Force_Field>
OPLS_2005

> <r_lp_Energy>
17.2779

> <b_lp_Chiralities_Consistent>
1

> <s_lp_Variant>
AV-unprocessed.smi:3220-1

> <Gold.Version>
5.8.1

> <Gold.Id.Protein>
6NUR|6NUR_protein|mol2

> <Gold.PLP.Fitness>
41.3925

> <Gold.PLP.PLP>
-34.3594

> <Gold.PLP.part.hbond>
-1.2455

> <Gold.PLP.part.metal>
0.0000

> <Gold.PLP.part.buried>
0.5098

> <Gold.PLP.part.nonpolar>
-32.6105

> <Gold.PLP.part.repulsive>
0.1753

> <Gold.PLP.ligand.clash>
0.0000

> <Gold.PLP.ligand.torsion>
0.1919

> <Gold.PLP.Chemscore.Hbond>
1.0000

> <Gold.PLP.Chemscore.CHOScore>
1.4652

> <Gold.PLP.Chemscore.Metal>
0.0000

> <Gold.Chemscore.Hbonds>
donor molecule, donor type, donor heavy atom, donor atom, acceptor molecule, acceptor atom, score
      P1  H  7989  7998       L1     8  0.93
      L1  C     5    23       P1  8028  0.90
      L1  C     7    25       P1  7957  0.46

> <Gold.PLP.Chemscore.Internal.Correction>
0.0212

> <Gold.Rescore>
     Score         DG    S(hbond)    S(metal)    S(lipo)     H(rot)  DE(clash)    DE(int)     intcor
     11.37     -13.95       0.74        0.00      86.63       1.62       1.48       1.10       ----

> <Gold.Chemscore.Fitness>
11.3671

> <Gold.Chemscore.DG>
-13.9482

> <Gold.Chemscore.ZeroCoef>
-5.4800

> <Gold.Chemscore.Hbond>
0.7437

> <Gold.Chemscore.Metal>
0.0000

> <Gold.Chemscore.Lipo>
86.6341

> <Gold.Chemscore.Internal_Hbond>
0.0000

> <Gold.Chemscore.DEClash>
1.4766

> <Gold.Chemscore.DEInternal>
1.1045

> <Gold.Chemscore.Rot>
1.6219

> <Gold.Chemscore.Internal.Correction>
   9.000000E+99

> <Gold.Chemscore.Hbonds>
donor molecule, donor type, donor heavy atom, donor atom, acceptor molecule, acceptor atom, score
      P1  H  7989  7998       L1     8  0.53

> <Gold.Chemscore.Hbond.Weighted>
-2.4840

> <Gold.Chemscore.Metal.Weighted>
-0.0000

> <Gold.Chemscore.Lipo.Weighted>
-10.1362

> <Gold.Chemscore.Internal_Hbond.Weighted>
0.0000

> <Gold.Chemscore.DEClash.Weighted>
1.4766

> <Gold.Chemscore.DEInternal.Weighted>
1.1045

> <Gold.Chemscore.Rot.Weighted>
4.1520

> <Gold.Chemscore.Internal.Correction.Weighted>
   9.000000E+99

> <Gold.Protein.RotatedTorsions>
[ 6907 6896 6895 6894 ] final   -1.95 input  -60.11 | X-H torsion
[ 7974 7965 7964 7962 ] final   61.33 input  175.53 | X-H torsion
[ 8008 7997 7996 7995 ] final -102.84 input   59.86 | X-H torsion
[ 10167 10162 10161 10158 ] final   65.31 input  -65.29 | X-H torsion
[ 10718 10713 10712 10709 ] final  109.92 input   66.30 | X-H torsion
[ 10763 10752 10751 10750 ] final  -99.75 input  -60.55 | X-H torsion
[ 11005 11000 10999 10996 ] final  157.58 input  -57.11 | X-H torsion

> <Gold.Protein.ActiveResidues>
 VAL166  LYS551  ARG553  GLY616  TRP617  ASP618  TYR619  PRO620  LYS621  CYS622 
 ASP623  PHE694  ASN695  SER759  ASP760  ASP761  ALA762  ILE779  LEU786  VAL792 
 PHE793  MET794  SER795  GLU796  ALA797  LYS798  CYS799  TRP800  GLU811  SER814 

> <Gold.Protein.RotatedAtoms>
  151.5378  135.1068  159.9918 H   0  0  0  0  0  0  0  0  0  0  0  0  # atno 6907 bound_to 6896
  152.4549  133.7699  159.6804 H   0  0  0  0  0  0  0  0  0  0  0  0  # atno 6908 bound_to 6896
  150.8490  133.7751  159.3057 H   0  0  0  0  0  0  0  0  0  0  0  0  # atno 6909 bound_to 6896
  145.8860  139.3477  143.0678 H   0  0  0  0  0  0  0  0  0  0  0  0  # atno 7974 bound_to 7965
  154.8624  140.0426  157.1674 H   0  0  0  0  0  0  0  0  0  0  0  0  # atno 8008 bound_to 7997
  154.8825  140.2974  155.5396 H   0  0  0  0  0  0  0  0  0  0  0  0  # atno 8009 bound_to 7997
  156.2998  140.2408  156.3830 H   0  0  0  0  0  0  0  0  0  0  0  0  # atno 8010 bound_to 7997
  140.1126  144.4804  150.6968 H   0  0  0  0  0  0  0  0  0  0  0  0  # atno 10167 bound_to 10162
  157.6519  131.0923  150.6526 H   0  0  0  0  0  0  0  0  0  0  0  0  # atno 10718 bound_to 10713
  154.7523  135.4960  153.9312 H   0  0  0  0  0  0  0  0  0  0  0  0  # atno 10763 bound_to 10752
  153.1157  135.6720  153.9430 H   0  0  0  0  0  0  0  0  0  0  0  0  # atno 10764 bound_to 10752
  153.9176  135.3092  155.3427 H   0  0  0  0  0  0  0  0  0  0  0  0  # atno 10765 bound_to 10752
  140.1783  134.8494  157.2773 H   0  0  0  0  0  0  0  0  0  0  0  0  # atno 11005 bound_to 11000
  145.8966  140.9270  143.0524 LP  0  0  0  0  0  0  0  0  0  0  0  0  # atno 17320 bound_to 7965
  144.6728  140.0977  143.7462 LP  0  0  0  0  0  0  0  0  0  0  0  0  # atno 17321 bound_to 7965
  140.6917  143.2380  151.5113 LP  0  0  0  0  0  0  0  0  0  0  0  0  # atno 17342 bound_to 10162
  139.5611  144.2155  152.1692 LP  0  0  0  0  0  0  0  0  0  0  0  0  # atno 17343 bound_to 10162
  156.6836  130.4574  149.5620 LP  0  0  0  0  0  0  0  0  0  0  0  0  # atno 17370 bound_to 10713
  156.1911  130.6560  151.1063 LP  0  0  0  0  0  0  0  0  0  0  0  0  # atno 17371 bound_to 10713
  140.2297  134.3924  155.7527 LP  0  0  0  0  0  0  0  0  0  0  0  0  # atno 17394 bound_to 11000
  141.2221  133.7208  156.8620 LP  0  0  0  0  0  0  0  0  0  0  0  0  # atno 17395 bound_to 11000

$$$$
