AV-unprocessed.smi:3162|AV-procd|sdf|12069|dock3
  -GOLD-   2272017503D 1   1.00000     0.00000
 Structure written by MMmdl.
 36 36  0  0  0  0  0  0  0  0  1 V2000
  146.6904  142.4151  154.4140 C   0  0  0  0  0  0  0  0  0  0  0  0
  147.5001  141.2414  153.8399 C   0  0  0  0  0  0  0  0  0  0  0  0
  148.6734  140.7779  154.7319 C   0  0  2  0  0  0  0  0  0  0  0  0
  149.5218  141.9391  155.0623 N   0  0  0  0  0  0  0  0  0  0  0  0
  150.0754  141.9635  156.4152 C   0  0  1  0  0  0  0  0  0  0  0  0
  148.9808  141.5719  157.4262 C   0  0  0  0  0  0  0  0  0  0  0  0
  151.2802  141.0006  156.4414 C   0  0  0  0  0  0  0  0  0  0  0  0
  152.0730  141.1211  157.6518 N   0  0  0  0  0  0  0  0  0  0  0  0
  151.9588  142.0503  158.6641 C   0  0  0  0  0  0  0  0  0  0  0  0
  152.9159  141.7629  159.5959 C   0  0  0  0  0  0  0  0  0  0  0  0
  153.2161  142.4723  160.8848 C   0  0  0  0  0  0  0  0  0  0  0  0
  153.5717  140.6207  159.0548 C   0  0  0  0  0  0  0  0  0  0  0  0
  153.0644  140.2374  157.8946 N   0  0  0  0  0  0  0  0  0  0  0  0
  149.4631  139.6245  154.0854 C   0  0  0  0  0  0  0  0  0  0  0  0
  148.7574  138.6451  153.5141 N   0  0  0  0  0  0  0  0  0  0  0  0
  150.6923  139.6104  154.1182 O   0  0  0  0  0  0  0  0  0  0  0  0
  145.9296  142.7415  153.7046 H   0  0  0  0  0  0  0  0  0  0  0  0
  147.3328  143.2699  154.6267 H   0  0  0  0  0  0  0  0  0  0  0  0
  146.1788  142.1405  155.3365 H   0  0  0  0  0  0  0  0  0  0  0  0
  146.8296  140.4054  153.6353 H   0  0  0  0  0  0  0  0  0  0  0  0
  147.8946  141.5480  152.8703 H   0  0  0  0  0  0  0  0  0  0  0  0
  148.2435  140.4124  155.6667 H   0  0  0  0  0  0  0  0  0  0  0  0
  150.2523  142.0832  154.3796 H   0  0  0  0  0  0  0  0  0  0  0  0
  150.4447  142.9617  156.6549 H   0  0  0  0  0  0  0  0  0  0  0  0
  149.3537  141.6156  158.4496 H   0  0  0  0  0  0  0  0  0  0  0  0
  148.6220  140.5576  157.2484 H   0  0  0  0  0  0  0  0  0  0  0  0
  148.1219  142.2402  157.3732 H   0  0  0  0  0  0  0  0  0  0  0  0
  150.9428  139.9665  156.3548 H   0  0  0  0  0  0  0  0  0  0  0  0
  151.9337  141.1866  155.5875 H   0  0  0  0  0  0  0  0  0  0  0  0
  151.2147  142.8328  158.6366 H   0  0  0  0  0  0  0  0  0  0  0  0
  153.5867  141.7861  161.6467 H   0  0  0  0  0  0  0  0  0  0  0  0
  152.3309  142.9584  161.2954 H   0  0  0  0  0  0  0  0  0  0  0  0
  153.9742  143.2441  160.7505 H   0  0  0  0  0  0  0  0  0  0  0  0
  154.3963  140.0603  159.4704 H   0  0  0  0  0  0  0  0  0  0  0  0
  149.2341  137.8707  153.0753 H   0  0  0  0  0  0  0  0  0  0  0  0
  147.7485  138.6849  153.5205 H   0  0  0  0  0  0  0  0  0  0  0  0
  1  2  1  0  0  0  0
  1 17  1  0  0  0  0
  1 18  1  0  0  0  0
  1 19  1  0  0  0  0
  2  3  1  0  0  0  0
  2 20  1  0  0  0  0
  2 21  1  0  0  0  0
  3  4  1  0  0  0  0
  3 14  1  0  0  0  0
  3 22  1  0  0  0  0
  4  5  1  0  0  0  0
  4 23  1  0  0  0  0
  5  6  1  0  0  0  0
  5  7  1  0  0  0  0
  5 24  1  0  0  0  0
  6 25  1  0  0  0  0
  6 26  1  0  0  0  0
  6 27  1  0  0  0  0
  7  8  1  0  0  0  0
  7 28  1  0  0  0  0
  7 29  1  0  0  0  0
  8 13  1  0  0  0  0
  8  9  1  0  0  0  0
  9 10  2  0  0  0  0
  9 30  1  0  0  0  0
 10 11  1  0  0  0  0
 10 12  1  0  0  0  0
 11 31  1  0  0  0  0
 11 32  1  0  0  0  0
 11 33  1  0  0  0  0
 12 13  2  0  0  0  0
 12 34  1  0  0  0  0
 14 15  1  0  0  0  0
 14 16  2  0  0  0  0
 15 35  1  0  0  0  0
 15 36  1  0  0  0  0
M  END
> <s_m_source_file>
AV-unprocessed.smi

> <i_m_source_file_index>
3162

> <i_lp_mmshare_version>
43012

> <i_f3d_flags>
0

> <s_epik_input>
W0NIM11bQ0gyXVtDQEBIXShDKD1PKVtOSDJdKVtOSF1bQ0BIXShbQ0gzXSlbQ0gyXW4xW2NIXWMoW0NIM10pW2NIXW4x

> <s_epik_cmdline>
J2VwaWtfcHl0aG9uJywgJy1waCcsICc3LjAnLCAnLXRuJywgJzgnLCAnLW1hJywgJzIwMCcsICctbWV0YWxfYmluZGluZycsICctaW1hZScsICc8aW5maWxlLm1hZT4nLCAnLW9tYWUnLCAnPG91dGZpbGUubWFlPic=

> <r_lp_tautomer_probability>
1

> <r_epik_Ionization_Penalty>
1.04167

> <r_epik_Ionization_Penalty_Charging>
0

> <r_epik_Ionization_Penalty_Neutral>
1.04167

> <r_epik_State_Penalty>
1.09367

> <r_epik_Charging_Adjusted_Penalty>
1.09367

> <i_epik_Tot_Q>
0

> <i_epik_Tot_abs_Q>
0

> <r_epik_Metal_State_Penalty>
1.09362

> <b_epik_Metal_Only>
0

> <s_lp_Force_Field>
OPLS_2005

> <r_lp_Energy>
3.23366

> <b_lp_Chiralities_Consistent>
1

> <s_lp_Variant>
AV-unprocessed.smi:3162-7

> <Gold.Version>
5.8.1

> <Gold.Id.Protein>
6NUR|6NUR_protein|mol2

> <Gold.PLP.Fitness>
40.9834

> <Gold.PLP.PLP>
-34.1874

> <Gold.PLP.part.hbond>
-5.0000

> <Gold.PLP.part.metal>
0.0000

> <Gold.PLP.part.buried>
-1.3662

> <Gold.PLP.part.nonpolar>
-27.2617

> <Gold.PLP.part.repulsive>
0.2219

> <Gold.PLP.ligand.clash>
0.0000

> <Gold.PLP.ligand.torsion>
1.1198

> <Gold.PLP.Chemscore.Hbond>
2.9675

> <Gold.PLP.Chemscore.CHOScore>
0.0000

> <Gold.PLP.Chemscore.Metal>
0.0000

> <Gold.Chemscore.Hbonds>
donor molecule, donor type, donor heavy atom, donor atom, acceptor molecule, acceptor atom, score
      L1  H    15    35       P1  7948  0.90
      P1  H  7989  7998       L1    16  1.00
      P1  H  7997  8010       L1    13  0.93

> <Gold.PLP.Chemscore.Internal.Correction>
0.1332

> <Gold.Rescore>
     Score         DG    S(hbond)    S(metal)    S(lipo)     H(rot)  DE(clash)    DE(int)     intcor
     13.42     -16.06       2.51        0.00      72.02       2.43       0.26       2.39       ----

> <Gold.Chemscore.Fitness>
13.4197

> <Gold.Chemscore.DG>
-16.0638

> <Gold.Chemscore.ZeroCoef>
-5.4800

> <Gold.Chemscore.Hbond>
2.5105

> <Gold.Chemscore.Metal>
0.0000

> <Gold.Chemscore.Lipo>
72.0230

> <Gold.Chemscore.Internal_Hbond>
0.0000

> <Gold.Chemscore.DEClash>
0.2577

> <Gold.Chemscore.DEInternal>
2.3864

> <Gold.Chemscore.Rot>
2.4328

> <Gold.Chemscore.Internal.Correction>
   9.000000E+99

> <Gold.Chemscore.Hbonds>
donor molecule, donor type, donor heavy atom, donor atom, acceptor molecule, acceptor atom, score
      L1  H    15    35       P1  7948  0.80
      P1  H  7989  7998       L1    16  0.99
      P1  H  7997  8010       L1    13  0.44

> <Gold.Chemscore.Hbond.Weighted>
-8.3850

> <Gold.Chemscore.Metal.Weighted>
-0.0000

> <Gold.Chemscore.Lipo.Weighted>
-8.4267

> <Gold.Chemscore.Internal_Hbond.Weighted>
0.0000

> <Gold.Chemscore.DEClash.Weighted>
0.2577

> <Gold.Chemscore.DEInternal.Weighted>
2.3864

> <Gold.Chemscore.Rot.Weighted>
6.2279

> <Gold.Chemscore.Internal.Correction.Weighted>
   9.000000E+99

> <Gold.Protein.RotatedTorsions>
[ 6907 6896 6895 6894 ] final   96.45 input  -60.11 | X-H torsion
[ 7974 7965 7964 7962 ] final -144.72 input  175.53 | X-H torsion
[ 8008 7997 7996 7995 ] final   48.98 input   59.86 | X-H torsion
[ 10167 10162 10161 10158 ] final  -47.09 input  -65.29 | X-H torsion
[ 10718 10713 10712 10709 ] final   56.50 input   66.30 | X-H torsion
[ 10763 10752 10751 10750 ] final   40.69 input  -60.55 | X-H torsion
[ 11005 11000 10999 10996 ] final  159.50 input  -57.11 | X-H torsion

> <Gold.Protein.ActiveResidues>
 VAL166  LYS551  ARG553  GLY616  TRP617  ASP618  TYR619  PRO620  LYS621  CYS622 
 ASP623  PHE694  ASN695  SER759  ASP760  ASP761  ALA762  ILE779  LEU786  VAL792 
 PHE793  MET794  SER795  GLU796  ALA797  LYS798  CYS799  TRP800  GLU811  SER814 

> <Gold.Protein.RotatedAtoms>
  152.5435  134.0884  159.8265 H   0  0  0  0  0  0  0  0  0  0  0  0  # atno 6907 bound_to 6896
  151.0976  133.5260  159.2619 H   0  0  0  0  0  0  0  0  0  0  0  0  # atno 6908 bound_to 6896
  151.2027  135.0458  159.8933 H   0  0  0  0  0  0  0  0  0  0  0  0  # atno 6909 bound_to 6896
  144.8277  140.5674  143.5536 H   0  0  0  0  0  0  0  0  0  0  0  0  # atno 7974 bound_to 7965
  155.3947  140.3435  155.4253 H   0  0  0  0  0  0  0  0  0  0  0  0  # atno 8008 bound_to 7997
  156.1537  140.1579  156.8760 H   0  0  0  0  0  0  0  0  0  0  0  0  # atno 8009 bound_to 7997
  154.5076  140.0798  156.7906 H   0  0  0  0  0  0  0  0  0  0  0  0  # atno 8010 bound_to 7997
  140.6790  143.2800  151.3877 H   0  0  0  0  0  0  0  0  0  0  0  0  # atno 10167 bound_to 10162
  157.5436  130.8715  149.8858 H   0  0  0  0  0  0  0  0  0  0  0  0  # atno 10718 bound_to 10713
  152.9929  135.6184  154.2667 H   0  0  0  0  0  0  0  0  0  0  0  0  # atno 10763 bound_to 10752
  154.2401  135.2789  155.2859 H   0  0  0  0  0  0  0  0  0  0  0  0  # atno 10764 bound_to 10752
  154.5376  135.5770  153.6870 H   0  0  0  0  0  0  0  0  0  0  0  0  # atno 10765 bound_to 10752
  140.1968  134.8367  157.2974 H   0  0  0  0  0  0  0  0  0  0  0  0  # atno 11005 bound_to 11000
  145.4963  139.1485  143.3682 LP  0  0  0  0  0  0  0  0  0  0  0  0  # atno 17320 bound_to 7965
  146.2582  140.5102  142.8865 LP  0  0  0  0  0  0  0  0  0  0  0  0  # atno 17321 bound_to 7965
  139.6099  144.1119  152.2288 LP  0  0  0  0  0  0  0  0  0  0  0  0  # atno 17342 bound_to 10162
  140.0530  144.5918  150.7321 LP  0  0  0  0  0  0  0  0  0  0  0  0  # atno 17343 bound_to 10162
  156.0517  130.3716  150.1186 LP  0  0  0  0  0  0  0  0  0  0  0  0  # atno 17370 bound_to 10713
  156.9364  130.9730  151.3524 LP  0  0  0  0  0  0  0  0  0  0  0  0  # atno 17371 bound_to 10713
  140.2098  134.4152  155.7618 LP  0  0  0  0  0  0  0  0  0  0  0  0  # atno 17394 bound_to 11000
  141.2227  133.7113  156.8320 LP  0  0  0  0  0  0  0  0  0  0  0  0  # atno 17395 bound_to 11000

$$$$
