AV-unprocessed.smi:2693|AV-procd|sdf|10404|dock9
  -GOLD-   2272014433D 1   1.00000     0.00000
 Structure written by MMmdl.
 45 47  0  0  0  0  0  0  0  0  1 V2000
  143.8749  132.5122  149.1535 C   0  0  0  0  0  0  0  0  0  0  0  0
  144.5182  132.5109  150.4641 N   0  0  0  0  0  0  0  0  0  0  0  0
  144.6554  131.2280  151.1478 C   0  0  0  0  0  0  0  0  0  0  0  0
  144.9958  133.6926  151.0386 C   0  0  0  0  0  0  0  0  0  0  0  0
  145.5856  133.6006  152.2378 N   0  0  0  0  0  0  0  0  0  0  0  0
  146.0484  134.7368  152.8011 C   0  0  0  0  0  0  0  0  0  0  0  0
  145.9174  135.9909  152.1584 C   0  0  0  0  0  0  0  0  0  0  0  0
  146.3943  137.2265  152.6715 N   0  0  0  0  0  0  0  0  0  0  0  0
  147.0172  137.4579  153.8393 C   0  0  0  0  0  0  0  0  0  0  0  0
  147.2513  136.6120  154.7017 O   0  0  0  0  0  0  0  0  0  0  0  0
  147.3363  138.7519  153.9694 N   0  0  0  0  0  0  0  0  0  0  0  0
  147.9944  139.3311  155.1454 C   0  0  1  0  0  0  0  0  0  0  0  0
  149.4438  138.8650  155.2998 C   0  0  1  0  0  0  0  0  0  0  0  0
  150.2649  137.7457  154.7703 C   0  0  0  0  0  0  0  0  0  0  0  0
  151.5532  138.5672  154.4933 C   0  0  0  0  0  0  0  0  0  0  0  0
  151.1817  139.9606  154.6541 O   0  0  0  0  0  0  0  0  0  0  0  0
  149.8026  139.9840  154.3439 C   0  0  2  0  0  0  0  0  0  0  0  0
  148.6118  140.7709  154.9362 C   0  0  0  0  0  0  0  0  0  0  0  0
  147.8884  141.7047  153.9591 C   0  0  0  0  0  0  0  0  0  0  0  0
  148.8833  141.6123  156.1963 C   0  0  0  0  0  0  0  0  0  0  0  0
  145.2917  135.9696  150.8961 C   0  0  0  0  0  0  0  0  0  0  0  0
  144.8317  134.8268  150.3448 N   0  0  0  0  0  0  0  0  0  0  0  0
  144.5924  132.7883  148.3803 H   0  0  0  0  0  0  0  0  0  0  0  0
  143.0515  133.2268  149.1312 H   0  0  0  0  0  0  0  0  0  0  0  0
  143.4677  131.5336  148.8997 H   0  0  0  0  0  0  0  0  0  0  0  0
  145.6977  131.0441  151.4104 H   0  0  0  0  0  0  0  0  0  0  0  0
  144.3211  130.3976  150.5257 H   0  0  0  0  0  0  0  0  0  0  0  0
  144.0632  131.2215  152.0635 H   0  0  0  0  0  0  0  0  0  0  0  0
  146.5368  134.6161  153.7551 H   0  0  0  0  0  0  0  0  0  0  0  0
  146.1995  138.0370  152.1020 H   0  0  0  0  0  0  0  0  0  0  0  0
  147.1036  139.3826  153.2165 H   0  0  0  0  0  0  0  0  0  0  0  0
  147.4205  139.2352  156.0687 H   0  0  0  0  0  0  0  0  0  0  0  0
  149.7588  139.0681  156.3264 H   0  0  0  0  0  0  0  0  0  0  0  0
  150.4216  136.9504  155.4995 H   0  0  0  0  0  0  0  0  0  0  0  0
  149.8458  137.3207  153.8573 H   0  0  0  0  0  0  0  0  0  0  0  0
  152.3522  138.3197  155.1924 H   0  0  0  0  0  0  0  0  0  0  0  0
  151.9191  138.3850  153.4821 H   0  0  0  0  0  0  0  0  0  0  0  0
  149.6469  139.7369  153.2886 H   0  0  0  0  0  0  0  0  0  0  0  0
  148.4434  142.6301  153.8018 H   0  0  0  0  0  0  0  0  0  0  0  0
  146.8970  141.9726  154.3259 H   0  0  0  0  0  0  0  0  0  0  0  0
  147.7569  141.2486  152.9778 H   0  0  0  0  0  0  0  0  0  0  0  0
  149.5539  142.4440  155.9779 H   0  0  0  0  0  0  0  0  0  0  0  0
  149.3398  141.0477  157.0072 H   0  0  0  0  0  0  0  0  0  0  0  0
  147.9604  142.0349  156.5949 H   0  0  0  0  0  0  0  0  0  0  0  0
  145.1545  136.8749  150.3232 H   0  0  0  0  0  0  0  0  0  0  0  0
  1  2  1  0  0  0  0
  1 23  1  0  0  0  0
  1 24  1  0  0  0  0
  1 25  1  0  0  0  0
  2  3  1  0  0  0  0
  2  4  1  0  0  0  0
  3 26  1  0  0  0  0
  3 27  1  0  0  0  0
  3 28  1  0  0  0  0
  4 22  1  0  0  0  0
  4  5  2  0  0  0  0
  5  6  1  0  0  0  0
  6  7  2  0  0  0  0
  6 29  1  0  0  0  0
  7  8  1  0  0  0  0
  7 21  1  0  0  0  0
  8  9  1  0  0  0  0
  8 30  1  0  0  0  0
  9 10  2  0  0  0  0
  9 11  1  0  0  0  0
 11 12  1  0  0  0  0
 11 31  1  0  0  0  0
 12 18  1  0  0  0  0
 12 13  1  0  0  0  0
 12 32  1  0  0  0  0
 13 17  1  0  0  0  0
 13 14  1  0  0  0  0
 13 33  1  0  0  0  0
 14 15  1  0  0  0  0
 14 34  1  0  0  0  0
 14 35  1  0  0  0  0
 15 16  1  0  0  0  0
 15 36  1  0  0  0  0
 15 37  1  0  0  0  0
 16 17  1  0  0  0  0
 17 18  1  0  0  0  0
 17 38  1  0  0  0  0
 18 19  1  0  0  0  0
 18 20  1  0  0  0  0
 19 39  1  0  0  0  0
 19 40  1  0  0  0  0
 19 41  1  0  0  0  0
 20 42  1  0  0  0  0
 20 43  1  0  0  0  0
 20 44  1  0  0  0  0
 21 22  2  0  0  0  0
 21 45  1  0  0  0  0
M  END
> <s_m_source_file>
AV-unprocessed.smi

> <i_m_source_file_index>
2693

> <i_lp_mmshare_version>
43012

> <i_f3d_flags>
0

> <s_epik_input>
W0NIM11OKFtDSDNdKWMxbltjSF1jKFtjSF1uMSlbTkhdQyg9TylbTkhdW0NASF0yQyhbQ0gzXSkoW0NIM10pW0NAQEhdKFtDQEhdMjMpT1tDSDJdW0NIMl0z

> <s_epik_cmdline>
J2VwaWtfcHl0aG9uJywgJy1waCcsICc3LjAnLCAnLXRuJywgJzgnLCAnLW1hJywgJzIwMCcsICctbWV0YWxfYmluZGluZycsICctaW1hZScsICc8aW5maWxlLm1hZT4nLCAnLW9tYWUnLCAnPG91dGZpbGUubWFlPic=

> <r_lp_tautomer_probability>
1

> <r_epik_Ionization_Penalty>
0.00031779

> <r_epik_Ionization_Penalty_Charging>
0

> <r_epik_Ionization_Penalty_Neutral>
0.00031779

> <r_epik_State_Penalty>
-0

> <r_epik_Charging_Adjusted_Penalty>
0

> <i_epik_Tot_Q>
0

> <i_epik_Tot_abs_Q>
0

> <r_epik_Metal_State_Penalty>
-0

> <b_epik_Metal_Only>
0

> <s_lp_Force_Field>
OPLS_2005

> <r_lp_Energy>
57.3202

> <b_lp_Chiralities_Consistent>
1

> <s_lp_Variant>
AV-unprocessed.smi:2693-8

> <Gold.Version>
5.8.1

> <Gold.Id.Protein>
6NUR|6NUR_protein|mol2

> <Gold.PLP.Fitness>
39.9527

> <Gold.PLP.PLP>
-33.9590

> <Gold.PLP.part.hbond>
-2.0000

> <Gold.PLP.part.metal>
0.0000

> <Gold.PLP.part.buried>
-3.0750

> <Gold.PLP.part.nonpolar>
-29.3511

> <Gold.PLP.part.repulsive>
0.6071

> <Gold.PLP.ligand.clash>
0.0000

> <Gold.PLP.ligand.torsion>
0.1342

> <Gold.PLP.Chemscore.Hbond>
1.0000

> <Gold.PLP.Chemscore.CHOScore>
1.0000

> <Gold.PLP.Chemscore.Metal>
0.0000

> <Gold.Chemscore.Hbonds>
donor molecule, donor type, donor heavy atom, donor atom, acceptor molecule, acceptor atom, score
      P1  H  7989  7998       L1    16  0.85
      L1  C    21    45       P1 10171  1.00

> <Gold.PLP.Chemscore.Internal.Correction>
0.2620

> <Gold.Rescore>
     Score         DG    S(hbond)    S(metal)    S(lipo)     H(rot)  DE(clash)    DE(int)     intcor
     13.08     -15.05       0.75        0.00      82.33       1.00       0.62       1.35       ----

> <Gold.Chemscore.Fitness>
13.0753

> <Gold.Chemscore.DG>
-15.0459

> <Gold.Chemscore.ZeroCoef>
-5.4800

> <Gold.Chemscore.Hbond>
0.7466

> <Gold.Chemscore.Metal>
0.0000

> <Gold.Chemscore.Lipo>
82.3272

> <Gold.Chemscore.Internal_Hbond>
0.0000

> <Gold.Chemscore.DEClash>
0.6180

> <Gold.Chemscore.DEInternal>
1.3526

> <Gold.Chemscore.Rot>
1.0000

> <Gold.Chemscore.Internal.Correction>
   9.000000E+99

> <Gold.Chemscore.Hbonds>
donor molecule, donor type, donor heavy atom, donor atom, acceptor molecule, acceptor atom, score
      P1  H  7989  7998       L1    16  0.12

> <Gold.Chemscore.Hbond.Weighted>
-2.4936

> <Gold.Chemscore.Metal.Weighted>
-0.0000

> <Gold.Chemscore.Lipo.Weighted>
-9.6323

> <Gold.Chemscore.Internal_Hbond.Weighted>
0.0000

> <Gold.Chemscore.DEClash.Weighted>
0.6180

> <Gold.Chemscore.DEInternal.Weighted>
1.3526

> <Gold.Chemscore.Rot.Weighted>
2.5600

> <Gold.Chemscore.Internal.Correction.Weighted>
   9.000000E+99

> <Gold.Protein.RotatedTorsions>
[ 6907 6896 6895 6894 ] final -149.52 input  -60.11 | X-H torsion
[ 7974 7965 7964 7962 ] final  154.31 input  175.53 | X-H torsion
[ 8008 7997 7996 7995 ] final  -90.63 input   59.86 | X-H torsion
[ 10167 10162 10161 10158 ] final -106.86 input  -65.29 | X-H torsion
[ 10718 10713 10712 10709 ] final   34.00 input   66.30 | X-H torsion
[ 10763 10752 10751 10750 ] final    6.57 input  -60.55 | X-H torsion
[ 11005 11000 10999 10996 ] final -142.16 input  -57.11 | X-H torsion

> <Gold.Protein.ActiveResidues>
 VAL166  LYS551  ARG553  GLY616  TRP617  ASP618  TYR619  PRO620  LYS621  CYS622 
 ASP623  PHE694  ASN695  SER759  ASP760  ASP761  ALA762  ILE779  LEU786  VAL792 
 PHE793  MET794  SER795  GLU796  ALA797  LYS798  CYS799  TRP800  GLU811  SER814 

> <Gold.Protein.RotatedAtoms>
  151.1853  133.4700  159.2594 H   0  0  0  0  0  0  0  0  0  0  0  0  # atno 6907 bound_to 6896
  151.1218  135.0083  159.8552 H   0  0  0  0  0  0  0  0  0  0  0  0  # atno 6908 bound_to 6896
  152.5456  134.1763  159.8670 H   0  0  0  0  0  0  0  0  0  0  0  0  # atno 6909 bound_to 6896
  144.8097  139.6917  143.6147 H   0  0  0  0  0  0  0  0  0  0  0  0  # atno 7974 bound_to 7965
  154.7010  140.0528  157.0457 H   0  0  0  0  0  0  0  0  0  0  0  0  # atno 8008 bound_to 7997
  155.0685  140.3197  155.4619 H   0  0  0  0  0  0  0  0  0  0  0  0  # atno 8009 bound_to 7997
  156.2760  140.2086  156.5813 H   0  0  0  0  0  0  0  0  0  0  0  0  # atno 8010 bound_to 7997
  140.1832  143.3950  152.1265 H   0  0  0  0  0  0  0  0  0  0  0  0  # atno 10167 bound_to 10162
  157.3049  130.7369  149.6689 H   0  0  0  0  0  0  0  0  0  0  0  0  # atno 10718 bound_to 10713
  153.2462  135.6909  153.7728 H   0  0  0  0  0  0  0  0  0  0  0  0  # atno 10763 bound_to 10752
  153.6840  135.3324  155.3186 H   0  0  0  0  0  0  0  0  0  0  0  0  # atno 10764 bound_to 10752
  154.8376  135.4529  154.1402 H   0  0  0  0  0  0  0  0  0  0  0  0  # atno 10765 bound_to 10752
  140.8252  134.2583  157.4882 H   0  0  0  0  0  0  0  0  0  0  0  0  # atno 11005 bound_to 11000
  146.2394  139.5970  142.9502 LP  0  0  0  0  0  0  0  0  0  0  0  0  # atno 17320 bound_to 7965
  145.5354  141.0424  143.2360 LP  0  0  0  0  0  0  0  0  0  0  0  0  # atno 17321 bound_to 7965
  139.5287  144.7133  151.5135 LP  0  0  0  0  0  0  0  0  0  0  0  0  # atno 17342 bound_to 10162
  140.6505  143.8706  150.6781 LP  0  0  0  0  0  0  0  0  0  0  0  0  # atno 17343 bound_to 10162
  155.9674  130.4269  150.4718 LP  0  0  0  0  0  0  0  0  0  0  0  0  # atno 17370 bound_to 10713
  157.2706  131.0586  151.2262 LP  0  0  0  0  0  0  0  0  0  0  0  0  # atno 17371 bound_to 10713
  139.8707  134.9557  156.4214 LP  0  0  0  0  0  0  0  0  0  0  0  0  # atno 17394 bound_to 11000
  140.9056  133.7748  155.9731 LP  0  0  0  0  0  0  0  0  0  0  0  0  # atno 17395 bound_to 11000

$$$$
