#       Name:                AV-unprocessed.smi:101
#       Creating user name   scv26
#       Creation time:       Thu Mar 26 17:42:27 2020


#       File generated by GOLD software.
#

@<TRIPOS>MOLECULE
AV-unprocessed.smi:101
    56    58     1
SMALL
NO_CHARGES


@<TRIPOS>ATOM
      1 ****        -2.4970   1.6264   2.2555 C.3            1 S1                 0.0000
      2 ****        -2.8629   1.4191   0.7947 C.2            1 S1                 0.0000
      3 ****        -2.0361   0.7901  -0.0795 C.2            1 S1                 0.0000
      4 ****        -2.3405   0.5888  -1.4211 N.am           1 S1                 0.0000
      5 ****        -1.3898  -0.1034  -2.3833 C.3            1 S1                 0.0000
      6 ****        -0.1085  -0.1473  -1.8285 O.3            1 S1                 0.0000
      7 ****         0.1768  -1.4679  -1.3815 C.3            1 S1                 0.0000
      8 ****         1.6857  -1.6759  -1.2004 C.3            1 S1                 0.0000
      9 ****         2.0803  -0.9933  -0.0222 O.3            1 S1                 0.0000
     10 ****         3.3818  -0.8773   0.2974 C.2            1 S1                 0.0000
     11 ****         4.2970  -1.3511  -0.3787 O.2            1 S1                 0.0000
     12 ****         3.5969  -0.1091   1.5580 C.ar           1 S1                 0.0000
     13 ****         4.9159   0.1276   2.0108 C.ar           1 S1                 0.0000
     14 ****         5.1476   0.8513   3.1969 C.ar           1 S1                 0.0000
     15 ****         4.0634   1.3458   3.9452 C.ar           1 S1                 0.0000
     16 ****         2.7466   1.1169   3.5057 C.ar           1 S1                 0.0000
     17 ****         2.5128   0.3947   2.3194 C.ar           1 S1                 0.0000
     18 ****        -0.5083  -2.3376  -2.4369 C.3            1 S1                 0.0000
     19 ****         0.2852  -2.4298  -3.6060 O.3            1 S1                 0.0000
     20 ****        -1.7947  -1.5657  -2.7105 C.3            1 S1                 0.0000
     21 ****        -2.8302  -2.0738  -1.8863 O.3            1 S1                 0.0000
     22 ****        -3.5675   1.0658  -1.9263 C.2            1 S1                 0.0000
     23 ****        -3.9008   0.9249  -3.1024 O.2            1 S1                 0.0000
     24 ****        -4.4177   1.7090  -1.0292 N.am           1 S1                 0.0000
     25 ****        -4.1558   1.9254   0.3256 C.2            1 S1                 0.0000
     26 ****        -4.9888   2.5052   1.0201 O.2            1 S1                 0.0000
     27 ****        -5.2980   2.0486  -1.3886 H              1 S1                 0.0000
     28 ****        -1.5071   1.2314   2.4867 H              1 S1                 0.0000
     29 ****        -3.2170   1.1248   2.9029 H              1 S1                 0.0000
     30 ****        -2.4971   2.6888   2.5012 H              1 S1                 0.0000
     31 ****        -1.0922   0.4383   0.3073 H              1 S1                 0.0000
     32 ****        -1.3438   0.5405  -3.2637 H              1 S1                 0.0000
     33 ****        -0.3269  -1.6389  -0.4284 H              1 S1                 0.0000
     34 ****         1.9101  -2.7373  -1.0878 H              1 S1                 0.0000
     35 ****         2.2341  -1.3075  -2.0686 H              1 S1                 0.0000
     36 ****         5.7642  -0.2419   1.4526 H              1 S1                 0.0000
     37 ****         6.1590   1.0269   3.5324 H              1 S1                 0.0000
     38 ****         4.2415   1.8998   4.8552 H              1 S1                 0.0000
     39 ****         1.9133   1.4954   4.0792 H              1 S1                 0.0000
     40 ****         1.4893   0.2377   2.0115 H              1 S1                 0.0000
     41 ****        -0.6923  -3.3501  -2.0743 H              1 S1                 0.0000
     42 ****         0.4740  -1.5556  -3.9116 H              1 S1                 0.0000
     43 ****        -2.1135  -1.6392  -3.7512 H              1 S1                 0.0000
     44 ****        -3.5903  -1.5215  -1.9898 H              1 S1                 0.0000
     45 ****        -0.0600   0.4834  -1.0540 LP             1 S1                 0.0000
     46 ****         0.5623   0.1217  -2.5198 LP             1 S1                 0.0000
     47 ****         4.0900  -1.8551  -1.2172 LP             1 S1                 0.0000
     48 ****         5.2466  -1.2314  -0.0888 LP             1 S1                 0.0000
     49 ****        -0.2124  -2.9335  -4.3122 LP             1 S1                 0.0000
     50 ****         1.1396  -2.9055  -3.3968 LP             1 S1                 0.0000
     51 ****        -2.5354  -2.0677  -0.9308 LP             1 S1                 0.0000
     52 ****        -3.0523  -3.0094  -2.1607 LP             1 S1                 0.0000
     53 ****        -3.2915   0.4562  -3.7421 LP             1 S1                 0.0000
     54 ****        -4.7809   1.2791  -3.4186 LP             1 S1                 0.0000
     55 ****        -4.8072   2.6642   1.9905 LP             1 S1                 0.0000
     56 ****        -5.8477   2.8177   0.6144 LP             1 S1                 0.0000
@<TRIPOS>BOND
    1    1    2 1     
    2    1   28 1     
    3    1   29 1     
    4    1   30 1     
    5    2   25 1     
    6    2    3 2     
    7    3    4 1     
    8    3   31 1     
    9    4    5 1     
   10    4   22 1     
   11    5   20 1     
   12    5    6 1     
   13    5   32 1     
   14    6    7 1     
   15    7    8 1     
   16    7   18 1     
   17    7   33 1     
   18    8    9 1     
   19    8   34 1     
   20    8   35 1     
   21    9   10 1     
   22   10   11 2     
   23   10   12 1     
   24   12   17 ar    
   25   12   13 ar    
   26   13   14 ar    
   27   13   36 1     
   28   14   15 ar    
   29   14   37 1     
   30   15   16 ar    
   31   15   38 1     
   32   16   17 ar    
   33   16   39 1     
   34   17   40 1     
   35   18   19 1     
   36   18   20 1     
   37   18   41 1     
   38   19   42 1     
   39   20   21 1     
   40   20   43 1     
   41   21   44 1     
   42   22   23 2     
   43   22   24 1     
   44   24   27 1     
   45   24   25 1     
   46   25   26 2     
   47    6   45 1     
   48    6   46 1     
   49   11   47 1     
   50   11   48 1     
   51   19   49 1     
   52   19   50 1     
   53   21   51 1     
   54   21   52 1     
   55   23   53 1     
   56   23   54 1     
   57   26   55 1     
   58   26   56 1     
@<TRIPOS>SUBSTRUCTURE
      1 S1             1
@<TRIPOS>SET
LONE_PAIRS      STATIC     ATOMS    <user>   **** ""
12 45 46 47 48 49 50 51 52 53 54 55 56
DONOR_HYDROGENS      STATIC     ATOMS    <user>   **** ""
3 42 44 27
ATOM$BLUE        STATIC     ATOMS    COLORGROUP SYSTEM
12 45 46 47 48 49 50 51 52 53 54 55 56
ATOM$RED        STATIC     ATOMS    COLORGROUP SYSTEM
3 42 44 27
