#       Name:                AV-unprocessed.smi:3085
#       Creating user name   scv26
#       Creation time:       Fri Mar 27 17:14:32 2020


#       File generated by GOLD software.
#

@<TRIPOS>MOLECULE
AV-unprocessed.smi:3085
    32    33     1
SMALL
NO_CHARGES


@<TRIPOS>ATOM
      1 ****        -3.9323   1.4895   1.0784 C.3            1 S1                 0.0000
      2 ****        -3.3465   0.0945   1.3215 C.3            1 S1                 0.0000
      3 ****        -1.8531   0.0894   1.3140 C.2            1 S1                 0.0000
      4 ****        -1.0936   0.0491   0.2250 N.2            1 S1                 0.0000
      5 ****         0.1514   0.0943   0.7934 C.2            1 S1                 0.0000
      6 ****         1.4195   0.0270   0.0003 C.3            1 S1                 0.0000
      7 ****         1.8367  -1.4249  -0.3051 C.3            1 S1                 0.0000
      8 ****         3.0203  -1.4419  -1.1638 N.3            1 S1                 0.0000
      9 ****         2.8008  -0.6624  -2.3816 C.3            1 S1                 0.0000
     10 ****         2.3535   0.7681  -2.0298 C.3            1 S1                 0.0000
     11 ****         1.1813   0.7183  -1.2240 O.3            1 S1                 0.0000
     12 ****         0.1804   0.1349   2.1253 N.2            1 S1                 0.0000
     13 ****        -1.1330   0.1464   2.4361 N.pl3          1 S1                 0.0000
     14 ****        -1.4754   0.1852   3.3854 H              1 S1                 0.0000
     15 ****        -5.0220   1.4601   1.0891 H              1 S1                 0.0000
     16 ****        -3.6187   1.8851   0.1118 H              1 S1                 0.0000
     17 ****        -3.6094   2.1907   1.8483 H              1 S1                 0.0000
     18 ****        -3.6993  -0.2956   2.2770 H              1 S1                 0.0000
     19 ****        -3.7014  -0.5946   0.5543 H              1 S1                 0.0000
     20 ****         2.2088   0.5374   0.5562 H              1 S1                 0.0000
     21 ****         2.0386  -1.9616   0.6221 H              1 S1                 0.0000
     22 ****         1.0162  -1.9479  -0.7983 H              1 S1                 0.0000
     23 ****         3.2477  -2.4000  -1.4098 H              1 S1                 0.0000
     24 ****         3.7132  -0.6339  -2.9776 H              1 S1                 0.0000
     25 ****         2.0389  -1.1422  -2.9970 H              1 S1                 0.0000
     26 ****         3.1462   1.3094  -1.5106 H              1 S1                 0.0000
     27 ****         2.1311   1.3261  -2.9394 H              1 S1                 0.0000
     28 ****        -1.3568  -0.0003  -0.7385 LP             1 S1                 0.0000
     29 ****         3.7795  -1.0297  -0.6602 LP             1 S1                 0.0000
     30 ****         0.8880   1.6520  -1.0186 LP             1 S1                 0.0000
     31 ****         0.4592   0.2456  -1.7292 LP             1 S1                 0.0000
     32 ****         0.9715   0.1523   2.7368 LP             1 S1                 0.0000
@<TRIPOS>BOND
    1    1    2 1     
    2    1   15 1     
    3    1   16 1     
    4    1   17 1     
    5    2    3 1     
    6    2   18 1     
    7    2   19 1     
    8    3   13 1     
    9    3    4 2     
   10    4    5 1     
   11    5    6 1     
   12    5   12 2     
   13    6   11 1     
   14    6    7 1     
   15    6   20 1     
   16    7    8 1     
   17    7   21 1     
   18    7   22 1     
   19    8    9 1     
   20    8   23 1     
   21    9   10 1     
   22    9   24 1     
   23    9   25 1     
   24   10   11 1     
   25   10   26 1     
   26   10   27 1     
   27   12   13 1     
   28   13   14 1     
   29    4   28 1     
   30    8   29 1     
   31   11   30 1     
   32   11   31 1     
   33   12   32 1     
@<TRIPOS>SUBSTRUCTURE
      1 S1             1
@<TRIPOS>SET
LONE_PAIRS      STATIC     ATOMS    <user>   **** ""
5 28 29 30 31 32
DONOR_HYDROGENS      STATIC     ATOMS    <user>   **** ""
2 23 14
ATOM$BLUE        STATIC     ATOMS    COLORGROUP SYSTEM
5 28 29 30 31 32
ATOM$RED        STATIC     ATOMS    COLORGROUP SYSTEM
2 23 14
