AV-unprocessed.smi:199|AV-procd|sdf|1568|dock7
  -GOLD-   2262019443D 1   1.00000     0.00000
 Structure written by MMmdl.
 51 55  0  0  0  0  0  0  0  0  1 V2000
  151.2651  137.5543  158.2022 C   0  0  0  0  0  0  0  0  0  0  0  0
  151.6153  137.4147  156.7124 C   0  0  2  0  0  0  0  0  0  0  0  0
  151.8678  138.7199  156.1991 O   0  0  0  0  0  0  0  0  0  0  0  0
  151.5264  138.7418  154.8245 C   0  0  0  0  0  0  0  0  0  0  0  0
  150.2415  137.9284  154.7971 C   0  0  0  0  0  0  0  0  0  0  0  0
  150.5247  136.8016  155.7879 C   0  0  1  0  0  0  0  0  0  0  0  0
  151.1234  135.7342  155.0709 O   0  0  0  0  0  0  0  0  0  0  0  0
  149.2515  136.2556  156.4872 C   0  0  0  0  0  0  0  0  0  0  0  0
  148.2614  135.7305  155.5583 N   0  0  0  0  0  0  0  0  0  0  0  0
  147.0610  136.3112  155.2191 C   0  0  0  0  0  0  0  0  0  0  0  0
  146.3391  135.6372  154.3673 N   0  0  0  0  0  0  0  0  0  0  0  0
  147.1017  134.5101  154.0828 C   0  0  0  0  0  0  0  0  0  0  0  0
  146.9235  133.3664  153.2502 C   0  0  0  0  0  0  0  0  0  0  0  0
  145.8206  133.1474  152.4821 N   0  0  0  0  0  0  0  0  0  0  0  0
  144.7000  134.0765  152.5069 C   0  0  1  0  0  0  0  0  0  0  0  0
  145.2084  135.2924  151.7087 C   0  0  0  0  0  0  0  0  0  0  0  0
  146.0868  134.6084  150.6504 C   0  0  0  0  0  0  0  0  0  0  0  0
  145.9160  133.1182  151.0285 C   0  0  2  0  0  0  0  0  0  0  0  0
  144.5149  132.5933  150.6474 C   0  0  2  0  0  0  0  0  0  0  0  0
  144.1003  132.7533  149.1730 C   0  0  0  0  0  0  0  0  0  0  0  0
  143.6854  134.0810  148.9318 O   0  0  0  0  0  0  0  0  0  0  0  0
  143.6375  133.3423  151.6682 C   0  0  0  0  0  0  0  0  0  0  0  0
  147.9106  132.4309  153.2618 N   0  0  0  0  0  0  0  0  0  0  0  0
  149.0056  132.6068  154.0057 C   0  0  0  0  0  0  0  0  0  0  0  0
  149.3102  133.6237  154.8122 N   0  0  0  0  0  0  0  0  0  0  0  0
  148.3164  134.5570  154.8267 C   0  0  0  0  0  0  0  0  0  0  0  0
  151.0660  136.5842  158.6576 H   0  0  0  0  0  0  0  0  0  0  0  0
  150.3916  138.1895  158.3511 H   0  0  0  0  0  0  0  0  0  0  0  0
  152.0930  138.0064  158.7491 H   0  0  0  0  0  0  0  0  0  0  0  0
  152.5446  136.8472  156.6318 H   0  0  0  0  0  0  0  0  0  0  0  0
  151.3911  139.7596  154.4584 H   0  0  0  0  0  0  0  0  0  0  0  0
  152.3112  138.2612  154.2384 H   0  0  0  0  0  0  0  0  0  0  0  0
  149.4291  138.5561  155.1647 H   0  0  0  0  0  0  0  0  0  0  0  0
  149.9690  137.5838  153.7985 H   0  0  0  0  0  0  0  0  0  0  0  0
  150.5176  135.0093  155.0514 H   0  0  0  0  0  0  0  0  0  0  0  0
  149.5123  135.4614  157.1880 H   0  0  0  0  0  0  0  0  0  0  0  0
  148.7720  137.0394  157.0741 H   0  0  0  0  0  0  0  0  0  0  0  0
  146.7312  137.2527  155.6336 H   0  0  0  0  0  0  0  0  0  0  0  0
  144.3228  134.3403  153.4931 H   0  0  0  0  0  0  0  0  0  0  0  0
  144.3993  135.8803  151.2739 H   0  0  0  0  0  0  0  0  0  0  0  0
  145.8069  135.9523  152.3381 H   0  0  0  0  0  0  0  0  0  0  0  0
  145.7903  134.8415  149.6290 H   0  0  0  0  0  0  0  0  0  0  0  0
  147.1256  134.9209  150.7638 H   0  0  0  0  0  0  0  0  0  0  0  0
  146.7117  132.4815  150.6396 H   0  0  0  0  0  0  0  0  0  0  0  0
  144.4947  131.5288  150.8900 H   0  0  0  0  0  0  0  0  0  0  0  0
  144.9193  132.5164  148.4941 H   0  0  0  0  0  0  0  0  0  0  0  0
  143.2730  132.0832  148.9379 H   0  0  0  0  0  0  0  0  0  0  0  0
  142.7430  134.0939  148.8624 H   0  0  0  0  0  0  0  0  0  0  0  0
  143.0753  132.6344  152.2785 H   0  0  0  0  0  0  0  0  0  0  0  0
  142.9247  134.0280  151.2086 H   0  0  0  0  0  0  0  0  0  0  0  0
  149.7415  131.8186  153.9477 H   0  0  0  0  0  0  0  0  0  0  0  0
  1  2  1  0  0  0  0
  1 27  1  0  0  0  0
  1 28  1  0  0  0  0
  1 29  1  0  0  0  0
  2  6  1  0  0  0  0
  2  3  1  0  0  0  0
  2 30  1  0  0  0  0
  3  4  1  0  0  0  0
  4  5  1  0  0  0  0
  4 31  1  0  0  0  0
  4 32  1  0  0  0  0
  5  6  1  0  0  0  0
  5 33  1  0  0  0  0
  5 34  1  0  0  0  0
  6  7  1  0  0  0  0
  6  8  1  0  0  0  0
  7 35  1  0  0  0  0
  8  9  1  0  0  0  0
  8 36  1  0  0  0  0
  8 37  1  0  0  0  0
  9 26  1  0  0  0  0
  9 10  1  0  0  0  0
 10 11  2  0  0  0  0
 10 38  1  0  0  0  0
 11 12  1  0  0  0  0
 12 26  2  0  0  0  0
 12 13  1  0  0  0  0
 13 14  1  0  0  0  0
 13 23  2  0  0  0  0
 14 18  1  0  0  0  0
 14 15  1  0  0  0  0
 15 22  1  0  0  0  0
 15 16  1  0  0  0  0
 15 39  1  0  0  0  0
 16 17  1  0  0  0  0
 16 40  1  0  0  0  0
 16 41  1  0  0  0  0
 17 18  1  0  0  0  0
 17 42  1  0  0  0  0
 17 43  1  0  0  0  0
 18 19  1  0  0  0  0
 18 44  1  0  0  0  0
 19 20  1  0  0  0  0
 19 22  1  0  0  0  0
 19 45  1  0  0  0  0
 20 21  1  0  0  0  0
 20 46  1  0  0  0  0
 20 47  1  0  0  0  0
 21 48  1  0  0  0  0
 22 49  1  0  0  0  0
 22 50  1  0  0  0  0
 23 24  1  0  0  0  0
 24 25  2  0  0  0  0
 24 51  1  0  0  0  0
 25 26  1  0  0  0  0
M  END
> <s_m_source_file>
AV-unprocessed.smi

> <i_m_source_file_index>
199

> <i_lp_mmshare_version>
43012

> <i_f3d_flags>
0

> <s_epik_input>
W0NIMl0xW0NIMl1PW0NAQEhdKFtDSDNdKVtDQEBdMShbT0hdKVtDSDJdbihbY0hdbjIpYyhjMjMpbltjSF1uYzNOKFtDQEBIXTQ1KVtDQEhdKFtDSDJdW0NIMl00KVtDQEhdKFtDSDJdNSlbQ0gyXVtPSF0=

> <s_epik_cmdline>
J2VwaWtfcHl0aG9uJywgJy1waCcsICc3LjAnLCAnLXRuJywgJzgnLCAnLW1hJywgJzIwMCcsICctbWV0YWxfYmluZGluZycsICctaW1hZScsICc8aW5maWxlLm1hZT4nLCAnLW9tYWUnLCAnPG91dGZpbGUubWFlPic=

> <r_lp_tautomer_probability>
1

> <r_epik_Ionization_Penalty>
0.00583903

> <r_epik_Ionization_Penalty_Charging>
0

> <r_epik_Ionization_Penalty_Neutral>
0.00583903

> <r_epik_State_Penalty>
-0

> <r_epik_Charging_Adjusted_Penalty>
0

> <i_epik_Tot_Q>
0

> <i_epik_Tot_abs_Q>
0

> <r_epik_Metal_State_Penalty>
-0

> <b_epik_Metal_Only>
0

> <s_lp_Force_Field>
OPLS_2005

> <r_lp_Energy>
83.953

> <b_lp_Chiralities_Consistent>
1

> <s_lp_Variant>
AV-unprocessed.smi:199-9

> <Gold.Version>
5.8.1

> <Gold.Id.Protein>
6NUR|6NUR_protein|mol2

> <Gold.PLP.Fitness>
40.7961

> <Gold.PLP.PLP>
-35.5395

> <Gold.PLP.part.hbond>
-3.0000

> <Gold.PLP.part.metal>
0.0000

> <Gold.PLP.part.buried>
-7.1104

> <Gold.PLP.part.nonpolar>
-25.4661

> <Gold.PLP.part.repulsive>
0.3818

> <Gold.PLP.ligand.clash>
0.0082

> <Gold.PLP.ligand.torsion>
0.3735

> <Gold.PLP.Chemscore.Hbond>
2.0000

> <Gold.PLP.Chemscore.CHOScore>
0.0000

> <Gold.PLP.Chemscore.Metal>
0.0000

> <Gold.Chemscore.Hbonds>
donor molecule, donor type, donor heavy atom, donor atom, acceptor molecule, acceptor atom, score
      L1  H    21    48       P1 10186  1.00
      P1  H 10752 10763       L1     7  1.00

> <Gold.PLP.Chemscore.Internal.Correction>
0.0118

> <Gold.Rescore>
     Score         DG    S(hbond)    S(metal)    S(lipo)     H(rot)  DE(clash)    DE(int)     intcor
      9.19     -13.42       1.98        0.00      78.48       3.07       0.04       4.20       ----

> <Gold.Chemscore.Fitness>
9.1916

> <Gold.Chemscore.DG>
-13.4248

> <Gold.Chemscore.ZeroCoef>
-5.4800

> <Gold.Chemscore.Hbond>
1.9848

> <Gold.Chemscore.Metal>
0.0000

> <Gold.Chemscore.Lipo>
78.4810

> <Gold.Chemscore.Internal_Hbond>
0.0000

> <Gold.Chemscore.DEClash>
0.0376

> <Gold.Chemscore.DEInternal>
4.1956

> <Gold.Chemscore.Rot>
3.0729

> <Gold.Chemscore.Internal.Correction>
   9.000000E+99

> <Gold.Chemscore.Hbonds>
donor molecule, donor type, donor heavy atom, donor atom, acceptor molecule, acceptor atom, score
      L1  H    21    48       P1 10186  0.97
      P1  H 10752 10763       L1     7  0.97

> <Gold.Chemscore.Hbond.Weighted>
-6.6293

> <Gold.Chemscore.Metal.Weighted>
-0.0000

> <Gold.Chemscore.Lipo.Weighted>
-9.1823

> <Gold.Chemscore.Internal_Hbond.Weighted>
0.0000

> <Gold.Chemscore.DEClash.Weighted>
0.0376

> <Gold.Chemscore.DEInternal.Weighted>
4.1956

> <Gold.Chemscore.Rot.Weighted>
7.8667

> <Gold.Chemscore.Internal.Correction.Weighted>
   9.000000E+99

> <Gold.Protein.RotatedTorsions>
[ 6907 6896 6895 6894 ] final  114.51 input  -60.11 | X-H torsion
[ 7974 7965 7964 7962 ] final -122.80 input  175.53 | X-H torsion
[ 8008 7997 7996 7995 ] final -149.37 input   59.86 | X-H torsion
[ 10167 10162 10161 10158 ] final  -79.78 input  -65.29 | X-H torsion
[ 10718 10713 10712 10709 ] final -178.23 input   66.30 | X-H torsion
[ 10763 10752 10751 10750 ] final   74.23 input  -60.55 | X-H torsion
[ 11005 11000 10999 10996 ] final  168.58 input  -57.11 | X-H torsion

> <Gold.Protein.ActiveResidues>
 VAL166  LYS551  ARG553  GLY616  TRP617  ASP618  TYR619  PRO620  LYS621  CYS622 
 ASP623  PHE694  ASN695  SER759  ASP760  ASP761  ALA762  ILE779  LEU786  VAL792 
 PHE793  MET794  SER795  GLU796  ALA797  LYS798  CYS799  TRP800  GLU811  SER814 

> <Gold.Protein.RotatedAtoms>
  152.4798  133.8226  159.7060 H   0  0  0  0  0  0  0  0  0  0  0  0  # atno 6907 bound_to 6896
  150.8839  133.7325  159.2930 H   0  0  0  0  0  0  0  0  0  0  0  0  # atno 6908 bound_to 6896
  151.4820  135.1056  159.9832 H   0  0  0  0  0  0  0  0  0  0  0  0  # atno 6909 bound_to 6896
  145.0255  140.8024  143.4355 H   0  0  0  0  0  0  0  0  0  0  0  0  # atno 7974 bound_to 7965
  155.6066  140.0667  157.2718 H   0  0  0  0  0  0  0  0  0  0  0  0  # atno 8008 bound_to 7997
  154.4264  140.1809  156.1276 H   0  0  0  0  0  0  0  0  0  0  0  0  # atno 8009 bound_to 7997
  156.0118  140.3326  155.6952 H   0  0  0  0  0  0  0  0  0  0  0  0  # atno 8010 bound_to 7997
  140.4562  143.2467  151.8416 H   0  0  0  0  0  0  0  0  0  0  0  0  # atno 10167 bound_to 10162
  156.8413  130.9687  151.3100 H   0  0  0  0  0  0  0  0  0  0  0  0  # atno 10718 bound_to 10713
  153.0573  135.5033  154.8011 H   0  0  0  0  0  0  0  0  0  0  0  0  # atno 10763 bound_to 10752
  154.6827  135.2971  154.9592 H   0  0  0  0  0  0  0  0  0  0  0  0  # atno 10764 bound_to 10752
  154.0373  135.6721  153.4839 H   0  0  0  0  0  0  0  0  0  0  0  0  # atno 10765 bound_to 10752
  140.2887  134.7691  157.3820 H   0  0  0  0  0  0  0  0  0  0  0  0  # atno 11005 bound_to 11000
  145.1839  139.2337  143.5278 LP  0  0  0  0  0  0  0  0  0  0  0  0  # atno 17320 bound_to 7965
  146.3491  140.1619  142.8590 LP  0  0  0  0  0  0  0  0  0  0  0  0  # atno 17321 bound_to 7965
  139.4801  144.5062  151.8995 LP  0  0  0  0  0  0  0  0  0  0  0  0  # atno 17342 bound_to 10162
  140.4148  144.2321  150.5888 LP  0  0  0  0  0  0  0  0  0  0  0  0  # atno 17343 bound_to 10162
  157.6354  130.8763  149.9350 LP  0  0  0  0  0  0  0  0  0  0  0  0  # atno 17370 bound_to 10713
  156.0879  130.3666  150.0451 LP  0  0  0  0  0  0  0  0  0  0  0  0  # atno 17371 bound_to 10713
  140.1215  134.5213  155.8179 LP  0  0  0  0  0  0  0  0  0  0  0  0  # atno 17394 bound_to 11000
  141.2150  133.6758  156.6875 LP  0  0  0  0  0  0  0  0  0  0  0  0  # atno 17395 bound_to 11000

$$$$
