#       Name:                AV-unprocessed.smi:1427
#       Creating user name   scv26
#       Creation time:       Fri Mar 27 05:46:43 2020


#       File generated by GOLD software.
#

@<TRIPOS>MOLECULE
AV-unprocessed.smi:1427
    38    39     1
SMALL
NO_CHARGES


@<TRIPOS>ATOM
      1 ****        -0.5801  -2.8893  -1.9563 C.3            1 S1                 0.0000
      2 ****         0.0563  -2.0080  -0.8730 C.3            1 S1                 0.0000
      3 ****         1.5981  -2.0758  -0.9271 C.3            1 S1                 0.0000
      4 ****         2.2299  -1.3497   0.1615 N.pl3          1 S1                 0.0000
      5 ****         2.3299  -1.7116   1.4882 C.2            1 S1                 0.0000
      6 ****         2.9863  -0.7045   2.1356 C.2            1 S1                 0.0000
      7 ****         3.2545   0.2406   1.1064 C.2            1 S1                 0.0000
      8 ****         2.8043  -0.1498  -0.0748 N.2            1 S1                 0.0000
      9 ****        -0.4112  -0.6326  -1.0421 N.am           1 S1                 0.0000
     10 ****        -0.7477   0.2068  -0.0495 C.2            1 S1                 0.0000
     11 ****        -0.7424  -0.1147   1.1398 O.2            1 S1                 0.0000
     12 ****        -1.1560   1.6261  -0.4686 C.3            1 S1                 0.0000
     13 ****        -2.6578   1.9239  -0.2898 C.3            1 S1                 0.0000
     14 ****        -2.7617   2.7532   0.9977 C.3            1 S1                 0.0000
     15 ****        -1.3395   3.2524   1.1920 C.2            1 S1                 0.0000
     16 ****        -1.0276   4.1144   2.0101 O.2            1 S1                 0.0000
     17 ****        -0.5052   2.6265   0.3613 N.am           1 S1                 0.0000
     18 ****        -0.2773  -3.9305  -1.8417 H              1 S1                 0.0000
     19 ****        -0.2868  -2.5659  -2.9557 H              1 S1                 0.0000
     20 ****        -1.6687  -2.8566  -1.9008 H              1 S1                 0.0000
     21 ****        -0.2757  -2.3961   0.0918 H              1 S1                 0.0000
     22 ****         1.9276  -3.1137  -0.8677 H              1 S1                 0.0000
     23 ****         1.9657  -1.6882  -1.8789 H              1 S1                 0.0000
     24 ****         1.9220  -2.6408   1.8579 H              1 S1                 0.0000
     25 ****         3.2340  -0.6497   3.1851 H              1 S1                 0.0000
     26 ****         3.7592   1.1926   1.1822 H              1 S1                 0.0000
     27 ****        -0.4505  -0.2815  -1.9879 H              1 S1                 0.0000
     28 ****        -0.8650   1.7934  -1.5070 H              1 S1                 0.0000
     29 ****        -3.0237   2.5093  -1.1345 H              1 S1                 0.0000
     30 ****        -3.2659   1.0192  -0.2386 H              1 S1                 0.0000
     31 ****        -3.4717   3.5756   0.9065 H              1 S1                 0.0000
     32 ****        -3.0452   2.1331   1.8488 H              1 S1                 0.0000
     33 ****         0.4904   2.7916   0.3298 H              1 S1                 0.0000
     34 ****         2.8736   0.3346  -0.9469 LP             1 S1                 0.0000
     35 ****        -0.4780  -1.0417   1.4060 LP             1 S1                 0.0000
     36 ****        -1.0024   0.5513   1.8389 LP             1 S1                 0.0000
     37 ****        -1.7275   4.5271   2.5930 LP             1 S1                 0.0000
     38 ****        -0.0738   4.4032   2.0930 LP             1 S1                 0.0000
@<TRIPOS>BOND
    1    1    2 1     
    2    1   18 1     
    3    1   19 1     
    4    1   20 1     
    5    2    3 1     
    6    2    9 1     
    7    2   21 1     
    8    3    4 1     
    9    3   22 1     
   10    3   23 1     
   11    4    8 1     
   12    4    5 1     
   13    5    6 2     
   14    5   24 1     
   15    6    7 1     
   16    6   25 1     
   17    7    8 2     
   18    7   26 1     
   19    9   10 am    
   20    9   27 1     
   21   10   11 2     
   22   10   12 1     
   23   12   17 1     
   24   12   13 1     
   25   12   28 1     
   26   13   14 1     
   27   13   29 1     
   28   13   30 1     
   29   14   15 1     
   30   14   31 1     
   31   14   32 1     
   32   15   16 2     
   33   15   17 am    
   34   17   33 1     
   35    8   34 1     
   36   11   35 1     
   37   11   36 1     
   38   16   37 1     
   39   16   38 1     
@<TRIPOS>SUBSTRUCTURE
      1 S1             1
@<TRIPOS>SET
LONE_PAIRS      STATIC     ATOMS    <user>   **** ""
5 34 35 36 37 38
DONOR_HYDROGENS      STATIC     ATOMS    <user>   **** ""
2 27 33
ATOM$BLUE        STATIC     ATOMS    COLORGROUP SYSTEM
5 34 35 36 37 38
ATOM$RED        STATIC     ATOMS    COLORGROUP SYSTEM
2 27 33
