#       Name:                AV-unprocessed.smi:2820
#       Creating user name   scv26
#       Creation time:       Fri Mar 27 15:30:00 2020


#       File generated by GOLD software.
#

@<TRIPOS>MOLECULE
AV-unprocessed.smi:2820
    33    34     1
SMALL
NO_CHARGES


@<TRIPOS>ATOM
      1 ****        -4.7828   1.3404  -0.0052 C.3            1 S1                 0.0000
      2 ****        -4.0582   0.0802  -0.0038 N.pl3          1 S1                 0.0000
      3 ****        -2.6570   0.0594  -0.0048 C.ar           1 S1                 0.0000
      4 ****        -1.9930  -1.1865  -0.0043 C.ar           1 S1                 0.0000
      5 ****        -0.5836  -1.2289  -0.0049 C.ar           1 S1                 0.0000
      6 ****         0.1456  -0.0178  -0.0062 C.ar           1 S1                 0.0000
      7 ****         1.5453   0.0424  -0.0052 N.3            1 S1                 0.0000
      8 ****         2.1399  -0.4826   1.2174 C.3            1 S1                 0.0000
      9 ****         3.6654  -0.2851   1.1880 C.3            1 S1                 0.0000
     10 ****         4.2012  -0.8945   0.0171 O.3            1 S1                 0.0000
     11 ****         3.6723  -0.3211  -1.1749 C.3            1 S1                 0.0000
     12 ****         2.1472  -0.5207  -1.2073 C.3            1 S1                 0.0000
     13 ****        -0.5252   1.1547  -0.0065 N.pl3          1 S1                 1.0000
     14 ****        -1.8735   1.2379  -0.0060 C.ar           1 S1                 0.0000
     15 ****        -5.8563   1.1510  -0.0055 H              1 S1                 0.0000
     16 ****        -4.5418   1.9261  -0.8928 H              1 S1                 0.0000
     17 ****        -4.5426   1.9276   0.8817 H              1 S1                 0.0000
     18 ****        -4.5811  -0.7842  -0.0039 H              1 S1                 0.0000
     19 ****        -2.5577  -2.1076  -0.0030 H              1 S1                 0.0000
     20 ****        -0.0743  -2.1816  -0.0036 H              1 S1                 0.0000
     21 ****         1.7139   0.0250   2.0839 H              1 S1                 0.0000
     22 ****         1.9070  -1.5437   1.3166 H              1 S1                 0.0000
     23 ****         3.9217   0.7754   1.2090 H              1 S1                 0.0000
     24 ****         4.1214  -0.7408   2.0669 H              1 S1                 0.0000
     25 ****         3.9283   0.7384  -1.2265 H              1 S1                 0.0000
     26 ****         4.1339  -0.8030  -2.0368 H              1 S1                 0.0000
     27 ****         1.9161  -1.5846  -1.2748 H              1 S1                 0.0000
     28 ****         1.7260  -0.0407  -2.0917 H              1 S1                 0.0000
     29 ****        -2.2716   2.2420  -0.0064 H              1 S1                 0.0000
     30 ****         0.0131   2.0215  -0.0072 H              1 S1                 0.0000
     31 ****         1.7654   1.0178  -0.0218 LP             1 S1                 0.0000
     32 ****         3.9806  -1.8697   0.0313 LP             1 S1                 0.0000
     33 ****         5.1943  -0.7774   0.0182 LP             1 S1                 0.0000
@<TRIPOS>BOND
    1    1    2 1     
    2    1   15 1     
    3    1   16 1     
    4    1   17 1     
    5    2    3 1     
    6    2   18 1     
    7    3   14 ar    
    8    3    4 ar    
    9    4    5 ar    
   10    4   19 1     
   11    5    6 ar    
   12    5   20 1     
   13    6    7 1     
   14    6   13 ar    
   15    7   12 1     
   16    7    8 1     
   17    8    9 1     
   18    8   21 1     
   19    8   22 1     
   20    9   10 1     
   21    9   23 1     
   22    9   24 1     
   23   10   11 1     
   24   11   12 1     
   25   11   25 1     
   26   11   26 1     
   27   12   27 1     
   28   12   28 1     
   29   13   14 ar    
   30   13   30 1     
   31   14   29 1     
   32    7   31 1     
   33   10   32 1     
   34   10   33 1     
@<TRIPOS>SUBSTRUCTURE
      1 S1             1
@<TRIPOS>SET
LONE_PAIRS      STATIC     ATOMS    <user>   **** ""
3 31 32 33
DONOR_HYDROGENS      STATIC     ATOMS    <user>   **** ""
2 18 30
ATOM$BLUE        STATIC     ATOMS    COLORGROUP SYSTEM
3 31 32 33
ATOM$RED        STATIC     ATOMS    COLORGROUP SYSTEM
2 18 30
