AV-unprocessed.smi:1954|AV-procd|sdf|7896|dock7
  -GOLD-   2272010 53D 1   1.00000     0.00000
 Structure written by MMmdl.
 45 47  0  0  0  0  0  0  0  0  2 V2000
  144.7318  136.2340  153.0092 O   0  0  0  0  0  0  0  0  0  0  0  0
  145.9367  136.0778  152.8124 C   0  0  0  0  0  0  0  0  0  0  0  0
  146.8758  136.9191  153.2685 N   0  0  0  0  0  0  0  0  0  0  0  0
  146.6240  138.1362  154.0408 C   0  0  0  0  0  0  0  0  0  0  0  0
  147.9065  138.9917  154.2963 C   0  0  1  0  0  0  0  0  0  0  0  0
  149.0916  138.0665  154.4435 N   0  3  0  0  0  0  0  0  0  0  0  0
  150.4086  138.7625  154.4908 C   0  0  0  0  0  0  0  0  0  0  0  0
  151.5653  137.7538  154.4456 C   0  0  0  0  0  0  0  0  0  0  0  0
  151.4479  136.8648  155.5458 O   0  0  0  0  0  0  0  0  0  0  0  0
  150.2501  136.1064  155.4740 C   0  0  0  0  0  0  0  0  0  0  0  0
  149.0232  137.0356  155.5176 C   0  0  0  0  0  0  0  0  0  0  0  0
  148.0901  140.0156  153.1499 C   0  0  0  0  0  0  0  0  0  0  0  0
  147.0136  141.1032  153.2807 C   0  0  0  0  0  0  0  0  0  0  0  0
  146.5883  141.2647  155.0330 S   0  0  0  0  0  0  0  0  0  0  0  0
  147.6795  139.9091  155.5286 C   0  0  0  0  0  0  0  0  0  0  0  0
  146.4859  135.0686  152.1143 N   0  0  0  0  0  0  0  0  0  0  0  0
  145.8283  134.0044  151.4420 C   0  0  0  0  0  0  0  0  0  0  0  0
  146.5740  133.0166  150.7479 C   0  0  0  0  0  0  0  0  0  0  0  0
  145.8926  131.9877  150.0695 C   0  0  0  0  0  0  0  0  0  0  0  0
  144.4868  131.9765  150.0892 C   0  0  0  0  0  0  0  0  0  0  0  0
  143.8255  133.0049  150.7845 C   0  0  0  0  0  0  0  0  0  0  0  0
  144.4752  133.9939  151.4347 N   0  0  0  0  0  0  0  0  0  0  0  0
  147.8381  136.7195  153.0370 H   0  0  0  0  0  0  0  0  0  0  0  0
  145.8914  138.7154  153.4797 H   0  0  0  0  0  0  0  0  0  0  0  0
  146.1114  137.8883  154.9708 H   0  0  0  0  0  0  0  0  0  0  0  0
  150.5180  139.4520  153.6555 H   0  0  0  0  0  0  0  0  0  0  0  0
  150.4897  139.3517  155.4050 H   0  0  0  0  0  0  0  0  0  0  0  0
  151.5694  137.2012  153.5045 H   0  0  0  0  0  0  0  0  0  0  0  0
  152.5204  138.2747  154.5140 H   0  0  0  0  0  0  0  0  0  0  0  0
  150.2457  135.5024  154.5650 H   0  0  0  0  0  0  0  0  0  0  0  0
  150.2228  135.4120  156.3139 H   0  0  0  0  0  0  0  0  0  0  0  0
  148.9489  137.5153  156.4941 H   0  0  0  0  0  0  0  0  0  0  0  0
  148.1516  136.3956  155.3923 H   0  0  0  0  0  0  0  0  0  0  0  0
  149.0694  140.4887  153.2306 H   0  0  0  0  0  0  0  0  0  0  0  0
  148.0463  139.5531  152.1632 H   0  0  0  0  0  0  0  0  0  0  0  0
  147.3509  142.0569  152.8741 H   0  0  0  0  0  0  0  0  0  0  0  0
  146.1132  140.8150  152.7374 H   0  0  0  0  0  0  0  0  0  0  0  0
  147.2983  139.3862  156.4044 H   0  0  0  0  0  0  0  0  0  0  0  0
  148.5889  140.4243  155.8309 H   0  0  0  0  0  0  0  0  0  0  0  0
  147.4795  135.1305  151.9486 H   0  0  0  0  0  0  0  0  0  0  0  0
  147.6527  133.0364  150.7149 H   0  0  0  0  0  0  0  0  0  0  0  0
  146.4407  131.2239  149.5381 H   0  0  0  0  0  0  0  0  0  0  0  0
  143.9301  131.2040  149.5796 H   0  0  0  0  0  0  0  0  0  0  0  0
  142.7467  133.0371  150.8177 H   0  0  0  0  0  0  0  0  0  0  0  0
  149.0982  137.5323  153.5863 H   0  0  0  0  0  0  0  0  0  0  0  0
  1  2  2  0  0  0  0
  2  3  1  0  0  0  0
  2 16  1  0  0  0  0
  3  4  1  0  0  0  0
  3 23  1  0  0  0  0
  4  5  1  0  0  0  0
  4 24  1  0  0  0  0
  4 25  1  0  0  0  0
  5 15  1  0  0  0  0
  5  6  1  0  0  0  0
  5 12  1  0  0  0  0
  6 11  1  0  0  0  0
  6  7  1  0  0  0  0
  6 45  1  0  0  0  0
  7  8  1  0  0  0  0
  7 26  1  0  0  0  0
  7 27  1  0  0  0  0
  8  9  1  0  0  0  0
  8 28  1  0  0  0  0
  8 29  1  0  0  0  0
  9 10  1  0  0  0  0
 10 11  1  0  0  0  0
 10 30  1  0  0  0  0
 10 31  1  0  0  0  0
 11 32  1  0  0  0  0
 11 33  1  0  0  0  0
 12 13  1  0  0  0  0
 12 34  1  0  0  0  0
 12 35  1  0  0  0  0
 13 14  1  0  0  0  0
 13 36  1  0  0  0  0
 13 37  1  0  0  0  0
 14 15  1  0  0  0  0
 15 38  1  0  0  0  0
 15 39  1  0  0  0  0
 16 17  1  0  0  0  0
 16 40  1  0  0  0  0
 17 22  1  0  0  0  0
 17 18  2  0  0  0  0
 18 19  1  0  0  0  0
 18 41  1  0  0  0  0
 19 20  2  0  0  0  0
 19 42  1  0  0  0  0
 20 21  1  0  0  0  0
 20 43  1  0  0  0  0
 21 22  2  0  0  0  0
 21 44  1  0  0  0  0
M  CHG  1   6   1
M  END
> <s_m_source_file>
AV-unprocessed.smi

> <i_m_source_file_index>
1954

> <i_lp_mmshare_version>
43012

> <i_f3d_flags>
0

> <s_epik_input>
bjFbY0hdW2NIXVtjSF1bY0hdYzFbTkhdQyg9TylbTkhdW0NIMl1bQ0BdMihbQ0gyXVtDSDJdU1tDSDJdMilOM1tDSDJdW0NIMl1PW0NIMl1bQ0gyXTM=

> <s_epik_cmdline>
J2VwaWtfcHl0aG9uJywgJy1waCcsICc3LjAnLCAnLXRuJywgJzgnLCAnLW1hJywgJzIwMCcsICctbWV0YWxfYmluZGluZycsICctaW1hZScsICc8aW5maWxlLm1hZT4nLCAnLW9tYWUnLCAnPG91dGZpbGUubWFlPic=

> <r_epik_Ionization_Penalty>
2.03222

> <r_epik_Ionization_Penalty_Charging>
2.03219

> <r_epik_Ionization_Penalty_Neutral>
3.25833e-05

> <r_epik_State_Penalty>
2.16328

> <r_epik_Charging_Adjusted_Penalty>
4.19546

> <i_epik_Tot_Q>
1

> <i_epik_Tot_abs_Q>
1

> <r_epik_Metal_State_Penalty>
2.16328

> <b_epik_Metal_Only>
0

> <s_lp_Force_Field>
OPLS_2005

> <r_lp_Energy>
49.2696

> <b_lp_Chiralities_Consistent>
1

> <s_lp_Variant>
AV-unprocessed.smi:1954-3

> <Gold.Version>
5.8.1

> <Gold.Id.Protein>
6NUR|6NUR_protein|mol2

> <Gold.PLP.Fitness>
50.8729

> <Gold.PLP.PLP>
-33.8338

> <Gold.PLP.part.hbond>
-4.0000

> <Gold.PLP.part.metal>
0.0000

> <Gold.PLP.part.buried>
-1.2636

> <Gold.PLP.part.nonpolar>
-29.1555

> <Gold.PLP.part.repulsive>
0.4168

> <Gold.PLP.ligand.clash>
0.0000

> <Gold.PLP.ligand.torsion>
0.5370

> <Gold.PLP.Chemscore.Hbond>
4.9920

> <Gold.PLP.Chemscore.CHOScore>
1.0000

> <Gold.PLP.Chemscore.Metal>
0.0000

> <Gold.Chemscore.Hbonds>
donor molecule, donor type, donor heavy atom, donor atom, acceptor molecule, acceptor atom, score
      L1  H     3    23       P1  7948  0.94
      L1  H     6    45       P1  7948  1.43
      L1  H    16    40       P1  7948  0.96
      P1  H 10752 10764       L1     9  0.47
      L1  C    21    44       P1 10186  0.94

> <Gold.PLP.Chemscore.Internal.Correction>
0.1372

> <Gold.Rescore>
     Score         DG    S(hbond)    S(metal)    S(lipo)     H(rot)  DE(clash)    DE(int)     intcor
     20.07     -23.75       3.38        0.00      93.36       1.54       1.78       1.90       ----

> <Gold.Chemscore.Fitness>
20.0663

> <Gold.Chemscore.DG>
-23.7498

> <Gold.Chemscore.ZeroCoef>
-5.4800

> <Gold.Chemscore.Hbond>
3.3765

> <Gold.Chemscore.Metal>
0.0000

> <Gold.Chemscore.Lipo>
93.3605

> <Gold.Chemscore.Internal_Hbond>
0.0000

> <Gold.Chemscore.DEClash>
1.7793

> <Gold.Chemscore.DEInternal>
1.9042

> <Gold.Chemscore.Rot>
1.5355

> <Gold.Chemscore.Internal.Correction>
   9.000000E+99

> <Gold.Chemscore.Hbonds>
donor molecule, donor type, donor heavy atom, donor atom, acceptor molecule, acceptor atom, score
      L1  H     3    23       P1  7948  0.91
      L1  H     6    45       P1  7948  0.71
      L1  H    16    40       P1  7948  0.87
      P1  H 10752 10764       L1     9  0.02

> <Gold.Chemscore.Hbond.Weighted>
-11.2775

> <Gold.Chemscore.Metal.Weighted>
-0.0000

> <Gold.Chemscore.Lipo.Weighted>
-10.9232

> <Gold.Chemscore.Internal_Hbond.Weighted>
0.0000

> <Gold.Chemscore.DEClash.Weighted>
1.7793

> <Gold.Chemscore.DEInternal.Weighted>
1.9042

> <Gold.Chemscore.Rot.Weighted>
3.9309

> <Gold.Chemscore.Internal.Correction.Weighted>
   9.000000E+99

> <Gold.Protein.RotatedTorsions>
[ 6907 6896 6895 6894 ] final   21.29 input  -60.11 | X-H torsion
[ 7974 7965 7964 7962 ] final -160.64 input  175.53 | X-H torsion
[ 8008 7997 7996 7995 ] final  -36.06 input   59.86 | X-H torsion
[ 10167 10162 10161 10158 ] final -117.14 input  -65.29 | X-H torsion
[ 10718 10713 10712 10709 ] final  176.23 input   66.30 | X-H torsion
[ 10763 10752 10751 10750 ] final  -44.59 input  -60.55 | X-H torsion
[ 11005 11000 10999 10996 ] final   -8.91 input  -57.11 | X-H torsion

> <Gold.Protein.ActiveResidues>
 VAL166  LYS551  ARG553  GLY616  TRP617  ASP618  TYR619  PRO620  LYS621  CYS622 
 ASP623  PHE694  ASN695  SER759  ASP760  ASP761  ALA762  ILE779  LEU786  VAL792 
 PHE793  MET794  SER795  GLU796  ALA797  LYS798  CYS799  TRP800  GLU811  SER814 

> <Gold.Protein.RotatedAtoms>
  151.9096  135.0344  160.0513 H   0  0  0  0  0  0  0  0  0  0  0  0  # atno 6907 bound_to 6896
  152.2291  133.5039  159.5214 H   0  0  0  0  0  0  0  0  0  0  0  0  # atno 6908 bound_to 6896
  150.7020  134.1157  159.4059 H   0  0  0  0  0  0  0  0  0  0  0  0  # atno 6909 bound_to 6896
  144.7420  140.3513  143.6115 H   0  0  0  0  0  0  0  0  0  0  0  0  # atno 7974 bound_to 7965
  154.4081  140.1640  156.2313 H   0  0  0  0  0  0  0  0  0  0  0  0  # atno 8008 bound_to 7997
  155.9280  140.3416  155.6203 H   0  0  0  0  0  0  0  0  0  0  0  0  # atno 8009 bound_to 7997
  155.7141  140.0760  157.2349 H   0  0  0  0  0  0  0  0  0  0  0  0  # atno 8010 bound_to 7997
  140.0716  143.4872  152.1976 H   0  0  0  0  0  0  0  0  0  0  0  0  # atno 10167 bound_to 10162
  156.9232  130.9947  151.3001 H   0  0  0  0  0  0  0  0  0  0  0  0  # atno 10718 bound_to 10713
  154.0146  135.6677  153.4768 H   0  0  0  0  0  0  0  0  0  0  0  0  # atno 10763 bound_to 10752
  153.0606  135.5030  154.8080 H   0  0  0  0  0  0  0  0  0  0  0  0  # atno 10764 bound_to 10752
  154.6974  135.3072  154.9355 H   0  0  0  0  0  0  0  0  0  0  0  0  # atno 10765 bound_to 10752
  140.7285  133.8769  155.8874 H   0  0  0  0  0  0  0  0  0  0  0  0  # atno 11005 bound_to 11000
  145.7273  139.1726  143.2450 LP  0  0  0  0  0  0  0  0  0  0  0  0  # atno 17320 bound_to 7965
  146.1232  140.7282  142.9447 LP  0  0  0  0  0  0  0  0  0  0  0  0  # atno 17321 bound_to 7965
  139.5833  144.7520  151.3585 LP  0  0  0  0  0  0  0  0  0  0  0  0  # atno 17342 bound_to 10162
  140.7123  143.7359  150.7589 LP  0  0  0  0  0  0  0  0  0  0  0  0  # atno 17343 bound_to 10162
  157.5894  130.8433  149.8637 LP  0  0  0  0  0  0  0  0  0  0  0  0  # atno 17370 bound_to 10713
  156.0481  130.3723  150.1267 LP  0  0  0  0  0  0  0  0  0  0  0  0  # atno 17371 bound_to 10713
  140.9942  134.1238  157.4379 LP  0  0  0  0  0  0  0  0  0  0  0  0  # atno 17394 bound_to 11000
  139.8832  135.0049  156.6281 LP  0  0  0  0  0  0  0  0  0  0  0  0  # atno 17395 bound_to 11000

$$$$
