AV-unprocessed.smi:66|AV-procd|sdf|619|dock3
  -GOLD-   2262016513D 1   1.00000     0.00000
 Structure written by MMmdl.
 28 30  0  0  0  0  0  0  0  0  2 V2000
  153.1539  136.6544  159.2633 O   0  0  0  0  0  0  0  0  0  0  0  0
  153.2601  137.5809  158.4304 C   0  0  0  0  0  0  0  0  0  0  0  0
  154.2453  138.3439  158.3148 O   0  5  0  0  0  0  0  0  0  0  0  0
  152.0756  137.7937  157.4794 C   0  0  2  0  0  0  0  0  0  0  0  0
  151.8049  136.5710  156.5823 C   0  0  0  0  0  0  0  0  0  0  0  0
  151.2458  137.1921  155.3086 C   0  0  2  0  0  0  0  0  0  0  0  0
  151.3745  136.3461  154.1854 O   0  0  0  0  0  0  0  0  0  0  0  0
  152.0853  138.4596  155.1858 C   0  0  0  0  0  0  0  0  0  0  0  0
  152.3048  138.9133  156.5576 N   0  0  0  0  0  0  0  0  0  0  0  0
  151.7076  140.0651  156.9490 C   0  0  0  0  0  0  0  0  0  0  0  0
  152.0399  140.6403  158.1366 N   0  0  0  0  0  0  0  0  0  0  0  0
  151.4711  141.7923  158.5069 C   0  0  0  0  0  0  0  0  0  0  0  0
  150.5682  142.5280  157.8532 N   0  0  0  0  0  0  0  0  0  0  0  0
  150.2409  141.9543  156.6615 C   0  0  0  0  0  0  0  0  0  0  0  0
  149.3551  142.4113  155.7090 N   0  0  0  0  0  0  0  0  0  0  0  0
  149.3767  141.4837  154.6957 C   0  0  0  0  0  0  0  0  0  0  0  0
  150.1802  140.4742  154.8961 N   0  0  0  0  0  0  0  0  0  0  0  0
  150.7559  140.7368  156.1349 C   0  0  0  0  0  0  0  0  0  0  0  0
  148.8264  143.2670  155.7950 H   0  0  0  0  0  0  0  0  0  0  0  0
  151.1804  137.9920  158.0730 H   0  0  0  0  0  0  0  0  0  0  0  0
  152.7292  136.0348  156.3582 H   0  0  0  0  0  0  0  0  0  0  0  0
  151.1132  135.8631  157.0396 H   0  0  0  0  0  0  0  0  0  0  0  0
  150.1962  137.4528  155.4526 H   0  0  0  0  0  0  0  0  0  0  0  0
  150.5252  135.9832  153.9866 H   0  0  0  0  0  0  0  0  0  0  0  0
  153.0635  138.2314  154.7596 H   0  0  0  0  0  0  0  0  0  0  0  0
  151.6209  139.1997  154.5327 H   0  0  0  0  0  0  0  0  0  0  0  0
  151.7873  142.1820  159.4631 H   0  0  0  0  0  0  0  0  0  0  0  0
  148.7760  141.5787  153.8030 H   0  0  0  0  0  0  0  0  0  0  0  0
  1  2  2  0  0  0  0
  2  3  1  0  0  0  0
  2  4  1  0  0  0  0
  4  5  1  0  0  0  0
  4 20  1  0  0  0  0
  4  9  1  0  0  0  0
  5  6  1  0  0  0  0
  5 21  1  0  0  0  0
  5 22  1  0  0  0  0
  6  7  1  0  0  0  0
  6  8  1  0  0  0  0
  6 23  1  0  0  0  0
  7 24  1  0  0  0  0
  8 25  1  0  0  0  0
  8 26  1  0  0  0  0
  8  9  1  0  0  0  0
  9 10  1  0  0  0  0
 10 11  1  0  0  0  0
 10 18  2  0  0  0  0
 11 12  2  0  0  0  0
 12 27  1  0  0  0  0
 12 13  1  0  0  0  0
 13 14  2  0  0  0  0
 14 15  1  0  0  0  0
 14 18  1  0  0  0  0
 15 16  1  0  0  0  0
 15 19  1  0  0  0  0
 16 17  2  0  0  0  0
 16 28  1  0  0  0  0
 17 18  1  0  0  0  0
M  CHG  1   3  -1
M  END
> <s_m_source_file>
AV-unprocessed.smi

> <i_m_source_file_index>
66

> <i_lp_mmshare_version>
43012

> <i_f3d_flags>
0

> <s_epik_input>
Tz1DKFtPSF0pW0NAQEhdMVtDSDJdW0NAQEhdKFtPSF0pW0NIMl1OMWMobltjSF1uMiljKGMyMylbbkhdW2NIXW4z

> <s_epik_cmdline>
J2VwaWtfcHl0aG9uJywgJy1waCcsICc3LjAnLCAnLXRuJywgJzgnLCAnLW1hJywgJzIwMCcsICctbWV0YWxfYmluZGluZycsICctaW1hZScsICc8aW5maWxlLm1hZT4nLCAnLW9tYWUnLCAnPG91dGZpbGUubWFlPic=

> <r_lp_tautomer_probability>
0.955585

> <r_epik_Ionization_Penalty>
0.00455415

> <r_epik_Ionization_Penalty_Charging>
0.000248217

> <r_epik_Ionization_Penalty_Neutral>
0.00430593

> <r_epik_State_Penalty>
0.0207074

> <r_epik_Charging_Adjusted_Penalty>
0.0209557

> <i_epik_Tot_Q>
-1

> <i_epik_Tot_abs_Q>
1

> <r_epik_Metal_State_Penalty>
0.337372

> <b_epik_Metal_Only>
0

> <s_lp_Force_Field>
OPLS_2005

> <r_lp_Energy>
28.2566

> <b_lp_Chiralities_Consistent>
1

> <s_lp_Variant>
AV-unprocessed.smi:66-3

> <Gold.Version>
5.8.1

> <Gold.Id.Protein>
6NUR|6NUR_protein|mol2

> <Gold.PLP.Fitness>
43.3508

> <Gold.PLP.PLP>
-25.1736

> <Gold.PLP.part.hbond>
-5.6378

> <Gold.PLP.part.metal>
0.0000

> <Gold.PLP.part.buried>
-3.9132

> <Gold.PLP.part.nonpolar>
-16.6857

> <Gold.PLP.part.repulsive>
0.3404

> <Gold.PLP.ligand.clash>
0.0000

> <Gold.PLP.ligand.torsion>
0.0837

> <Gold.PLP.Chemscore.Hbond>
6.0826

> <Gold.PLP.Chemscore.CHOScore>
0.0000

> <Gold.PLP.Chemscore.Metal>
0.0000

> <Gold.Chemscore.Hbonds>
donor molecule, donor type, donor heavy atom, donor atom, acceptor molecule, acceptor atom, score
      L1  H    15    19       P1  8028  0.74
      P1  H  6896  6909       L1     1  1.62
      P1  H  7989  7998       L1    17  0.94
      P1  H  7997  8010       L1     3  1.69
      P1  H 10752 10763       L1     7  1.00

> <Gold.PLP.Chemscore.Internal.Correction>
0.0966

> <Gold.Rescore>
     Score         DG    S(hbond)    S(metal)    S(lipo)     H(rot)  DE(clash)    DE(int)     intcor
     11.62     -13.12       3.20        0.00      28.21       2.48       0.00       1.50       ----

> <Gold.Chemscore.Fitness>
11.6218

> <Gold.Chemscore.DG>
-13.1249

> <Gold.Chemscore.ZeroCoef>
-5.4800

> <Gold.Chemscore.Hbond>
3.1985

> <Gold.Chemscore.Metal>
0.0000

> <Gold.Chemscore.Lipo>
28.2127

> <Gold.Chemscore.Internal_Hbond>
0.0000

> <Gold.Chemscore.DEClash>
0.0000

> <Gold.Chemscore.DEInternal>
1.5031

> <Gold.Chemscore.Rot>
2.4762

> <Gold.Chemscore.Internal.Correction>
   9.000000E+99

> <Gold.Chemscore.Hbonds>
donor molecule, donor type, donor heavy atom, donor atom, acceptor molecule, acceptor atom, score
      L1  H    15    19       P1  8028  0.71
      P1  H  6896  6909       L1     1  0.77
      P1  H  7989  7998       L1    17  0.12
      P1  H  7997  8010       L1     3  0.79
      P1  H 10752 10763       L1     7  0.40

> <Gold.Chemscore.Hbond.Weighted>
-10.6831

> <Gold.Chemscore.Metal.Weighted>
-0.0000

> <Gold.Chemscore.Lipo.Weighted>
-3.3009

> <Gold.Chemscore.Internal_Hbond.Weighted>
0.0000

> <Gold.Chemscore.DEClash.Weighted>
0.0000

> <Gold.Chemscore.DEInternal.Weighted>
1.5031

> <Gold.Chemscore.Rot.Weighted>
6.3391

> <Gold.Chemscore.Internal.Correction.Weighted>
   9.000000E+99

> <Gold.Protein.RotatedTorsions>
[ 6907 6896 6895 6894 ] final  157.67 input  -60.11 | X-H torsion
[ 7974 7965 7964 7962 ] final    2.53 input  175.53 | X-H torsion
[ 8008 7997 7996 7995 ] final    2.67 input   59.86 | X-H torsion
[ 10167 10162 10161 10158 ] final   -2.71 input  -65.29 | X-H torsion
[ 10718 10713 10712 10709 ] final  127.07 input   66.30 | X-H torsion
[ 10763 10752 10751 10750 ] final   51.54 input  -60.55 | X-H torsion
[ 11005 11000 10999 10996 ] final  100.57 input  -57.11 | X-H torsion

> <Gold.Protein.ActiveResidues>
 VAL166  LYS551  ARG553  GLY616  TRP617  ASP618  TYR619  PRO620  LYS621  CYS622 
 ASP623  PHE694  ASN695  SER759  ASP760  ASP761  ALA762  ILE779  LEU786  VAL792 
 PHE793  MET794  SER795  GLU796  ALA797  LYS798  CYS799  TRP800  GLU811  SER814 

> <Gold.Protein.RotatedAtoms>
  152.0117  133.3864  159.4222 H   0  0  0  0  0  0  0  0  0  0  0  0  # atno 6907 bound_to 6896
  150.6899  134.3722  159.5006 H   0  0  0  0  0  0  0  0  0  0  0  0  # atno 6908 bound_to 6896
  152.1484  134.9007  160.0600 H   0  0  0  0  0  0  0  0  0  0  0  0  # atno 6909 bound_to 6896
  146.2444  140.0822  142.8356 H   0  0  0  0  0  0  0  0  0  0  0  0  # atno 7974 bound_to 7965
  154.6943  140.2660  155.6781 H   0  0  0  0  0  0  0  0  0  0  0  0  # atno 8008 bound_to 7997
  156.2743  140.2785  156.1456 H   0  0  0  0  0  0  0  0  0  0  0  0  # atno 8009 bound_to 7997
  155.0852  140.0373  157.2642 H   0  0  0  0  0  0  0  0  0  0  0  0  # atno 8010 bound_to 7997
  140.6862  143.6625  150.8254 H   0  0  0  0  0  0  0  0  0  0  0  0  # atno 10167 bound_to 10162
  157.5365  131.1097  150.8927 H   0  0  0  0  0  0  0  0  0  0  0  0  # atno 10718 bound_to 10713
  152.9785  135.5842  154.4432 H   0  0  0  0  0  0  0  0  0  0  0  0  # atno 10763 bound_to 10752
  154.4030  135.2769  155.2086 H   0  0  0  0  0  0  0  0  0  0  0  0  # atno 10764 bound_to 10752
  154.3909  135.6125  153.5897 H   0  0  0  0  0  0  0  0  0  0  0  0  # atno 10765 bound_to 10752
  139.8771  134.9146  156.4776 H   0  0  0  0  0  0  0  0  0  0  0  0  # atno 11005 bound_to 11000
  145.0723  140.9164  143.4875 LP  0  0  0  0  0  0  0  0  0  0  0  0  # atno 17320 bound_to 7965
  145.0958  139.2857  143.5711 LP  0  0  0  0  0  0  0  0  0  0  0  0  # atno 17321 bound_to 7965
  140.0332  143.5422  152.2751 LP  0  0  0  0  0  0  0  0  0  0  0  0  # atno 17342 bound_to 10162
  139.6222  144.7631  151.2715 LP  0  0  0  0  0  0  0  0  0  0  0  0  # atno 17343 bound_to 10162
  156.9493  130.5413  149.5282 LP  0  0  0  0  0  0  0  0  0  0  0  0  # atno 17370 bound_to 10713
  156.0462  130.5538  150.8887 LP  0  0  0  0  0  0  0  0  0  0  0  0  # atno 17371 bound_to 10713
  140.8751  133.7959  155.9406 LP  0  0  0  0  0  0  0  0  0  0  0  0  # atno 17394 bound_to 11000
  140.8913  134.2492  157.5093 LP  0  0  0  0  0  0  0  0  0  0  0  0  # atno 17395 bound_to 11000

$$$$
