AV-unprocessed.smi:2904|AV-procd|sdf|11160|dock10
  -GOLD-   2272016 43D 1   1.00000     0.00000
 Structure written by MMmdl.
 39 40  0  0  0  0  0  0  0  0  1 V2000
  151.6153  138.7615  154.6794 C   0  0  0  0  0  0  0  0  0  0  0  0
  150.1218  138.8308  154.8207 C   0  0  0  0  0  0  0  0  0  0  0  0
  149.4168  137.7126  154.7960 N   0  0  0  0  0  0  0  0  0  0  0  0
  148.1370  138.1055  154.9645 N   0  0  0  0  0  0  0  0  0  0  0  0
  147.0770  137.1116  154.9567 C   0  0  0  0  0  0  0  0  0  0  0  0
  146.4146  137.1486  156.1123 F   0  0  0  0  0  0  0  0  0  0  0  0
  146.2364  137.3299  153.9441 F   0  0  0  0  0  0  0  0  0  0  0  0
  148.0330  139.4803  155.0589 C   0  0  0  0  0  0  0  0  0  0  0  0
  146.7176  140.1697  155.2231 C   0  0  0  0  0  0  0  0  0  0  0  0
  149.3030  139.9868  154.9793 C   0  0  0  0  0  0  0  0  0  0  0  0
  149.7532  141.4272  155.0412 C   0  0  0  0  0  0  0  0  0  0  0  0
  150.7533  141.6644  156.1800 C   0  0  0  0  0  0  0  0  0  0  0  0
  151.5229  140.7767  156.5518 O   0  0  0  0  0  0  0  0  0  0  0  0
  150.7270  142.8874  156.7308 N   0  0  0  0  0  0  0  0  0  0  0  0
  151.5863  143.3376  157.8220 C   0  0  0  0  0  0  0  0  0  0  0  0
  151.4960  142.3549  158.9985 C   0  0  0  0  0  0  0  0  0  0  0  0
  152.2799  142.8858  160.2098 C   0  0  0  0  0  0  0  0  0  0  0  0
  151.7973  144.1746  160.5745 O   0  0  0  0  0  0  0  0  0  0  0  0
  151.9756  145.1450  159.5482 C   0  0  0  0  0  0  0  0  0  0  0  0
  151.1776  144.7422  158.2975 C   0  0  0  0  0  0  0  0  0  0  0  0
  152.1025  139.5324  155.2770 H   0  0  0  0  0  0  0  0  0  0  0  0
  151.9148  138.9064  153.6414 H   0  0  0  0  0  0  0  0  0  0  0  0
  152.0047  137.7973  155.0081 H   0  0  0  0  0  0  0  0  0  0  0  0
  147.4903  136.1110  154.8319 H   0  0  0  0  0  0  0  0  0  0  0  0
  146.8296  141.2531  155.1870 H   0  0  0  0  0  0  0  0  0  0  0  0
  146.2654  139.9140  156.1814 H   0  0  0  0  0  0  0  0  0  0  0  0
  146.0260  139.8792  154.4319 H   0  0  0  0  0  0  0  0  0  0  0  0
  150.2208  141.7270  154.1026 H   0  0  0  0  0  0  0  0  0  0  0  0
  148.9069  142.1000  155.1806 H   0  0  0  0  0  0  0  0  0  0  0  0
  150.0647  143.5572  156.3668 H   0  0  0  0  0  0  0  0  0  0  0  0
  152.6229  143.3648  157.4800 H   0  0  0  0  0  0  0  0  0  0  0  0
  150.4529  142.2103  159.2837 H   0  0  0  0  0  0  0  0  0  0  0  0
  151.8792  141.3770  158.7052 H   0  0  0  0  0  0  0  0  0  0  0  0
  152.1594  142.2116  161.0577 H   0  0  0  0  0  0  0  0  0  0  0  0
  153.3478  142.9342  159.9913 H   0  0  0  0  0  0  0  0  0  0  0  0
  151.6322  146.1123  159.9155 H   0  0  0  0  0  0  0  0  0  0  0  0
  153.0359  145.2522  159.3146 H   0  0  0  0  0  0  0  0  0  0  0  0
  151.3340  145.4745  157.5046 H   0  0  0  0  0  0  0  0  0  0  0  0
  150.1124  144.7591  158.5323 H   0  0  0  0  0  0  0  0  0  0  0  0
  1  2  1  0  0  0  0
  1 21  1  0  0  0  0
  1 22  1  0  0  0  0
  1 23  1  0  0  0  0
  2 10  1  0  0  0  0
  2  3  2  0  0  0  0
  3  4  1  0  0  0  0
  4  5  1  0  0  0  0
  4  8  1  0  0  0  0
  5  6  1  0  0  0  0
  5  7  1  0  0  0  0
  5 24  1  0  0  0  0
  8  9  1  0  0  0  0
  8 10  2  0  0  0  0
  9 25  1  0  0  0  0
  9 26  1  0  0  0  0
  9 27  1  0  0  0  0
 10 11  1  0  0  0  0
 11 12  1  0  0  0  0
 11 28  1  0  0  0  0
 11 29  1  0  0  0  0
 12 13  2  0  0  0  0
 12 14  1  0  0  0  0
 14 15  1  0  0  0  0
 14 30  1  0  0  0  0
 15 20  1  0  0  0  0
 15 16  1  0  0  0  0
 15 31  1  0  0  0  0
 16 17  1  0  0  0  0
 16 32  1  0  0  0  0
 16 33  1  0  0  0  0
 17 18  1  0  0  0  0
 17 34  1  0  0  0  0
 17 35  1  0  0  0  0
 18 19  1  0  0  0  0
 19 20  1  0  0  0  0
 19 36  1  0  0  0  0
 19 37  1  0  0  0  0
 20 38  1  0  0  0  0
 20 39  1  0  0  0  0
M  END
> <s_m_source_file>
AV-unprocessed.smi

> <i_m_source_file_index>
2904

> <i_lp_mmshare_version>
43012

> <i_f3d_flags>
0

> <s_epik_input>
W0NIM11jMW5uKFtDSF0oRilGKWMoW0NIM10pYzFbQ0gyXUMoPU8pW05IXVtDSF0yW0NIMl1bQ0gyXU9bQ0gyXVtDSDJdMg==

> <s_epik_cmdline>
J2VwaWtfcHl0aG9uJywgJy1waCcsICc3LjAnLCAnLXRuJywgJzgnLCAnLW1hJywgJzIwMCcsICctbWV0YWxfYmluZGluZycsICctaW1hZScsICc8aW5maWxlLm1hZT4nLCAnLW9tYWUnLCAnPG91dGZpbGUubWFlPic=

> <r_lp_tautomer_probability>
1

> <r_epik_Ionization_Penalty>
3.9362e-07

> <r_epik_Ionization_Penalty_Charging>
0

> <r_epik_Ionization_Penalty_Neutral>
3.9362e-07

> <r_epik_State_Penalty>
-0

> <r_epik_Charging_Adjusted_Penalty>
0

> <i_epik_Tot_Q>
0

> <i_epik_Tot_abs_Q>
0

> <r_epik_Metal_State_Penalty>
-0

> <b_epik_Metal_Only>
0

> <s_lp_Force_Field>
OPLS_2005

> <r_lp_Energy>
7.93396

> <b_lp_Chiralities_Consistent>
1

> <s_lp_Variant>
AV-unprocessed.smi:2904-1

> <Gold.Version>
5.8.1

> <Gold.Id.Protein>
6NUR|6NUR_protein|mol2

> <Gold.PLP.Fitness>
36.5818

> <Gold.PLP.PLP>
-34.4239

> <Gold.PLP.part.hbond>
-1.0000

> <Gold.PLP.part.metal>
0.0000

> <Gold.PLP.part.buried>
-5.3173

> <Gold.PLP.part.nonpolar>
-28.0859

> <Gold.PLP.part.repulsive>
0.3459

> <Gold.PLP.ligand.clash>
0.0000

> <Gold.PLP.ligand.torsion>
0.4306

> <Gold.PLP.Chemscore.Hbond>
1.0000

> <Gold.PLP.Chemscore.CHOScore>
0.0000

> <Gold.PLP.Chemscore.Metal>
0.0000

> <Gold.Chemscore.Hbonds>
donor molecule, donor type, donor heavy atom, donor atom, acceptor molecule, acceptor atom, score
      L1  H    14    30       P1  8028  1.00

> <Gold.PLP.Chemscore.Internal.Correction>
0.0192

> <Gold.Rescore>
     Score         DG    S(hbond)    S(metal)    S(lipo)     H(rot)  DE(clash)    DE(int)     intcor
     14.93     -15.51       1.00        0.00      88.71       1.44       0.13       0.44       ----

> <Gold.Chemscore.Fitness>
14.9344

> <Gold.Chemscore.DG>
-15.5076

> <Gold.Chemscore.ZeroCoef>
-5.4800

> <Gold.Chemscore.Hbond>
0.9999

> <Gold.Chemscore.Metal>
0.0000

> <Gold.Chemscore.Lipo>
88.7125

> <Gold.Chemscore.Internal_Hbond>
0.0000

> <Gold.Chemscore.DEClash>
0.1321

> <Gold.Chemscore.DEInternal>
0.4410

> <Gold.Chemscore.Rot>
1.4419

> <Gold.Chemscore.Internal.Correction>
   9.000000E+99

> <Gold.Chemscore.Hbonds>
donor molecule, donor type, donor heavy atom, donor atom, acceptor molecule, acceptor atom, score
      L1  H    14    30       P1  8028  1.00

> <Gold.Chemscore.Hbond.Weighted>
-3.3395

> <Gold.Chemscore.Metal.Weighted>
-0.0000

> <Gold.Chemscore.Lipo.Weighted>
-10.3794

> <Gold.Chemscore.Internal_Hbond.Weighted>
0.0000

> <Gold.Chemscore.DEClash.Weighted>
0.1321

> <Gold.Chemscore.DEInternal.Weighted>
0.4410

> <Gold.Chemscore.Rot.Weighted>
3.6913

> <Gold.Chemscore.Internal.Correction.Weighted>
   9.000000E+99

> <Gold.Protein.RotatedTorsions>
[ 6907 6896 6895 6894 ] final    4.35 input  -60.11 | X-H torsion
[ 7974 7965 7964 7962 ] final  -46.49 input  175.53 | X-H torsion
[ 8008 7997 7996 7995 ] final  -93.07 input   59.86 | X-H torsion
[ 10167 10162 10161 10158 ] final   91.29 input  -65.29 | X-H torsion
[ 10718 10713 10712 10709 ] final  -44.68 input   66.30 | X-H torsion
[ 10763 10752 10751 10750 ] final  102.57 input  -60.55 | X-H torsion
[ 11005 11000 10999 10996 ] final -174.94 input  -57.11 | X-H torsion

> <Gold.Protein.ActiveResidues>
 VAL166  LYS551  ARG553  GLY616  TRP617  ASP618  TYR619  PRO620  LYS621  CYS622 
 ASP623  PHE694  ASN695  SER759  ASP760  ASP761  ALA762  ILE779  LEU786  VAL792 
 PHE793  MET794  SER795  GLU796  ALA797  LYS798  CYS799  TRP800  GLU811  SER814 

> <Gold.Protein.RotatedAtoms>
  151.6399  135.1014  160.0138 H   0  0  0  0  0  0  0  0  0  0  0  0  # atno 6907 bound_to 6896
  152.4060  133.6885  159.6365 H   0  0  0  0  0  0  0  0  0  0  0  0  # atno 6908 bound_to 6896
  150.7954  133.8625  159.3277 H   0  0  0  0  0  0  0  0  0  0  0  0  # atno 6909 bound_to 6896
  145.9713  140.7380  142.9409 H   0  0  0  0  0  0  0  0  0  0  0  0  # atno 7974 bound_to 7965
  154.7310  140.0502  157.0726 H   0  0  0  0  0  0  0  0  0  0  0  0  # atno 8008 bound_to 7997
  155.0302  140.3157  155.4742 H   0  0  0  0  0  0  0  0  0  0  0  0  # atno 8009 bound_to 7997
  156.2841  140.2151  156.5423 H   0  0  0  0  0  0  0  0  0  0  0  0  # atno 8010 bound_to 7997
  139.8389  144.6651  150.9308 H   0  0  0  0  0  0  0  0  0  0  0  0  # atno 10167 bound_to 10162
  156.2361  130.4176  149.8816 H   0  0  0  0  0  0  0  0  0  0  0  0  # atno 10718 bound_to 10713
  153.3414  135.4006  155.1574 H   0  0  0  0  0  0  0  0  0  0  0  0  # atno 10763 bound_to 10752
  154.8644  135.3634  154.5341 H   0  0  0  0  0  0  0  0  0  0  0  0  # atno 10764 bound_to 10752
  153.5786  135.7077  153.5533 H   0  0  0  0  0  0  0  0  0  0  0  0  # atno 10765 bound_to 10752
  140.4688  134.6185  157.4873 H   0  0  0  0  0  0  0  0  0  0  0  0  # atno 11005 bound_to 11000
  144.6838  140.2754  143.7300 LP  0  0  0  0  0  0  0  0  0  0  0  0  # atno 17320 bound_to 7965
  145.7901  139.1924  143.2107 LP  0  0  0  0  0  0  0  0  0  0  0  0  # atno 17321 bound_to 7965
  140.7800  143.3931  151.1276 LP  0  0  0  0  0  0  0  0  0  0  0  0  # atno 17342 bound_to 10162
  139.7579  143.8680  152.3093 LP  0  0  0  0  0  0  0  0  0  0  0  0  # atno 17343 bound_to 10162
  156.6414  130.8706  151.3514 LP  0  0  0  0  0  0  0  0  0  0  0  0  # atno 17370 bound_to 10713
  157.7155  130.9492  150.1239 LP  0  0  0  0  0  0  0  0  0  0  0  0  # atno 17371 bound_to 10713
  139.9898  134.7003  155.9709 LP  0  0  0  0  0  0  0  0  0  0  0  0  # atno 17394 bound_to 11000
  141.1587  133.6540  156.4245 LP  0  0  0  0  0  0  0  0  0  0  0  0  # atno 17395 bound_to 11000

$$$$
