AV-unprocessed.smi:34|AV-procd|sdf|215|dock6
  -GOLD-   2262015523D 1   1.00000     0.00000
 Structure written by MMmdl.
 55 59  0  0  0  0  0  0  0  0  1 V2000
  152.6409  140.2755  158.6290 O   0  0  0  0  0  0  0  0  0  0  0  0
  152.0025  141.1918  158.1103 C   0  0  0  0  0  0  0  0  0  0  0  0
  151.2591  141.0141  156.8756 N   0  0  0  0  0  0  0  0  0  0  0  0
  151.1142  139.8868  156.1407 C   0  0  0  0  0  0  0  0  0  0  0  0
  150.9205  139.9114  154.7960 N   0  0  0  0  0  0  0  0  0  0  0  0
  150.7648  138.7708  154.1188 C   0  0  0  0  0  0  0  0  0  0  0  0
  150.7653  137.5198  154.5831 N   0  0  0  0  0  0  0  0  0  0  0  0
  150.9674  137.4834  155.9316 C   0  0  0  0  0  0  0  0  0  0  0  0
  151.1533  138.6168  156.7722 C   0  0  0  0  0  0  0  0  0  0  0  0
  151.3345  138.2051  158.0855 N   0  0  0  0  0  0  0  0  0  0  0  0
  151.2532  136.9037  158.0209 C   0  0  0  0  0  0  0  0  0  0  0  0
  151.0218  136.3840  156.7664 N   0  0  0  0  0  0  0  0  0  0  0  0
  150.8668  134.9396  156.4070 C   0  0  2  0  0  0  0  0  0  0  0  0
  152.0588  134.2713  156.7113 O   0  0  0  0  0  0  0  0  0  0  0  0
  152.6266  133.7192  155.5243 C   0  0  1  0  0  0  0  0  0  0  0  0
  153.4300  132.4498  155.8349 C   0  0  0  0  0  0  0  0  0  0  0  0
  153.0716  131.4359  154.9100 O   0  0  0  0  0  0  0  0  0  0  0  0
  153.6493  130.2213  154.9793 C   0  0  0  0  0  0  0  0  0  0  0  0
  154.6776  129.9905  155.6187 O   0  0  0  0  0  0  0  0  0  0  0  0
  152.9106  129.1833  154.2033 C   0  0  0  0  0  0  0  0  0  0  0  0
  151.6937  129.5267  153.5693 C   0  0  0  0  0  0  0  0  0  0  0  0
  150.9750  128.5683  152.8282 C   0  0  0  0  0  0  0  0  0  0  0  0
  151.4644  127.2543  152.7122 C   0  0  0  0  0  0  0  0  0  0  0  0
  152.6740  126.8999  153.3375 C   0  0  0  0  0  0  0  0  0  0  0  0
  153.3944  127.8571  154.0787 C   0  0  0  0  0  0  0  0  0  0  0  0
  151.4198  133.5152  154.6094 C   0  0  1  0  0  0  0  0  0  0  0  0
  150.7570  132.4211  154.9976 F   0  0  0  0  0  0  0  0  0  0  0  0
  150.6112  134.7667  154.9030 C   0  0  1  0  0  0  0  0  0  0  0  0
  149.2510  134.5664  154.5749 O   0  0  0  0  0  0  0  0  0  0  0  0
  152.0162  142.5824  158.6757 C   0  0  0  0  0  0  0  0  0  0  0  0
  151.2697  143.6064  158.0504 C   0  0  0  0  0  0  0  0  0  0  0  0
  151.2822  144.9164  158.5679 C   0  0  0  0  0  0  0  0  0  0  0  0
  152.0478  145.2155  159.7106 C   0  0  0  0  0  0  0  0  0  0  0  0
  152.8045  144.2047  160.3327 C   0  0  0  0  0  0  0  0  0  0  0  0
  152.7927  142.8941  159.8162 C   0  0  0  0  0  0  0  0  0  0  0  0
  150.7994  141.8374  156.5151 H   0  0  0  0  0  0  0  0  0  0  0  0
  150.6159  138.8761  153.0542 H   0  0  0  0  0  0  0  0  0  0  0  0
  151.3504  136.2815  158.8988 H   0  0  0  0  0  0  0  0  0  0  0  0
  150.0613  134.5650  157.0400 H   0  0  0  0  0  0  0  0  0  0  0  0
  153.2915  134.4586  155.0792 H   0  0  0  0  0  0  0  0  0  0  0  0
  154.4982  132.6540  155.7519 H   0  0  0  0  0  0  0  0  0  0  0  0
  153.2397  132.1177  156.8566 H   0  0  0  0  0  0  0  0  0  0  0  0
  151.2981  130.5296  153.6437 H   0  0  0  0  0  0  0  0  0  0  0  0
  150.0473  128.8425  152.3481 H   0  0  0  0  0  0  0  0  0  0  0  0
  150.9128  126.5196  152.1441 H   0  0  0  0  0  0  0  0  0  0  0  0
  153.0518  125.8920  153.2485 H   0  0  0  0  0  0  0  0  0  0  0  0
  154.3196  127.5516  154.5450 H   0  0  0  0  0  0  0  0  0  0  0  0
  151.6828  133.3988  153.5575 H   0  0  0  0  0  0  0  0  0  0  0  0
  151.0159  135.6145  154.3488 H   0  0  0  0  0  0  0  0  0  0  0  0
  149.0529  135.0725  153.8017 H   0  0  0  0  0  0  0  0  0  0  0  0
  150.6760  143.3927  157.1728 H   0  0  0  0  0  0  0  0  0  0  0  0
  150.7032  145.6917  158.0879 H   0  0  0  0  0  0  0  0  0  0  0  0
  152.0569  146.2197  160.1079 H   0  0  0  0  0  0  0  0  0  0  0  0
  153.3957  144.4352  161.2067 H   0  0  0  0  0  0  0  0  0  0  0  0
  153.3862  142.1353  160.3053 H   0  0  0  0  0  0  0  0  0  0  0  0
  1  2  2  0  0  0  0
  2  3  1  0  0  0  0
  2 30  1  0  0  0  0
  3  4  1  0  0  0  0
  3 36  1  0  0  0  0
  4  9  1  0  0  0  0
  4  5  2  0  0  0  0
  5  6  1  0  0  0  0
  6  7  2  0  0  0  0
  6 37  1  0  0  0  0
  7  8  1  0  0  0  0
  8 12  1  0  0  0  0
  8  9  2  0  0  0  0
  9 10  1  0  0  0  0
 10 11  2  0  0  0  0
 11 12  1  0  0  0  0
 11 38  1  0  0  0  0
 12 13  1  0  0  0  0
 13 28  1  0  0  0  0
 13 14  1  0  0  0  0
 13 39  1  0  0  0  0
 14 15  1  0  0  0  0
 15 16  1  0  0  0  0
 15 26  1  0  0  0  0
 15 40  1  0  0  0  0
 16 17  1  0  0  0  0
 16 41  1  0  0  0  0
 16 42  1  0  0  0  0
 17 18  1  0  0  0  0
 18 19  2  0  0  0  0
 18 20  1  0  0  0  0
 20 25  1  0  0  0  0
 20 21  2  0  0  0  0
 21 22  1  0  0  0  0
 21 43  1  0  0  0  0
 22 23  2  0  0  0  0
 22 44  1  0  0  0  0
 23 24  1  0  0  0  0
 23 45  1  0  0  0  0
 24 25  2  0  0  0  0
 24 46  1  0  0  0  0
 25 47  1  0  0  0  0
 26 27  1  0  0  0  0
 26 28  1  0  0  0  0
 26 48  1  0  0  0  0
 28 29  1  0  0  0  0
 28 49  1  0  0  0  0
 29 50  1  0  0  0  0
 30 35  1  0  0  0  0
 30 31  2  0  0  0  0
 31 32  1  0  0  0  0
 31 51  1  0  0  0  0
 32 33  2  0  0  0  0
 32 52  1  0  0  0  0
 33 34  1  0  0  0  0
 33 53  1  0  0  0  0
 34 35  2  0  0  0  0
 34 54  1  0  0  0  0
 35 55  1  0  0  0  0
M  END
> <s_m_source_file>
AV-unprocessed.smi

> <i_m_source_file_index>
34

> <i_lp_mmshare_version>
43012

> <i_f3d_flags>
0

> <s_epik_input>
W2NIXTFbY0hdW2NIXVtjSF1bY0hdYzFDKD1PKVtOSF1jKG5bY0hdbjIpYyhjMjMpbltjSF1uM1tDQEBIXTRPW0NASF0oW0NAQEhdKEYpW0NASF00W09IXSlbQ0gyXU9DKD1PKWM1W2NIXVtjSF1bY0hdW2NIXVtjSF01

> <s_epik_cmdline>
J2VwaWtfcHl0aG9uJywgJy1waCcsICc3LjAnLCAnLXRuJywgJzgnLCAnLW1hJywgJzIwMCcsICctbWV0YWxfYmluZGluZycsICctaW1hZScsICc8aW5maWxlLm1hZT4nLCAnLW9tYWUnLCAnPG91dGZpbGUubWFlPic=

> <r_lp_tautomer_probability>
1

> <r_epik_Ionization_Penalty>
0.00257489

> <r_epik_Ionization_Penalty_Charging>
0

> <r_epik_Ionization_Penalty_Neutral>
0.00257489

> <r_epik_State_Penalty>
0.00519398

> <r_epik_Charging_Adjusted_Penalty>
0.00519398

> <i_epik_Tot_Q>
0

> <i_epik_Tot_abs_Q>
0

> <r_epik_Metal_State_Penalty>
0.335891

> <b_epik_Metal_Only>
0

> <s_epik_Chemistry_Notes>
This compound has an ester and may undergo hydrolysis at high or low pH. This compound contains an acetal/aminal-like group ( X-CH(R)-Y where X, Y are N, S, or O) that may be acid/base labile, releasing an aldehyde.

> <s_lp_Force_Field>
OPLS_2005

> <r_lp_Energy>
46.7099

> <b_lp_Chiralities_Consistent>
1

> <s_lp_Variant>
AV-unprocessed.smi:34-1

> <Gold.Version>
5.8.1

> <Gold.Id.Protein>
6NUR|6NUR_protein|mol2

> <Gold.PLP.Fitness>
61.2247

> <Gold.PLP.PLP>
-53.1501

> <Gold.PLP.part.hbond>
-2.9265

> <Gold.PLP.part.metal>
0.0000

> <Gold.PLP.part.buried>
-9.4408

> <Gold.PLP.part.nonpolar>
-40.2625

> <Gold.PLP.part.repulsive>
0.3415

> <Gold.PLP.ligand.clash>
0.0000

> <Gold.PLP.ligand.torsion>
1.0489

> <Gold.PLP.Chemscore.Hbond>
2.2795

> <Gold.PLP.Chemscore.CHOScore>
1.0000

> <Gold.PLP.Chemscore.Metal>
0.0000

> <Gold.Chemscore.Hbonds>
donor molecule, donor type, donor heavy atom, donor atom, acceptor molecule, acceptor atom, score
      L1  H    29    50       P1  7948  0.50
      P1  H  7989  7998       L1     5  0.90
      L1  C     6    37       P1  7957  1.00

> <Gold.PLP.Chemscore.Internal.Correction>
0.3340

> <Gold.Rescore>
     Score         DG    S(hbond)    S(metal)    S(lipo)     H(rot)  DE(clash)    DE(int)     intcor
     11.95     -19.01       1.96        0.00     119.18       2.72       0.19       6.88       ----

> <Gold.Chemscore.Fitness>
11.9509

> <Gold.Chemscore.DG>
-19.0142

> <Gold.Chemscore.ZeroCoef>
-5.4800

> <Gold.Chemscore.Hbond>
1.9631

> <Gold.Chemscore.Metal>
0.0000

> <Gold.Chemscore.Lipo>
119.1823

> <Gold.Chemscore.Internal_Hbond>
0.0000

> <Gold.Chemscore.DEClash>
0.1868

> <Gold.Chemscore.DEInternal>
6.8765

> <Gold.Chemscore.Rot>
2.7215

> <Gold.Chemscore.Internal.Correction>
   9.000000E+99

> <Gold.Chemscore.Hbonds>
donor molecule, donor type, donor heavy atom, donor atom, acceptor molecule, acceptor atom, score
      L1  H    29    50       P1  7948  0.22
      P1  H  7989  7998       L1     5  0.18

> <Gold.Chemscore.Hbond.Weighted>
-6.5569

> <Gold.Chemscore.Metal.Weighted>
-0.0000

> <Gold.Chemscore.Lipo.Weighted>
-13.9443

> <Gold.Chemscore.Internal_Hbond.Weighted>
0.0000

> <Gold.Chemscore.DEClash.Weighted>
0.1868

> <Gold.Chemscore.DEInternal.Weighted>
6.8765

> <Gold.Chemscore.Rot.Weighted>
6.9670

> <Gold.Chemscore.Internal.Correction.Weighted>
   9.000000E+99

> <Gold.Protein.RotatedTorsions>
[ 6907 6896 6895 6894 ] final  126.47 input  -60.11 | X-H torsion
[ 7974 7965 7964 7962 ] final  -95.78 input  175.53 | X-H torsion
[ 8008 7997 7996 7995 ] final  -84.76 input   59.86 | X-H torsion
[ 10167 10162 10161 10158 ] final  147.68 input  -65.29 | X-H torsion
[ 10718 10713 10712 10709 ] final   12.22 input   66.30 | X-H torsion
[ 10763 10752 10751 10750 ] final  173.22 input  -60.55 | X-H torsion
[ 11005 11000 10999 10996 ] final   86.61 input  -57.11 | X-H torsion

> <Gold.Protein.ActiveResidues>
 VAL166  LYS551  ARG553  GLY616  TRP617  ASP618  TYR619  PRO620  LYS621  CYS622 
 ASP623  PHE694  ASN695  SER759  ASP760  ASP761  ALA762  ILE779  LEU786  VAL792 
 PHE793  MET794  SER795  GLU796  ALA797  LYS798  CYS799  TRP800  GLU811  SER814 

> <Gold.Protein.RotatedAtoms>
  152.3900  133.6666  159.6229 H   0  0  0  0  0  0  0  0  0  0  0  0  # atno 6907 bound_to 6896
  150.7811  133.8970  159.3339 H   0  0  0  0  0  0  0  0  0  0  0  0  # atno 6908 bound_to 6896
  151.6758  135.0970  160.0258 H   0  0  0  0  0  0  0  0  0  0  0  0  # atno 6909 bound_to 6896
  145.3555  140.9483  143.2530 H   0  0  0  0  0  0  0  0  0  0  0  0  # atno 7974 bound_to 7965
  154.6333  140.0600  156.9758 H   0  0  0  0  0  0  0  0  0  0  0  0  # atno 8008 bound_to 7997
  155.1632  140.3284  155.4389 H   0  0  0  0  0  0  0  0  0  0  0  0  # atno 8009 bound_to 7997
  156.2494  140.1927  156.6738 H   0  0  0  0  0  0  0  0  0  0  0  0  # atno 8010 bound_to 7997
  139.4886  144.5737  151.7006 H   0  0  0  0  0  0  0  0  0  0  0  0  # atno 10167 bound_to 10162
  157.0069  130.6102  149.5703 H   0  0  0  0  0  0  0  0  0  0  0  0  # atno 10718 bound_to 10713
  154.4370  135.2761  155.1873 H   0  0  0  0  0  0  0  0  0  0  0  0  # atno 10763 bound_to 10752
  154.3755  135.6099  153.5766 H   0  0  0  0  0  0  0  0  0  0  0  0  # atno 10764 bound_to 10752
  152.9839  135.5868  154.4691 H   0  0  0  0  0  0  0  0  0  0  0  0  # atno 10765 bound_to 10752
  139.8940  134.8367  156.2745 H   0  0  0  0  0  0  0  0  0  0  0  0  # atno 11005 bound_to 11000
  144.8686  139.5072  143.6778 LP  0  0  0  0  0  0  0  0  0  0  0  0  # atno 17320 bound_to 7965
  146.2950  139.7250  142.9133 LP  0  0  0  0  0  0  0  0  0  0  0  0  # atno 17321 bound_to 7965
  140.5329  144.0702  150.6060 LP  0  0  0  0  0  0  0  0  0  0  0  0  # atno 17342 bound_to 10162
  140.3698  143.2861  152.0291 LP  0  0  0  0  0  0  0  0  0  0  0  0  # atno 17343 bound_to 10162
  156.0150  130.5244  150.8107 LP  0  0  0  0  0  0  0  0  0  0  0  0  # atno 17370 bound_to 10713
  157.5349  131.0938  150.9906 LP  0  0  0  0  0  0  0  0  0  0  0  0  # atno 17371 bound_to 10713
  141.0079  133.7113  156.1064 LP  0  0  0  0  0  0  0  0  0  0  0  0  # atno 17394 bound_to 11000
  140.7408  134.4152  157.5555 LP  0  0  0  0  0  0  0  0  0  0  0  0  # atno 17395 bound_to 11000

$$$$
