AV-unprocessed.smi:2121|AV-procd|sdf|8645|dock1
  -GOLD-   2272011393D 1   1.00000     0.00000
 Structure written by MMmdl.
 49 50  0  0  0  0  0  0  0  0  1 V2000
  151.8094  145.0156  158.7778 C   0  0  0  0  0  0  0  0  0  0  0  0
  151.9270  143.6448  159.4525 C   0  0  1  0  0  0  0  0  0  0  0  0
  151.3265  142.5244  158.5851 C   0  0  0  0  0  0  0  0  0  0  0  0
  151.5658  141.2235  159.2023 N   0  0  0  0  0  0  0  0  0  0  0  0
  150.8407  140.1143  158.7191 C   0  0  0  0  0  0  0  0  0  0  0  0
  151.4222  138.8254  158.7443 C   0  0  0  0  0  0  0  0  0  0  0  0
  150.6850  137.7293  158.2580 C   0  0  0  0  0  0  0  0  0  0  0  0
  149.3851  137.9471  157.7518 C   0  0  0  0  0  0  0  0  0  0  0  0
  148.5148  136.8193  157.2106 C   0  0  0  0  0  0  0  0  0  0  0  0
  147.8059  136.0515  158.2294 N   0  0  0  0  0  0  0  0  0  0  0  0
  148.2864  134.9596  158.8429 C   0  0  0  0  0  0  0  0  0  0  0  0
  149.3789  134.4581  158.5720 O   0  0  0  0  0  0  0  0  0  0  0  0
  147.3914  134.3451  159.9304 C   0  0  1  0  0  0  0  0  0  0  0  0
  147.2223  132.8461  159.6330 C   0  0  0  0  0  0  0  0  0  0  0  0
  148.0158  134.4837  161.2455 N   0  0  0  0  0  0  0  0  0  0  0  0
  148.3687  135.6476  161.8115 C   0  0  0  0  0  0  0  0  0  0  0  0
  148.9365  135.4795  163.0060 N   0  0  0  0  0  0  0  0  0  0  0  0
  148.1975  136.7525  161.2997 O   0  0  0  0  0  0  0  0  0  0  0  0
  148.8868  139.2651  157.7758 C   0  0  0  0  0  0  0  0  0  0  0  0
  149.5873  140.3190  158.2449 N   0  0  0  0  0  0  0  0  0  0  0  0
  152.9750  140.9730  159.4879 C   0  0  0  0  0  0  0  0  0  0  0  0
  153.5864  142.1260  160.3081 C   0  0  2  0  0  0  0  0  0  0  0  0
  153.1696  142.1105  161.7896 C   0  0  0  0  0  0  0  0  0  0  0  0
  153.3109  143.3815  159.6821 O   0  0  0  0  0  0  0  0  0  0  0  0
  150.7668  145.2717  158.5883 H   0  0  0  0  0  0  0  0  0  0  0  0
  152.3374  145.0327  157.8238 H   0  0  0  0  0  0  0  0  0  0  0  0
  152.2340  145.7973  159.4081 H   0  0  0  0  0  0  0  0  0  0  0  0
  151.3992  143.6924  160.4051 H   0  0  0  0  0  0  0  0  0  0  0  0
  150.2554  142.6931  158.4658 H   0  0  0  0  0  0  0  0  0  0  0  0
  151.7722  142.5366  157.5895 H   0  0  0  0  0  0  0  0  0  0  0  0
  152.4131  138.6646  159.1426 H   0  0  0  0  0  0  0  0  0  0  0  0
  151.1210  136.7417  158.2824 H   0  0  0  0  0  0  0  0  0  0  0  0
  147.7737  137.2539  156.5396 H   0  0  0  0  0  0  0  0  0  0  0  0
  149.1246  136.1490  156.6023 H   0  0  0  0  0  0  0  0  0  0  0  0
  146.8979  136.3932  158.5097 H   0  0  0  0  0  0  0  0  0  0  0  0
  146.4125  134.8288  159.9344 H   0  0  0  0  0  0  0  0  0  0  0  0
  146.7568  132.6864  158.6596 H   0  0  0  0  0  0  0  0  0  0  0  0
  146.5832  132.3717  160.3785 H   0  0  0  0  0  0  0  0  0  0  0  0
  148.1780  132.3195  159.6354 H   0  0  0  0  0  0  0  0  0  0  0  0
  148.2084  133.6299  161.7480 H   0  0  0  0  0  0  0  0  0  0  0  0
  149.2451  136.2787  163.5394 H   0  0  0  0  0  0  0  0  0  0  0  0
  149.0523  134.5466  163.3746 H   0  0  0  0  0  0  0  0  0  0  0  0
  147.8947  139.4826  157.4082 H   0  0  0  0  0  0  0  0  0  0  0  0
  153.1240  140.0322  160.0164 H   0  0  0  0  0  0  0  0  0  0  0  0
  153.5021  140.8823  158.5372 H   0  0  0  0  0  0  0  0  0  0  0  0
  154.6701  142.0083  160.2860 H   0  0  0  0  0  0  0  0  0  0  0  0
  153.5099  141.1958  162.2755 H   0  0  0  0  0  0  0  0  0  0  0  0
  152.0883  142.1596  161.9167 H   0  0  0  0  0  0  0  0  0  0  0  0
  153.6088  142.9516  162.3262 H   0  0  0  0  0  0  0  0  0  0  0  0
  1  2  1  0  0  0  0
  1 25  1  0  0  0  0
  1 26  1  0  0  0  0
  1 27  1  0  0  0  0
  2 24  1  0  0  0  0
  2  3  1  0  0  0  0
  2 28  1  0  0  0  0
  3  4  1  0  0  0  0
  3 29  1  0  0  0  0
  3 30  1  0  0  0  0
  4  5  1  0  0  0  0
  4 21  1  0  0  0  0
  5 20  1  0  0  0  0
  5  6  2  0  0  0  0
  6  7  1  0  0  0  0
  6 31  1  0  0  0  0
  7  8  2  0  0  0  0
  7 32  1  0  0  0  0
  8  9  1  0  0  0  0
  8 19  1  0  0  0  0
  9 10  1  0  0  0  0
  9 33  1  0  0  0  0
  9 34  1  0  0  0  0
 10 11  1  0  0  0  0
 10 35  1  0  0  0  0
 11 12  2  0  0  0  0
 11 13  1  0  0  0  0
 13 14  1  0  0  0  0
 13 15  1  0  0  0  0
 13 36  1  0  0  0  0
 14 37  1  0  0  0  0
 14 38  1  0  0  0  0
 14 39  1  0  0  0  0
 15 16  1  0  0  0  0
 15 40  1  0  0  0  0
 16 17  1  0  0  0  0
 16 18  2  0  0  0  0
 17 41  1  0  0  0  0
 17 42  1  0  0  0  0
 19 20  2  0  0  0  0
 19 43  1  0  0  0  0
 21 22  1  0  0  0  0
 21 44  1  0  0  0  0
 21 45  1  0  0  0  0
 22 23  1  0  0  0  0
 22 24  1  0  0  0  0
 22 46  1  0  0  0  0
 23 47  1  0  0  0  0
 23 48  1  0  0  0  0
 23 49  1  0  0  0  0
M  END
> <s_m_source_file>
AV-unprocessed.smi

> <i_m_source_file_index>
2121

> <i_lp_mmshare_version>
43012

> <i_f3d_flags>
0

> <s_epik_input>
W0NIM11bQ0BASF0xW0NIMl1OKFtDSDJdW0NASF0oTzEpW0NIM10pYzJbY0hdW2NIXWMoW2NIXW4yKVtDSDJdW05IXUMoPU8pW0NASF0oW0NIM10pW05IXUMoPU8pW05IMl0=

> <s_epik_cmdline>
J2VwaWtfcHl0aG9uJywgJy1waCcsICc3LjAnLCAnLXRuJywgJzgnLCAnLW1hJywgJzIwMCcsICctbWV0YWxfYmluZGluZycsICctaW1hZScsICc8aW5maWxlLm1hZT4nLCAnLW9tYWUnLCAnPG91dGZpbGUubWFlPic=

> <r_lp_tautomer_probability>
1

> <r_epik_Ionization_Penalty>
0.0063713

> <r_epik_Ionization_Penalty_Charging>
0

> <r_epik_Ionization_Penalty_Neutral>
0.0063713

> <r_epik_State_Penalty>
0.00467069

> <r_epik_Charging_Adjusted_Penalty>
0.00467069

> <i_epik_Tot_Q>
0

> <i_epik_Tot_abs_Q>
0

> <r_epik_Metal_State_Penalty>
-0

> <b_epik_Metal_Only>
0

> <s_lp_Force_Field>
OPLS_2005

> <r_lp_Energy>
11.1976

> <b_lp_Chiralities_Consistent>
1

> <s_lp_Variant>
AV-unprocessed.smi:2121-6

> <Gold.Version>
5.8.1

> <Gold.Id.Protein>
6NUR|6NUR_protein|mol2

> <Gold.PLP.Fitness>
43.5187

> <Gold.PLP.PLP>
-36.7976

> <Gold.PLP.part.hbond>
-3.0000

> <Gold.PLP.part.metal>
0.0000

> <Gold.PLP.part.buried>
-6.2763

> <Gold.PLP.part.nonpolar>
-27.8653

> <Gold.PLP.part.repulsive>
0.2481

> <Gold.PLP.ligand.clash>
0.0000

> <Gold.PLP.ligand.torsion>
1.0781

> <Gold.PLP.Chemscore.Hbond>
2.7920

> <Gold.PLP.Chemscore.CHOScore>
0.0000

> <Gold.PLP.Chemscore.Metal>
0.0000

> <Gold.Chemscore.Hbonds>
donor molecule, donor type, donor heavy atom, donor atom, acceptor molecule, acceptor atom, score
      P1  H  6896  6909       L1    12  1.00
      P1  H  6931  6943       L1    18  1.00

> <Gold.PLP.Chemscore.Internal.Correction>
0.5013

> <Gold.Rescore>
     Score         DG    S(hbond)    S(metal)    S(lipo)     H(rot)  DE(clash)    DE(int)     intcor
     16.35     -17.45       2.54        0.00      86.29       2.58       0.07       1.03       ----

> <Gold.Chemscore.Fitness>
16.3498

> <Gold.Chemscore.DG>
-17.4533

> <Gold.Chemscore.ZeroCoef>
-5.4800

> <Gold.Chemscore.Hbond>
2.5426

> <Gold.Chemscore.Metal>
0.0000

> <Gold.Chemscore.Lipo>
86.2869

> <Gold.Chemscore.Internal_Hbond>
0.0000

> <Gold.Chemscore.DEClash>
0.0738

> <Gold.Chemscore.DEInternal>
1.0297

> <Gold.Chemscore.Rot>
2.5838

> <Gold.Chemscore.Internal.Correction>
   9.000000E+99

> <Gold.Chemscore.Hbonds>
donor molecule, donor type, donor heavy atom, donor atom, acceptor molecule, acceptor atom, score
      P1  H  6896  6909       L1    12  0.93
      P1  H  6931  6943       L1    18  0.99
      P1  H  6934  6947       L1    18  0.01

> <Gold.Chemscore.Hbond.Weighted>
-8.4922

> <Gold.Chemscore.Metal.Weighted>
-0.0000

> <Gold.Chemscore.Lipo.Weighted>
-10.0956

> <Gold.Chemscore.Internal_Hbond.Weighted>
0.0000

> <Gold.Chemscore.DEClash.Weighted>
0.0738

> <Gold.Chemscore.DEInternal.Weighted>
1.0297

> <Gold.Chemscore.Rot.Weighted>
6.6145

> <Gold.Chemscore.Internal.Correction.Weighted>
   9.000000E+99

> <Gold.Protein.RotatedTorsions>
[ 6907 6896 6895 6894 ] final   20.79 input  -60.11 | X-H torsion
[ 7974 7965 7964 7962 ] final   52.57 input  175.53 | X-H torsion
[ 8008 7997 7996 7995 ] final   30.98 input   59.86 | X-H torsion
[ 10167 10162 10161 10158 ] final  -79.06 input  -65.29 | X-H torsion
[ 10718 10713 10712 10709 ] final  133.77 input   66.30 | X-H torsion
[ 10763 10752 10751 10750 ] final  -33.08 input  -60.55 | X-H torsion
[ 11005 11000 10999 10996 ] final  158.91 input  -57.11 | X-H torsion

> <Gold.Protein.ActiveResidues>
 VAL166  LYS551  ARG553  GLY616  TRP617  ASP618  TYR619  PRO620  LYS621  CYS622 
 ASP623  PHE694  ASN695  SER759  ASP760  ASP761  ALA762  ILE779  LEU786  VAL792 
 PHE793  MET794  SER795  GLU796  ALA797  LYS798  CYS799  TRP800  GLU811  SER814 

> <Gold.Protein.RotatedAtoms>
  151.9018  135.0375  160.0506 H   0  0  0  0  0  0  0  0  0  0  0  0  # atno 6907 bound_to 6896
  152.2352  133.5085  159.5246 H   0  0  0  0  0  0  0  0  0  0  0  0  # atno 6908 bound_to 6896
  150.7037  134.1080  159.4032 H   0  0  0  0  0  0  0  0  0  0  0  0  # atno 6909 bound_to 6896
  145.9800  139.4233  143.0138 H   0  0  0  0  0  0  0  0  0  0  0  0  # atno 7974 bound_to 7965
  155.0991  140.3228  155.4552 H   0  0  0  0  0  0  0  0  0  0  0  0  # atno 8008 bound_to 7997
  156.2722  140.2064  156.6065 H   0  0  0  0  0  0  0  0  0  0  0  0  # atno 8009 bound_to 7997
  154.6843  140.0523  157.0285 H   0  0  0  0  0  0  0  0  0  0  0  0  # atno 8010 bound_to 7997
  140.4627  143.2449  151.8325 H   0  0  0  0  0  0  0  0  0  0  0  0  # atno 10167 bound_to 10162
  157.4740  131.1082  150.9766 H   0  0  0  0  0  0  0  0  0  0  0  0  # atno 10718 bound_to 10713
  153.8243  135.6871  153.4823 H   0  0  0  0  0  0  0  0  0  0  0  0  # atno 10763 bound_to 10752
  153.1550  135.4602  154.9689 H   0  0  0  0  0  0  0  0  0  0  0  0  # atno 10764 bound_to 10752
  154.7914  135.3303  154.7712 H   0  0  0  0  0  0  0  0  0  0  0  0  # atno 10765 bound_to 10752
  140.1910  134.8407  157.2912 H   0  0  0  0  0  0  0  0  0  0  0  0  # atno 11005 bound_to 11000
  145.7783  140.9867  143.1113 LP  0  0  0  0  0  0  0  0  0  0  0  0  # atno 17320 bound_to 7965
  144.6859  139.9533  143.7478 LP  0  0  0  0  0  0  0  0  0  0  0  0  # atno 17321 bound_to 7965
  139.4808  144.4988  151.9088 LP  0  0  0  0  0  0  0  0  0  0  0  0  # atno 17342 bound_to 10162
  140.4074  144.2414  150.5890 LP  0  0  0  0  0  0  0  0  0  0  0  0  # atno 17343 bound_to 10162
  157.0522  130.5791  149.5372 LP  0  0  0  0  0  0  0  0  0  0  0  0  # atno 17370 bound_to 10713
  156.0087  130.5177  150.7918 LP  0  0  0  0  0  0  0  0  0  0  0  0  # atno 17371 bound_to 10713
  140.2159  134.4082  155.7589 LP  0  0  0  0  0  0  0  0  0  0  0  0  # atno 17394 bound_to 11000
  141.2226  133.7141  156.8413 LP  0  0  0  0  0  0  0  0  0  0  0  0  # atno 17395 bound_to 11000

$$$$
