AV-unprocessed.smi:1550|AV-procd|sdf|6225|dock9
  -GOLD-   22720 6403D 1   1.00000     0.00000
 Structure written by MMmdl.
 43 44  0  0  0  0  0  0  0  0  1 V2000
  150.0720  135.3620  156.2635 C   0  0  0  0  0  0  0  0  0  0  0  0
  149.3986  136.4901  157.0590 C   0  0  1  0  0  0  0  0  0  0  0  0
  148.9877  135.9463  158.3103 O   0  0  0  0  0  0  0  0  0  0  0  0
  148.3654  136.8640  159.2029 C   0  0  0  0  0  0  0  0  0  0  0  0
  148.0313  136.1287  160.5071 C   0  0  2  0  0  0  0  0  0  0  0  0
  146.9344  135.0648  160.3055 C   0  0  0  0  0  0  0  0  0  0  0  0
  146.5642  134.4121  161.6424 C   0  0  0  0  0  0  0  0  0  0  0  0
  146.2053  135.4958  162.6647 C   0  0  0  0  0  0  0  0  0  0  0  0
  147.3239  136.5465  162.7440 C   0  0  0  0  0  0  0  0  0  0  0  0
  147.5684  137.0923  161.4514 O   0  0  0  0  0  0  0  0  0  0  0  0
  150.3593  137.6699  157.2798 C   0  0  0  0  0  0  0  0  0  0  0  0
  151.5327  137.4480  157.5781 O   0  0  0  0  0  0  0  0  0  0  0  0
  149.8196  138.8940  157.1161 N   0  0  0  0  0  0  0  0  0  0  0  0
  150.4142  140.1558  157.2813 C   0  0  0  0  0  0  0  0  0  0  0  0
  151.3866  140.4404  158.1865 C   0  0  0  0  0  0  0  0  0  0  0  0
  151.9530  141.7722  158.3171 C   0  0  0  0  0  0  0  0  0  0  0  0
  153.0984  142.0580  159.2757 C   0  0  0  0  0  0  0  0  0  0  0  0
  153.4619  140.9590  159.9386 F   0  0  0  0  0  0  0  0  0  0  0  0
  154.1555  142.5026  158.5975 F   0  0  0  0  0  0  0  0  0  0  0  0
  152.7553  142.9894  160.1656 F   0  0  0  0  0  0  0  0  0  0  0  0
  151.4686  142.7144  157.4868 C   0  0  0  0  0  0  0  0  0  0  0  0
  150.4516  142.4360  156.5708 N   0  0  0  0  0  0  0  0  0  0  0  0
  149.8850  141.2191  156.4113 C   0  0  0  0  0  0  0  0  0  0  0  0
  148.9904  141.0544  155.5824 O   0  0  0  0  0  0  0  0  0  0  0  0
  150.1289  143.2015  155.9964 H   0  0  0  0  0  0  0  0  0  0  0  0
  150.4299  135.7177  155.2967 H   0  0  0  0  0  0  0  0  0  0  0  0
  149.3693  134.5500  156.0756 H   0  0  0  0  0  0  0  0  0  0  0  0
  150.9220  134.9414  156.8025 H   0  0  0  0  0  0  0  0  0  0  0  0
  148.5200  136.8233  156.5029 H   0  0  0  0  0  0  0  0  0  0  0  0
  148.9992  137.7269  159.4111 H   0  0  0  0  0  0  0  0  0  0  0  0
  147.4484  137.2351  158.7427 H   0  0  0  0  0  0  0  0  0  0  0  0
  148.9358  135.6476  160.8843 H   0  0  0  0  0  0  0  0  0  0  0  0
  146.0488  135.5271  159.8673 H   0  0  0  0  0  0  0  0  0  0  0  0
  147.2705  134.3027  159.6015 H   0  0  0  0  0  0  0  0  0  0  0  0
  145.7318  133.7201  161.5123 H   0  0  0  0  0  0  0  0  0  0  0  0
  147.4064  133.8248  162.0104 H   0  0  0  0  0  0  0  0  0  0  0  0
  145.2722  135.9798  162.3738 H   0  0  0  0  0  0  0  0  0  0  0  0
  146.0355  135.0494  163.6448 H   0  0  0  0  0  0  0  0  0  0  0  0
  147.0331  137.3525  163.4178 H   0  0  0  0  0  0  0  0  0  0  0  0
  148.2402  136.1110  163.1457 H   0  0  0  0  0  0  0  0  0  0  0  0
  148.8628  138.9196  156.7936 H   0  0  0  0  0  0  0  0  0  0  0  0
  151.7563  139.6837  158.8593 H   0  0  0  0  0  0  0  0  0  0  0  0
  151.8183  143.7359  157.4551 H   0  0  0  0  0  0  0  0  0  0  0  0
  1  2  1  0  0  0  0
  1 26  1  0  0  0  0
  1 27  1  0  0  0  0
  1 28  1  0  0  0  0
  2  3  1  0  0  0  0
  2 11  1  0  0  0  0
  2 29  1  0  0  0  0
  3  4  1  0  0  0  0
  4  5  1  0  0  0  0
  4 30  1  0  0  0  0
  4 31  1  0  0  0  0
  5 10  1  0  0  0  0
  5  6  1  0  0  0  0
  5 32  1  0  0  0  0
  6  7  1  0  0  0  0
  6 33  1  0  0  0  0
  6 34  1  0  0  0  0
  7  8  1  0  0  0  0
  7 35  1  0  0  0  0
  7 36  1  0  0  0  0
  8  9  1  0  0  0  0
  8 37  1  0  0  0  0
  8 38  1  0  0  0  0
  9 10  1  0  0  0  0
  9 39  1  0  0  0  0
  9 40  1  0  0  0  0
 11 12  2  0  0  0  0
 11 13  1  0  0  0  0
 13 14  1  0  0  0  0
 13 41  1  0  0  0  0
 14 23  1  0  0  0  0
 14 15  2  0  0  0  0
 15 16  1  0  0  0  0
 15 42  1  0  0  0  0
 16 17  1  0  0  0  0
 16 21  2  0  0  0  0
 17 18  1  0  0  0  0
 17 19  1  0  0  0  0
 17 20  1  0  0  0  0
 21 22  1  0  0  0  0
 21 43  1  0  0  0  0
 22 25  1  0  0  0  0
 22 23  1  0  0  0  0
 23 24  2  0  0  0  0
M  END
> <s_m_source_file>
AV-unprocessed.smi

> <i_m_source_file_index>
1550

> <i_lp_mmshare_version>
43012

> <i_f3d_flags>
0

> <s_epik_input>
TzFbQ0gyXVtDSDJdW0NIMl1bQ0gyXVtDQEhdMVtDSDJdT1tDQEBIXShbQ0gzXSlDKD1PKVtOSF1jMltjSF1jKEMoRikoRilGKVtjSF1bbkhdYzI9Tw==

> <s_epik_cmdline>
J2VwaWtfcHl0aG9uJywgJy1waCcsICc3LjAnLCAnLXRuJywgJzgnLCAnLW1hJywgJzIwMCcsICctbWV0YWxfYmluZGluZycsICctaW1hZScsICc8aW5maWxlLm1hZT4nLCAnLW9tYWUnLCAnPG91dGZpbGUubWFlPic=

> <r_lp_tautomer_probability>
0.999

> <r_epik_Ionization_Penalty>
0.00891333

> <r_epik_Ionization_Penalty_Charging>
0.00891323

> <r_epik_Ionization_Penalty_Neutral>
1.00146e-07

> <r_epik_State_Penalty>
0.00674197

> <r_epik_Charging_Adjusted_Penalty>
0.0156552

> <i_epik_Tot_Q>
0

> <i_epik_Tot_abs_Q>
0

> <r_epik_Metal_State_Penalty>
0.321024

> <b_epik_Metal_Only>
0

> <s_lp_Force_Field>
OPLS_2005

> <r_lp_Energy>
24.7831

> <b_lp_Chiralities_Consistent>
1

> <s_lp_Variant>
AV-unprocessed.smi:1550-2

> <Gold.Version>
5.8.1

> <Gold.Id.Protein>
6NUR|6NUR_protein|mol2

> <Gold.PLP.Fitness>
56.1366

> <Gold.PLP.PLP>
-46.5535

> <Gold.PLP.part.hbond>
-4.0000

> <Gold.PLP.part.metal>
0.0000

> <Gold.PLP.part.buried>
-7.1650

> <Gold.PLP.part.nonpolar>
-36.0587

> <Gold.PLP.part.repulsive>
0.1679

> <Gold.PLP.ligand.clash>
0.0000

> <Gold.PLP.ligand.torsion>
0.7344

> <Gold.PLP.Chemscore.Hbond>
3.6500

> <Gold.PLP.Chemscore.CHOScore>
0.0000

> <Gold.PLP.Chemscore.Metal>
0.0000

> <Gold.Chemscore.Hbonds>
donor molecule, donor type, donor heavy atom, donor atom, acceptor molecule, acceptor atom, score
      L1  H    22    25       P1  8028  1.00
      P1  H  6931  6943       L1    10  0.90
      P1  H  6934  6947       L1    10  0.86

> <Gold.PLP.Chemscore.Internal.Correction>
0.1020

> <Gold.Rescore>
     Score         DG    S(hbond)    S(metal)    S(lipo)     H(rot)  DE(clash)    DE(int)     intcor
     19.01     -20.68       2.85        0.00      89.17       1.86       0.07       1.60       ----

> <Gold.Chemscore.Fitness>
19.0064

> <Gold.Chemscore.DG>
-20.6765

> <Gold.Chemscore.ZeroCoef>
-5.4800

> <Gold.Chemscore.Hbond>
2.8495

> <Gold.Chemscore.Metal>
0.0000

> <Gold.Chemscore.Lipo>
89.1742

> <Gold.Chemscore.Internal_Hbond>
0.0000

> <Gold.Chemscore.DEClash>
0.0738

> <Gold.Chemscore.DEInternal>
1.5963

> <Gold.Chemscore.Rot>
1.8571

> <Gold.Chemscore.Internal.Correction>
   9.000000E+99

> <Gold.Chemscore.Hbonds>
donor molecule, donor type, donor heavy atom, donor atom, acceptor molecule, acceptor atom, score
      L1  H    22    25       P1  8028  0.93
      P1  H  6931  6943       L1    10  0.12
      P1  H  6934  6947       L1    10  0.77

> <Gold.Chemscore.Hbond.Weighted>
-9.5172

> <Gold.Chemscore.Metal.Weighted>
-0.0000

> <Gold.Chemscore.Lipo.Weighted>
-10.4334

> <Gold.Chemscore.Internal_Hbond.Weighted>
0.0000

> <Gold.Chemscore.DEClash.Weighted>
0.0738

> <Gold.Chemscore.DEInternal.Weighted>
1.5963

> <Gold.Chemscore.Rot.Weighted>
4.7541

> <Gold.Chemscore.Internal.Correction.Weighted>
   9.000000E+99

> <Gold.Protein.RotatedTorsions>
[ 6907 6896 6895 6894 ] final   72.82 input  -60.11 | X-H torsion
[ 7974 7965 7964 7962 ] final -141.00 input  175.53 | X-H torsion
[ 8008 7997 7996 7995 ] final  -21.40 input   59.86 | X-H torsion
[ 10167 10162 10161 10158 ] final  -71.23 input  -65.29 | X-H torsion
[ 10718 10713 10712 10709 ] final -172.86 input   66.30 | X-H torsion
[ 10763 10752 10751 10750 ] final  -15.99 input  -60.55 | X-H torsion
[ 11005 11000 10999 10996 ] final  -14.14 input  -57.11 | X-H torsion

> <Gold.Protein.ActiveResidues>
 VAL166  LYS551  ARG553  GLY616  TRP617  ASP618  TYR619  PRO620  LYS621  CYS622 
 ASP623  PHE694  ASN695  SER759  ASP760  ASP761  ALA762  ILE779  LEU786  VAL792 
 PHE793  MET794  SER795  GLU796  ALA797  LYS798  CYS799  TRP800  GLU811  SER814 

> <Gold.Protein.RotatedAtoms>
  152.4889  134.4515  159.9575 H   0  0  0  0  0  0  0  0  0  0  0  0  # atno 6907 bound_to 6896
  151.4505  133.3612  159.2802 H   0  0  0  0  0  0  0  0  0  0  0  0  # atno 6908 bound_to 6896
  150.9024  134.8462  159.7430 H   0  0  0  0  0  0  0  0  0  0  0  0  # atno 6909 bound_to 6896
  144.8553  140.6133  143.5363 H   0  0  0  0  0  0  0  0  0  0  0  0  # atno 7974 bound_to 7965
  154.4708  140.2036  156.0000 H   0  0  0  0  0  0  0  0  0  0  0  0  # atno 8008 bound_to 7997
  156.1007  140.3244  155.7909 H   0  0  0  0  0  0  0  0  0  0  0  0  # atno 8009 bound_to 7997
  155.4802  140.0538  157.2959 H   0  0  0  0  0  0  0  0  0  0  0  0  # atno 8010 bound_to 7997
  140.5289  143.2323  151.7297 H   0  0  0  0  0  0  0  0  0  0  0  0  # atno 10167 bound_to 10162
  156.7618  130.9416  151.3118 H   0  0  0  0  0  0  0  0  0  0  0  0  # atno 10718 bound_to 10713
  153.5517  135.7011  153.5588 H   0  0  0  0  0  0  0  0  0  0  0  0  # atno 10763 bound_to 10752
  153.3509  135.3995  155.1645 H   0  0  0  0  0  0  0  0  0  0  0  0  # atno 10764 bound_to 10752
  154.8660  135.3765  154.5029 H   0  0  0  0  0  0  0  0  0  0  0  0  # atno 10765 bound_to 10752
  140.7833  133.8345  155.9312 H   0  0  0  0  0  0  0  0  0  0  0  0  # atno 11005 bound_to 11000
  145.4418  139.1535  143.3966 LP  0  0  0  0  0  0  0  0  0  0  0  0  # atno 17320 bound_to 7965
  146.2818  140.4539  142.8773 LP  0  0  0  0  0  0  0  0  0  0  0  0  # atno 17321 bound_to 7965
  139.4947  144.4143  152.0046 LP  0  0  0  0  0  0  0  0  0  0  0  0  # atno 17342 bound_to 10162
  140.3244  144.3390  150.6002 LP  0  0  0  0  0  0  0  0  0  0  0  0  # atno 17343 bound_to 10162
  157.6731  130.9069  150.0087 LP  0  0  0  0  0  0  0  0  0  0  0  0  # atno 17370 bound_to 10713
  156.1334  130.3643  149.9695 LP  0  0  0  0  0  0  0  0  0  0  0  0  # atno 17371 bound_to 10713
  140.9461  134.1838  157.4762 LP  0  0  0  0  0  0  0  0  0  0  0  0  # atno 17394 bound_to 11000
  139.8740  134.9891  156.5442 LP  0  0  0  0  0  0  0  0  0  0  0  0  # atno 17395 bound_to 11000

$$$$
