AV-unprocessed.smi:55|AV-procd|sdf|566|dock3
  -GOLD-   2262016473D 1   1.00000     0.00000
 Structure written by MMmdl.
 31 32  0  0  0  0  0  0  0  0  1 V2000
  151.2348  144.7196  158.4101 C   0  0  0  0  0  0  0  0  0  0  0  0
  151.5299  143.2559  158.1277 C   0  0  0  0  0  0  0  0  0  0  0  0
  150.9859  142.5948  157.0744 C   0  0  0  0  0  0  0  0  0  0  0  0
  151.2378  141.2614  156.7867 N   0  0  0  0  0  0  0  0  0  0  0  0
  150.5995  140.6092  155.5832 C   0  0  1  0  0  0  0  0  0  0  0  0
  149.7090  139.4289  155.9954 C   0  0  0  0  0  0  0  0  0  0  0  0
  148.3388  139.8243  155.4637 C   0  0  1  0  0  0  0  0  0  0  0  0
  147.5233  140.3194  156.5098 O   0  0  0  0  0  0  0  0  0  0  0  0
  148.6562  140.9003  154.4135 C   0  0  1  0  0  0  0  0  0  0  0  0
  147.5244  141.9023  154.1247 C   0  0  0  0  0  0  0  0  0  0  0  0
  147.1021  142.5159  155.3237 O   0  0  0  0  0  0  0  0  0  0  0  0
  149.7959  141.5560  154.9525 O   0  0  0  0  0  0  0  0  0  0  0  0
  152.1097  140.5270  157.6177 C   0  0  0  0  0  0  0  0  0  0  0  0
  152.3787  139.3407  157.4333 O   0  0  0  0  0  0  0  0  0  0  0  0
  152.6686  141.2050  158.6999 N   0  0  0  0  0  0  0  0  0  0  0  0
  152.4405  142.5438  159.0284 C   0  0  0  0  0  0  0  0  0  0  0  0
  152.9926  143.0297  160.0143 O   0  0  0  0  0  0  0  0  0  0  0  0
  151.3879  140.3151  154.8892 H   0  0  0  0  0  0  0  0  0  0  0  0
  147.8255  138.9736  155.0144 H   0  0  0  0  0  0  0  0  0  0  0  0
  148.9559  140.3959  153.4925 H   0  0  0  0  0  0  0  0  0  0  0  0
  153.2907  140.6830  159.2998 H   0  0  0  0  0  0  0  0  0  0  0  0
  150.5294  145.1356  157.6903 H   0  0  0  0  0  0  0  0  0  0  0  0
  152.1510  145.3089  158.3598 H   0  0  0  0  0  0  0  0  0  0  0  0
  150.8053  144.8383  159.4055 H   0  0  0  0  0  0  0  0  0  0  0  0
  150.3199  143.1379  156.4197 H   0  0  0  0  0  0  0  0  0  0  0  0
  150.0777  138.5308  155.4986 H   0  0  0  0  0  0  0  0  0  0  0  0
  149.7261  139.2567  157.0730 H   0  0  0  0  0  0  0  0  0  0  0  0
  147.4324  141.2540  156.4045 H   0  0  0  0  0  0  0  0  0  0  0  0
  147.8824  142.6930  153.4647 H   0  0  0  0  0  0  0  0  0  0  0  0
  146.6817  141.4190  153.6292 H   0  0  0  0  0  0  0  0  0  0  0  0
  147.7365  143.1732  155.5654 H   0  0  0  0  0  0  0  0  0  0  0  0
  1  2  1  0  0  0  0
  1 22  1  0  0  0  0
  1 23  1  0  0  0  0
  1 24  1  0  0  0  0
  2 16  1  0  0  0  0
  2  3  2  0  0  0  0
  3  4  1  0  0  0  0
  3 25  1  0  0  0  0
  4  5  1  0  0  0  0
  4 13  1  0  0  0  0
  5 18  1  0  0  0  0
  5 12  1  0  0  0  0
  5  6  1  0  0  0  0
  6  7  1  0  0  0  0
  6 26  1  0  0  0  0
  6 27  1  0  0  0  0
  7 19  1  0  0  0  0
  7  8  1  0  0  0  0
  7  9  1  0  0  0  0
  8 28  1  0  0  0  0
  9 20  1  0  0  0  0
  9 10  1  0  0  0  0
  9 12  1  0  0  0  0
 10 11  1  0  0  0  0
 10 29  1  0  0  0  0
 10 30  1  0  0  0  0
 11 31  1  0  0  0  0
 13 14  2  0  0  0  0
 13 15  1  0  0  0  0
 15 21  1  0  0  0  0
 15 16  1  0  0  0  0
 16 17  2  0  0  0  0
M  END
> <s_m_source_file>
AV-unprocessed.smi

> <i_m_source_file_index>
55

> <i_lp_mmshare_version>
43012

> <i_f3d_flags>
0

> <s_epik_input>
Tz1jMVtuSF1jKD1PKW4oW2NIXWMxW0NIM10pW0NAQEhdMltDSDJdW0NAQEhdKFtPSF0pW0NAQEhdKE8yKVtDSDJdW09IXQ==

> <s_epik_cmdline>
J2VwaWtfcHl0aG9uJywgJy1waCcsICc3LjAnLCAnLXRuJywgJzgnLCAnLW1hJywgJzIwMCcsICctbWV0YWxfYmluZGluZycsICctaW1hZScsICc8aW5maWxlLm1hZT4nLCAnLW9tYWUnLCAnPG91dGZpbGUubWFlPic=

> <r_lp_tautomer_probability>
0.999537

> <r_epik_Ionization_Penalty>
0.00121888

> <r_epik_Ionization_Penalty_Charging>
0.00121876

> <r_epik_Ionization_Penalty_Neutral>
1.19946e-07

> <r_epik_State_Penalty>
0.000805124

> <r_epik_Charging_Adjusted_Penalty>
0.00202389

> <i_epik_Tot_Q>
0

> <i_epik_Tot_abs_Q>
0

> <r_epik_Metal_State_Penalty>
0.662472

> <b_epik_Metal_Only>
0

> <s_epik_Chemistry_Notes>
This compound contains an acetal/aminal-like group ( X-CH(R)-Y where X, Y are N, S, or O) that may be acid/base labile, releasing an aldehyde.

> <s_lp_Force_Field>
OPLS_2005

> <r_lp_Energy>
28.3693

> <b_lp_Chiralities_Consistent>
1

> <s_lp_Variant>
AV-unprocessed.smi:55-6

> <Gold.Version>
5.8.1

> <Gold.Id.Protein>
6NUR|6NUR_protein|mol2

> <Gold.PLP.Fitness>
35.4638

> <Gold.PLP.PLP>
-29.4785

> <Gold.PLP.part.hbond>
-1.9611

> <Gold.PLP.part.metal>
0.0000

> <Gold.PLP.part.buried>
-4.1176

> <Gold.PLP.part.nonpolar>
-23.5354

> <Gold.PLP.part.repulsive>
0.2415

> <Gold.PLP.ligand.clash>
0.0000

> <Gold.PLP.ligand.torsion>
0.0100

> <Gold.PLP.Chemscore.Hbond>
1.0000

> <Gold.PLP.Chemscore.CHOScore>
1.0000

> <Gold.PLP.Chemscore.Metal>
0.0000

> <Gold.Chemscore.Hbonds>
donor molecule, donor type, donor heavy atom, donor atom, acceptor molecule, acceptor atom, score
      L1  H    11    31       P1  8028  1.00
      P1  H  7997  8010       L1    14  0.01
      L1  C     3    25       P1  8028  1.00

> <Gold.PLP.Chemscore.Internal.Correction>
0.0053

> <Gold.Rescore>
     Score         DG    S(hbond)    S(metal)    S(lipo)     H(rot)  DE(clash)    DE(int)     intcor
      7.49      -7.57       0.91        0.00      51.64       2.73       0.01       0.07       ----

> <Gold.Chemscore.Fitness>
7.4908

> <Gold.Chemscore.DG>
-7.5735

> <Gold.Chemscore.ZeroCoef>
-5.4800

> <Gold.Chemscore.Hbond>
0.9069

> <Gold.Chemscore.Metal>
0.0000

> <Gold.Chemscore.Lipo>
51.6361

> <Gold.Chemscore.Internal_Hbond>
0.0000

> <Gold.Chemscore.DEClash>
0.0111

> <Gold.Chemscore.DEInternal>
0.0715

> <Gold.Chemscore.Rot>
2.7253

> <Gold.Chemscore.Internal.Correction>
   9.000000E+99

> <Gold.Chemscore.Hbonds>
donor molecule, donor type, donor heavy atom, donor atom, acceptor molecule, acceptor atom, score
      L1  H    11    31       P1  8028  0.40

> <Gold.Chemscore.Hbond.Weighted>
-3.0289

> <Gold.Chemscore.Metal.Weighted>
-0.0000

> <Gold.Chemscore.Lipo.Weighted>
-6.0414

> <Gold.Chemscore.Internal_Hbond.Weighted>
0.0000

> <Gold.Chemscore.DEClash.Weighted>
0.0111

> <Gold.Chemscore.DEInternal.Weighted>
0.0715

> <Gold.Chemscore.Rot.Weighted>
6.9769

> <Gold.Chemscore.Internal.Correction.Weighted>
   9.000000E+99

> <Gold.Protein.RotatedTorsions>
[ 6907 6896 6895 6894 ] final  158.89 input  -60.11 | X-H torsion
[ 7974 7965 7964 7962 ] final  -10.15 input  175.53 | X-H torsion
[ 8008 7997 7996 7995 ] final   26.71 input   59.86 | X-H torsion
[ 10167 10162 10161 10158 ] final  -11.03 input  -65.29 | X-H torsion
[ 10718 10713 10712 10709 ] final    7.17 input   66.30 | X-H torsion
[ 10763 10752 10751 10750 ] final  -34.18 input  -60.55 | X-H torsion
[ 11005 11000 10999 10996 ] final    1.23 input  -57.11 | X-H torsion

> <Gold.Protein.ActiveResidues>
 VAL166  LYS551  ARG553  GLY616  TRP617  ASP618  TYR619  PRO620  LYS621  CYS622 
 ASP623  PHE694  ASN695  SER759  ASP760  ASP761  ALA762  ILE779  LEU786  VAL792 
 PHE793  MET794  SER795  GLU796  ALA797  LYS798  CYS799  TRP800  GLU811  SER814 

> <Gold.Protein.RotatedAtoms>
  151.9936  133.3800  159.4153 H   0  0  0  0  0  0  0  0  0  0  0  0  # atno 6907 bound_to 6896
  150.6918  134.3909  159.5085 H   0  0  0  0  0  0  0  0  0  0  0  0  # atno 6908 bound_to 6896
  152.1646  134.8884  160.0590 H   0  0  0  0  0  0  0  0  0  0  0  0  # atno 6909 bound_to 6896
  146.2229  140.2722  142.8357 H   0  0  0  0  0  0  0  0  0  0  0  0  # atno 7974 bound_to 7965
  155.0316  140.3159  155.4756 H   0  0  0  0  0  0  0  0  0  0  0  0  # atno 8008 bound_to 7997
  156.2873  140.2179  156.5380 H   0  0  0  0  0  0  0  0  0  0  0  0  # atno 8009 bound_to 7997
  154.7365  140.0477  157.0761 H   0  0  0  0  0  0  0  0  0  0  0  0  # atno 8010 bound_to 7997
  140.7128  143.5684  150.9119 H   0  0  0  0  0  0  0  0  0  0  0  0  # atno 10167 bound_to 10162
  156.9330  130.5833  149.5650 H   0  0  0  0  0  0  0  0  0  0  0  0  # atno 10718 bound_to 10713
  153.8424  135.6856  153.4801 H   0  0  0  0  0  0  0  0  0  0  0  0  # atno 10763 bound_to 10752
  153.1446  135.4643  154.9544 H   0  0  0  0  0  0  0  0  0  0  0  0  # atno 10764 bound_to 10752
  154.7839  135.3278  154.7876 H   0  0  0  0  0  0  0  0  0  0  0  0  # atno 10765 bound_to 10752
  140.6177  133.9690  155.8209 H   0  0  0  0  0  0  0  0  0  0  0  0  # atno 11005 bound_to 11000
  144.9259  140.7921  143.5719 LP  0  0  0  0  0  0  0  0  0  0  0  0  # atno 17320 bound_to 7965
  145.2662  139.1972  143.4866 LP  0  0  0  0  0  0  0  0  0  0  0  0  # atno 17321 bound_to 7965
  139.9409  143.6382  152.3054 LP  0  0  0  0  0  0  0  0  0  0  0  0  # atno 17342 bound_to 10162
  139.6867  144.7651  151.1511 LP  0  0  0  0  0  0  0  0  0  0  0  0  # atno 17343 bound_to 10162
  156.0438  130.5518  150.8834 LP  0  0  0  0  0  0  0  0  0  0  0  0  # atno 17370 bound_to 10713
  157.5834  131.0946  150.9234 LP  0  0  0  0  0  0  0  0  0  0  0  0  # atno 17371 bound_to 10713
  141.0764  134.0128  157.3451 LP  0  0  0  0  0  0  0  0  0  0  0  0  # atno 17394 bound_to 11000
  139.9166  135.0197  156.7904 LP  0  0  0  0  0  0  0  0  0  0  0  0  # atno 17395 bound_to 11000

$$$$
