AV-unprocessed.smi:740|AV-procd|sdf|3551|dock1
  -GOLD-   22720 0543D 1   1.00000     0.00000
 Structure written by MMmdl.
 45 47  0  0  0  0  0  0  0  0  2 V2000
  152.2952  144.8105  159.6548 C   0  0  0  0  0  0  0  0  0  0  0  0
  151.7269  143.5016  159.1334 C   0  0  0  0  0  0  0  0  0  0  0  0
  150.7574  143.5491  158.1068 C   0  0  0  0  0  0  0  0  0  0  0  0
  150.2579  142.3357  157.6494 C   0  0  0  0  0  0  0  0  0  0  0  0
  149.3121  142.0519  156.6623 N   0  3  0  0  0  0  0  0  0  0  0  0
  149.1482  140.7038  156.5646 C   0  0  0  0  0  0  0  0  0  0  0  0
  149.9730  140.1221  157.4771 N   0  0  0  0  0  0  0  0  0  0  0  0
  150.1767  138.6974  157.7758 C   0  0  0  0  0  0  0  0  0  0  0  0
  149.0535  138.1050  158.6492 C   0  0  1  0  0  0  0  0  0  0  0  0
  148.0291  137.6159  157.8057 O   0  0  0  0  0  0  0  0  0  0  0  0
  149.5702  136.9476  159.5291 C   0  0  0  0  0  0  0  0  0  0  0  0
  148.4904  136.0445  159.9437 N   0  0  0  0  0  0  0  0  0  0  0  0
  148.2875  134.8272  159.4214 C   0  0  0  0  0  0  0  0  0  0  0  0
  148.9531  134.2961  158.5330 O   0  0  0  0  0  0  0  0  0  0  0  0
  147.0987  134.1417  160.0801 C   0  0  0  0  0  0  0  0  0  0  0  0
  146.6243  135.1732  161.1149 C   0  0  1  0  0  0  0  0  0  0  0  0
  146.6434  134.6525  162.5616 C   0  0  0  0  0  0  0  0  0  0  0  0
  147.6081  136.3243  160.9135 C   0  0  0  0  0  0  0  0  0  0  0  0
  147.5667  137.3591  161.5793 O   0  0  0  0  0  0  0  0  0  0  0  0
  150.6867  141.1022  158.1777 C   0  0  0  0  0  0  0  0  0  0  0  0
  151.6411  141.0383  159.1907 C   0  0  0  0  0  0  0  0  0  0  0  0
  152.1644  142.2617  159.6672 C   0  0  0  0  0  0  0  0  0  0  0  0
  153.2108  142.2217  160.7681 C   0  0  0  0  0  0  0  0  0  0  0  0
  151.8251  145.6689  159.1741 H   0  0  0  0  0  0  0  0  0  0  0  0
  153.3668  144.8651  159.4611 H   0  0  0  0  0  0  0  0  0  0  0  0
  152.1316  144.9004  160.7289 H   0  0  0  0  0  0  0  0  0  0  0  0
  150.4207  144.4887  157.6937 H   0  0  0  0  0  0  0  0  0  0  0  0
  148.4838  140.1887  155.8860 H   0  0  0  0  0  0  0  0  0  0  0  0
  150.2968  138.1422  156.8452 H   0  0  0  0  0  0  0  0  0  0  0  0
  151.1298  138.6212  158.3006 H   0  0  0  0  0  0  0  0  0  0  0  0
  148.6407  138.8982  159.2741 H   0  0  0  0  0  0  0  0  0  0  0  0
  147.3168  137.3078  158.3449 H   0  0  0  0  0  0  0  0  0  0  0  0
  150.3707  136.4053  159.0225 H   0  0  0  0  0  0  0  0  0  0  0  0
  150.0307  137.3546  160.4312 H   0  0  0  0  0  0  0  0  0  0  0  0
  146.3265  133.9252  159.3410 H   0  0  0  0  0  0  0  0  0  0  0  0
  147.4135  133.2033  160.5383 H   0  0  0  0  0  0  0  0  0  0  0  0
  145.6219  135.5202  160.8611 H   0  0  0  0  0  0  0  0  0  0  0  0
  146.2657  135.4039  163.2557 H   0  0  0  0  0  0  0  0  0  0  0  0
  147.6515  134.3818  162.8786 H   0  0  0  0  0  0  0  0  0  0  0  0
  146.0153  133.7672  162.6639 H   0  0  0  0  0  0  0  0  0  0  0  0
  151.9774  140.0960  159.5961 H   0  0  0  0  0  0  0  0  0  0  0  0
  153.4768  141.1970  161.0295 H   0  0  0  0  0  0  0  0  0  0  0  0
  152.8361  142.7094  161.6684 H   0  0  0  0  0  0  0  0  0  0  0  0
  154.1219  142.7298  160.4516 H   0  0  0  0  0  0  0  0  0  0  0  0
  148.8142  142.7263  156.0952 H   0  0  0  0  0  0  0  0  0  0  0  0
  1  2  1  0  0  0  0
  1 24  1  0  0  0  0
  1 25  1  0  0  0  0
  1 26  1  0  0  0  0
  2 22  1  0  0  0  0
  2  3  2  0  0  0  0
  3  4  1  0  0  0  0
  3 27  1  0  0  0  0
  4 20  2  0  0  0  0
  4  5  1  0  0  0  0
  5  6  2  0  0  0  0
  5 45  1  0  0  0  0
  6  7  1  0  0  0  0
  6 28  1  0  0  0  0
  7  8  1  0  0  0  0
  7 20  1  0  0  0  0
  8  9  1  0  0  0  0
  8 29  1  0  0  0  0
  8 30  1  0  0  0  0
  9 10  1  0  0  0  0
  9 11  1  0  0  0  0
  9 31  1  0  0  0  0
 10 32  1  0  0  0  0
 11 12  1  0  0  0  0
 11 33  1  0  0  0  0
 11 34  1  0  0  0  0
 12 18  1  0  0  0  0
 12 13  1  0  0  0  0
 13 14  2  0  0  0  0
 13 15  1  0  0  0  0
 15 16  1  0  0  0  0
 15 35  1  0  0  0  0
 15 36  1  0  0  0  0
 16 17  1  0  0  0  0
 16 18  1  0  0  0  0
 16 37  1  0  0  0  0
 17 38  1  0  0  0  0
 17 39  1  0  0  0  0
 17 40  1  0  0  0  0
 18 19  2  0  0  0  0
 20 21  1  0  0  0  0
 21 22  2  0  0  0  0
 21 41  1  0  0  0  0
 22 23  1  0  0  0  0
 23 42  1  0  0  0  0
 23 43  1  0  0  0  0
 23 44  1  0  0  0  0
M  CHG  1   5   1
M  END
> <s_m_source_file>
AV-unprocessed.smi

> <i_m_source_file_index>
740

> <i_lp_mmshare_version>
43012

> <i_f3d_flags>
0

> <s_epik_input>
W0NIM11jKFtjSF0xKWMoW0NIM10pW2NIXWMoYzEyKW4oW2NIXW4yKVtDSDJdW0NASF0oW09IXSlbQ0gyXU4zQyg9TylbQ0gyXVtDQEBIXShbQ0gzXSlDMz1P

> <s_epik_cmdline>
J2VwaWtfcHl0aG9uJywgJy1waCcsICc3LjAnLCAnLXRuJywgJzgnLCAnLW1hJywgJzIwMCcsICctbWV0YWxfYmluZGluZycsICctaW1hZScsICc8aW5maWxlLm1hZT4nLCAnLW9tYWUnLCAnPG91dGZpbGUubWFlPic=

> <r_lp_tautomer_probability>
1

> <r_epik_Ionization_Penalty>
1.08202

> <r_epik_Ionization_Penalty_Charging>
1.08202

> <r_epik_Ionization_Penalty_Neutral>
1.16605e-06

> <r_epik_State_Penalty>
1.13754

> <r_epik_Charging_Adjusted_Penalty>
2.21956

> <i_epik_Tot_Q>
1

> <i_epik_Tot_abs_Q>
1

> <r_epik_Metal_State_Penalty>
5.13645

> <b_epik_Metal_Only>
0

> <s_lp_Force_Field>
OPLS_2005

> <r_lp_Energy>
22.2654

> <b_lp_Chiralities_Consistent>
1

> <s_lp_Variant>
AV-unprocessed.smi:740-6

> <Gold.Version>
5.8.1

> <Gold.Id.Protein>
6NUR|6NUR_protein|mol2

> <Gold.PLP.Fitness>
54.1824

> <Gold.PLP.PLP>
-42.5918

> <Gold.PLP.part.hbond>
-4.0000

> <Gold.PLP.part.metal>
0.0000

> <Gold.PLP.part.buried>
-5.1217

> <Gold.PLP.part.nonpolar>
-33.5552

> <Gold.PLP.part.repulsive>
0.0094

> <Gold.PLP.ligand.clash>
0.0000

> <Gold.PLP.ligand.torsion>
1.0567

> <Gold.PLP.Chemscore.Hbond>
4.5520

> <Gold.PLP.Chemscore.CHOScore>
0.0000

> <Gold.PLP.Chemscore.Metal>
0.0000

> <Gold.Chemscore.Hbonds>
donor molecule, donor type, donor heavy atom, donor atom, acceptor molecule, acceptor atom, score
      L1  H     5    45       P1  8028  1.53
      P1  H  6896  6909       L1    14  1.00
      P1  H  6931  6943       L1    19  0.88
      P1  H  6934  6947       L1    19  0.77

> <Gold.PLP.Chemscore.Internal.Correction>
0.0479

> <Gold.Rescore>
     Score         DG    S(hbond)    S(metal)    S(lipo)     H(rot)  DE(clash)    DE(int)     intcor
     21.17     -22.24       3.32        0.00     100.36       2.37       0.23       0.84       ----

> <Gold.Chemscore.Fitness>
21.1690

> <Gold.Chemscore.DG>
-22.2427

> <Gold.Chemscore.ZeroCoef>
-5.4800

> <Gold.Chemscore.Hbond>
3.3215

> <Gold.Chemscore.Metal>
0.0000

> <Gold.Chemscore.Lipo>
100.3606

> <Gold.Chemscore.Internal_Hbond>
0.0000

> <Gold.Chemscore.DEClash>
0.2289

> <Gold.Chemscore.DEInternal>
0.8448

> <Gold.Chemscore.Rot>
2.3724

> <Gold.Chemscore.Internal.Correction>
   9.000000E+99

> <Gold.Chemscore.Hbonds>
donor molecule, donor type, donor heavy atom, donor atom, acceptor molecule, acceptor atom, score
      L1  H     5    45       P1  8028  0.72
      P1  H  6896  6909       L1    14  0.54
      P1  H  6931  6943       L1    19  0.85
      P1  H  6934  6947       L1    19  0.76

> <Gold.Chemscore.Hbond.Weighted>
-11.0939

> <Gold.Chemscore.Metal.Weighted>
-0.0000

> <Gold.Chemscore.Lipo.Weighted>
-11.7422

> <Gold.Chemscore.Internal_Hbond.Weighted>
0.0000

> <Gold.Chemscore.DEClash.Weighted>
0.2289

> <Gold.Chemscore.DEInternal.Weighted>
0.8448

> <Gold.Chemscore.Rot.Weighted>
6.0734

> <Gold.Chemscore.Internal.Correction.Weighted>
   9.000000E+99

> <Gold.Protein.RotatedTorsions>
[ 6907 6896 6895 6894 ] final    8.97 input  -60.11 | X-H torsion
[ 7974 7965 7964 7962 ] final -156.95 input  175.53 | X-H torsion
[ 8008 7997 7996 7995 ] final  155.67 input   59.86 | X-H torsion
[ 10167 10162 10161 10158 ] final   96.23 input  -65.29 | X-H torsion
[ 10718 10713 10712 10709 ] final   -8.53 input   66.30 | X-H torsion
[ 10763 10752 10751 10750 ] final  103.13 input  -60.55 | X-H torsion
[ 11005 11000 10999 10996 ] final -105.84 input  -57.11 | X-H torsion

> <Gold.Protein.ActiveResidues>
 VAL166  LYS551  ARG553  GLY616  TRP617  ASP618  TYR619  PRO620  LYS621  CYS622 
 ASP623  PHE694  ASN695  SER759  ASP760  ASP761  ALA762  ILE779  LEU786  VAL792 
 PHE793  MET794  SER795  GLU796  ALA797  LYS798  CYS799  TRP800  GLU811  SER814 

> <Gold.Protein.RotatedAtoms>
  151.7146  135.0906  160.0273 H   0  0  0  0  0  0  0  0  0  0  0  0  # atno 6907 bound_to 6896
  152.3640  133.6329  159.6045 H   0  0  0  0  0  0  0  0  0  0  0  0  # atno 6908 bound_to 6896
  150.7625  133.9294  159.3463 H   0  0  0  0  0  0  0  0  0  0  0  0  # atno 6909 bound_to 6896
  144.7570  140.4038  143.6005 H   0  0  0  0  0  0  0  0  0  0  0  0  # atno 7974 bound_to 7965
  156.2465  140.1933  156.6837 H   0  0  0  0  0  0  0  0  0  0  0  0  # atno 8008 bound_to 7997
  154.6303  140.0596  156.9750 H   0  0  0  0  0  0  0  0  0  0  0  0  # atno 8009 bound_to 7997
  155.1721  140.3269  155.4393 H   0  0  0  0  0  0  0  0  0  0  0  0  # atno 8010 bound_to 7997
  139.7914  144.6850  150.9887 H   0  0  0  0  0  0  0  0  0  0  0  0  # atno 10167 bound_to 10162
  156.7012  130.5094  149.5917 H   0  0  0  0  0  0  0  0  0  0  0  0  # atno 10718 bound_to 10713
  153.3486  135.3987  155.1628 H   0  0  0  0  0  0  0  0  0  0  0  0  # atno 10763 bound_to 10752
  154.8658  135.3651  154.5252 H   0  0  0  0  0  0  0  0  0  0  0  0  # atno 10764 bound_to 10752
  153.5702  135.7079  153.5568 H   0  0  0  0  0  0  0  0  0  0  0  0  # atno 10765 bound_to 10752
  141.1034  133.8842  157.1783 H   0  0  0  0  0  0  0  0  0  0  0  0  # atno 11005 bound_to 11000
  145.6746  139.1606  143.2735 LP  0  0  0  0  0  0  0  0  0  0  0  0  # atno 17320 bound_to 7965
  146.1591  140.6814  142.9286 LP  0  0  0  0  0  0  0  0  0  0  0  0  # atno 17321 bound_to 7965
  140.7820  143.4377  151.0599 LP  0  0  0  0  0  0  0  0  0  0  0  0  # atno 17342 bound_to 10162
  139.8053  143.8026  152.3167 LP  0  0  0  0  0  0  0  0  0  0  0  0  # atno 17343 bound_to 10162
  156.1727  130.6448  151.0857 LP  0  0  0  0  0  0  0  0  0  0  0  0  # atno 17370 bound_to 10713
  157.6972  131.0789  150.6932 LP  0  0  0  0  0  0  0  0  0  0  0  0  # atno 17371 bound_to 10713
  139.9894  135.0070  156.9939 LP  0  0  0  0  0  0  0  0  0  0  0  0  # atno 17394 bound_to 11000
  140.4964  134.1141  155.7242 LP  0  0  0  0  0  0  0  0  0  0  0  0  # atno 17395 bound_to 11000

$$$$
