AV-unprocessed.smi:1019|AV-procd|sdf|4445|dock10
  -GOLD-   22720 2403D 1   1.00000     0.00000
 Structure written by MMmdl.
 44 46  0  0  0  0  0  0  0  0  2 V2000
  147.8398  141.5954  153.5722 C   0  0  0  0  0  0  0  0  0  0  0  0
  148.0169  141.9565  154.9982 N   0  3  1  0  0  0  0  0  0  0  0  0
  146.7459  141.8288  155.7544 C   0  0  0  0  0  0  0  0  0  0  0  0
  145.7967  142.9824  155.4782 C   0  0  0  0  0  0  0  0  0  0  0  0
  145.2458  143.7126  156.5526 C   0  0  0  0  0  0  0  0  0  0  0  0
  144.3638  144.7821  156.3033 C   0  0  0  0  0  0  0  0  0  0  0  0
  144.0312  145.1272  154.9791 C   0  0  0  0  0  0  0  0  0  0  0  0
  144.5812  144.4029  153.9039 C   0  0  0  0  0  0  0  0  0  0  0  0
  145.4634  143.3334  154.1522 C   0  0  0  0  0  0  0  0  0  0  0  0
  149.1525  141.2393  155.6365 C   0  0  0  0  0  0  0  0  0  0  0  0
  149.4476  141.7415  157.0676 C   0  0  1  0  0  0  0  0  0  0  0  0
  149.1139  140.7183  157.9837 O   0  0  0  0  0  0  0  0  0  0  0  0
  150.9274  142.1096  157.2943 C   0  0  0  0  0  0  0  0  0  0  0  0
  151.1180  142.9541  158.4593 N   0  0  0  0  0  0  0  0  0  0  0  0
  150.5597  144.1588  158.6853 C   0  0  0  0  0  0  0  0  0  0  0  0
  150.8799  144.7756  159.8187 N   0  0  0  0  0  0  0  0  0  0  0  0
  151.7420  143.8623  160.4009 C   0  0  0  0  0  0  0  0  0  0  0  0
  152.4427  143.9143  161.6271 C   0  0  0  0  0  0  0  0  0  0  0  0
  153.2827  142.8500  162.0155 C   0  0  0  0  0  0  0  0  0  0  0  0
  153.4351  141.7197  161.1863 C   0  0  0  0  0  0  0  0  0  0  0  0
  152.7466  141.6446  159.9605 C   0  0  0  0  0  0  0  0  0  0  0  0
  151.9097  142.7089  159.5764 C   0  0  0  0  0  0  0  0  0  0  0  0
  147.5725  140.5432  153.4666 H   0  0  0  0  0  0  0  0  0  0  0  0
  148.7466  141.7757  152.9966 H   0  0  0  0  0  0  0  0  0  0  0  0
  147.0485  142.1932  153.1188 H   0  0  0  0  0  0  0  0  0  0  0  0
  146.2327  140.9101  155.4664 H   0  0  0  0  0  0  0  0  0  0  0  0
  146.9532  141.7458  156.8227 H   0  0  0  0  0  0  0  0  0  0  0  0
  145.4963  143.4534  157.5710 H   0  0  0  0  0  0  0  0  0  0  0  0
  143.9430  145.3386  157.1278 H   0  0  0  0  0  0  0  0  0  0  0  0
  143.3548  145.9477  154.7885 H   0  0  0  0  0  0  0  0  0  0  0  0
  144.3267  144.6685  152.8882 H   0  0  0  0  0  0  0  0  0  0  0  0
  145.8800  142.7827  153.3214 H   0  0  0  0  0  0  0  0  0  0  0  0
  148.9474  140.1704  155.6926 H   0  0  0  0  0  0  0  0  0  0  0  0
  150.0276  141.3414  154.9940 H   0  0  0  0  0  0  0  0  0  0  0  0
  148.8375  142.6142  157.2989 H   0  0  0  0  0  0  0  0  0  0  0  0
  148.5478  141.0803  158.6491 H   0  0  0  0  0  0  0  0  0  0  0  0
  151.5263  141.2072  157.4264 H   0  0  0  0  0  0  0  0  0  0  0  0
  151.3322  142.6257  156.4226 H   0  0  0  0  0  0  0  0  0  0  0  0
  149.8844  144.6114  157.9739 H   0  0  0  0  0  0  0  0  0  0  0  0
  152.3347  144.7751  162.2703 H   0  0  0  0  0  0  0  0  0  0  0  0
  153.8128  142.9016  162.9552 H   0  0  0  0  0  0  0  0  0  0  0  0
  154.0807  140.9095  161.4926 H   0  0  0  0  0  0  0  0  0  0  0  0
  152.8626  140.7801  159.3239 H   0  0  0  0  0  0  0  0  0  0  0  0
  148.2527  142.9386  155.0215 H   0  0  0  0  0  0  0  0  0  0  0  0
  1  2  1  0  0  0  0
  1 23  1  0  0  0  0
  1 24  1  0  0  0  0
  1 25  1  0  0  0  0
  2  3  1  0  0  0  0
  2 10  1  0  0  0  0
  2 44  1  0  0  0  0
  3  4  1  0  0  0  0
  3 26  1  0  0  0  0
  3 27  1  0  0  0  0
  4  9  1  0  0  0  0
  4  5  2  0  0  0  0
  5  6  1  0  0  0  0
  5 28  1  0  0  0  0
  6  7  2  0  0  0  0
  6 29  1  0  0  0  0
  7  8  1  0  0  0  0
  7 30  1  0  0  0  0
  8  9  2  0  0  0  0
  8 31  1  0  0  0  0
  9 32  1  0  0  0  0
 10 11  1  0  0  0  0
 10 33  1  0  0  0  0
 10 34  1  0  0  0  0
 11 12  1  0  0  0  0
 11 13  1  0  0  0  0
 11 35  1  0  0  0  0
 12 36  1  0  0  0  0
 13 14  1  0  0  0  0
 13 37  1  0  0  0  0
 13 38  1  0  0  0  0
 14 22  1  0  0  0  0
 14 15  1  0  0  0  0
 15 16  2  0  0  0  0
 15 39  1  0  0  0  0
 16 17  1  0  0  0  0
 17 22  2  0  0  0  0
 17 18  1  0  0  0  0
 18 19  2  0  0  0  0
 18 40  1  0  0  0  0
 19 20  1  0  0  0  0
 19 41  1  0  0  0  0
 20 21  2  0  0  0  0
 20 42  1  0  0  0  0
 21 22  1  0  0  0  0
 21 43  1  0  0  0  0
M  CHG  1   2   1
M  END
> <s_m_source_file>
AV-unprocessed.smi

> <i_m_source_file_index>
1019

> <i_lp_mmshare_version>
43012

> <i_f3d_flags>
0

> <s_epik_input>
W2NIXTFbY0hdW2NIXVtjSF1bY0hdYzFbQ0gyXU4oW0NIM10pW0NIMl1bQ0BIXShbT0hdKVtDSDJdbihbY0hdbjIpYyhjMjMpW2NIXVtjSF1bY0hdW2NIXTM=

> <s_epik_cmdline>
J2VwaWtfcHl0aG9uJywgJy1waCcsICc3LjAnLCAnLXRuJywgJzgnLCAnLW1hJywgJzIwMCcsICctbWV0YWxfYmluZGluZycsICctaW1hZScsICc8aW5maWxlLm1hZT4nLCAnLW9tYWUnLCAnPG91dGZpbGUubWFlPic=

> <r_epik_Ionization_Penalty>
0.0996557

> <r_epik_Ionization_Penalty_Charging>
0.0475377

> <r_epik_Ionization_Penalty_Neutral>
0.0521179

> <r_epik_State_Penalty>
0.0851777

> <r_epik_Charging_Adjusted_Penalty>
0.132715

> <i_epik_Tot_Q>
1

> <i_epik_Tot_abs_Q>
1

> <r_epik_Metal_State_Penalty>
0.0423478

> <b_epik_Metal_Only>
0

> <s_lp_Force_Field>
OPLS_2005

> <r_lp_Energy>
16.033

> <b_lp_Chiralities_Consistent>
1

> <s_lp_Variant>
AV-unprocessed.smi:1019-3

> <Gold.Version>
5.8.1

> <Gold.Id.Protein>
6NUR|6NUR_protein|mol2

> <Gold.PLP.Fitness>
54.8389

> <Gold.PLP.PLP>
-47.4893

> <Gold.PLP.part.hbond>
-1.0000

> <Gold.PLP.part.metal>
0.0000

> <Gold.PLP.part.buried>
-7.9034

> <Gold.PLP.part.nonpolar>
-37.9664

> <Gold.PLP.part.repulsive>
0.2633

> <Gold.PLP.ligand.clash>
0.0000

> <Gold.PLP.ligand.torsion>
1.1466

> <Gold.PLP.Chemscore.Hbond>
2.0000

> <Gold.PLP.Chemscore.CHOScore>
1.1737

> <Gold.PLP.Chemscore.Metal>
0.0000

> <Gold.Chemscore.Hbonds>
donor molecule, donor type, donor heavy atom, donor atom, acceptor molecule, acceptor atom, score
      L1  H     2    44       P1  8028  2.00
      L1  C    15    39       P1  8028  0.56
      L1  C    15    39       P1  8029  0.57

> <Gold.PLP.Chemscore.Internal.Correction>
0.1217

> <Gold.Rescore>
     Score         DG    S(hbond)    S(metal)    S(lipo)     H(rot)  DE(clash)    DE(int)     intcor
     14.75     -17.24       0.97        0.00     124.42       2.36       0.50       1.99       ----

> <Gold.Chemscore.Fitness>
14.7458

> <Gold.Chemscore.DG>
-17.2398

> <Gold.Chemscore.ZeroCoef>
-5.4800

> <Gold.Chemscore.Hbond>
0.9726

> <Gold.Chemscore.Metal>
0.0000

> <Gold.Chemscore.Lipo>
124.4185

> <Gold.Chemscore.Internal_Hbond>
0.0000

> <Gold.Chemscore.DEClash>
0.5038

> <Gold.Chemscore.DEInternal>
1.9902

> <Gold.Chemscore.Rot>
2.3616

> <Gold.Chemscore.Internal.Correction>
   9.000000E+99

> <Gold.Chemscore.Hbonds>
donor molecule, donor type, donor heavy atom, donor atom, acceptor molecule, acceptor atom, score
      L1  H     2    44       P1  8028  0.97

> <Gold.Chemscore.Hbond.Weighted>
-3.2486

> <Gold.Chemscore.Metal.Weighted>
-0.0000

> <Gold.Chemscore.Lipo.Weighted>
-14.5570

> <Gold.Chemscore.Internal_Hbond.Weighted>
0.0000

> <Gold.Chemscore.DEClash.Weighted>
0.5038

> <Gold.Chemscore.DEInternal.Weighted>
1.9902

> <Gold.Chemscore.Rot.Weighted>
6.0457

> <Gold.Chemscore.Internal.Correction.Weighted>
   9.000000E+99

> <Gold.Protein.RotatedTorsions>
[ 6907 6896 6895 6894 ] final   76.07 input  -60.11 | X-H torsion
[ 7974 7965 7964 7962 ] final -122.51 input  175.53 | X-H torsion
[ 8008 7997 7996 7995 ] final  -46.66 input   59.86 | X-H torsion
[ 10167 10162 10161 10158 ] final   -7.08 input  -65.29 | X-H torsion
[ 10718 10713 10712 10709 ] final  -76.42 input   66.30 | X-H torsion
[ 10763 10752 10751 10750 ] final  164.66 input  -60.55 | X-H torsion
[ 11005 11000 10999 10996 ] final -130.58 input  -57.11 | X-H torsion

> <Gold.Protein.ActiveResidues>
 VAL166  LYS551  ARG553  GLY616  TRP617  ASP618  TYR619  PRO620  LYS621  CYS622 
 ASP623  PHE694  ASN695  SER759  ASP760  ASP761  ALA762  ILE779  LEU786  VAL792 
 PHE793  MET794  SER795  GLU796  ALA797  LYS798  CYS799  TRP800  GLU811  SER814 

> <Gold.Protein.RotatedAtoms>
  152.5056  134.4025  159.9420 H   0  0  0  0  0  0  0  0  0  0  0  0  # atno 6907 bound_to 6896
  151.3989  133.3758  159.2737 H   0  0  0  0  0  0  0  0  0  0  0  0  # atno 6908 bound_to 6896
  150.9376  134.8809  159.7651 H   0  0  0  0  0  0  0  0  0  0  0  0  # atno 6909 bound_to 6896
  145.0286  140.8049  143.4337 H   0  0  0  0  0  0  0  0  0  0  0  0  # atno 7974 bound_to 7965
  154.4009  140.1366  156.4048 H   0  0  0  0  0  0  0  0  0  0  0  0  # atno 8008 bound_to 7997
  155.7789  140.3482  155.5266 H   0  0  0  0  0  0  0  0  0  0  0  0  # atno 8009 bound_to 7997
  155.8693  140.0969  157.1551 H   0  0  0  0  0  0  0  0  0  0  0  0  # atno 8010 bound_to 7997
  140.7017  143.6121  150.8694 H   0  0  0  0  0  0  0  0  0  0  0  0  # atno 10167 bound_to 10162
  156.0175  130.4465  150.3191 H   0  0  0  0  0  0  0  0  0  0  0  0  # atno 10718 bound_to 10713
  154.3122  135.2757  155.2560 H   0  0  0  0  0  0  0  0  0  0  0  0  # atno 10763 bound_to 10752
  154.4950  135.5823  153.6491 H   0  0  0  0  0  0  0  0  0  0  0  0  # atno 10764 bound_to 10752
  152.9886  135.6144  154.3300 H   0  0  0  0  0  0  0  0  0  0  0  0  # atno 10765 bound_to 10752
  140.9333  134.1290  157.4215 H   0  0  0  0  0  0  0  0  0  0  0  0  # atno 11005 bound_to 11000
  145.1800  139.2357  143.5297 LP  0  0  0  0  0  0  0  0  0  0  0  0  # atno 17320 bound_to 7965
  146.3495  140.1572  142.8591 LP  0  0  0  0  0  0  0  0  0  0  0  0  # atno 17321 bound_to 7965
  139.9844  143.5916  152.2932 LP  0  0  0  0  0  0  0  0  0  0  0  0  # atno 17342 bound_to 10162
  139.6548  144.7662  151.2077 LP  0  0  0  0  0  0  0  0  0  0  0  0  # atno 17343 bound_to 10162
  157.1292  131.0267  151.2976 LP  0  0  0  0  0  0  0  0  0  0  0  0  # atno 17370 bound_to 10713
  157.4565  130.7628  149.7197 LP  0  0  0  0  0  0  0  0  0  0  0  0  # atno 17371 bound_to 10713
  139.8802  135.0012  156.6056 LP  0  0  0  0  0  0  0  0  0  0  0  0  # atno 17394 bound_to 11000
  140.7833  133.8642  155.8585 LP  0  0  0  0  0  0  0  0  0  0  0  0  # atno 17395 bound_to 11000

$$$$
