AV-unprocessed.smi:2438|AV-procd|sdf|9600|dock3
  -GOLD-   2272013233D 1   1.00000     0.00000
 Structure written by MMmdl.
 44 45  0  0  0  0  0  0  0  0  2 V2000
  150.3430  137.1452  154.9842 C   0  0  0  0  0  0  0  0  0  0  0  0
  150.9785  138.2817  154.3318 N   0  0  0  0  0  0  0  0  0  0  0  0
  152.4359  138.3057  154.3571 C   0  0  0  0  0  0  0  0  0  0  0  0
  150.3247  139.5066  154.5734 C   0  0  0  0  0  0  0  0  0  0  0  0
  150.9637  140.4286  155.3298 N   0  0  0  0  0  0  0  0  0  0  0  0
  150.3713  141.5966  155.5960 C   0  0  0  0  0  0  0  0  0  0  0  0
  149.1522  141.9130  155.1417 N   0  3  0  0  0  0  0  0  0  0  0  0
  148.4706  141.0268  154.3773 C   0  0  0  0  0  0  0  0  0  0  0  0
  149.0310  139.7661  154.0588 C   0  0  0  0  0  0  0  0  0  0  0  0
  148.3921  138.7981  153.2299 N   0  0  0  0  0  0  0  0  0  0  0  0
  147.0853  138.5064  153.1178 C   0  0  0  0  0  0  0  0  0  0  0  0
  146.1797  139.0479  153.7504 O   0  0  0  0  0  0  0  0  0  0  0  0
  146.8875  137.5279  152.2228 N   0  0  0  0  0  0  0  0  0  0  0  0
  145.5953  136.9637  151.8406 C   0  0  1  0  0  0  0  0  0  0  0  0
  145.8082  135.6256  151.1102 C   0  0  0  0  0  0  0  0  0  0  0  0
  144.4675  134.9608  150.7650 C   0  0  0  0  0  0  0  0  0  0  0  0
  143.5979  134.7752  152.0183 C   0  0  0  0  0  0  0  0  0  0  0  0
  143.3652  136.1121  152.7540 C   0  0  1  0  0  0  0  0  0  0  0  0
  142.4777  135.9374  154.0037 C   0  0  0  0  0  0  0  0  0  0  0  0
  141.3805  135.2378  153.7129 F   0  0  0  0  0  0  0  0  0  0  0  0
  143.1544  135.3002  154.9593 F   0  0  0  0  0  0  0  0  0  0  0  0
  142.1152  137.1298  154.4766 F   0  0  0  0  0  0  0  0  0  0  0  0
  144.7188  136.7735  153.0931 C   0  0  0  0  0  0  0  0  0  0  0  0
  149.2714  137.1104  154.7873 H   0  0  0  0  0  0  0  0  0  0  0  0
  150.4894  137.1955  156.0638 H   0  0  0  0  0  0  0  0  0  0  0  0
  150.7773  136.2114  154.6261 H   0  0  0  0  0  0  0  0  0  0  0  0
  152.8214  139.1553  153.7916 H   0  0  0  0  0  0  0  0  0  0  0  0
  152.8355  137.3966  153.9073 H   0  0  0  0  0  0  0  0  0  0  0  0
  152.8085  138.3706  155.3803 H   0  0  0  0  0  0  0  0  0  0  0  0
  150.8750  142.3389  156.1977 H   0  0  0  0  0  0  0  0  0  0  0  0
  147.5087  141.3832  154.0439 H   0  0  0  0  0  0  0  0  0  0  0  0
  149.0188  138.2298  152.6779 H   0  0  0  0  0  0  0  0  0  0  0  0
  147.6979  137.1436  151.7592 H   0  0  0  0  0  0  0  0  0  0  0  0
  145.0711  137.6403  151.1632 H   0  0  0  0  0  0  0  0  0  0  0  0
  146.3854  135.7838  150.1984 H   0  0  0  0  0  0  0  0  0  0  0  0
  146.3954  134.9508  151.7349 H   0  0  0  0  0  0  0  0  0  0  0  0
  143.9334  135.5714  150.0359 H   0  0  0  0  0  0  0  0  0  0  0  0
  144.6438  133.9956  150.2893 H   0  0  0  0  0  0  0  0  0  0  0  0
  142.6434  134.3330  151.7320 H   0  0  0  0  0  0  0  0  0  0  0  0
  144.0777  134.0620  152.6898 H   0  0  0  0  0  0  0  0  0  0  0  0
  142.8348  136.7773  152.0706 H   0  0  0  0  0  0  0  0  0  0  0  0
  145.2503  136.1626  153.8243 H   0  0  0  0  0  0  0  0  0  0  0  0
  144.5492  137.7413  153.5665 H   0  0  0  0  0  0  0  0  0  0  0  0
  148.7330  142.8174  155.3596 H   0  0  0  0  0  0  0  0  0  0  0  0
  1  2  1  0  0  0  0
  1 24  1  0  0  0  0
  1 25  1  0  0  0  0
  1 26  1  0  0  0  0
  2  3  1  0  0  0  0
  2  4  1  0  0  0  0
  3 27  1  0  0  0  0
  3 28  1  0  0  0  0
  3 29  1  0  0  0  0
  4  9  1  0  0  0  0
  4  5  2  0  0  0  0
  5  6  1  0  0  0  0
  6  7  2  0  0  0  0
  6 30  1  0  0  0  0
  7  8  1  0  0  0  0
  7 44  1  0  0  0  0
  8  9  2  0  0  0  0
  8 31  1  0  0  0  0
  9 10  1  0  0  0  0
 10 11  1  0  0  0  0
 10 32  1  0  0  0  0
 11 12  2  0  0  0  0
 11 13  1  0  0  0  0
 13 14  1  0  0  0  0
 13 33  1  0  0  0  0
 14 23  1  0  0  0  0
 14 15  1  0  0  0  0
 14 34  1  0  0  0  0
 15 16  1  0  0  0  0
 15 35  1  0  0  0  0
 15 36  1  0  0  0  0
 16 17  1  0  0  0  0
 16 37  1  0  0  0  0
 16 38  1  0  0  0  0
 17 18  1  0  0  0  0
 17 39  1  0  0  0  0
 17 40  1  0  0  0  0
 18 19  1  0  0  0  0
 18 23  1  0  0  0  0
 18 41  1  0  0  0  0
 19 20  1  0  0  0  0
 19 21  1  0  0  0  0
 19 22  1  0  0  0  0
 23 42  1  0  0  0  0
 23 43  1  0  0  0  0
M  CHG  1   7   1
M  END
> <s_m_source_file>
AV-unprocessed.smi

> <i_m_source_file_index>
2438

> <i_lp_mmshare_version>
43012

> <i_f3d_flags>
0

> <s_epik_input>
W0NIM11OKFtDSDNdKWMxbltjSF1uW2NIXWMxW05IXUMoPU8pW05IXVtDQEBIXTJbQ0gyXVtDSDJdW0NIMl1bQ0BASF0oQyhGKShGKUYpW0NIMl0y

> <s_epik_cmdline>
J2VwaWtfcHl0aG9uJywgJy1waCcsICc3LjAnLCAnLXRuJywgJzgnLCAnLW1hJywgJzIwMCcsICctbWV0YWxfYmluZGluZycsICctaW1hZScsICc8aW5maWxlLm1hZT4nLCAnLW9tYWUnLCAnPG91dGZpbGUubWFlPic=

> <r_lp_tautomer_probability>
0.999336

> <r_epik_Ionization_Penalty>
2.11643

> <r_epik_Ionization_Penalty_Charging>
2.11639

> <r_epik_Ionization_Penalty_Neutral>
4.47523e-05

> <r_epik_State_Penalty>
2.25369

> <r_epik_Charging_Adjusted_Penalty>
4.37008

> <i_epik_Tot_Q>
1

> <i_epik_Tot_abs_Q>
1

> <r_epik_Metal_State_Penalty>
2.27019

> <b_epik_Metal_Only>
0

> <s_lp_Force_Field>
OPLS_2005

> <r_lp_Energy>
18.5988

> <b_lp_Chiralities_Consistent>
1

> <s_lp_Variant>
AV-unprocessed.smi:2438-6

> <Gold.Version>
5.8.1

> <Gold.Id.Protein>
6NUR|6NUR_protein|mol2

> <Gold.PLP.Fitness>
50.0685

> <Gold.PLP.PLP>
-41.1356

> <Gold.PLP.part.hbond>
-4.7807

> <Gold.PLP.part.metal>
0.0000

> <Gold.PLP.part.buried>
-4.0548

> <Gold.PLP.part.nonpolar>
-32.9328

> <Gold.PLP.part.repulsive>
1.1189

> <Gold.PLP.ligand.clash>
0.0000

> <Gold.PLP.ligand.torsion>
1.0049

> <Gold.PLP.Chemscore.Hbond>
3.5262

> <Gold.PLP.Chemscore.CHOScore>
0.0000

> <Gold.PLP.Chemscore.Metal>
0.0000

> <Gold.Chemscore.Hbonds>
donor molecule, donor type, donor heavy atom, donor atom, acceptor molecule, acceptor atom, score
      L1  H     7    44       P1  8028  2.00
      L1  H    10    32       P1  7948  0.56
      L1  H    13    33       P1  7948  0.98

> <Gold.PLP.Chemscore.Internal.Correction>
0.3643

> <Gold.Rescore>
     Score         DG    S(hbond)    S(metal)    S(lipo)     H(rot)  DE(clash)    DE(int)     intcor
     14.17     -17.09       2.21        0.00      64.76       1.31       0.43       2.48       ----

> <Gold.Chemscore.Fitness>
14.1743

> <Gold.Chemscore.DG>
-17.0869

> <Gold.Chemscore.ZeroCoef>
-5.4800

> <Gold.Chemscore.Hbond>
2.2091

> <Gold.Chemscore.Metal>
0.0000

> <Gold.Chemscore.Lipo>
64.7579

> <Gold.Chemscore.Internal_Hbond>
0.0000

> <Gold.Chemscore.DEClash>
0.4311

> <Gold.Chemscore.DEInternal>
2.4815

> <Gold.Chemscore.Rot>
1.3078

> <Gold.Chemscore.Internal.Correction>
   9.000000E+99

> <Gold.Chemscore.Hbonds>
donor molecule, donor type, donor heavy atom, donor atom, acceptor molecule, acceptor atom, score
      L1  H     7    44       P1  8028  0.96
      L1  H    10    32       P1  7948  0.56
      L1  H    13    33       P1  7948  0.86

> <Gold.Chemscore.Hbond.Weighted>
-7.3783

> <Gold.Chemscore.Metal.Weighted>
-0.0000

> <Gold.Chemscore.Lipo.Weighted>
-7.5767

> <Gold.Chemscore.Internal_Hbond.Weighted>
0.0000

> <Gold.Chemscore.DEClash.Weighted>
0.4311

> <Gold.Chemscore.DEInternal.Weighted>
2.4815

> <Gold.Chemscore.Rot.Weighted>
3.3481

> <Gold.Chemscore.Internal.Correction.Weighted>
   9.000000E+99

> <Gold.Protein.RotatedTorsions>
[ 6907 6896 6895 6894 ] final   20.88 input  -60.11 | X-H torsion
[ 7974 7965 7964 7962 ] final   51.82 input  175.53 | X-H torsion
[ 8008 7997 7996 7995 ] final   76.38 input   59.86 | X-H torsion
[ 10167 10162 10161 10158 ] final  -78.24 input  -65.29 | X-H torsion
[ 10718 10713 10712 10709 ] final -153.86 input   66.30 | X-H torsion
[ 10763 10752 10751 10750 ] final   96.77 input  -60.55 | X-H torsion
[ 11005 11000 10999 10996 ] final  133.93 input  -57.11 | X-H torsion

> <Gold.Protein.ActiveResidues>
 VAL166  LYS551  ARG553  GLY616  TRP617  ASP618  TYR619  PRO620  LYS621  CYS622 
 ASP623  PHE694  ASN695  SER759  ASP760  ASP761  ALA762  ILE779  LEU786  VAL792 
 PHE793  MET794  SER795  GLU796  ALA797  LYS798  CYS799  TRP800  GLU811  SER814 

> <Gold.Protein.RotatedAtoms>
  151.9032  135.0369  160.0507 H   0  0  0  0  0  0  0  0  0  0  0  0  # atno 6907 bound_to 6896
  152.2341  133.5077  159.5240 H   0  0  0  0  0  0  0  0  0  0  0  0  # atno 6908 bound_to 6896
  150.7034  134.1094  159.4037 H   0  0  0  0  0  0  0  0  0  0  0  0  # atno 6909 bound_to 6896
  145.9875  139.4305  143.0094 H   0  0  0  0  0  0  0  0  0  0  0  0  # atno 7974 bound_to 7965
  155.8265  140.3468  155.5546 H   0  0  0  0  0  0  0  0  0  0  0  0  # atno 8008 bound_to 7997
  155.8287  140.0924  157.1825 H   0  0  0  0  0  0  0  0  0  0  0  0  # atno 8009 bound_to 7997
  154.4004  140.1416  156.3575 H   0  0  0  0  0  0  0  0  0  0  0  0  # atno 8010 bound_to 7997
  140.4700  143.2429  151.8220 H   0  0  0  0  0  0  0  0  0  0  0  0  # atno 10167 bound_to 10162
  156.4915  130.8350  151.2572 H   0  0  0  0  0  0  0  0  0  0  0  0  # atno 10718 bound_to 10713
  153.2689  135.4207  155.0968 H   0  0  0  0  0  0  0  0  0  0  0  0  # atno 10763 bound_to 10752
  154.8448  135.3467  154.6272 H   0  0  0  0  0  0  0  0  0  0  0  0  # atno 10764 bound_to 10752
  153.6692  135.7044  153.5210 H   0  0  0  0  0  0  0  0  0  0  0  0  # atno 10765 bound_to 10752
  139.9882  134.9524  156.9794 H   0  0  0  0  0  0  0  0  0  0  0  0  # atno 11005 bound_to 11000
  145.7678  140.9909  143.1165 LP  0  0  0  0  0  0  0  0  0  0  0  0  # atno 17320 bound_to 7965
  144.6879  139.9410  143.7475 LP  0  0  0  0  0  0  0  0  0  0  0  0  # atno 17321 bound_to 7965
  139.4817  144.4904  151.9193 LP  0  0  0  0  0  0  0  0  0  0  0  0  # atno 17342 bound_to 10162
  140.3989  144.2519  150.5894 LP  0  0  0  0  0  0  0  0  0  0  0  0  # atno 17343 bound_to 10162
  157.7473  131.0012  150.2953 LP  0  0  0  0  0  0  0  0  0  0  0  0  # atno 17370 bound_to 10713
  156.3421  130.3817  149.7400 LP  0  0  0  0  0  0  0  0  0  0  0  0  # atno 17371 bound_to 10713
  140.4960  134.1145  155.7241 LP  0  0  0  0  0  0  0  0  0  0  0  0  # atno 17394 bound_to 11000
  141.1543  133.8911  157.2017 LP  0  0  0  0  0  0  0  0  0  0  0  0  # atno 17395 bound_to 11000

$$$$
