AV-unprocessed.smi:1859|AV-procd|sdf|7546|dock10
  -GOLD-   22720 9263D 1   1.00000     0.00000
 Structure written by MMmdl.
 46 48  0  0  0  0  0  0  0  0  2 V2000
  153.1745  139.3025  155.5548 O   0  0  0  0  0  0  0  0  0  0  0  0
  151.9669  139.0694  155.6175 C   0  0  0  0  0  0  0  0  0  0  0  0
  151.1508  139.6947  156.4798 N   0  0  0  0  0  0  0  0  0  0  0  0
  151.5815  140.6712  157.4722 C   0  0  0  0  0  0  0  0  0  0  0  0
  150.5116  141.7541  157.6949 C   0  0  0  0  0  0  0  0  0  0  0  0
  151.0689  142.9687  158.4097 C   0  0  0  0  0  0  0  0  0  0  0  0
  152.0085  142.8606  159.4578 C   0  0  0  0  0  0  0  0  0  0  0  0
  152.4760  144.0336  160.0868 C   0  0  0  0  0  0  0  0  0  0  0  0
  151.9944  145.2871  159.6554 C   0  0  0  0  0  0  0  0  0  0  0  0
  151.0562  145.3364  158.6040 C   0  0  0  0  0  0  0  0  0  0  0  0
  150.6324  144.1905  158.0271 N   0  3  0  0  0  0  0  0  0  0  0  0
  151.3125  138.0178  154.7018 C   0  0  1  0  0  0  0  0  0  0  0  0
  150.5334  136.9302  155.4869 C   0  0  0  0  0  0  0  0  0  0  0  0
  149.1278  137.3802  155.9444 C   0  0  0  0  0  0  0  0  0  0  0  0
  148.3529  138.0509  154.7964 C   0  0  0  0  0  0  0  0  0  0  0  0
  149.1566  139.1627  154.2681 N   0  0  0  0  0  0  0  0  0  0  0  0
  148.9075  140.4839  154.4519 C   0  0  0  0  0  0  0  0  0  0  0  0
  149.6792  141.3600  154.0575 O   0  0  0  0  0  0  0  0  0  0  0  0
  147.6389  140.8456  155.1574 C   0  0  0  0  0  0  0  0  0  0  0  0
  146.3324  140.3191  154.5920 C   0  0  0  0  0  0  0  0  0  0  0  0
  146.6898  141.7725  154.4265 C   0  0  0  0  0  0  0  0  0  0  0  0
  150.3921  138.6706  153.6411 C   0  0  0  0  0  0  0  0  0  0  0  0
  150.1701  139.4537  156.4674 H   0  0  0  0  0  0  0  0  0  0  0  0
  151.8211  140.1663  158.4095 H   0  0  0  0  0  0  0  0  0  0  0  0
  152.5065  141.1292  157.1207 H   0  0  0  0  0  0  0  0  0  0  0  0
  150.0882  142.0632  156.7383 H   0  0  0  0  0  0  0  0  0  0  0  0
  149.6824  141.3561  158.2819 H   0  0  0  0  0  0  0  0  0  0  0  0
  152.3656  141.8927  159.7789 H   0  0  0  0  0  0  0  0  0  0  0  0
  153.1937  143.9720  160.8918 H   0  0  0  0  0  0  0  0  0  0  0  0
  152.3388  146.1971  160.1246 H   0  0  0  0  0  0  0  0  0  0  0  0
  150.6342  146.2497  158.2105 H   0  0  0  0  0  0  0  0  0  0  0  0
  152.1245  137.5141  154.1746 H   0  0  0  0  0  0  0  0  0  0  0  0
  150.4213  136.0583  154.8413 H   0  0  0  0  0  0  0  0  0  0  0  0
  151.1113  136.5877  156.3464 H   0  0  0  0  0  0  0  0  0  0  0  0
  148.5699  136.5211  156.3175 H   0  0  0  0  0  0  0  0  0  0  0  0
  149.2073  138.0731  156.7821 H   0  0  0  0  0  0  0  0  0  0  0  0
  148.1733  137.3286  153.9987 H   0  0  0  0  0  0  0  0  0  0  0  0
  147.3644  138.3454  155.1445 H   0  0  0  0  0  0  0  0  0  0  0  0
  147.6912  140.9137  156.2426 H   0  0  0  0  0  0  0  0  0  0  0  0
  146.3537  139.7001  153.6969 H   0  0  0  0  0  0  0  0  0  0  0  0
  145.5528  140.0642  155.3068 H   0  0  0  0  0  0  0  0  0  0  0  0
  146.1572  142.5057  155.0285 H   0  0  0  0  0  0  0  0  0  0  0  0
  146.9695  142.1098  153.4296 H   0  0  0  0  0  0  0  0  0  0  0  0
  150.9300  139.4536  153.1038 H   0  0  0  0  0  0  0  0  0  0  0  0
  150.1330  137.9342  152.8789 H   0  0  0  0  0  0  0  0  0  0  0  0
  149.9523  144.2486  157.2686 H   0  0  0  0  0  0  0  0  0  0  0  0
  1  2  2  0  0  0  0
  2  3  1  0  0  0  0
  2 12  1  0  0  0  0
  3  4  1  0  0  0  0
  3 23  1  0  0  0  0
  4  5  1  0  0  0  0
  4 24  1  0  0  0  0
  4 25  1  0  0  0  0
  5  6  1  0  0  0  0
  5 26  1  0  0  0  0
  5 27  1  0  0  0  0
  6 11  1  0  0  0  0
  6  7  2  0  0  0  0
  7  8  1  0  0  0  0
  7 28  1  0  0  0  0
  8  9  2  0  0  0  0
  8 29  1  0  0  0  0
  9 10  1  0  0  0  0
  9 30  1  0  0  0  0
 10 11  2  0  0  0  0
 10 31  1  0  0  0  0
 11 46  1  0  0  0  0
 12 22  1  0  0  0  0
 12 13  1  0  0  0  0
 12 32  1  0  0  0  0
 13 14  1  0  0  0  0
 13 33  1  0  0  0  0
 13 34  1  0  0  0  0
 14 15  1  0  0  0  0
 14 35  1  0  0  0  0
 14 36  1  0  0  0  0
 15 16  1  0  0  0  0
 15 37  1  0  0  0  0
 15 38  1  0  0  0  0
 16 17  1  0  0  0  0
 16 22  1  0  0  0  0
 17 18  2  0  0  0  0
 17 19  1  0  0  0  0
 19 21  1  0  0  0  0
 19 20  1  0  0  0  0
 19 39  1  0  0  0  0
 20 21  1  0  0  0  0
 20 40  1  0  0  0  0
 20 41  1  0  0  0  0
 21 42  1  0  0  0  0
 21 43  1  0  0  0  0
 22 44  1  0  0  0  0
 22 45  1  0  0  0  0
M  CHG  1  11   1
M  END
> <s_m_source_file>
AV-unprocessed.smi

> <i_m_source_file_index>
1859

> <i_lp_mmshare_version>
43012

> <i_f3d_flags>
0

> <s_epik_input>
W0NIMl0xW0NIMl1bQ0hdMUMoPU8pTihbQ0gyXTIpW0NIMl1bQ0gyXVtDSDJdW0NASF0yQyg9TylbTkhdW0NIMl1bQ0gyXWMzW2NIXVtjSF1bY0hdW2NIXW4z

> <s_epik_cmdline>
J2VwaWtfcHl0aG9uJywgJy1waCcsICc3LjAnLCAnLXRuJywgJzgnLCAnLW1hJywgJzIwMCcsICctbWV0YWxfYmluZGluZycsICctaW1hZScsICc8aW5maWxlLm1hZT4nLCAnLW9tYWUnLCAnPG91dGZpbGUubWFlPic=

> <r_epik_Ionization_Penalty>
1.84754

> <r_epik_Ionization_Penalty_Charging>
1.84754

> <r_epik_Ionization_Penalty_Neutral>
7.35743e-08

> <r_epik_State_Penalty>
1.96477

> <r_epik_Charging_Adjusted_Penalty>
3.81231

> <i_epik_Tot_Q>
1

> <i_epik_Tot_abs_Q>
1

> <r_epik_Metal_State_Penalty>
1.99062

> <b_epik_Metal_Only>
0

> <s_lp_Force_Field>
OPLS_2005

> <r_lp_Energy>
29.7098

> <b_lp_Chiralities_Consistent>
1

> <s_lp_Variant>
AV-unprocessed.smi:1859-4

> <Gold.Version>
5.8.1

> <Gold.Id.Protein>
6NUR|6NUR_protein|mol2

> <Gold.PLP.Fitness>
52.0787

> <Gold.PLP.PLP>
-41.4751

> <Gold.PLP.part.hbond>
-4.0000

> <Gold.PLP.part.metal>
0.0000

> <Gold.PLP.part.buried>
-3.1089

> <Gold.PLP.part.nonpolar>
-34.4838

> <Gold.PLP.part.repulsive>
0.3400

> <Gold.PLP.ligand.clash>
0.0000

> <Gold.PLP.ligand.torsion>
0.7049

> <Gold.PLP.Chemscore.Hbond>
3.9636

> <Gold.PLP.Chemscore.CHOScore>
0.0000

> <Gold.PLP.Chemscore.Metal>
0.0000

> <Gold.Chemscore.Hbonds>
donor molecule, donor type, donor heavy atom, donor atom, acceptor molecule, acceptor atom, score
      L1  H    11    46       P1  8028  2.00
      P1  H  7989  7998       L1    18  0.29
      P1  H  7997  8008       L1     1  1.00
      P1  H  8011  8017       L1    18  0.70

> <Gold.PLP.Chemscore.Internal.Correction>
0.1226

> <Gold.Rescore>
     Score         DG    S(hbond)    S(metal)    S(lipo)     H(rot)  DE(clash)    DE(int)     intcor
     19.56     -24.12       3.04        0.00     109.56       1.70       2.02       2.53       ----

> <Gold.Chemscore.Fitness>
19.5633

> <Gold.Chemscore.DG>
-24.1186

> <Gold.Chemscore.ZeroCoef>
-5.4800

> <Gold.Chemscore.Hbond>
3.0441

> <Gold.Chemscore.Metal>
0.0000

> <Gold.Chemscore.Lipo>
109.5575

> <Gold.Chemscore.Internal_Hbond>
0.0000

> <Gold.Chemscore.DEClash>
2.0217

> <Gold.Chemscore.DEInternal>
2.5335

> <Gold.Chemscore.Rot>
1.6980

> <Gold.Chemscore.Internal.Correction>
   9.000000E+99

> <Gold.Chemscore.Hbonds>
donor molecule, donor type, donor heavy atom, donor atom, acceptor molecule, acceptor atom, score
      L1  H    11    46       P1  8028  0.54
      P1  H  7989  7998       L1    18  0.27
      P1  H  7997  8008       L1     1  0.97
      P1  H  8011  8017       L1    18  0.66

> <Gold.Chemscore.Hbond.Weighted>
-10.1672

> <Gold.Chemscore.Metal.Weighted>
-0.0000

> <Gold.Chemscore.Lipo.Weighted>
-12.8182

> <Gold.Chemscore.Internal_Hbond.Weighted>
0.0000

> <Gold.Chemscore.DEClash.Weighted>
2.0217

> <Gold.Chemscore.DEInternal.Weighted>
2.5335

> <Gold.Chemscore.Rot.Weighted>
4.3469

> <Gold.Chemscore.Internal.Correction.Weighted>
   9.000000E+99

> <Gold.Protein.RotatedTorsions>
[ 6907 6896 6895 6894 ] final  166.41 input  -60.11 | X-H torsion
[ 7974 7965 7964 7962 ] final  143.06 input  175.53 | X-H torsion
[ 8008 7997 7996 7995 ] final  -22.18 input   59.86 | X-H torsion
[ 10167 10162 10161 10158 ] final -100.86 input  -65.29 | X-H torsion
[ 10718 10713 10712 10709 ] final   12.32 input   66.30 | X-H torsion
[ 10763 10752 10751 10750 ] final  148.28 input  -60.55 | X-H torsion
[ 11005 11000 10999 10996 ] final  172.63 input  -57.11 | X-H torsion

> <Gold.Protein.ActiveResidues>
 VAL166  LYS551  ARG553  GLY616  TRP617  ASP618  TYR619  PRO620  LYS621  CYS622 
 ASP623  PHE694  ASN695  SER759  ASP760  ASP761  ALA762  ILE779  LEU786  VAL792 
 PHE793  MET794  SER795  GLU796  ALA797  LYS798  CYS799  TRP800  GLU811  SER814 

> <Gold.Protein.RotatedAtoms>
  151.8793  133.3492  159.3760 H   0  0  0  0  0  0  0  0  0  0  0  0  # atno 6907 bound_to 6896
  150.7131  134.5034  159.5582 H   0  0  0  0  0  0  0  0  0  0  0  0  # atno 6908 bound_to 6896
  152.2583  134.8061  160.0486 H   0  0  0  0  0  0  0  0  0  0  0  0  # atno 6909 bound_to 6896
  144.8953  139.5499  143.5779 H   0  0  0  0  0  0  0  0  0  0  0  0  # atno 7974 bound_to 7965
  154.4660  140.2015  156.0118 H   0  0  0  0  0  0  0  0  0  0  0  0  # atno 8008 bound_to 7997
  156.0927  140.3255  155.7808 H   0  0  0  0  0  0  0  0  0  0  0  0  # atno 8009 bound_to 7997
  155.4929  140.0547  157.2941 H   0  0  0  0  0  0  0  0  0  0  0  0  # atno 8010 bound_to 7997
  140.2474  143.3496  152.0746 H   0  0  0  0  0  0  0  0  0  0  0  0  # atno 10167 bound_to 10162
  157.0084  130.6107  149.5705 H   0  0  0  0  0  0  0  0  0  0  0  0  # atno 10718 bound_to 10713
  154.0521  135.2881  155.3339 H   0  0  0  0  0  0  0  0  0  0  0  0  # atno 10763 bound_to 10752
  154.6862  135.5244  153.8333 H   0  0  0  0  0  0  0  0  0  0  0  0  # atno 10764 bound_to 10752
  153.0556  135.6594  154.0716 H   0  0  0  0  0  0  0  0  0  0  0  0  # atno 10765 bound_to 10752
  140.3317  134.7351  157.4139 H   0  0  0  0  0  0  0  0  0  0  0  0  # atno 11005 bound_to 11000
  146.3078  139.7639  142.9043 LP  0  0  0  0  0  0  0  0  0  0  0  0  # atno 17320 bound_to 7965
  145.3711  141.0343  143.3231 LP  0  0  0  0  0  0  0  0  0  0  0  0  # atno 17321 bound_to 7965
  139.5057  144.6800  151.6032 LP  0  0  0  0  0  0  0  0  0  0  0  0  # atno 17342 bound_to 10162
  140.6067  143.9511  150.6424 LP  0  0  0  0  0  0  0  0  0  0  0  0  # atno 17343 bound_to 10162
  156.0145  130.5239  150.8092 LP  0  0  0  0  0  0  0  0  0  0  0  0  # atno 17370 bound_to 10713
  157.5339  131.0938  150.9918 LP  0  0  0  0  0  0  0  0  0  0  0  0  # atno 17371 bound_to 10713
  140.0855  134.5673  155.8497 LP  0  0  0  0  0  0  0  0  0  0  0  0  # atno 17394 bound_to 11000
  141.2061  133.6653  156.6224 LP  0  0  0  0  0  0  0  0  0  0  0  0  # atno 17395 bound_to 11000

$$$$
