AV-unprocessed.smi:961|AV-procd|sdf|4274|dock10
  -GOLD-   22720 2183D 1   1.00000     0.00000
 Structure written by MMmdl.
 37 38  0  0  0  0  0  0  0  0  1 V2000
  152.5446  143.6271  160.3096 C   0  0  0  0  0  0  0  0  0  0  0  0
  151.8939  143.8903  158.9373 C   0  0  0  0  0  0  0  0  0  0  0  0
  150.6200  144.7399  159.1146 C   0  0  0  0  0  0  0  0  0  0  0  0
  152.8926  144.7025  158.0847 C   0  0  0  0  0  0  0  0  0  0  0  0
  151.5486  142.5742  158.2692 C   0  0  0  0  0  0  0  0  0  0  0  0
  151.0343  142.3715  157.0086 C   0  0  0  0  0  0  0  0  0  0  0  0
  150.7884  140.6835  156.6564 S   0  0  0  0  0  0  0  0  0  0  0  0
  151.4151  140.2933  158.2504 C   0  0  0  0  0  0  0  0  0  0  0  0
  151.5023  138.9002  158.7753 C   0  0  0  0  0  0  0  0  0  0  0  0
  150.4723  137.9648  158.1222 C   0  0  0  0  0  0  0  0  0  0  0  0
  149.3180  137.7483  158.9867 N   0  0  0  0  0  0  0  0  0  0  0  0
  148.8595  136.5483  159.3737 C   0  0  0  0  0  0  0  0  0  0  0  0
  149.3815  135.4874  159.0276 O   0  0  0  0  0  0  0  0  0  0  0  0
  147.6629  136.6149  160.2651 C   0  0  0  0  0  0  0  0  0  0  0  0
  147.8483  136.2220  161.7168 C   0  0  0  0  0  0  0  0  0  0  0  0
  147.0957  135.3082  160.7822 C   0  0  0  0  0  0  0  0  0  0  0  0
  151.7499  141.3722  158.9615 N   0  0  0  0  0  0  0  0  0  0  0  0
  152.8165  144.5590  160.8065 H   0  0  0  0  0  0  0  0  0  0  0  0
  153.4523  143.0306  160.2095 H   0  0  0  0  0  0  0  0  0  0  0  0
  151.8713  143.0893  160.9781 H   0  0  0  0  0  0  0  0  0  0  0  0
  149.8884  144.2402  159.7503 H   0  0  0  0  0  0  0  0  0  0  0  0
  150.1400  144.9382  158.1556 H   0  0  0  0  0  0  0  0  0  0  0  0
  150.8446  145.7024  159.5755 H   0  0  0  0  0  0  0  0  0  0  0  0
  153.1427  145.6504  158.5625 H   0  0  0  0  0  0  0  0  0  0  0  0
  152.4828  144.9353  157.1010 H   0  0  0  0  0  0  0  0  0  0  0  0
  153.8269  144.1599  157.9356 H   0  0  0  0  0  0  0  0  0  0  0  0
  150.7812  143.1096  156.2623 H   0  0  0  0  0  0  0  0  0  0  0  0
  152.5145  138.5325  158.6033 H   0  0  0  0  0  0  0  0  0  0  0  0
  151.3583  138.9226  159.8565 H   0  0  0  0  0  0  0  0  0  0  0  0
  150.1185  138.3986  157.1867 H   0  0  0  0  0  0  0  0  0  0  0  0
  150.9322  137.0085  157.8670 H   0  0  0  0  0  0  0  0  0  0  0  0
  148.8326  138.5707  159.3147 H   0  0  0  0  0  0  0  0  0  0  0  0
  146.9482  137.4115  160.0623 H   0  0  0  0  0  0  0  0  0  0  0  0
  148.8343  135.8983  162.0464 H   0  0  0  0  0  0  0  0  0  0  0  0
  147.2780  136.7812  162.4556 H   0  0  0  0  0  0  0  0  0  0  0  0
  146.0144  135.2474  160.8873 H   0  0  0  0  0  0  0  0  0  0  0  0
  147.5822  134.3779  160.4936 H   0  0  0  0  0  0  0  0  0  0  0  0
  1  2  1  0  0  0  0
  1 18  1  0  0  0  0
  1 19  1  0  0  0  0
  1 20  1  0  0  0  0
  2  3  1  0  0  0  0
  2  4  1  0  0  0  0
  2  5  1  0  0  0  0
  3 21  1  0  0  0  0
  3 22  1  0  0  0  0
  3 23  1  0  0  0  0
  4 24  1  0  0  0  0
  4 25  1  0  0  0  0
  4 26  1  0  0  0  0
  5 17  1  0  0  0  0
  5  6  2  0  0  0  0
  6  7  1  0  0  0  0
  6 27  1  0  0  0  0
  7  8  1  0  0  0  0
  8  9  1  0  0  0  0
  8 17  2  0  0  0  0
  9 10  1  0  0  0  0
  9 28  1  0  0  0  0
  9 29  1  0  0  0  0
 10 11  1  0  0  0  0
 10 30  1  0  0  0  0
 10 31  1  0  0  0  0
 11 12  1  0  0  0  0
 11 32  1  0  0  0  0
 12 13  2  0  0  0  0
 12 14  1  0  0  0  0
 14 16  1  0  0  0  0
 14 15  1  0  0  0  0
 14 33  1  0  0  0  0
 15 16  1  0  0  0  0
 15 34  1  0  0  0  0
 15 35  1  0  0  0  0
 16 36  1  0  0  0  0
 16 37  1  0  0  0  0
M  END
> <s_m_source_file>
AV-unprocessed.smi

> <i_m_source_file_index>
961

> <i_lp_mmshare_version>
43012

> <i_f3d_flags>
0

> <s_epik_input>
W0NIM11DKFtDSDNdKShbQ0gzXSljMVtjSF1zYyhuMSlbQ0gyXVtDSDJdW05IXUMoPU8pW0NIXTJbQ0gyXVtDSDJdMg==

> <s_epik_cmdline>
J2VwaWtfcHl0aG9uJywgJy1waCcsICc3LjAnLCAnLXRuJywgJzgnLCAnLW1hJywgJzIwMCcsICctbWV0YWxfYmluZGluZycsICctaW1hZScsICc8aW5maWxlLm1hZT4nLCAnLW9tYWUnLCAnPG91dGZpbGUubWFlPic=

> <r_epik_Ionization_Penalty>
0.000842111

> <r_epik_Ionization_Penalty_Charging>
0

> <r_epik_Ionization_Penalty_Neutral>
0.000842111

> <r_epik_State_Penalty>
0.000542609

> <r_epik_Charging_Adjusted_Penalty>
0.000542609

> <i_epik_Tot_Q>
0

> <i_epik_Tot_abs_Q>
0

> <r_epik_Metal_State_Penalty>
-0

> <b_epik_Metal_Only>
0

> <s_lp_Force_Field>
OPLS_2005

> <r_lp_Energy>
-3.24501

> <b_lp_Chiralities_Consistent>
1

> <s_lp_Variant>
AV-unprocessed.smi:961-1

> <Gold.Version>
5.8.1

> <Gold.Id.Protein>
6NUR|6NUR_protein|mol2

> <Gold.PLP.Fitness>
40.8323

> <Gold.PLP.PLP>
-36.3459

> <Gold.PLP.part.hbond>
-1.0000

> <Gold.PLP.part.metal>
0.0000

> <Gold.PLP.part.buried>
-5.2564

> <Gold.PLP.part.nonpolar>
-30.8469

> <Gold.PLP.part.repulsive>
0.2427

> <Gold.PLP.ligand.clash>
0.0000

> <Gold.PLP.ligand.torsion>
0.8065

> <Gold.PLP.Chemscore.Hbond>
1.0000

> <Gold.PLP.Chemscore.CHOScore>
1.0000

> <Gold.PLP.Chemscore.Metal>
0.0000

> <Gold.Chemscore.Hbonds>
donor molecule, donor type, donor heavy atom, donor atom, acceptor molecule, acceptor atom, score
      P1  H  6896  6909       L1    13  1.00
      L1  C     6    27       P1  8028  0.95

> <Gold.PLP.Chemscore.Internal.Correction>
0.0994

> <Gold.Rescore>
     Score         DG    S(hbond)    S(metal)    S(lipo)     H(rot)  DE(clash)    DE(int)     intcor
     16.77     -17.42       1.00        0.00     107.16       1.54       0.01       0.64       ----

> <Gold.Chemscore.Fitness>
16.7711

> <Gold.Chemscore.DG>
-17.4240

> <Gold.Chemscore.ZeroCoef>
-5.4800

> <Gold.Chemscore.Hbond>
0.9997

> <Gold.Chemscore.Metal>
0.0000

> <Gold.Chemscore.Lipo>
107.1638

> <Gold.Chemscore.Internal_Hbond>
0.0000

> <Gold.Chemscore.DEClash>
0.0089

> <Gold.Chemscore.DEInternal>
0.6440

> <Gold.Chemscore.Rot>
1.5364

> <Gold.Chemscore.Internal.Correction>
   9.000000E+99

> <Gold.Chemscore.Hbonds>
donor molecule, donor type, donor heavy atom, donor atom, acceptor molecule, acceptor atom, score
      P1  H  6896  6909       L1    13  0.98

> <Gold.Chemscore.Hbond.Weighted>
-3.3391

> <Gold.Chemscore.Metal.Weighted>
-0.0000

> <Gold.Chemscore.Lipo.Weighted>
-12.5382

> <Gold.Chemscore.Internal_Hbond.Weighted>
0.0000

> <Gold.Chemscore.DEClash.Weighted>
0.0089

> <Gold.Chemscore.DEInternal.Weighted>
0.6440

> <Gold.Chemscore.Rot.Weighted>
3.9332

> <Gold.Chemscore.Internal.Correction.Weighted>
   9.000000E+99

> <Gold.Protein.RotatedTorsions>
[ 6907 6896 6895 6894 ] final   70.39 input  -60.11 | X-H torsion
[ 7974 7965 7964 7962 ] final  -74.75 input  175.53 | X-H torsion
[ 8008 7997 7996 7995 ] final -160.67 input   59.86 | X-H torsion
[ 10167 10162 10161 10158 ] final   60.85 input  -65.29 | X-H torsion
[ 10718 10713 10712 10709 ] final  -32.76 input   66.30 | X-H torsion
[ 10763 10752 10751 10750 ] final   28.95 input  -60.55 | X-H torsion
[ 11005 11000 10999 10996 ] final  178.81 input  -57.11 | X-H torsion

> <Gold.Protein.ActiveResidues>
 VAL166  LYS551  ARG553  GLY616  TRP617  ASP618  TYR619  PRO620  LYS621  CYS622 
 ASP623  PHE694  ASN695  SER759  ASP760  ASP761  ALA762  ILE779  LEU786  VAL792 
 PHE793  MET794  SER795  GLU796  ALA797  LYS798  CYS799  TRP800  GLU811  SER814 

> <Gold.Protein.RotatedAtoms>
  152.4746  134.4876  159.9684 H   0  0  0  0  0  0  0  0  0  0  0  0  # atno 6907 bound_to 6896
  151.4895  133.3522  159.2859 H   0  0  0  0  0  0  0  0  0  0  0  0  # atno 6908 bound_to 6896
  150.8777  134.8189  159.7263 H   0  0  0  0  0  0  0  0  0  0  0  0  # atno 6909 bound_to 6896
  145.6350  140.9327  143.1067 H   0  0  0  0  0  0  0  0  0  0  0  0  # atno 7974 bound_to 7965
  155.7808  140.0865  157.2060 H   0  0  0  0  0  0  0  0  0  0  0  0  # atno 8008 bound_to 7997
  154.3990  140.1508  156.3107 H   0  0  0  0  0  0  0  0  0  0  0  0  # atno 8009 bound_to 7997
  155.8655  140.3428  155.5788 H   0  0  0  0  0  0  0  0  0  0  0  0  # atno 8010 bound_to 7997
  140.1611  144.4369  150.6709 H   0  0  0  0  0  0  0  0  0  0  0  0  # atno 10167 bound_to 10162
  156.3709  130.4339  149.7546 H   0  0  0  0  0  0  0  0  0  0  0  0  # atno 10718 bound_to 10713
  153.0460  135.6501  154.0816 H   0  0  0  0  0  0  0  0  0  0  0  0  # atno 10763 bound_to 10752
  154.0514  135.2895  155.3341 H   0  0  0  0  0  0  0  0  0  0  0  0  # atno 10764 bound_to 10752
  154.6717  135.5353  153.8213 H   0  0  0  0  0  0  0  0  0  0  0  0  # atno 10765 bound_to 10752
  140.3992  134.6792  157.4552 H   0  0  0  0  0  0  0  0  0  0  0  0  # atno 11005 bound_to 11000
  144.7179  139.8132  143.7392 LP  0  0  0  0  0  0  0  0  0  0  0  0  # atno 17320 bound_to 7965
  146.1327  139.4365  143.0159 LP  0  0  0  0  0  0  0  0  0  0  0  0  # atno 17321 bound_to 7965
  140.6642  143.2262  151.5782 LP  0  0  0  0  0  0  0  0  0  0  0  0  # atno 17342 bound_to 10162
  139.5381  144.2725  152.1293 LP  0  0  0  0  0  0  0  0  0  0  0  0  # atno 17343 bound_to 10162
  156.4673  130.7980  151.2999 LP  0  0  0  0  0  0  0  0  0  0  0  0  # atno 17370 bound_to 10713
  157.7484  131.0047  150.3085 LP  0  0  0  0  0  0  0  0  0  0  0  0  # atno 17371 bound_to 10713
  140.0349  134.6352  155.9057 LP  0  0  0  0  0  0  0  0  0  0  0  0  # atno 17394 bound_to 11000
  141.1863  133.6557  156.5233 LP  0  0  0  0  0  0  0  0  0  0  0  0  # atno 17395 bound_to 11000

$$$$
