AV-unprocessed.smi:107|AV-procd|sdf|1022|dock2
  -GOLD-   2262018 23D 1   1.00000     0.00000
 Structure written by MMmdl.
 30 31  0  0  0  0  0  0  0  0  2 V2000
  151.6693  136.5208  155.3850 C   0  0  0  0  0  0  0  0  0  0  0  0
  150.9319  137.7957  155.0147 C   0  0  0  0  0  0  0  0  0  0  0  0
  149.6372  137.7933  154.6262 C   0  0  0  0  0  0  0  0  0  0  0  0
  148.9715  138.9582  154.2877 N   0  0  0  0  0  0  0  0  0  0  0  0
  147.5320  138.9188  153.8344 C   0  0  1  0  0  0  0  0  0  0  0  0
  147.4138  139.2638  152.3554 C   0  0  0  0  0  0  0  0  0  0  0  0
  146.1775  138.4745  151.9412 C   0  0  1  0  0  0  0  0  0  0  0  0
  146.4080  137.8276  150.7029 O   0  0  0  0  0  0  0  0  0  0  0  0
  145.8961  137.5161  153.1251 C   0  0  1  0  0  0  0  0  0  0  0  0
  145.6554  136.0381  152.7637 C   0  0  0  0  0  0  0  0  0  0  0  0
  146.6331  135.5963  151.8459 O   0  0  0  0  0  0  0  0  0  0  0  0
  147.0479  137.6229  153.9531 O   0  0  0  0  0  0  0  0  0  0  0  0
  149.6635  140.1964  154.3118 C   0  0  0  0  0  0  0  0  0  0  0  0
  149.0554  141.2082  153.9620 O   0  0  0  0  0  0  0  0  0  0  0  0
  150.9673  140.2100  154.7115 N   0  5  0  0  0  0  0  0  0  0  0  0
  151.6419  139.0796  155.0700 C   0  0  0  0  0  0  0  0  0  0  0  0
  152.8182  139.1072  155.4315 O   0  0  0  0  0  0  0  0  0  0  0  0
  151.0227  135.6477  155.2944 H   0  0  0  0  0  0  0  0  0  0  0  0
  152.0256  136.5720  156.4141 H   0  0  0  0  0  0  0  0  0  0  0  0
  152.5281  136.3745  154.7292 H   0  0  0  0  0  0  0  0  0  0  0  0
  149.1127  136.8508  154.5731 H   0  0  0  0  0  0  0  0  0  0  0  0
  146.9577  139.5746  154.4915 H   0  0  0  0  0  0  0  0  0  0  0  0
  147.3224  140.3407  152.2113 H   0  0  0  0  0  0  0  0  0  0  0  0
  148.3042  138.9084  151.8333 H   0  0  0  0  0  0  0  0  0  0  0  0
  145.3294  139.1485  151.8146 H   0  0  0  0  0  0  0  0  0  0  0  0
  145.6274  137.9002  150.1757 H   0  0  0  0  0  0  0  0  0  0  0  0
  145.0412  137.9088  153.6793 H   0  0  0  0  0  0  0  0  0  0  0  0
  145.7474  135.4071  153.6479 H   0  0  0  0  0  0  0  0  0  0  0  0
  144.6551  135.8889  152.3556 H   0  0  0  0  0  0  0  0  0  0  0  0
  147.4241  136.0939  151.9870 H   0  0  0  0  0  0  0  0  0  0  0  0
  1  2  1  0  0  0  0
  1 18  1  0  0  0  0
  1 19  1  0  0  0  0
  1 20  1  0  0  0  0
  2 16  1  0  0  0  0
  2  3  2  0  0  0  0
  3  4  1  0  0  0  0
  3 21  1  0  0  0  0
  4  5  1  0  0  0  0
  4 13  1  0  0  0  0
  5 12  1  0  0  0  0
  5  6  1  0  0  0  0
  5 22  1  0  0  0  0
  6  7  1  0  0  0  0
  6 23  1  0  0  0  0
  6 24  1  0  0  0  0
  7  8  1  0  0  0  0
  7  9  1  0  0  0  0
  7 25  1  0  0  0  0
  8 26  1  0  0  0  0
  9 10  1  0  0  0  0
  9 12  1  0  0  0  0
  9 27  1  0  0  0  0
 10 11  1  0  0  0  0
 10 28  1  0  0  0  0
 10 29  1  0  0  0  0
 11 30  1  0  0  0  0
 13 14  2  0  0  0  0
 13 15  1  0  0  0  0
 15 16  1  0  0  0  0
 16 17  2  0  0  0  0
M  CHG  1  15  -1
M  END
> <s_m_source_file>
AV-unprocessed.smi

> <i_m_source_file_index>
107

> <i_lp_mmshare_version>
43012

> <i_f3d_flags>
0

> <s_epik_input>
Tz1jMVtuSF1jKD1PKW4oW2NIXWMxW0NIM10pW0NAQEhdMltDSDJdW0NAQEhdKFtPSF0pW0NASF0oTzIpW0NIMl1bT0hd

> <s_epik_cmdline>
J2VwaWtfcHl0aG9uJywgJy1waCcsICc3LjAnLCAnLXRuJywgJzgnLCAnLW1hJywgJzIwMCcsICctbWV0YWxfYmluZGluZycsICctaW1hZScsICc8aW5maWxlLm1hZT4nLCAnLW9tYWUnLCAnPG91dGZpbGUubWFlPic=

> <r_lp_tautomer_probability>
0.999537

> <r_epik_Ionization_Penalty>
3.66603

> <r_epik_Ionization_Penalty_Charging>
1.09773e-07

> <r_epik_Ionization_Penalty_Neutral>
3.66603

> <r_epik_State_Penalty>
3.66562

> <r_epik_Charging_Adjusted_Penalty>
3.66562

> <i_epik_Tot_Q>
-1

> <i_epik_Tot_abs_Q>
1

> <r_epik_Metal_State_Penalty>
0.234536

> <b_epik_Metal_Only>
1

> <s_epik_Chemistry_Notes>
This compound contains an acetal/aminal-like group ( X-CH(R)-Y where X, Y are N, S, or O) that may be acid/base labile, releasing an aldehyde.

> <s_lp_Force_Field>
OPLS_2005

> <r_lp_Energy>
40.7451

> <b_lp_Chiralities_Consistent>
1

> <s_lp_Variant>
AV-unprocessed.smi:107-10

> <Gold.Version>
5.8.1

> <Gold.Id.Protein>
6NUR|6NUR_protein|mol2

> <Gold.PLP.Fitness>
40.6090

> <Gold.PLP.PLP>
-23.6213

> <Gold.PLP.part.hbond>
-7.0877

> <Gold.PLP.part.metal>
0.0000

> <Gold.PLP.part.buried>
4.0683

> <Gold.PLP.part.nonpolar>
-22.4632

> <Gold.PLP.part.repulsive>
1.2724

> <Gold.PLP.ligand.clash>
0.0000

> <Gold.PLP.ligand.torsion>
0.1661

> <Gold.PLP.Chemscore.Hbond>
5.7210

> <Gold.PLP.Chemscore.CHOScore>
0.0442

> <Gold.PLP.Chemscore.Metal>
0.0000

> <Gold.Chemscore.Hbonds>
donor molecule, donor type, donor heavy atom, donor atom, acceptor molecule, acceptor atom, score
      L1  H     8    26       P1 10171  1.00
      L1  H    11    30       P1  7948  0.94
      P1  H  7954  7966       L1     8  1.00
      P1  H  7989  7998       L1    15  1.00
      P1  H  7997  8008       L1    17  1.00
      P1  H  8011  8017       L1    14  0.57
      L1  C     3    21       P1  7948  0.20

> <Gold.PLP.Chemscore.Internal.Correction>
0.0242

> <Gold.Rescore>
     Score         DG    S(hbond)    S(metal)    S(lipo)     H(rot)  DE(clash)    DE(int)     intcor
     14.23     -19.04       4.65        0.00      41.91       2.69       3.51       1.29       ----

> <Gold.Chemscore.Fitness>
14.2324

> <Gold.Chemscore.DG>
-19.0358

> <Gold.Chemscore.ZeroCoef>
-5.4800

> <Gold.Chemscore.Hbond>
4.6501

> <Gold.Chemscore.Metal>
0.0000

> <Gold.Chemscore.Lipo>
41.9117

> <Gold.Chemscore.Internal_Hbond>
0.0000

> <Gold.Chemscore.DEClash>
3.5113

> <Gold.Chemscore.DEInternal>
1.2920

> <Gold.Chemscore.Rot>
2.6871

> <Gold.Chemscore.Internal.Correction>
   9.000000E+99

> <Gold.Chemscore.Hbonds>
donor molecule, donor type, donor heavy atom, donor atom, acceptor molecule, acceptor atom, score
      L1  H     8    26       P1 10171  0.97
      L1  H    11    30       P1  7948  0.85
      P1  H  7954  7966       L1     8  0.92
      P1  H  7989  7998       L1    15  0.22
      P1  H  7997  8008       L1    17  0.97
      P1  H  8011  8017       L1    14  0.55

> <Gold.Chemscore.Hbond.Weighted>
-15.5312

> <Gold.Chemscore.Metal.Weighted>
-0.0000

> <Gold.Chemscore.Lipo.Weighted>
-4.9037

> <Gold.Chemscore.Internal_Hbond.Weighted>
0.0000

> <Gold.Chemscore.DEClash.Weighted>
3.5113

> <Gold.Chemscore.DEInternal.Weighted>
1.2920

> <Gold.Chemscore.Rot.Weighted>
6.8791

> <Gold.Chemscore.Internal.Correction.Weighted>
   9.000000E+99

> <Gold.Protein.RotatedTorsions>
[ 6907 6896 6895 6894 ] final   56.68 input  -60.11 | X-H torsion
[ 7974 7965 7964 7962 ] final   50.14 input  175.53 | X-H torsion
[ 8008 7997 7996 7995 ] final  -25.52 input   59.86 | X-H torsion
[ 10167 10162 10161 10158 ] final   35.69 input  -65.29 | X-H torsion
[ 10718 10713 10712 10709 ] final  -69.76 input   66.30 | X-H torsion
[ 10763 10752 10751 10750 ] final -129.50 input  -60.55 | X-H torsion
[ 11005 11000 10999 10996 ] final  117.86 input  -57.11 | X-H torsion

> <Gold.Protein.ActiveResidues>
 VAL166  LYS551  ARG553  GLY616  TRP617  ASP618  TYR619  PRO620  LYS621  CYS622 
 ASP623  PHE694  ASN695  SER759  ASP760  ASP761  ALA762  ILE779  LEU786  VAL792 
 PHE793  MET794  SER795  GLU796  ALA797  LYS798  CYS799  TRP800  GLU811  SER814 

> <Gold.Protein.RotatedAtoms>
  152.3659  134.6804  160.0191 H   0  0  0  0  0  0  0  0  0  0  0  0  # atno 6907 bound_to 6896
  151.7112  133.3307  159.3299 H   0  0  0  0  0  0  0  0  0  0  0  0  # atno 6908 bound_to 6896
  150.7638  134.6465  159.6309 H   0  0  0  0  0  0  0  0  0  0  0  0  # atno 6909 bound_to 6896
  146.0041  139.4471  142.9997 H   0  0  0  0  0  0  0  0  0  0  0  0  # atno 7974 bound_to 7965
  154.4472  140.1924  156.0632 H   0  0  0  0  0  0  0  0  0  0  0  0  # atno 8008 bound_to 7997
  156.0567  140.3302  155.7387 H   0  0  0  0  0  0  0  0  0  0  0  0  # atno 8009 bound_to 7997
  155.5474  140.0592  157.2848 H   0  0  0  0  0  0  0  0  0  0  0  0  # atno 8010 bound_to 7997
  140.4198  144.1475  150.6147 H   0  0  0  0  0  0  0  0  0  0  0  0  # atno 10167 bound_to 10162
  156.0440  130.4318  150.2196 H   0  0  0  0  0  0  0  0  0  0  0  0  # atno 10718 bound_to 10713
  154.8757  135.3893  154.3929 H   0  0  0  0  0  0  0  0  0  0  0  0  # atno 10763 bound_to 10752
  153.4663  135.7029  153.6025 H   0  0  0  0  0  0  0  0  0  0  0  0  # atno 10764 bound_to 10752
  153.4502  135.3835  155.2247 H   0  0  0  0  0  0  0  0  0  0  0  0  # atno 10765 bound_to 10752
  139.9089  134.9614  156.7415 H   0  0  0  0  0  0  0  0  0  0  0  0  # atno 11005 bound_to 11000
  145.7443  140.9996  143.1284 LP  0  0  0  0  0  0  0  0  0  0  0  0  # atno 17320 bound_to 7965
  144.6929  139.9137  143.7464 LP  0  0  0  0  0  0  0  0  0  0  0  0  # atno 17321 bound_to 7965
  140.4546  143.2473  151.9302 LP  0  0  0  0  0  0  0  0  0  0  0  0  # atno 17342 bound_to 10162
  139.4782  144.5528  151.8359 LP  0  0  0  0  0  0  0  0  0  0  0  0  # atno 17343 bound_to 10162
  157.0287  131.0001  151.3318 LP  0  0  0  0  0  0  0  0  0  0  0  0  # atno 17370 bound_to 10713
  157.5292  130.8048  149.7898 LP  0  0  0  0  0  0  0  0  0  0  0  0  # atno 17371 bound_to 10713
  140.6845  133.9445  155.7930 LP  0  0  0  0  0  0  0  0  0  0  0  0  # atno 17394 bound_to 11000
  141.0486  134.0518  157.3812 LP  0  0  0  0  0  0  0  0  0  0  0  0  # atno 17395 bound_to 11000

$$$$
