#       Name:                AV-unprocessed.smi:262
#       Creating user name   scv26
#       Creation time:       Thu Mar 26 21:19:40 2020


#       File generated by GOLD software.
#

@<TRIPOS>MOLECULE
AV-unprocessed.smi:262
    70    74     1
SMALL
NO_CHARGES


@<TRIPOS>ATOM
      1 ****        -5.0068   0.8192  -1.0010 O.3            1 S1                 0.0000
      2 ****        -5.4531  -0.0269   0.0447 C.3            1 S1                 0.0000
      3 ****        -4.7721  -1.4068  -0.1333 C.3            1 S1                 0.0000
      4 ****        -3.3204  -1.3663  -0.0461 N.pl3          1 S1                 0.0000
      5 ****        -2.5565  -1.5287   1.0876 C.2            1 S1                 0.0000
      6 ****        -1.2668  -1.4492   0.9055 N.2            1 S1                 0.0000
      7 ****        -1.1288  -1.2186  -0.4585 C.ar           1 S1                 0.0000
      8 ****        -0.0144  -1.0401  -1.3267 C.ar           1 S1                 0.0000
      9 ****         1.2690  -1.0496  -0.8843 N.3            1 S1                 0.0000
     10 ****         2.3300  -1.2774  -1.8629 C.3            1 S1                 0.0000
     11 ****         3.6708  -1.5281  -1.1503 C.3            1 S1                 0.0000
     12 ****         4.0072  -0.3840  -0.2994 N.3            1 S1                 0.0000
     13 ****         5.3187  -0.6132   0.3072 C.3            1 S1                 0.0000
     14 ****         5.9122   0.6663   0.9308 C.3            1 S1                 0.0000
     15 ****         6.2292   1.7619  -0.0686 C.3            1 S1                 0.0000
     16 ****         7.2146   2.6247   0.7130 C.3            1 S1                 0.0000
     17 ****         7.9198   1.7280   1.5663 O.3            1 S1                 0.0000
     18 ****         7.2879   0.4510   1.5611 C.3            1 S1                 0.0000
     19 ****         2.9619  -0.2552   0.7227 C.3            1 S1                 0.0000
     20 ****         1.6005   0.0167   0.0560 C.3            1 S1                 0.0000
     21 ****        -0.2772  -0.8578  -2.6491 N.ar           1 S1                 0.0000
     22 ****        -1.5375  -0.8407  -3.0925 C.ar           1 S1                 0.0000
     23 ****        -2.6679  -0.9865  -2.3993 N.ar           1 S1                 0.0000
     24 ****        -2.4126  -1.1756  -1.0731 C.ar           1 S1                 0.0000
     25 ****        -5.0982   0.6403   1.3920 C.3            1 S1                 0.0000
     26 ****        -5.9412   1.9010   1.6551 C.3            1 S1                 0.0000
     27 ****        -7.3269   1.5899   1.5749 O.3            1 S1                 0.0000
     28 ****        -7.7139   1.1435   0.2811 C.3            1 S1                 0.0000
     29 ****        -6.9849  -0.1676  -0.0622 C.3            1 S1                 0.0000
     30 ****        -5.1880   0.3981  -1.8276 H              1 S1                 0.0000
     31 ****        -5.1342  -2.1016   0.6258 H              1 S1                 0.0000
     32 ****        -5.0450  -1.8431  -1.0954 H              1 S1                 0.0000
     33 ****        -2.9900  -1.7038   2.0618 H              1 S1                 0.0000
     34 ****         2.0834  -2.1399  -2.4834 H              1 S1                 0.0000
     35 ****         2.4137  -0.4138  -2.5247 H              1 S1                 0.0000
     36 ****         3.6222  -2.4425  -0.5565 H              1 S1                 0.0000
     37 ****         4.4507  -1.6725  -1.8989 H              1 S1                 0.0000
     38 ****         5.2503  -1.4062   1.0536 H              1 S1                 0.0000
     39 ****         6.0095  -0.9701  -0.4584 H              1 S1                 0.0000
     40 ****         5.2547   1.0680   1.7019 H              1 S1                 0.0000
     41 ****         6.7144   1.3450  -0.9524 H              1 S1                 0.0000
     42 ****         5.3471   2.3150  -0.3928 H              1 S1                 0.0000
     43 ****         7.8931   3.1768   0.0626 H              1 S1                 0.0000
     44 ****         6.6794   3.3442   1.3339 H              1 S1                 0.0000
     45 ****         7.2235   0.0354   2.5670 H              1 S1                 0.0000
     46 ****         7.8910  -0.2262   0.9547 H              1 S1                 0.0000
     47 ****         2.9115  -1.1605   1.3301 H              1 S1                 0.0000
     48 ****         3.1861   0.5694   1.3976 H              1 S1                 0.0000
     49 ****         1.6272   0.9681  -0.4773 H              1 S1                 0.0000
     50 ****         0.8389   0.1127   0.8289 H              1 S1                 0.0000
     51 ****        -1.6568  -0.6889  -4.1551 H              1 S1                 0.0000
     52 ****        -5.2735  -0.0695   2.2014 H              1 S1                 0.0000
     53 ****        -4.0391   0.8972   1.4323 H              1 S1                 0.0000
     54 ****        -5.7272   2.2895   2.6509 H              1 S1                 0.0000
     55 ****        -5.6931   2.6942   0.9483 H              1 S1                 0.0000
     56 ****        -8.7919   0.9822   0.2751 H              1 S1                 0.0000
     57 ****        -7.5075   1.9161  -0.4611 H              1 S1                 0.0000
     58 ****        -7.2706  -0.5043  -1.0597 H              1 S1                 0.0000
     59 ****        -7.3251  -0.9405   0.6285 H              1 S1                 0.0000
     60 ****        -4.0232   0.9758  -0.9112 LP             1 S1                 0.0000
     61 ****        -5.4891   1.6940  -0.9557 LP             1 S1                 0.0000
     62 ****        -0.5432  -1.5346   1.5904 LP             1 S1                 0.0000
     63 ****         1.2576  -1.9054  -0.3671 LP             1 S1                 0.0000
     64 ****         4.0526   0.4636  -0.8282 LP             1 S1                 0.0000
     65 ****         7.9238   2.0916   2.4978 LP             1 S1                 0.0000
     66 ****         8.8609   1.6331   1.2415 LP             1 S1                 0.0000
     67 ****         0.4778  -0.7358  -3.2934 LP             1 S1                 0.0000
     68 ****        -3.5836  -0.9605  -2.8002 LP             1 S1                 0.0000
     69 ****        -7.8527   2.4098   1.8012 LP             1 S1                 0.0000
     70 ****        -7.5320   0.8691   2.2369 LP             1 S1                 0.0000
@<TRIPOS>BOND
    1    1    2 1     
    2    1   30 1     
    3    2   29 1     
    4    2    3 1     
    5    2   25 1     
    6    3    4 1     
    7    3   31 1     
    8    3   32 1     
    9    4   24 1     
   10    4    5 1     
   11    5    6 2     
   12    5   33 1     
   13    6    7 1     
   14    7   24 ar    
   15    7    8 ar    
   16    8    9 1     
   17    8   21 ar    
   18    9   20 1     
   19    9   10 1     
   20   10   11 1     
   21   10   34 1     
   22   10   35 1     
   23   11   12 1     
   24   11   36 1     
   25   11   37 1     
   26   12   13 1     
   27   12   19 1     
   28   13   14 1     
   29   13   38 1     
   30   13   39 1     
   31   14   18 1     
   32   14   15 1     
   33   14   40 1     
   34   15   16 1     
   35   15   41 1     
   36   15   42 1     
   37   16   17 1     
   38   16   43 1     
   39   16   44 1     
   40   17   18 1     
   41   18   45 1     
   42   18   46 1     
   43   19   20 1     
   44   19   47 1     
   45   19   48 1     
   46   20   49 1     
   47   20   50 1     
   48   21   22 ar    
   49   22   23 ar    
   50   22   51 1     
   51   23   24 ar    
   52   25   26 1     
   53   25   52 1     
   54   25   53 1     
   55   26   27 1     
   56   26   54 1     
   57   26   55 1     
   58   27   28 1     
   59   28   29 1     
   60   28   56 1     
   61   28   57 1     
   62   29   58 1     
   63   29   59 1     
   64    1   60 1     
   65    1   61 1     
   66    6   62 1     
   67    9   63 1     
   68   12   64 1     
   69   17   65 1     
   70   17   66 1     
   71   21   67 1     
   72   23   68 1     
   73   27   69 1     
   74   27   70 1     
@<TRIPOS>SUBSTRUCTURE
      1 S1             1
@<TRIPOS>SET
LONE_PAIRS      STATIC     ATOMS    <user>   **** ""
11 60 61 62 63 64 65 66 67 68 69 70
DONOR_HYDROGENS      STATIC     ATOMS    <user>   **** ""
1 30
ATOM$BLUE        STATIC     ATOMS    COLORGROUP SYSTEM
11 60 61 62 63 64 65 66 67 68 69 70
ATOM$RED        STATIC     ATOMS    COLORGROUP SYSTEM
1 30
