#       Name:                AV-unprocessed.smi:2101
#       Creating user name   scv26
#       Creation time:       Fri Mar 27 11:31:05 2020


#       File generated by GOLD software.
#

@<TRIPOS>MOLECULE
AV-unprocessed.smi:2101
    44    45     1
SMALL
NO_CHARGES


@<TRIPOS>ATOM
      1 ****        -4.9343   2.1104  -2.0941 C.3            1 S1                 0.0000
      2 ****        -5.2096   1.2422  -0.4965 S.o2           1 S1                 0.0000
      3 ****        -5.8160   2.1944   0.4465 O.2            1 S1                 0.0000
      4 ****        -5.8819  -0.0359  -0.7760 O.2            1 S1                 0.0000
      5 ****        -3.6016   0.8882   0.0633 N.pl3          1 S1                 0.0000
      6 ****        -2.8413  -0.2152  -0.5675 C.3            1 S1                 0.0000
      7 ****        -1.7490   0.3177  -1.5147 C.3            1 S1                 0.0000
      8 ****        -0.8991   1.2596  -0.7745 N.am           1 S1                 0.0000
      9 ****         0.3581   1.0346  -0.3180 C.2            1 S1                 0.0000
     10 ****         0.9516   1.8120   0.4306 O.2            1 S1                 0.0000
     11 ****         0.9233  -0.1010  -0.7620 N.am           1 S1                 0.0000
     12 ****         2.2617  -0.5665  -0.4164 C.3            1 S1                 0.0000
     13 ****         2.2929  -1.2202   0.9755 C.3            1 S1                 0.0000
     14 ****         3.6707  -1.7440   1.3340 C.ar           1 S1                 0.0000
     15 ****         3.9743  -3.1168   1.2123 C.ar           1 S1                 0.0000
     16 ****         5.2700  -3.5505   1.5544 C.ar           1 S1                 0.0000
     17 ****         6.2075  -2.5996   2.0014 C.ar           1 S1                 0.0000
     18 ****         5.8062  -1.2515   2.0862 C.ar           1 S1                 0.0000
     19 ****         4.5665  -0.8254   1.7608 N.ar           1 S1                 0.0000
     20 ****        -1.6829   2.4296  -0.3730 C.3            1 S1                 0.0000
     21 ****        -2.7726   1.9816   0.6206 C.3            1 S1                 0.0000
     22 ****        -5.8986   2.3763  -2.5260 H              1 S1                 0.0000
     23 ****        -4.4039   1.4561  -2.7841 H              1 S1                 0.0000
     24 ****        -4.3582   3.0190  -1.9258 H              1 S1                 0.0000
     25 ****        -2.3809  -0.8110   0.2215 H              1 S1                 0.0000
     26 ****        -3.5138  -0.8831  -1.1047 H              1 S1                 0.0000
     27 ****        -1.2029  -0.5186  -1.9508 H              1 S1                 0.0000
     28 ****        -2.2000   0.8334  -2.3625 H              1 S1                 0.0000
     29 ****         0.3832  -0.6870  -1.3817 H              1 S1                 0.0000
     30 ****         2.5725  -1.2892  -1.1713 H              1 S1                 0.0000
     31 ****         2.9702   0.2620  -0.4692 H              1 S1                 0.0000
     32 ****         1.9831  -0.5039   1.7380 H              1 S1                 0.0000
     33 ****         1.5754  -2.0407   1.0181 H              1 S1                 0.0000
     34 ****         3.2339  -3.8225   0.8650 H              1 S1                 0.0000
     35 ****         5.5396  -4.5932   1.4751 H              1 S1                 0.0000
     36 ****         7.2099  -2.8958   2.2731 H              1 S1                 0.0000
     37 ****         6.4991  -0.4952   2.4241 H              1 S1                 0.0000
     38 ****        -1.0695   3.2099   0.0795 H              1 S1                 0.0000
     39 ****        -2.1301   2.8880  -1.2549 H              1 S1                 0.0000
     40 ****        -3.3973   2.8282   0.9040 H              1 S1                 0.0000
     41 ****        -2.3044   1.6240   1.5385 H              1 S1                 0.0000
     42 ****         0.5063   2.6559   0.7300 LP             1 S1                 0.0000
     43 ****         1.8787   1.5993   0.7391 LP             1 S1                 0.0000
     44 ****         4.3185   0.1406   1.8334 LP             1 S1                 0.0000
@<TRIPOS>BOND
    1    1    2 1     
    2    1   22 1     
    3    1   23 1     
    4    1   24 1     
    5    2    3 2     
    6    2    4 2     
    7    2    5 1     
    8    5   21 1     
    9    5    6 1     
   10    6    7 1     
   11    6   25 1     
   12    6   26 1     
   13    7    8 1     
   14    7   27 1     
   15    7   28 1     
   16    8    9 am    
   17    8   20 1     
   18    9   10 2     
   19    9   11 am    
   20   11   12 1     
   21   11   29 1     
   22   12   13 1     
   23   12   30 1     
   24   12   31 1     
   25   13   14 1     
   26   13   32 1     
   27   13   33 1     
   28   14   19 ar    
   29   14   15 ar    
   30   15   16 ar    
   31   15   34 1     
   32   16   17 ar    
   33   16   35 1     
   34   17   18 ar    
   35   17   36 1     
   36   18   19 ar    
   37   18   37 1     
   38   20   21 1     
   39   20   38 1     
   40   20   39 1     
   41   21   40 1     
   42   21   41 1     
   43   10   42 1     
   44   10   43 1     
   45   19   44 1     
@<TRIPOS>SUBSTRUCTURE
      1 S1             1
@<TRIPOS>SET
LONE_PAIRS      STATIC     ATOMS    <user>   **** ""
5 3 4 42 43 44
DONOR_HYDROGENS      STATIC     ATOMS    <user>   **** ""
1 29
ATOM$BLUE        STATIC     ATOMS    COLORGROUP SYSTEM
5 3 4 42 43 44
ATOM$RED        STATIC     ATOMS    COLORGROUP SYSTEM
1 29
