AV-unprocessed.smi:2768|AV-procd|sdf|10649|dock9
  -GOLD-   2272015103D 1   1.00000     0.00000
 Structure written by MMmdl.
 35 36  0  0  0  0  0  0  0  0  1 V2000
  152.6391  140.2258  154.9289 O   0  0  0  0  0  0  0  0  0  0  0  0
  151.5394  140.0291  155.4476 C   0  0  0  0  0  0  0  0  0  0  0  0
  151.1360  140.6508  156.5680 N   0  0  0  0  0  0  0  0  0  0  0  0
  151.9382  141.5832  157.3562 C   0  0  1  0  0  0  0  0  0  0  0  0
  151.1713  142.9019  157.5735 C   0  0  0  0  0  0  0  0  0  0  0  0
  151.9975  143.8948  158.4070 C   0  0  0  0  0  0  0  0  0  0  0  0
  152.4204  143.2801  159.7504 C   0  0  0  0  0  0  0  0  0  0  0  0
  153.1803  141.9561  159.5503 C   0  0  0  0  0  0  0  0  0  0  0  0
  152.3835  140.9498  158.6975 C   0  0  1  0  0  0  0  0  0  0  0  0
  151.2646  140.4989  159.4393 O   0  0  0  0  0  0  0  0  0  0  0  0
  150.5628  139.0137  154.8368 C   0  0  0  0  0  0  0  0  0  0  0  0
  151.1432  138.4430  153.7782 F   0  0  0  0  0  0  0  0  0  0  0  0
  150.3069  138.0547  155.7299 F   0  0  0  0  0  0  0  0  0  0  0  0
  149.2656  139.7106  154.4337 C   0  0  0  0  0  0  0  0  0  0  0  0
  148.2286  139.0044  153.7816 C   0  0  0  0  0  0  0  0  0  0  0  0
  147.0617  139.7031  153.4166 C   0  0  0  0  0  0  0  0  0  0  0  0
  146.9719  141.0765  153.7116 C   0  0  0  0  0  0  0  0  0  0  0  0
  148.0584  141.6936  154.3612 C   0  0  0  0  0  0  0  0  0  0  0  0
  149.1816  141.0330  154.7145 N   0  0  0  0  0  0  0  0  0  0  0  0
  152.8357  141.8261  156.7835 H   0  0  0  0  0  0  0  0  0  0  0  0
  153.0120  140.0803  158.5018 H   0  0  0  0  0  0  0  0  0  0  0  0
  150.2155  140.4343  156.9222 H   0  0  0  0  0  0  0  0  0  0  0  0
  150.9230  143.3519  156.6115 H   0  0  0  0  0  0  0  0  0  0  0  0
  150.2228  142.7059  158.0758 H   0  0  0  0  0  0  0  0  0  0  0  0
  152.8846  144.1928  157.8464 H   0  0  0  0  0  0  0  0  0  0  0  0
  151.4216  144.8045  158.5797 H   0  0  0  0  0  0  0  0  0  0  0  0
  153.0444  143.9853  160.3000 H   0  0  0  0  0  0  0  0  0  0  0  0
  151.5370  143.1083  160.3666 H   0  0  0  0  0  0  0  0  0  0  0  0
  154.1311  142.1644  159.0583 H   0  0  0  0  0  0  0  0  0  0  0  0
  153.4296  141.5173  160.5172 H   0  0  0  0  0  0  0  0  0  0  0  0
  151.2988  140.8913  160.2983 H   0  0  0  0  0  0  0  0  0  0  0  0
  148.3209  137.9516  153.5594 H   0  0  0  0  0  0  0  0  0  0  0  0
  146.2505  139.1946  152.9172 H   0  0  0  0  0  0  0  0  0  0  0  0
  146.0921  141.6437  153.4460 H   0  0  0  0  0  0  0  0  0  0  0  0
  148.0255  142.7457  154.6025 H   0  0  0  0  0  0  0  0  0  0  0  0
  1  2  2  0  0  0  0
  2  3  1  0  0  0  0
  2 11  1  0  0  0  0
  3  4  1  0  0  0  0
  3 22  1  0  0  0  0
  4 20  1  0  0  0  0
  4  9  1  0  0  0  0
  4  5  1  0  0  0  0
  5  6  1  0  0  0  0
  5 23  1  0  0  0  0
  5 24  1  0  0  0  0
  6  7  1  0  0  0  0
  6 25  1  0  0  0  0
  6 26  1  0  0  0  0
  7  8  1  0  0  0  0
  7 27  1  0  0  0  0
  7 28  1  0  0  0  0
  8  9  1  0  0  0  0
  8 29  1  0  0  0  0
  8 30  1  0  0  0  0
  9 21  1  0  0  0  0
  9 10  1  0  0  0  0
 10 31  1  0  0  0  0
 11 12  1  0  0  0  0
 11 13  1  0  0  0  0
 11 14  1  0  0  0  0
 14 19  1  0  0  0  0
 14 15  2  0  0  0  0
 15 16  1  0  0  0  0
 15 32  1  0  0  0  0
 16 17  2  0  0  0  0
 16 33  1  0  0  0  0
 17 18  1  0  0  0  0
 17 34  1  0  0  0  0
 18 19  2  0  0  0  0
 18 35  1  0  0  0  0
M  END
> <s_m_source_file>
AV-unprocessed.smi

> <i_m_source_file_index>
2768

> <i_lp_mmshare_version>
43012

> <i_f3d_flags>
0

> <s_epik_input>
bjFbY0hdW2NIXVtjSF1bY0hdYzFDKEYpKEYpQyg9TylbTkhdW0NAQEhdMltDSDJdW0NIMl1bQ0gyXVtDSDJdW0NASF0yW09IXQ==

> <s_epik_cmdline>
J2VwaWtfcHl0aG9uJywgJy1waCcsICc3LjAnLCAnLXRuJywgJzgnLCAnLW1hJywgJzIwMCcsICctbWV0YWxfYmluZGluZycsICctaW1hZScsICc8aW5maWxlLm1hZT4nLCAnLW9tYWUnLCAnPG91dGZpbGUubWFlPic=

> <r_lp_tautomer_probability>
1

> <r_epik_Ionization_Penalty>
4.19456e-05

> <r_epik_Ionization_Penalty_Charging>
0

> <r_epik_Ionization_Penalty_Neutral>
4.19456e-05

> <r_epik_State_Penalty>
-0

> <r_epik_Charging_Adjusted_Penalty>
0

> <i_epik_Tot_Q>
0

> <i_epik_Tot_abs_Q>
0

> <r_epik_Metal_State_Penalty>
0.0354684

> <b_epik_Metal_Only>
0

> <s_lp_Force_Field>
OPLS_2005

> <r_lp_Energy>
19.7139

> <b_lp_Chiralities_Consistent>
1

> <s_lp_Variant>
AV-unprocessed.smi:2768-2

> <Gold.Version>
5.8.1

> <Gold.Id.Protein>
6NUR|6NUR_protein|mol2

> <Gold.PLP.Fitness>
45.7164

> <Gold.PLP.PLP>
-39.6022

> <Gold.PLP.part.hbond>
-3.2268

> <Gold.PLP.part.metal>
0.0000

> <Gold.PLP.part.buried>
-2.5343

> <Gold.PLP.part.nonpolar>
-33.5152

> <Gold.PLP.part.repulsive>
0.2341

> <Gold.PLP.ligand.clash>
0.0000

> <Gold.PLP.ligand.torsion>
0.1204

> <Gold.PLP.Chemscore.Hbond>
1.1100

> <Gold.PLP.Chemscore.CHOScore>
1.0000

> <Gold.PLP.Chemscore.Metal>
0.0000

> <Gold.Chemscore.Hbonds>
donor molecule, donor type, donor heavy atom, donor atom, acceptor molecule, acceptor atom, score
      P1  H  7989  7998       L1     1  0.13
      P1  H  7997  8009       L1     1  0.84
      L1  C    18    35       P1  8028  1.00

> <Gold.PLP.Chemscore.Internal.Correction>
0.0251

> <Gold.Rescore>
     Score         DG    S(hbond)    S(metal)    S(lipo)     H(rot)  DE(clash)    DE(int)     intcor
     13.06     -15.09       0.98        0.00      97.87       2.00       0.23       1.80       ----

> <Gold.Chemscore.Fitness>
13.0586

> <Gold.Chemscore.DG>
-15.0923

> <Gold.Chemscore.ZeroCoef>
-5.4800

> <Gold.Chemscore.Hbond>
0.9800

> <Gold.Chemscore.Metal>
0.0000

> <Gold.Chemscore.Lipo>
97.8742

> <Gold.Chemscore.Internal_Hbond>
0.0000

> <Gold.Chemscore.DEClash>
0.2341

> <Gold.Chemscore.DEInternal>
1.7996

> <Gold.Chemscore.Rot>
1.9969

> <Gold.Chemscore.Internal.Correction>
   9.000000E+99

> <Gold.Chemscore.Hbonds>
donor molecule, donor type, donor heavy atom, donor atom, acceptor molecule, acceptor atom, score
      P1  H  7997  8009       L1     1  0.76

> <Gold.Chemscore.Hbond.Weighted>
-3.2732

> <Gold.Chemscore.Metal.Weighted>
-0.0000

> <Gold.Chemscore.Lipo.Weighted>
-11.4513

> <Gold.Chemscore.Internal_Hbond.Weighted>
0.0000

> <Gold.Chemscore.DEClash.Weighted>
0.2341

> <Gold.Chemscore.DEInternal.Weighted>
1.7996

> <Gold.Chemscore.Rot.Weighted>
5.1122

> <Gold.Chemscore.Internal.Correction.Weighted>
   9.000000E+99

> <Gold.Protein.RotatedTorsions>
[ 6907 6896 6895 6894 ] final  -49.63 input  -60.11 | X-H torsion
[ 7974 7965 7964 7962 ] final   23.96 input  175.53 | X-H torsion
[ 8008 7997 7996 7995 ] final -151.44 input   59.86 | X-H torsion
[ 10167 10162 10161 10158 ] final   48.02 input  -65.29 | X-H torsion
[ 10718 10713 10712 10709 ] final -129.71 input   66.30 | X-H torsion
[ 10763 10752 10751 10750 ] final  122.41 input  -60.55 | X-H torsion
[ 11005 11000 10999 10996 ] final   46.44 input  -57.11 | X-H torsion

> <Gold.Protein.ActiveResidues>
 VAL166  LYS551  ARG553  GLY616  TRP617  ASP618  TYR619  PRO620  LYS621  CYS622 
 ASP623  PHE694  ASN695  SER759  ASP760  ASP761  ALA762  ILE779  LEU786  VAL792 
 PHE793  MET794  SER795  GLU796  ALA797  LYS798  CYS799  TRP800  GLU811  SER814 

> <Gold.Protein.RotatedAtoms>
  150.8786  134.8174  159.7208 H   0  0  0  0  0  0  0  0  0  0  0  0  # atno 6907 bound_to 6896
  152.4763  134.4831  159.9682 H   0  0  0  0  0  0  0  0  0  0  0  0  # atno 6908 bound_to 6896
  151.4909  133.3486  159.2889 H   0  0  0  0  0  0  0  0  0  0  0  0  # atno 6909 bound_to 6896
  146.1960  139.7671  142.8797 H   0  0  0  0  0  0  0  0  0  0  0  0  # atno 7974 bound_to 7965
  155.6395  140.0700  157.2623 H   0  0  0  0  0  0  0  0  0  0  0  0  # atno 8008 bound_to 7997
  154.4187  140.1753  156.1607 H   0  0  0  0  0  0  0  0  0  0  0  0  # atno 8009 bound_to 7997
  155.9867  140.3349  155.6717 H   0  0  0  0  0  0  0  0  0  0  0  0  # atno 8010 bound_to 7997
  140.2977  144.2971  150.6226 H   0  0  0  0  0  0  0  0  0  0  0  0  # atno 10167 bound_to 10162
  156.2073  130.6896  151.0609 H   0  0  0  0  0  0  0  0  0  0  0  0  # atno 10718 bound_to 10713
  153.6293  135.3399  155.3036 H   0  0  0  0  0  0  0  0  0  0  0  0  # atno 10763 bound_to 10752
  154.8584  135.4291  154.2123 H   0  0  0  0  0  0  0  0  0  0  0  0  # atno 10764 bound_to 10752
  153.3015  135.7025  153.7272 H   0  0  0  0  0  0  0  0  0  0  0  0  # atno 10765 bound_to 10752
  140.1368  134.4634  155.8479 H   0  0  0  0  0  0  0  0  0  0  0  0  # atno 11005 bound_to 11000
  145.3642  141.0331  143.3268 LP  0  0  0  0  0  0  0  0  0  0  0  0  # atno 17320 bound_to 7965
  144.8581  139.5218  143.6825 LP  0  0  0  0  0  0  0  0  0  0  0  0  # atno 17321 bound_to 7965
  140.5678  143.2184  151.7652 LP  0  0  0  0  0  0  0  0  0  0  0  0  # atno 17342 bound_to 10162
  139.4922  144.4259  151.9926 LP  0  0  0  0  0  0  0  0  0  0  0  0  # atno 17343 bound_to 10162
  157.7019  131.0772  150.6792 LP  0  0  0  0  0  0  0  0  0  0  0  0  # atno 17370 bound_to 10713
  156.6851  130.4578  149.5616 LP  0  0  0  0  0  0  0  0  0  0  0  0  # atno 17371 bound_to 10713
  141.2179  133.6817  156.7173 LP  0  0  0  0  0  0  0  0  0  0  0  0  # atno 17394 bound_to 11000
  140.2772  134.8346  157.3900 LP  0  0  0  0  0  0  0  0  0  0  0  0  # atno 17395 bound_to 11000

$$$$
