AV-unprocessed.smi:2344|AV-procd|sdf|9359|dock10
  -GOLD-   2272012583D 1   1.00000     0.00000
 Structure written by MMmdl.
 35 36  0  0  0  0  0  0  0  0  1 V2000
  153.8837  141.5886  160.7535 C   0  0  0  0  0  0  0  0  0  0  0  0
  152.8454  141.8562  159.6844 C   0  0  0  0  0  0  0  0  0  0  0  0
  152.4619  143.1715  159.3626 C   0  0  0  0  0  0  0  0  0  0  0  0
  151.4899  143.3699  158.3632 C   0  0  0  0  0  0  0  0  0  0  0  0
  150.9244  142.2514  157.7105 C   0  0  0  0  0  0  0  0  0  0  0  0
  149.9559  142.5614  156.7190 N   0  0  0  0  0  0  0  0  0  0  0  0
  149.1129  141.7246  156.0886 C   0  0  0  0  0  0  0  0  0  0  0  0
  149.0356  140.5108  156.2808 O   0  0  0  0  0  0  0  0  0  0  0  0
  148.3472  142.3820  155.2059 N   0  0  0  0  0  0  0  0  0  0  0  0
  147.3263  141.7647  154.3668 C   0  0  2  0  0  0  0  0  0  0  0  0
  146.4092  140.9069  155.1942 C   0  0  0  0  0  0  0  0  0  0  0  0
  146.4071  139.6336  154.8065 C   0  0  0  0  0  0  0  0  0  0  0  0
  147.3422  139.3693  153.6558 C   0  0  1  0  0  0  0  0  0  0  0  0
  146.6259  138.7000  152.4715 C   0  0  0  0  0  0  0  0  0  0  0  0
  147.5502  138.4068  151.4453 O   0  0  0  0  0  0  0  0  0  0  0  0
  147.9185  140.7727  153.3317 C   0  0  0  0  0  0  0  0  0  0  0  0
  151.2997  140.9875  158.0286 N   0  0  0  0  0  0  0  0  0  0  0  0
  152.2310  140.7979  158.9868 C   0  0  0  0  0  0  0  0  0  0  0  0
  146.7292  142.5328  153.8717 H   0  0  0  0  0  0  0  0  0  0  0  0
  148.1352  138.7168  154.0239 H   0  0  0  0  0  0  0  0  0  0  0  0
  154.6841  142.3275  160.7060 H   0  0  0  0  0  0  0  0  0  0  0  0
  154.3273  140.6003  160.6287 H   0  0  0  0  0  0  0  0  0  0  0  0
  153.4266  141.6382  161.7420 H   0  0  0  0  0  0  0  0  0  0  0  0
  152.9028  144.0161  159.8715 H   0  0  0  0  0  0  0  0  0  0  0  0
  151.1850  144.3735  158.1038 H   0  0  0  0  0  0  0  0  0  0  0  0
  149.9003  143.5342  156.4567 H   0  0  0  0  0  0  0  0  0  0  0  0
  148.4741  143.3788  155.1105 H   0  0  0  0  0  0  0  0  0  0  0  0
  145.8173  141.3107  156.0025 H   0  0  0  0  0  0  0  0  0  0  0  0
  145.8207  138.8488  155.2613 H   0  0  0  0  0  0  0  0  0  0  0  0
  146.1566  137.7681  152.7882 H   0  0  0  0  0  0  0  0  0  0  0  0
  145.8375  139.3423  152.0771 H   0  0  0  0  0  0  0  0  0  0  0  0
  148.2948  137.9683  151.8276 H   0  0  0  0  0  0  0  0  0  0  0  0
  147.6421  141.0887  152.3249 H   0  0  0  0  0  0  0  0  0  0  0  0
  149.0089  140.7509  153.3595 H   0  0  0  0  0  0  0  0  0  0  0  0
  152.4906  139.7716  159.2009 H   0  0  0  0  0  0  0  0  0  0  0  0
  1  2  1  0  0  0  0
  1 21  1  0  0  0  0
  1 22  1  0  0  0  0
  1 23  1  0  0  0  0
  2 18  1  0  0  0  0
  2  3  2  0  0  0  0
  3  4  1  0  0  0  0
  3 24  1  0  0  0  0
  4  5  2  0  0  0  0
  4 25  1  0  0  0  0
  5  6  1  0  0  0  0
  5 17  1  0  0  0  0
  6  7  1  0  0  0  0
  6 26  1  0  0  0  0
  7  8  2  0  0  0  0
  7  9  1  0  0  0  0
  9 10  1  0  0  0  0
  9 27  1  0  0  0  0
 10 19  1  0  0  0  0
 10 16  1  0  0  0  0
 10 11  1  0  0  0  0
 11 12  2  0  0  0  0
 11 28  1  0  0  0  0
 12 13  1  0  0  0  0
 12 29  1  0  0  0  0
 13 20  1  0  0  0  0
 13 14  1  0  0  0  0
 13 16  1  0  0  0  0
 14 15  1  0  0  0  0
 14 30  1  0  0  0  0
 14 31  1  0  0  0  0
 15 32  1  0  0  0  0
 16 33  1  0  0  0  0
 16 34  1  0  0  0  0
 17 18  2  0  0  0  0
 18 35  1  0  0  0  0
M  END
> <s_m_source_file>
AV-unprocessed.smi

> <i_m_source_file_index>
2344

> <i_lp_mmshare_version>
43012

> <i_f3d_flags>
0

> <s_epik_input>
W0NIM11jMVtjSF1bY0hdYyhuW2NIXTEpW05IXUMoPU8pW05IXVtDQEBIXTJbQ0hdPVtDSF1bQ0BASF0oW0NIMl0yKVtDSDJdW09IXQ==

> <s_epik_cmdline>
J2VwaWtfcHl0aG9uJywgJy1waCcsICc3LjAnLCAnLXRuJywgJzgnLCAnLW1hJywgJzIwMCcsICctbWV0YWxfYmluZGluZycsICctaW1hZScsICc8aW5maWxlLm1hZT4nLCAnLW9tYWUnLCAnPG91dGZpbGUubWFlPic=

> <r_lp_tautomer_probability>
1

> <r_epik_Ionization_Penalty>
5.7643e-05

> <r_epik_Ionization_Penalty_Charging>
0

> <r_epik_Ionization_Penalty_Neutral>
5.7643e-05

> <r_epik_State_Penalty>
-0

> <r_epik_Charging_Adjusted_Penalty>
0

> <i_epik_Tot_Q>
0

> <i_epik_Tot_abs_Q>
0

> <r_epik_Metal_State_Penalty>
-0

> <b_epik_Metal_Only>
0

> <s_lp_Force_Field>
OPLS_2005

> <r_lp_Energy>
17.7036

> <b_lp_Chiralities_Consistent>
1

> <s_lp_Variant>
AV-unprocessed.smi:2344-3

> <Gold.Version>
5.8.1

> <Gold.Id.Protein>
6NUR|6NUR_protein|mol2

> <Gold.PLP.Fitness>
43.7798

> <Gold.PLP.PLP>
-34.7381

> <Gold.PLP.part.hbond>
-4.6220

> <Gold.PLP.part.metal>
0.0000

> <Gold.PLP.part.buried>
-2.2609

> <Gold.PLP.part.nonpolar>
-29.7627

> <Gold.PLP.part.repulsive>
0.2618

> <Gold.PLP.ligand.clash>
0.0000

> <Gold.PLP.ligand.torsion>
0.1028

> <Gold.PLP.Chemscore.Hbond>
3.0780

> <Gold.PLP.Chemscore.CHOScore>
0.0000

> <Gold.PLP.Chemscore.Metal>
0.0000

> <Gold.Chemscore.Hbonds>
donor molecule, donor type, donor heavy atom, donor atom, acceptor molecule, acceptor atom, score
      L1  H     6    26       P1  8028  0.88
      L1  H     9    27       P1  8028  0.88
      L1  H    15    32       P1  7948  0.72
      P1  H  7954  7966       L1    15  0.30

> <Gold.PLP.Chemscore.Internal.Correction>
0.0133

> <Gold.Rescore>
     Score         DG    S(hbond)    S(metal)    S(lipo)     H(rot)  DE(clash)    DE(int)     intcor
     16.73     -19.50       2.83        0.00      78.77       1.82       0.03       2.74       ----

> <Gold.Chemscore.Fitness>
16.7328

> <Gold.Chemscore.DG>
-19.5029

> <Gold.Chemscore.ZeroCoef>
-5.4800

> <Gold.Chemscore.Hbond>
2.8329

> <Gold.Chemscore.Metal>
0.0000

> <Gold.Chemscore.Lipo>
78.7702

> <Gold.Chemscore.Internal_Hbond>
0.0000

> <Gold.Chemscore.DEClash>
0.0311

> <Gold.Chemscore.DEInternal>
2.7389

> <Gold.Chemscore.Rot>
1.8184

> <Gold.Chemscore.Internal.Correction>
   9.000000E+99

> <Gold.Chemscore.Hbonds>
donor molecule, donor type, donor heavy atom, donor atom, acceptor molecule, acceptor atom, score
      L1  H     6    26       P1  8028  0.87
      L1  H     9    27       P1  8028  0.83
      L1  H    15    32       P1  7948  0.72

> <Gold.Chemscore.Hbond.Weighted>
-9.4618

> <Gold.Chemscore.Metal.Weighted>
-0.0000

> <Gold.Chemscore.Lipo.Weighted>
-9.2161

> <Gold.Chemscore.Internal_Hbond.Weighted>
0.0000

> <Gold.Chemscore.DEClash.Weighted>
0.0311

> <Gold.Chemscore.DEInternal.Weighted>
2.7389

> <Gold.Chemscore.Rot.Weighted>
4.6551

> <Gold.Chemscore.Internal.Correction.Weighted>
   9.000000E+99

> <Gold.Protein.RotatedTorsions>
[ 6907 6896 6895 6894 ] final   88.66 input  -60.11 | X-H torsion
[ 7974 7965 7964 7962 ] final  122.35 input  175.53 | X-H torsion
[ 8008 7997 7996 7995 ] final   71.61 input   59.86 | X-H torsion
[ 10167 10162 10161 10158 ] final   23.73 input  -65.29 | X-H torsion
[ 10718 10713 10712 10709 ] final  -93.44 input   66.30 | X-H torsion
[ 10763 10752 10751 10750 ] final  -71.30 input  -60.55 | X-H torsion
[ 11005 11000 10999 10996 ] final  -62.83 input  -57.11 | X-H torsion

> <Gold.Protein.ActiveResidues>
 VAL166  LYS551  ARG553  GLY616  TRP617  ASP618  TYR619  PRO620  LYS621  CYS622 
 ASP623  PHE694  ASN695  SER759  ASP760  ASP761  ALA762  ILE779  LEU786  VAL792 
 PHE793  MET794  SER795  GLU796  ALA797  LYS798  CYS799  TRP800  GLU811  SER814 

> <Gold.Protein.RotatedAtoms>
  152.5427  134.2088  159.8741 H   0  0  0  0  0  0  0  0  0  0  0  0  # atno 6907 bound_to 6896
  151.2072  133.4570  159.2605 H   0  0  0  0  0  0  0  0  0  0  0  0  # atno 6908 bound_to 6896
  151.0932  134.9941  159.8468 H   0  0  0  0  0  0  0  0  0  0  0  0  # atno 6909 bound_to 6896
  145.1086  139.3468  143.4775 H   0  0  0  0  0  0  0  0  0  0  0  0  # atno 7974 bound_to 7965
  155.7565  140.3487  155.5176 H   0  0  0  0  0  0  0  0  0  0  0  0  # atno 8008 bound_to 7997
  155.8955  140.1025  157.1409 H   0  0  0  0  0  0  0  0  0  0  0  0  # atno 8009 bound_to 7997
  154.4038  140.1296  156.4357 H   0  0  0  0  0  0  0  0  0  0  0  0  # atno 8010 bound_to 7997
  140.5245  143.9946  150.6433 H   0  0  0  0  0  0  0  0  0  0  0  0  # atno 10167 bound_to 10162
  156.0013  130.5027  150.5776 H   0  0  0  0  0  0  0  0  0  0  0  0  # atno 10718 bound_to 10713
  154.4298  135.5966  153.6061 H   0  0  0  0  0  0  0  0  0  0  0  0  # atno 10763 bound_to 10752
  152.9798  135.5972  154.3853 H   0  0  0  0  0  0  0  0  0  0  0  0  # atno 10764 bound_to 10752
  154.3690  135.2841  155.2256 H   0  0  0  0  0  0  0  0  0  0  0  0  # atno 10765 bound_to 10752
  141.1373  133.6644  156.5587 H   0  0  0  0  0  0  0  0  0  0  0  0  # atno 11005 bound_to 11000
  146.3527  140.0995  142.8608 LP  0  0  0  0  0  0  0  0  0  0  0  0  # atno 17320 bound_to 7965
  145.0873  140.9261  143.4790 LP  0  0  0  0  0  0  0  0  0  0  0  0  # atno 17321 bound_to 7965
  140.3304  143.3081  152.0693 LP  0  0  0  0  0  0  0  0  0  0  0  0  # atno 17342 bound_to 10162
  139.4934  144.6513  151.6670 LP  0  0  0  0  0  0  0  0  0  0  0  0  # atno 17343 bound_to 10162
  157.3661  131.0758  151.1596 LP  0  0  0  0  0  0  0  0  0  0  0  0  # atno 17370 bound_to 10713
  157.2365  130.6549  149.5871 LP  0  0  0  0  0  0  0  0  0  0  0  0  # atno 17371 bound_to 10713
  140.4005  134.7360  157.4777 LP  0  0  0  0  0  0  0  0  0  0  0  0  # atno 17394 bound_to 11000
  140.0499  134.6145  155.8874 LP  0  0  0  0  0  0  0  0  0  0  0  0  # atno 17395 bound_to 11000

$$$$
