#       Name:                AV-unprocessed.smi:3253
#       Creating user name   scv26
#       Creation time:       Fri Mar 27 18:34:49 2020


#       File generated by GOLD software.
#

@<TRIPOS>MOLECULE
AV-unprocessed.smi:3253
    41    42     1
SMALL
NO_CHARGES


@<TRIPOS>ATOM
      1 ****        -3.0977  -0.1997  -2.5162 C.3            1 S1                 0.0000
      2 ****        -2.3689   0.0459  -1.1883 C.3            1 S1                 0.0000
      3 ****        -2.9798  -0.7956  -0.0470 C.3            1 S1                 0.0000
      4 ****        -2.3802  -0.5111   1.2444 N.pl3          1 S1                 0.0000
      5 ****        -1.4957  -1.3145   1.9527 C.2            1 S1                 0.0000
      6 ****        -1.1862  -0.6344   3.1087 C.2            1 S1                 0.0000
      7 ****        -1.8708   0.5781   3.1365 N.2            1 S1                 0.0000
      8 ****        -2.5586   0.5799   2.0018 C.2            1 S1                 0.0000
      9 ****        -0.9500  -0.2652  -1.3584 N.am           1 S1                 0.0000
     10 ****         0.0718   0.4495  -0.8607 C.2            1 S1                 0.0000
     11 ****        -0.0772   1.4994  -0.2343 O.2            1 S1                 0.0000
     12 ****         1.4792  -0.1259  -1.0783 C.3            1 S1                 0.0000
     13 ****         2.4235   0.9016  -1.7357 C.3            1 S1                 0.0000
     14 ****         3.4163   1.2420  -0.6361 C.2            1 S1                 0.0000
     15 ****         4.2685   2.1213  -0.7539 O.2            1 S1                 0.0000
     16 ****         3.2192   0.4748   0.4396 N.am           1 S1                 0.0000
     17 ****         3.9693   0.5446   1.6860 C.3            1 S1                 0.0000
     18 ****         2.1592  -0.5012   0.2563 C.3            1 S1                 0.0000
     19 ****        -4.1574   0.0425  -2.4317 H              1 S1                 0.0000
     20 ****        -3.0188  -1.2419  -2.8272 H              1 S1                 0.0000
     21 ****        -2.6821   0.4188  -3.3124 H              1 S1                 0.0000
     22 ****        -2.4919   1.1031  -0.9463 H              1 S1                 0.0000
     23 ****        -4.0501  -0.6004   0.0312 H              1 S1                 0.0000
     24 ****        -2.8715  -1.8608  -0.2561 H              1 S1                 0.0000
     25 ****        -1.1618  -2.2722   1.5818 H              1 S1                 0.0000
     26 ****        -0.5290  -0.9220   3.9159 H              1 S1                 0.0000
     27 ****        -3.2002   1.3984   1.7100 H              1 S1                 0.0000
     28 ****        -0.7301  -1.1136  -1.8598 H              1 S1                 0.0000
     29 ****         1.4059  -1.0121  -1.7113 H              1 S1                 0.0000
     30 ****         2.9555   0.4617  -2.5796 H              1 S1                 0.0000
     31 ****         1.9182   1.8018  -2.0893 H              1 S1                 0.0000
     32 ****         5.0398   0.4582   1.4972 H              1 S1                 0.0000
     33 ****         3.6803  -0.2591   2.3639 H              1 S1                 0.0000
     34 ****         3.7833   1.4948   2.1877 H              1 S1                 0.0000
     35 ****         1.4736  -0.4855   1.1058 H              1 S1                 0.0000
     36 ****         2.5934  -1.5004   0.2024 H              1 S1                 0.0000
     37 ****        -1.8491   1.2826   3.8458 LP             1 S1                 0.0000
     38 ****        -0.9960   1.8600  -0.0742 LP             1 S1                 0.0000
     39 ****         0.7207   1.9912   0.1142 LP             1 S1                 0.0000
     40 ****         4.3294   2.6482  -1.6016 LP             1 S1                 0.0000
     41 ****         4.9004   2.3091  -0.0019 LP             1 S1                 0.0000
@<TRIPOS>BOND
    1    1    2 1     
    2    1   19 1     
    3    1   20 1     
    4    1   21 1     
    5    2    3 1     
    6    2    9 1     
    7    2   22 1     
    8    3    4 1     
    9    3   23 1     
   10    3   24 1     
   11    4    8 1     
   12    4    5 1     
   13    5    6 2     
   14    5   25 1     
   15    6    7 1     
   16    6   26 1     
   17    7    8 2     
   18    8   27 1     
   19    9   10 am    
   20    9   28 1     
   21   10   11 2     
   22   10   12 1     
   23   12   18 1     
   24   12   13 1     
   25   12   29 1     
   26   13   14 1     
   27   13   30 1     
   28   13   31 1     
   29   14   15 2     
   30   14   16 am    
   31   16   17 1     
   32   16   18 1     
   33   17   32 1     
   34   17   33 1     
   35   17   34 1     
   36   18   35 1     
   37   18   36 1     
   38    7   37 1     
   39   11   38 1     
   40   11   39 1     
   41   15   40 1     
   42   15   41 1     
@<TRIPOS>SUBSTRUCTURE
      1 S1             1
@<TRIPOS>SET
LONE_PAIRS      STATIC     ATOMS    <user>   **** ""
5 37 38 39 40 41
DONOR_HYDROGENS      STATIC     ATOMS    <user>   **** ""
1 28
ATOM$BLUE        STATIC     ATOMS    COLORGROUP SYSTEM
5 37 38 39 40 41
ATOM$RED        STATIC     ATOMS    COLORGROUP SYSTEM
1 28
