AV-unprocessed.smi:287|AV-procd|sdf|2203|dock3
  -GOLD-   2262022 23D 1   1.00000     0.00000
 Structure written by MMmdl.
 55 58  0  0  0  0  0  0  0  0  1 V2000
  136.8920  140.9813  157.9879 C   0  0  0  0  0  0  0  0  0  0  0  0
  137.8185  140.9903  156.8207 C   0  0  0  0  0  0  0  0  0  0  0  0
  138.5013  140.0182  156.1494 C   0  0  0  0  0  0  0  0  0  0  0  0
  139.2372  140.6564  155.1066 C   0  0  0  0  0  0  0  0  0  0  0  0
  140.1416  139.9622  154.0971 C   0  0  1  0  0  0  0  0  0  0  0  0
  139.3236  138.9523  153.2750 C   0  0  0  0  0  0  0  0  0  0  0  0
  140.6947  140.8549  153.1495 O   0  0  0  0  0  0  0  0  0  0  0  0
  141.3419  139.2541  154.7664 C   0  0  0  0  0  0  0  0  0  0  0  0
  142.3112  138.7473  153.8037 N   0  0  0  0  0  0  0  0  0  0  0  0
  142.4060  137.4278  153.5361 C   0  0  0  0  0  0  0  0  0  0  0  0
  141.3210  136.6906  153.8701 N   0  0  0  0  0  0  0  0  0  0  0  0
  141.3133  135.3736  153.6543 C   0  0  0  0  0  0  0  0  0  0  0  0
  142.2696  134.6123  153.1231 N   0  0  0  0  0  0  0  0  0  0  0  0
  143.3683  135.3427  152.7713 C   0  0  0  0  0  0  0  0  0  0  0  0
  143.5174  136.7502  152.9501 C   0  0  0  0  0  0  0  0  0  0  0  0
  144.7717  137.1390  152.4951 N   0  0  0  0  0  0  0  0  0  0  0  0
  145.3237  136.0327  152.0809 C   0  0  0  0  0  0  0  0  0  0  0  0
  144.5423  134.9027  152.1821 N   0  0  0  0  0  0  0  0  0  0  0  0
  144.9359  133.4973  151.8086 C   0  0  1  0  0  0  0  0  0  0  0  0
  144.0752  133.0201  150.8206 O   0  0  0  0  0  0  0  0  0  0  0  0
  144.6349  133.2837  149.5402 C   0  0  2  0  0  0  0  0  0  0  0  0
  143.9249  132.4732  148.4421 C   0  0  0  0  0  0  0  0  0  0  0  0
  142.8441  133.2143  147.9170 O   0  0  0  0  0  0  0  0  0  0  0  0
  146.1087  132.9374  149.7806 C   0  0  2  0  0  0  0  0  0  0  0  0
  146.3110  131.5356  149.6962 O   0  0  0  0  0  0  0  0  0  0  0  0
  146.3499  133.4874  151.1884 C   0  0  2  0  0  0  0  0  0  0  0  0
  147.2821  132.7199  151.9277 O   0  0  0  0  0  0  0  0  0  0  0  0
  138.9278  141.9904  155.2252 C   0  0  0  0  0  0  0  0  0  0  0  0
  139.3221  143.2184  154.4723 C   0  0  0  0  0  0  0  0  0  0  0  0
  138.0711  142.2010  156.2632 O   0  0  0  0  0  0  0  0  0  0  0  0
  144.8355  132.9297  152.7343 H   0  0  0  0  0  0  0  0  0  0  0  0
  144.5605  134.3520  149.3256 H   0  0  0  0  0  0  0  0  0  0  0  0
  146.7585  133.4167  149.0477 H   0  0  0  0  0  0  0  0  0  0  0  0
  146.7253  134.5082  151.1067 H   0  0  0  0  0  0  0  0  0  0  0  0
  136.9244  140.0209  158.5026 H   0  0  0  0  0  0  0  0  0  0  0  0
  135.8654  141.1581  157.6667 H   0  0  0  0  0  0  0  0  0  0  0  0
  137.1617  141.7573  158.7045 H   0  0  0  0  0  0  0  0  0  0  0  0
  138.4798  138.9639  156.3822 H   0  0  0  0  0  0  0  0  0  0  0  0
  138.8820  138.1868  153.9141 H   0  0  0  0  0  0  0  0  0  0  0  0
  139.9422  138.4427  152.5352 H   0  0  0  0  0  0  0  0  0  0  0  0
  138.5086  139.4435  152.7420 H   0  0  0  0  0  0  0  0  0  0  0  0
  140.5919  140.4792  152.2886 H   0  0  0  0  0  0  0  0  0  0  0  0
  141.8640  139.9770  155.3947 H   0  0  0  0  0  0  0  0  0  0  0  0
  141.0000  138.4519  155.4218 H   0  0  0  0  0  0  0  0  0  0  0  0
  142.9041  139.4433  153.3741 H   0  0  0  0  0  0  0  0  0  0  0  0
  140.4127  134.8552  153.9483 H   0  0  0  0  0  0  0  0  0  0  0  0
  146.3272  136.0119  151.6815 H   0  0  0  0  0  0  0  0  0  0  0  0
  144.6124  132.2712  147.6202 H   0  0  0  0  0  0  0  0  0  0  0  0
  143.5751  131.5116  148.8191 H   0  0  0  0  0  0  0  0  0  0  0  0
  142.2127  133.3529  148.6063 H   0  0  0  0  0  0  0  0  0  0  0  0
  147.2199  131.3550  149.8826 H   0  0  0  0  0  0  0  0  0  0  0  0
  147.8163  132.2298  151.3217 H   0  0  0  0  0  0  0  0  0  0  0  0
  139.0751  143.1195  153.4154 H   0  0  0  0  0  0  0  0  0  0  0  0
  140.3943  143.3945  154.5554 H   0  0  0  0  0  0  0  0  0  0  0  0
  138.8076  144.0999  154.8555 H   0  0  0  0  0  0  0  0  0  0  0  0
  1  2  1  0  0  0  0
  1 35  1  0  0  0  0
  1 36  1  0  0  0  0
  1 37  1  0  0  0  0
  2 30  1  0  0  0  0
  2  3  2  0  0  0  0
  3  4  1  0  0  0  0
  3 38  1  0  0  0  0
  4  5  1  0  0  0  0
  4 28  2  0  0  0  0
  5  6  1  0  0  0  0
  5  7  1  0  0  0  0
  5  8  1  0  0  0  0
  6 39  1  0  0  0  0
  6 40  1  0  0  0  0
  6 41  1  0  0  0  0
  7 42  1  0  0  0  0
  8  9  1  0  0  0  0
  8 43  1  0  0  0  0
  8 44  1  0  0  0  0
  9 10  1  0  0  0  0
  9 45  1  0  0  0  0
 10 15  1  0  0  0  0
 10 11  2  0  0  0  0
 11 12  1  0  0  0  0
 12 13  2  0  0  0  0
 12 46  1  0  0  0  0
 13 14  1  0  0  0  0
 14 18  1  0  0  0  0
 14 15  2  0  0  0  0
 15 16  1  0  0  0  0
 16 17  2  0  0  0  0
 17 18  1  0  0  0  0
 17 47  1  0  0  0  0
 18 19  1  0  0  0  0
 19 31  1  0  0  0  0
 19 26  1  0  0  0  0
 19 20  1  0  0  0  0
 20 21  1  0  0  0  0
 21 32  1  0  0  0  0
 21 22  1  0  0  0  0
 21 24  1  0  0  0  0
 22 23  1  0  0  0  0
 22 48  1  0  0  0  0
 22 49  1  0  0  0  0
 23 50  1  0  0  0  0
 24 33  1  0  0  0  0
 24 25  1  0  0  0  0
 24 26  1  0  0  0  0
 25 51  1  0  0  0  0
 26 34  1  0  0  0  0
 26 27  1  0  0  0  0
 27 52  1  0  0  0  0
 28 29  1  0  0  0  0
 28 30  1  0  0  0  0
 29 53  1  0  0  0  0
 29 54  1  0  0  0  0
 29 55  1  0  0  0  0
M  END
> <s_m_source_file>
AV-unprocessed.smi

> <i_m_source_file_index>
287

> <i_lp_mmshare_version>
43012

> <i_f3d_flags>
0

> <s_epik_input>
W0NIM11jMVtjSF1jKGMobzEpW0NIM10pW0NAQF0oW0NIM10pKFtPSF0pW0NIMl1bTkhdYyhuW2NIXW4yKWMoYzIzKW5bY0hdbjNbQ0BASF00T1tDQEhdKFtDSDJdW09IXSlbQ0BASF0oW09IXSlbQ0BIXTRbT0hd

> <s_epik_cmdline>
J2VwaWtfcHl0aG9uJywgJy1waCcsICc3LjAnLCAnLXRuJywgJzgnLCAnLW1hJywgJzIwMCcsICctbWV0YWxfYmluZGluZycsICctaW1hZScsICc8aW5maWxlLm1hZT4nLCAnLW9tYWUnLCAnPG91dGZpbGUubWFlPic=

> <r_lp_tautomer_probability>
1

> <r_epik_Ionization_Penalty>
0.000992612

> <r_epik_Ionization_Penalty_Charging>
0

> <r_epik_Ionization_Penalty_Neutral>
0.000992612

> <r_epik_State_Penalty>
-0

> <r_epik_Charging_Adjusted_Penalty>
0

> <i_epik_Tot_Q>
0

> <i_epik_Tot_abs_Q>
0

> <r_epik_Metal_State_Penalty>
-0

> <b_epik_Metal_Only>
0

> <s_epik_Chemistry_Notes>
This compound contains an acetal/aminal-like group ( X-CH(R)-Y where X, Y are N, S, or O) that may be acid/base labile, releasing an aldehyde.

> <s_lp_Force_Field>
OPLS_2005

> <r_lp_Energy>
46.8376

> <b_lp_Chiralities_Consistent>
1

> <s_lp_Variant>
AV-unprocessed.smi:287-27

> <Gold.Version>
5.8.1

> <Gold.Id.Protein>
6NUR|6NUR_protein|mol2

> <Gold.PLP.Fitness>
55.0978

> <Gold.PLP.PLP>
-36.3853

> <Gold.PLP.part.hbond>
-8.5527

> <Gold.PLP.part.metal>
0.0000

> <Gold.PLP.part.buried>
-3.1738

> <Gold.PLP.part.nonpolar>
-25.4383

> <Gold.PLP.part.repulsive>
0.6490

> <Gold.PLP.ligand.clash>
0.0000

> <Gold.PLP.ligand.torsion>
0.5908

> <Gold.PLP.Chemscore.Hbond>
5.1818

> <Gold.PLP.Chemscore.CHOScore>
1.3901

> <Gold.PLP.Chemscore.Metal>
0.0000

> <Gold.Chemscore.Hbonds>
donor molecule, donor type, donor heavy atom, donor atom, acceptor molecule, acceptor atom, score
      L1  H     7    42       P1 10160  0.73
      L1  H     9    45       P1 10175  0.96
      L1  H    23    50       P1 10186  1.00
      L1  H    25    51       P1 10747  1.00
      L1  H    27    52       P1 10747  0.88
      P1  H 10192 10197       L1    23  0.07
      L1  C    12    46       P1 11000  0.24
      L1  C    17    47       P1  7948  0.80

> <Gold.PLP.Chemscore.Internal.Correction>
0.1786

> <Gold.Rescore>
     Score         DG    S(hbond)    S(metal)    S(lipo)     H(rot)  DE(clash)    DE(int)     intcor
     13.22     -15.62       4.85        0.00      63.59       5.27       0.87       1.53       ----

> <Gold.Chemscore.Fitness>
13.2151

> <Gold.Chemscore.DG>
-15.6217

> <Gold.Chemscore.ZeroCoef>
-5.4800

> <Gold.Chemscore.Hbond>
4.8459

> <Gold.Chemscore.Metal>
0.0000

> <Gold.Chemscore.Lipo>
63.5912

> <Gold.Chemscore.Internal_Hbond>
0.0000

> <Gold.Chemscore.DEClash>
0.8746

> <Gold.Chemscore.DEInternal>
1.5320

> <Gold.Chemscore.Rot>
5.2672

> <Gold.Chemscore.Internal.Correction>
   9.000000E+99

> <Gold.Chemscore.Hbonds>
donor molecule, donor type, donor heavy atom, donor atom, acceptor molecule, acceptor atom, score
      L1  H     7    42       P1 10160  0.71
      L1  H     9    45       P1 10175  0.91
      L1  H    23    50       P1 10186  0.96
      L1  H    25    51       P1 10747  1.00
      L1  H    27    52       P1 10747  0.86

> <Gold.Chemscore.Hbond.Weighted>
-16.1854

> <Gold.Chemscore.Metal.Weighted>
-0.0000

> <Gold.Chemscore.Lipo.Weighted>
-7.4402

> <Gold.Chemscore.Internal_Hbond.Weighted>
0.0000

> <Gold.Chemscore.DEClash.Weighted>
0.8746

> <Gold.Chemscore.DEInternal.Weighted>
1.5320

> <Gold.Chemscore.Rot.Weighted>
13.4839

> <Gold.Chemscore.Internal.Correction.Weighted>
   9.000000E+99

> <Gold.Protein.RotatedTorsions>
[ 6907 6896 6895 6894 ] final  108.37 input  -60.11 | X-H torsion
[ 7974 7965 7964 7962 ] final  -19.26 input  175.53 | X-H torsion
[ 8008 7997 7996 7995 ] final   12.41 input   59.86 | X-H torsion
[ 10167 10162 10161 10158 ] final  175.59 input  -65.29 | X-H torsion
[ 10718 10713 10712 10709 ] final   74.38 input   66.30 | X-H torsion
[ 10763 10752 10751 10750 ] final   -2.49 input  -60.55 | X-H torsion
[ 11005 11000 10999 10996 ] final -164.54 input  -57.11 | X-H torsion

> <Gold.Protein.ActiveResidues>
 VAL166  LYS551  ARG553  GLY616  TRP617  ASP618  TYR619  PRO620  LYS621  CYS622 
 ASP623  PHE694  ASN695  SER759  ASP760  ASP761  ALA762  ILE779  LEU786  VAL792 
 PHE793  MET794  SER795  GLU796  ALA797  LYS798  CYS799  TRP800  GLU811  SER814 

> <Gold.Protein.RotatedAtoms>
  152.5115  133.9098  159.7482 H   0  0  0  0  0  0  0  0  0  0  0  0  # atno 6907 bound_to 6896
  150.9494  133.6557  159.2782 H   0  0  0  0  0  0  0  0  0  0  0  0  # atno 6908 bound_to 6896
  151.3841  135.0950  159.9558 H   0  0  0  0  0  0  0  0  0  0  0  0  # atno 6909 bound_to 6896
  146.1850  140.4037  142.8480 H   0  0  0  0  0  0  0  0  0  0  0  0  # atno 7974 bound_to 7965
  154.8202  140.2882  155.5792 H   0  0  0  0  0  0  0  0  0  0  0  0  # atno 8008 bound_to 7997
  156.2997  140.2551  156.3038 H   0  0  0  0  0  0  0  0  0  0  0  0  # atno 8009 bound_to 7997
  154.9347  140.0382  157.2056 H   0  0  0  0  0  0  0  0  0  0  0  0  # atno 8010 bound_to 7997
  139.5183  144.3014  152.0375 H   0  0  0  0  0  0  0  0  0  0  0  0  # atno 10167 bound_to 10162
  157.6589  130.9675  150.1203 H   0  0  0  0  0  0  0  0  0  0  0  0  # atno 10718 bound_to 10713
  153.3587  135.6989  153.6729 H   0  0  0  0  0  0  0  0  0  0  0  0  # atno 10763 bound_to 10752
  153.5426  135.3569  155.2725 H   0  0  0  0  0  0  0  0  0  0  0  0  # atno 10764 bound_to 10752
  154.8665  135.4207  154.2840 H   0  0  0  0  0  0  0  0  0  0  0  0  # atno 10765 bound_to 10752
  140.5857  134.5096  157.5185 H   0  0  0  0  0  0  0  0  0  0  0  0  # atno 11005 bound_to 11000
  144.8381  140.6815  143.6247 LP  0  0  0  0  0  0  0  0  0  0  0  0  # atno 17320 bound_to 7965
  145.3965  139.1606  143.4201 LP  0  0  0  0  0  0  0  0  0  0  0  0  # atno 17321 bound_to 7965
  140.2462  144.4218  150.6240 LP  0  0  0  0  0  0  0  0  0  0  0  0  # atno 17342 bound_to 10162
  140.6257  143.2181  151.6602 LP  0  0  0  0  0  0  0  0  0  0  0  0  # atno 17343 bound_to 10162
  156.2076  130.3664  149.8710 LP  0  0  0  0  0  0  0  0  0  0  0  0  # atno 17370 bound_to 10713
  156.6597  130.8777  151.3545 LP  0  0  0  0  0  0  0  0  0  0  0  0  # atno 17371 bound_to 10713
  139.9297  134.7988  156.0967 LP  0  0  0  0  0  0  0  0  0  0  0  0  # atno 17394 bound_to 11000
  141.0967  133.6693  156.2662 LP  0  0  0  0  0  0  0  0  0  0  0  0  # atno 17395 bound_to 11000

$$$$
