AV-unprocessed.smi:2061|AV-procd|sdf|8368|dock6
  -GOLD-   2272011 43D 1   1.00000     0.00000
 Structure written by MMmdl.
 46 47  0  0  0  0  0  0  0  0  2 V2000
  148.2448  121.7645  148.4097 C   0  0  0  0  0  0  0  0  0  0  0  0
  148.8807  123.0278  148.8793 C   0  0  0  0  0  0  0  0  0  0  0  0
  148.4583  124.0301  149.7061 C   0  0  0  0  0  0  0  0  0  0  0  0
  149.5670  124.9261  149.7135 C   0  0  0  0  0  0  0  0  0  0  0  0
  149.6552  126.1491  150.4275 N   0  0  0  0  0  0  0  0  0  0  0  0
  149.0231  126.5026  151.5594 C   0  0  0  0  0  0  0  0  0  0  0  0
  148.2436  125.7919  152.1936 O   0  0  0  0  0  0  0  0  0  0  0  0
  149.3512  127.7500  151.9284 N   0  0  0  0  0  0  0  0  0  0  0  0
  148.8076  128.4647  153.0816 C   0  0  0  0  0  0  0  0  0  0  0  0
  147.4242  129.1222  152.8104 C   0  0  2  0  0  0  0  0  0  0  0  0
  146.6712  128.3658  151.6875 C   0  0  0  0  0  0  0  0  0  0  0  0
  147.5442  130.5894  152.5042 N   0  3  1  0  0  0  0  0  0  0  0  0
  146.2391  131.2463  152.2089 C   0  0  0  0  0  0  0  0  0  0  0  0
  146.3982  132.7410  151.8687 C   0  0  2  0  0  0  0  0  0  0  0  0
  146.9903  132.9973  150.4704 C   0  0  0  0  0  0  0  0  0  0  0  0
  147.1217  133.4060  152.8984 O   0  0  0  0  0  0  0  0  0  0  0  0
  148.4048  132.8528  153.1578 C   0  0  1  0  0  0  0  0  0  0  0  0
  149.0511  133.6797  154.2746 C   0  0  0  0  0  0  0  0  0  0  0  0
  148.2642  131.3705  153.5485 C   0  0  0  0  0  0  0  0  0  0  0  0
  150.5685  124.5025  148.9647 N   0  0  0  0  0  0  0  0  0  0  0  0
  150.1361  123.2862  148.4236 O   0  0  0  0  0  0  0  0  0  0  0  0
  147.3081  121.5806  148.9361 H   0  0  0  0  0  0  0  0  0  0  0  0
  148.9025  120.9125  148.5833 H   0  0  0  0  0  0  0  0  0  0  0  0
  148.0290  121.8144  147.3424 H   0  0  0  0  0  0  0  0  0  0  0  0
  147.5078  124.0947  150.2137 H   0  0  0  0  0  0  0  0  0  0  0  0
  150.2599  126.8439  150.0148 H   0  0  0  0  0  0  0  0  0  0  0  0
  150.0045  128.2569  151.3487 H   0  0  0  0  0  0  0  0  0  0  0  0
  148.7304  127.7001  153.8524 H   0  0  0  0  0  0  0  0  0  0  0  0
  149.5140  129.2087  153.4539 H   0  0  0  0  0  0  0  0  0  0  0  0
  146.8331  129.0276  153.7228 H   0  0  0  0  0  0  0  0  0  0  0  0
  146.6187  127.2951  151.8775 H   0  0  0  0  0  0  0  0  0  0  0  0
  147.1574  128.5043  150.7211 H   0  0  0  0  0  0  0  0  0  0  0  0
  145.6326  128.6781  151.5952 H   0  0  0  0  0  0  0  0  0  0  0  0
  145.7331  130.7761  151.3683 H   0  0  0  0  0  0  0  0  0  0  0  0
  145.5854  131.1368  153.0757 H   0  0  0  0  0  0  0  0  0  0  0  0
  145.4029  133.1863  151.8708 H   0  0  0  0  0  0  0  0  0  0  0  0
  146.3325  132.6039  149.6950 H   0  0  0  0  0  0  0  0  0  0  0  0
  147.9629  132.5244  150.3371 H   0  0  0  0  0  0  0  0  0  0  0  0
  147.1086  134.0658  150.2886 H   0  0  0  0  0  0  0  0  0  0  0  0
  149.0327  132.9395  152.2710 H   0  0  0  0  0  0  0  0  0  0  0  0
  150.0474  133.3071  154.5147 H   0  0  0  0  0  0  0  0  0  0  0  0
  148.4532  133.6483  155.1862 H   0  0  0  0  0  0  0  0  0  0  0  0
  149.1505  134.7240  153.9778 H   0  0  0  0  0  0  0  0  0  0  0  0
  147.7393  131.2745  154.5005 H   0  0  0  0  0  0  0  0  0  0  0  0
  149.2739  130.9922  153.6937 H   0  0  0  0  0  0  0  0  0  0  0  0
  148.0984  130.6613  151.6628 H   0  0  0  0  0  0  0  0  0  0  0  0
  1  2  1  0  0  0  0
  1 22  1  0  0  0  0
  1 23  1  0  0  0  0
  1 24  1  0  0  0  0
  2 21  1  0  0  0  0
  2  3  2  0  0  0  0
  3  4  1  0  0  0  0
  3 25  1  0  0  0  0
  4  5  1  0  0  0  0
  4 20  2  0  0  0  0
  5  6  1  0  0  0  0
  5 26  1  0  0  0  0
  6  7  2  0  0  0  0
  6  8  1  0  0  0  0
  8  9  1  0  0  0  0
  8 27  1  0  0  0  0
  9 10  1  0  0  0  0
  9 28  1  0  0  0  0
  9 29  1  0  0  0  0
 10 11  1  0  0  0  0
 10 12  1  0  0  0  0
 10 30  1  0  0  0  0
 11 31  1  0  0  0  0
 11 32  1  0  0  0  0
 11 33  1  0  0  0  0
 12 19  1  0  0  0  0
 12 13  1  0  0  0  0
 12 46  1  0  0  0  0
 13 14  1  0  0  0  0
 13 34  1  0  0  0  0
 13 35  1  0  0  0  0
 14 15  1  0  0  0  0
 14 16  1  0  0  0  0
 14 36  1  0  0  0  0
 15 37  1  0  0  0  0
 15 38  1  0  0  0  0
 15 39  1  0  0  0  0
 16 17  1  0  0  0  0
 17 18  1  0  0  0  0
 17 19  1  0  0  0  0
 17 40  1  0  0  0  0
 18 41  1  0  0  0  0
 18 42  1  0  0  0  0
 18 43  1  0  0  0  0
 19 44  1  0  0  0  0
 19 45  1  0  0  0  0
 20 21  1  0  0  0  0
M  CHG  1  12   1
M  END
> <s_m_source_file>
AV-unprocessed.smi

> <i_m_source_file_index>
2061

> <i_lp_mmshare_version>
43012

> <i_f3d_flags>
0

> <s_epik_input>
W0NIM11jMVtjSF1jKG5vMSlbTkhdQyg9TylbTkhdW0NIMl1bQ0BIXShbQ0gzXSlOMltDSDJdW0NAQEhdKFtDSDNdKU9bQ0BASF0oW0NIM10pW0NIMl0y

> <s_epik_cmdline>
J2VwaWtfcHl0aG9uJywgJy1waCcsICc3LjAnLCAnLXRuJywgJzgnLCAnLW1hJywgJzIwMCcsICctbWV0YWxfYmluZGluZycsICctaW1hZScsICc8aW5maWxlLm1hZT4nLCAnLW9tYWUnLCAnPG91dGZpbGUubWFlPic=

> <r_epik_Ionization_Penalty>
0.707076

> <r_epik_Ionization_Penalty_Charging>
0.707039

> <r_epik_Ionization_Penalty_Neutral>
3.6548e-05

> <r_epik_State_Penalty>
0.730276

> <r_epik_Charging_Adjusted_Penalty>
1.43732

> <i_epik_Tot_Q>
1

> <i_epik_Tot_abs_Q>
1

> <r_epik_Metal_State_Penalty>
0.743132

> <b_epik_Metal_Only>
0

> <s_lp_Force_Field>
OPLS_2005

> <r_lp_Energy>
23.7206

> <b_lp_Chiralities_Consistent>
1

> <s_lp_Variant>
AV-unprocessed.smi:2061-9

> <Gold.Version>
5.8.1

> <Gold.Id.Protein>
6NUR|6NUR_protein|mol2

> <Gold.PLP.Fitness>
39.4552

> <Gold.PLP.PLP>
-37.6397

> <Gold.PLP.part.hbond>
-3.1075

> <Gold.PLP.part.metal>
0.0000

> <Gold.PLP.part.buried>
-5.4355

> <Gold.PLP.part.nonpolar>
-29.3724

> <Gold.PLP.part.repulsive>
0.6312

> <Gold.PLP.ligand.clash>
0.0000

> <Gold.PLP.ligand.torsion>
0.8237

> <Gold.PLP.Chemscore.Hbond>
1.1359

> <Gold.PLP.Chemscore.CHOScore>
0.0000

> <Gold.PLP.Chemscore.Metal>
0.0000

> <Gold.Chemscore.Hbonds>
donor molecule, donor type, donor heavy atom, donor atom, acceptor molecule, acceptor atom, score
      L1  H     8    27       P1 10737  0.23
      L1  H    12    46       P1 10747  1.00

> <Gold.PLP.Chemscore.Internal.Correction>
0.0554

> <Gold.Rescore>
     Score         DG    S(hbond)    S(metal)    S(lipo)     H(rot)  DE(clash)    DE(int)     intcor
     13.48     -14.50       1.01        0.00      82.91       1.58       0.06       0.96       ----

> <Gold.Chemscore.Fitness>
13.4824

> <Gold.Chemscore.DG>
-14.5013

> <Gold.Chemscore.ZeroCoef>
-5.4800

> <Gold.Chemscore.Hbond>
1.0102

> <Gold.Chemscore.Metal>
0.0000

> <Gold.Chemscore.Lipo>
82.9116

> <Gold.Chemscore.Internal_Hbond>
0.0000

> <Gold.Chemscore.DEClash>
0.0554

> <Gold.Chemscore.DEInternal>
0.9636

> <Gold.Chemscore.Rot>
1.5834

> <Gold.Chemscore.Internal.Correction>
   9.000000E+99

> <Gold.Chemscore.Hbonds>
donor molecule, donor type, donor heavy atom, donor atom, acceptor molecule, acceptor atom, score
      L1  H     8    27       P1 10737  0.14
      L1  H    12    46       P1 10747  1.00

> <Gold.Chemscore.Hbond.Weighted>
-3.3741

> <Gold.Chemscore.Metal.Weighted>
-0.0000

> <Gold.Chemscore.Lipo.Weighted>
-9.7007

> <Gold.Chemscore.Internal_Hbond.Weighted>
0.0000

> <Gold.Chemscore.DEClash.Weighted>
0.0554

> <Gold.Chemscore.DEInternal.Weighted>
0.9636

> <Gold.Chemscore.Rot.Weighted>
4.0535

> <Gold.Chemscore.Internal.Correction.Weighted>
   9.000000E+99

> <Gold.Protein.RotatedTorsions>
[ 6907 6896 6895 6894 ] final   13.32 input  -60.11 | X-H torsion
[ 7974 7965 7964 7962 ] final -119.93 input  175.53 | X-H torsion
[ 8008 7997 7996 7995 ] final   -6.13 input   59.86 | X-H torsion
[ 10167 10162 10161 10158 ] final -121.67 input  -65.29 | X-H torsion
[ 10718 10713 10712 10709 ] final  120.02 input   66.30 | X-H torsion
[ 10763 10752 10751 10750 ] final   20.35 input  -60.55 | X-H torsion
[ 11005 11000 10999 10996 ] final   74.93 input  -57.11 | X-H torsion

> <Gold.Protein.ActiveResidues>
 VAL166  LYS551  ARG553  GLY616  TRP617  ASP618  TYR619  PRO620  LYS621  CYS622 
 ASP623  PHE694  ASN695  SER759  ASP760  ASP761  ALA762  ILE779  LEU786  VAL792 
 PHE793  MET794  SER795  GLU796  ALA797  LYS798  CYS799  TRP800  GLU811  SER814 

> <Gold.Protein.RotatedAtoms>
  151.7844  135.0753  160.0378 H   0  0  0  0  0  0  0  0  0  0  0  0  # atno 6907 bound_to 6896
  152.3201  133.5840  159.5747 H   0  0  0  0  0  0  0  0  0  0  0  0  # atno 6908 bound_to 6896
  150.7365  133.9940  159.3658 H   0  0  0  0  0  0  0  0  0  0  0  0  # atno 6909 bound_to 6896
  145.0570  140.8261  143.4175 H   0  0  0  0  0  0  0  0  0  0  0  0  # atno 7974 bound_to 7965
  154.5969  140.2441  155.7845 H   0  0  0  0  0  0  0  0  0  0  0  0  # atno 8008 bound_to 7997
  156.2285  140.2974  156.0081 H   0  0  0  0  0  0  0  0  0  0  0  0  # atno 8009 bound_to 7997
  155.2278  140.0402  157.2948 H   0  0  0  0  0  0  0  0  0  0  0  0  # atno 8010 bound_to 7997
  140.0226  143.5329  152.2214 H   0  0  0  0  0  0  0  0  0  0  0  0  # atno 10167 bound_to 10162
  157.5920  131.1063  150.7978 H   0  0  0  0  0  0  0  0  0  0  0  0  # atno 10718 bound_to 10713
  153.1085  135.6690  153.9543 H   0  0  0  0  0  0  0  0  0  0  0  0  # atno 10763 bound_to 10752
  153.9094  135.3027  155.3450 H   0  0  0  0  0  0  0  0  0  0  0  0  # atno 10764 bound_to 10752
  154.7505  135.5037  153.9357 H   0  0  0  0  0  0  0  0  0  0  0  0  # atno 10765 bound_to 10752
  139.9367  134.7474  156.1208 H   0  0  0  0  0  0  0  0  0  0  0  0  # atno 11005 bound_to 11000
  145.1456  139.2545  143.5467 LP  0  0  0  0  0  0  0  0  0  0  0  0  # atno 17320 bound_to 7965
  146.3522  140.1145  142.8602 LP  0  0  0  0  0  0  0  0  0  0  0  0  # atno 17321 bound_to 7965
  139.6130  144.7613  151.2910 LP  0  0  0  0  0  0  0  0  0  0  0  0  # atno 17342 bound_to 10162
  140.7336  143.6790  150.8017 LP  0  0  0  0  0  0  0  0  0  0  0  0  # atno 17343 bound_to 10162
  156.8397  130.5044  149.5322 LP  0  0  0  0  0  0  0  0  0  0  0  0  # atno 17370 bound_to 10713
  156.0976  130.5944  150.9840 LP  0  0  0  0  0  0  0  0  0  0  0  0  # atno 17371 bound_to 10713
  141.0985  133.6686  156.2699 LP  0  0  0  0  0  0  0  0  0  0  0  0  # atno 17394 bound_to 11000
  140.6056  134.5510  157.5525 LP  0  0  0  0  0  0  0  0  0  0  0  0  # atno 17395 bound_to 11000

$$$$
