AV-unprocessed.smi:811|AV-procd|sdf|3813|dock5
  -GOLD-   22720 1253D 1   1.00000     0.00000
 Structure written by MMmdl.
 46 48  0  0  0  0  0  0  0  0  2 V2000
  141.7576  134.8122  153.4154 C   0  0  0  0  0  0  0  0  0  0  0  0
  143.1372  134.3056  153.2487 N   0  3  1  0  0  0  0  0  0  0  0  0
  143.4968  133.9953  151.8416 C   0  0  0  0  0  0  0  0  0  0  0  0
  144.8681  134.6326  151.5871 C   0  0  0  0  0  0  0  0  0  0  0  0
  144.8720  135.8046  152.5600 C   0  0  2  0  0  0  0  0  0  0  0  0
  146.2075  136.3055  152.8731 N   0  0  0  0  0  0  0  0  0  0  0  0
  146.4992  137.2074  153.8216 C   0  0  0  0  0  0  0  0  0  0  0  0
  145.6561  137.7125  154.5620 O   0  0  0  0  0  0  0  0  0  0  0  0
  147.8134  137.4890  153.8330 N   0  0  0  0  0  0  0  0  0  0  0  0
  148.5184  138.3987  154.6672 C   0  0  0  0  0  0  0  0  0  0  0  0
  148.1883  138.6663  156.0173 C   0  0  0  0  0  0  0  0  0  0  0  0
  148.9767  139.5799  156.7426 C   0  0  0  0  0  0  0  0  0  0  0  0
  150.0731  140.1920  156.1020 C   0  0  0  0  0  0  0  0  0  0  0  0
  150.8588  141.1037  156.8208 N   0  0  0  0  0  0  0  0  0  0  0  0
  151.5878  140.4952  157.9267 C   0  0  0  0  0  0  0  0  0  0  0  0
  152.5167  141.5341  158.5782 C   0  0  0  0  0  0  0  0  0  0  0  0
  151.7550  142.6666  158.9883 O   0  0  0  0  0  0  0  0  0  0  0  0
  151.1023  143.2988  157.8908 C   0  0  0  0  0  0  0  0  0  0  0  0
  150.1371  142.3049  157.2221 C   0  0  0  0  0  0  0  0  0  0  0  0
  150.4029  139.9314  154.8149 N   0  0  0  0  0  0  0  0  0  0  0  0
  149.6437  139.0541  154.1258 C   0  0  0  0  0  0  0  0  0  0  0  0
  144.1779  135.2110  153.7854 C   0  0  0  0  0  0  0  0  0  0  0  0
  141.6216  135.7600  152.8925 H   0  0  0  0  0  0  0  0  0  0  0  0
  141.5318  134.9676  154.4707 H   0  0  0  0  0  0  0  0  0  0  0  0
  141.0368  134.0956  153.0203 H   0  0  0  0  0  0  0  0  0  0  0  0
  143.5075  132.9193  151.6666 H   0  0  0  0  0  0  0  0  0  0  0  0
  142.7649  134.4310  151.1592 H   0  0  0  0  0  0  0  0  0  0  0  0
  145.6603  133.9258  151.8398 H   0  0  0  0  0  0  0  0  0  0  0  0
  145.0066  134.9404  150.5501 H   0  0  0  0  0  0  0  0  0  0  0  0
  144.2377  136.5940  152.1510 H   0  0  0  0  0  0  0  0  0  0  0  0
  146.9684  135.9499  152.3128 H   0  0  0  0  0  0  0  0  0  0  0  0
  148.3678  137.0477  153.1140 H   0  0  0  0  0  0  0  0  0  0  0  0
  147.3615  138.1842  156.5148 H   0  0  0  0  0  0  0  0  0  0  0  0
  148.7443  139.8016  157.7740 H   0  0  0  0  0  0  0  0  0  0  0  0
  150.8845  140.1127  158.6676 H   0  0  0  0  0  0  0  0  0  0  0  0
  152.1696  139.6468  157.5641 H   0  0  0  0  0  0  0  0  0  0  0  0
  153.0106  141.1027  159.4489 H   0  0  0  0  0  0  0  0  0  0  0  0
  153.3019  141.8424  157.8858 H   0  0  0  0  0  0  0  0  0  0  0  0
  150.5541  144.1676  158.2548 H   0  0  0  0  0  0  0  0  0  0  0  0
  151.8414  143.6640  157.1760 H   0  0  0  0  0  0  0  0  0  0  0  0
  149.6700  142.7644  156.3499 H   0  0  0  0  0  0  0  0  0  0  0  0
  149.3379  142.0427  157.9170 H   0  0  0  0  0  0  0  0  0  0  0  0
  149.9443  138.8744  153.1037 H   0  0  0  0  0  0  0  0  0  0  0  0
  143.7771  135.9781  154.4496 H   0  0  0  0  0  0  0  0  0  0  0  0
  144.8792  134.6092  154.3657 H   0  0  0  0  0  0  0  0  0  0  0  0
  143.1984  133.4463  153.7762 H   0  0  0  0  0  0  0  0  0  0  0  0
  1  2  1  0  0  0  0
  1 23  1  0  0  0  0
  1 24  1  0  0  0  0
  1 25  1  0  0  0  0
  2 22  1  0  0  0  0
  2  3  1  0  0  0  0
  2 46  1  0  0  0  0
  3  4  1  0  0  0  0
  3 26  1  0  0  0  0
  3 27  1  0  0  0  0
  4  5  1  0  0  0  0
  4 28  1  0  0  0  0
  4 29  1  0  0  0  0
  5  6  1  0  0  0  0
  5 22  1  0  0  0  0
  5 30  1  0  0  0  0
  6  7  1  0  0  0  0
  6 31  1  0  0  0  0
  7  8  2  0  0  0  0
  7  9  1  0  0  0  0
  9 10  1  0  0  0  0
  9 32  1  0  0  0  0
 10 21  1  0  0  0  0
 10 11  2  0  0  0  0
 11 12  1  0  0  0  0
 11 33  1  0  0  0  0
 12 13  2  0  0  0  0
 12 34  1  0  0  0  0
 13 14  1  0  0  0  0
 13 20  1  0  0  0  0
 14 19  1  0  0  0  0
 14 15  1  0  0  0  0
 15 16  1  0  0  0  0
 15 35  1  0  0  0  0
 15 36  1  0  0  0  0
 16 17  1  0  0  0  0
 16 37  1  0  0  0  0
 16 38  1  0  0  0  0
 17 18  1  0  0  0  0
 18 19  1  0  0  0  0
 18 39  1  0  0  0  0
 18 40  1  0  0  0  0
 19 41  1  0  0  0  0
 19 42  1  0  0  0  0
 20 21  2  0  0  0  0
 21 43  1  0  0  0  0
 22 44  1  0  0  0  0
 22 45  1  0  0  0  0
M  CHG  1   2   1
M  END
> <s_m_source_file>
AV-unprocessed.smi

> <i_m_source_file_index>
811

> <i_lp_mmshare_version>
43012

> <i_f3d_flags>
0

> <s_epik_input>
W0NIM11OMVtDSDJdW0NIMl1bQ0BIXShbQ0gyXTEpW05IXUMoPU8pW05IXWMyW2NIXVtjSF1jKG5bY0hdMilOM1tDSDJdW0NIMl1PW0NIMl1bQ0gyXTM=

> <s_epik_cmdline>
J2VwaWtfcHl0aG9uJywgJy1waCcsICc3LjAnLCAnLXRuJywgJzgnLCAnLW1hJywgJzIwMCcsICctbWV0YWxfYmluZGluZycsICctaW1hZScsICc8aW5maWxlLm1hZT4nLCAnLW9tYWUnLCAnPG91dGZpbGUubWFlPic=

> <r_lp_tautomer_probability>
1

> <r_epik_Ionization_Penalty>
0.00503422

> <r_epik_Ionization_Penalty_Charging>
0.00366104

> <r_epik_Ionization_Penalty_Neutral>
0.00137318

> <r_epik_State_Penalty>
-0

> <r_epik_Charging_Adjusted_Penalty>
0.00366104

> <i_epik_Tot_Q>
1

> <i_epik_Tot_abs_Q>
1

> <r_epik_Metal_State_Penalty>
-0

> <b_epik_Metal_Only>
0

> <s_lp_Force_Field>
OPLS_2005

> <r_lp_Energy>
46.7377

> <b_lp_Chiralities_Consistent>
1

> <s_lp_Variant>
AV-unprocessed.smi:811-3

> <Gold.Version>
5.8.1

> <Gold.Id.Protein>
6NUR|6NUR_protein|mol2

> <Gold.PLP.Fitness>
44.2408

> <Gold.PLP.PLP>
-27.0978

> <Gold.PLP.part.hbond>
-4.0000

> <Gold.PLP.part.metal>
0.0000

> <Gold.PLP.part.buried>
-4.5274

> <Gold.PLP.part.nonpolar>
-19.1164

> <Gold.PLP.part.repulsive>
0.1929

> <Gold.PLP.ligand.clash>
0.0000

> <Gold.PLP.ligand.torsion>
0.3296

> <Gold.PLP.Chemscore.Hbond>
4.8960

> <Gold.PLP.Chemscore.CHOScore>
1.0000

> <Gold.PLP.Chemscore.Metal>
0.0000

> <Gold.Chemscore.Hbonds>
donor molecule, donor type, donor heavy atom, donor atom, acceptor molecule, acceptor atom, score
      L1  H     2    46       P1 10957  2.00
      L1  H     6    31       P1  7948  0.89
      L1  H     9    32       P1  7948  1.00
      P1  H  7989  7998       L1    20  1.00
      L1  C    21    43       P1  7957  1.00

> <Gold.PLP.Chemscore.Internal.Correction>
0.1141

> <Gold.Rescore>
     Score         DG    S(hbond)    S(metal)    S(lipo)     H(rot)  DE(clash)    DE(int)     intcor
     20.47     -21.66       3.43        0.00      67.18       1.23       0.26       0.92       ----

> <Gold.Chemscore.Fitness>
20.4700

> <Gold.Chemscore.DG>
-21.6562

> <Gold.Chemscore.ZeroCoef>
-5.4800

> <Gold.Chemscore.Hbond>
3.4323

> <Gold.Chemscore.Metal>
0.0000

> <Gold.Chemscore.Lipo>
67.1768

> <Gold.Chemscore.Internal_Hbond>
0.0000

> <Gold.Chemscore.DEClash>
0.2647

> <Gold.Chemscore.DEInternal>
0.9216

> <Gold.Chemscore.Rot>
1.2295

> <Gold.Chemscore.Internal.Correction>
   9.000000E+99

> <Gold.Chemscore.Hbonds>
donor molecule, donor type, donor heavy atom, donor atom, acceptor molecule, acceptor atom, score
      L1  H     2    46       P1 10957  0.93
      L1  H     6    31       P1  7948  0.80
      L1  H     9    32       P1  7948  0.99
      P1  H  7989  7998       L1    20  0.61

> <Gold.Chemscore.Hbond.Weighted>
-11.4640

> <Gold.Chemscore.Metal.Weighted>
-0.0000

> <Gold.Chemscore.Lipo.Weighted>
-7.8597

> <Gold.Chemscore.Internal_Hbond.Weighted>
0.0000

> <Gold.Chemscore.DEClash.Weighted>
0.2647

> <Gold.Chemscore.DEInternal.Weighted>
0.9216

> <Gold.Chemscore.Rot.Weighted>
3.1474

> <Gold.Chemscore.Internal.Correction.Weighted>
   9.000000E+99

> <Gold.Protein.RotatedTorsions>
[ 6907 6896 6895 6894 ] final  158.48 input  -60.11 | X-H torsion
[ 7974 7965 7964 7962 ] final   59.98 input  175.53 | X-H torsion
[ 8008 7997 7996 7995 ] final  165.87 input   59.86 | X-H torsion
[ 10167 10162 10161 10158 ] final   91.88 input  -65.29 | X-H torsion
[ 10718 10713 10712 10709 ] final -135.83 input   66.30 | X-H torsion
[ 10763 10752 10751 10750 ] final  -51.05 input  -60.55 | X-H torsion
[ 11005 11000 10999 10996 ] final  174.87 input  -57.11 | X-H torsion

> <Gold.Protein.ActiveResidues>
 VAL166  LYS551  ARG553  GLY616  TRP617  ASP618  TYR619  PRO620  LYS621  CYS622 
 ASP623  PHE694  ASN695  SER759  ASP760  ASP761  ALA762  ILE779  LEU786  VAL792 
 PHE793  MET794  SER795  GLU796  ALA797  LYS798  CYS799  TRP800  GLU811  SER814 

> <Gold.Protein.RotatedAtoms>
  151.9998  133.3821  159.4176 H   0  0  0  0  0  0  0  0  0  0  0  0  # atno 6907 bound_to 6896
  150.6911  134.3847  159.5059 H   0  0  0  0  0  0  0  0  0  0  0  0  # atno 6908 bound_to 6896
  152.1592  134.8925  160.0593 H   0  0  0  0  0  0  0  0  0  0  0  0  # atno 6909 bound_to 6896
  145.9011  139.3582  143.0592 H   0  0  0  0  0  0  0  0  0  0  0  0  # atno 7974 bound_to 7965
  156.1765  140.1658  156.8353 H   0  0  0  0  0  0  0  0  0  0  0  0  # atno 8008 bound_to 7997
  154.5313  140.0756  156.8383 H   0  0  0  0  0  0  0  0  0  0  0  0  # atno 8009 bound_to 7997
  155.3402  140.3384  155.4241 H   0  0  0  0  0  0  0  0  0  0  0  0  # atno 8010 bound_to 7997
  139.8331  144.6677  150.9375 H   0  0  0  0  0  0  0  0  0  0  0  0  # atno 10167 bound_to 10162
  156.2704  130.7262  151.1227 H   0  0  0  0  0  0  0  0  0  0  0  0  # atno 10718 bound_to 10713
  154.1202  135.6536  153.4901 H   0  0  0  0  0  0  0  0  0  0  0  0  # atno 10763 bound_to 10752
  153.0228  135.5268  154.7104 H   0  0  0  0  0  0  0  0  0  0  0  0  # atno 10764 bound_to 10752
  154.6309  135.2976  155.0187 H   0  0  0  0  0  0  0  0  0  0  0  0  # atno 10765 bound_to 10752
  140.3560  134.7154  157.4299 H   0  0  0  0  0  0  0  0  0  0  0  0  # atno 11005 bound_to 11000
  145.8790  140.9374  143.0611 LP  0  0  0  0  0  0  0  0  0  0  0  0  # atno 17320 bound_to 7965
  144.6736  140.0755  143.7471 LP  0  0  0  0  0  0  0  0  0  0  0  0  # atno 17321 bound_to 7965
  140.7805  143.3982  151.1194 LP  0  0  0  0  0  0  0  0  0  0  0  0  # atno 17342 bound_to 10162
  139.7634  143.8601  152.3105 LP  0  0  0  0  0  0  0  0  0  0  0  0  # atno 17343 bound_to 10162
  157.7282  131.0633  150.5831 LP  0  0  0  0  0  0  0  0  0  0  0  0  # atno 17370 bound_to 10713
  156.5927  130.4333  149.5930 LP  0  0  0  0  0  0  0  0  0  0  0  0  # atno 17371 bound_to 10713
  140.0665  134.5922  155.8690 LP  0  0  0  0  0  0  0  0  0  0  0  0  # atno 17394 bound_to 11000
  141.1998  133.6609  156.5864 LP  0  0  0  0  0  0  0  0  0  0  0  0  # atno 17395 bound_to 11000

$$$$
