AV-unprocessed.smi:2665|AV-procd|sdf|10330|dock2
  -GOLD-   2272014343D 1   1.00000     0.00000
 Structure written by MMmdl.
 29 30  0  0  0  0  0  0  0  0  2 V2000
  151.0332  145.4758  160.0990 C   0  0  0  0  0  0  0  0  0  0  0  0
  151.9131  144.2891  159.6922 C   0  0  2  0  0  0  0  0  0  0  0  0
  151.2420  143.4117  158.6177 C   0  0  0  0  0  0  0  0  0  0  0  0
  152.0742  142.2505  158.3286 N   0  0  0  0  0  0  0  0  0  0  0  0
  151.5917  141.4648  157.2723 C   0  0  0  0  0  0  0  0  0  0  0  0
  152.3119  140.3130  156.8940 C   0  0  0  0  0  0  0  0  0  0  0  0
  151.8296  139.5185  155.8288 C   0  0  0  0  0  0  0  0  0  0  0  0
  152.5635  138.2813  155.3899 C   0  0  0  0  0  0  0  0  0  0  0  0
  151.9083  137.3302  154.9081 O   0  0  0  0  0  0  0  0  0  0  0  0
  153.8075  138.2394  155.5190 O   0  5  0  0  0  0  0  0  0  0  0  0
  150.6362  139.9228  155.1891 C   0  0  0  0  0  0  0  0  0  0  0  0
  149.9888  141.0888  155.6397 C   0  0  0  0  0  0  0  0  0  0  0  0
  150.4481  141.8478  156.6563 N   0  0  0  0  0  0  0  0  0  0  0  0
  152.3952  141.4829  159.5247 C   0  0  0  0  0  0  0  0  0  0  0  0
  153.0334  142.4005  160.5811 C   0  0  0  0  0  0  0  0  0  0  0  0
  152.1632  143.4964  160.8514 O   0  0  0  0  0  0  0  0  0  0  0  0
  150.8234  146.1193  159.2441 H   0  0  0  0  0  0  0  0  0  0  0  0
  151.5249  146.0828  160.8595 H   0  0  0  0  0  0  0  0  0  0  0  0
  150.0797  145.1386  160.5063 H   0  0  0  0  0  0  0  0  0  0  0  0
  152.8613  144.6738  159.3120 H   0  0  0  0  0  0  0  0  0  0  0  0
  150.2602  143.0842  158.9631 H   0  0  0  0  0  0  0  0  0  0  0  0
  151.0879  143.9874  157.7042 H   0  0  0  0  0  0  0  0  0  0  0  0
  153.2201  140.0485  157.4163 H   0  0  0  0  0  0  0  0  0  0  0  0
  150.2179  139.3566  154.3695 H   0  0  0  0  0  0  0  0  0  0  0  0
  149.0748  141.4213  155.1706 H   0  0  0  0  0  0  0  0  0  0  0  0
  151.4885  141.0293  159.9278 H   0  0  0  0  0  0  0  0  0  0  0  0
  153.0782  140.6712  159.2708 H   0  0  0  0  0  0  0  0  0  0  0  0
  153.2065  141.8478  161.5044 H   0  0  0  0  0  0  0  0  0  0  0  0
  154.0035  142.7681  160.2425 H   0  0  0  0  0  0  0  0  0  0  0  0
  1  2  1  0  0  0  0
  1 17  1  0  0  0  0
  1 18  1  0  0  0  0
  1 19  1  0  0  0  0
  2 16  1  0  0  0  0
  2  3  1  0  0  0  0
  2 20  1  0  0  0  0
  3  4  1  0  0  0  0
  3 21  1  0  0  0  0
  3 22  1  0  0  0  0
  4  5  1  0  0  0  0
  4 14  1  0  0  0  0
  5 13  1  0  0  0  0
  5  6  2  0  0  0  0
  6  7  1  0  0  0  0
  6 23  1  0  0  0  0
  7  8  1  0  0  0  0
  7 11  2  0  0  0  0
  8  9  2  0  0  0  0
  8 10  1  0  0  0  0
 11 12  1  0  0  0  0
 11 24  1  0  0  0  0
 12 13  2  0  0  0  0
 12 25  1  0  0  0  0
 14 15  1  0  0  0  0
 14 26  1  0  0  0  0
 14 27  1  0  0  0  0
 15 16  1  0  0  0  0
 15 28  1  0  0  0  0
 15 29  1  0  0  0  0
M  CHG  1  10  -1
M  END
> <s_m_source_file>
AV-unprocessed.smi

> <i_m_source_file_index>
2665

> <i_lp_mmshare_version>
43012

> <i_f3d_flags>
0

> <s_epik_input>
W0NIM11bQ0BASF0xW0NIMl1OKFtDSDJdW0NIMl1PMSljMltjSF1jKEMoPU8pW09IXSlbY0hdW2NIXW4y

> <s_epik_cmdline>
J2VwaWtfcHl0aG9uJywgJy1waCcsICc3LjAnLCAnLXRuJywgJzgnLCAnLW1hJywgJzIwMCcsICctbWV0YWxfYmluZGluZycsICctaW1hZScsICc8aW5maWxlLm1hZT4nLCAnLW9tYWUnLCAnPG91dGZpbGUubWFlPic=

> <r_epik_Ionization_Penalty>
0.00511367

> <r_epik_Ionization_Penalty_Charging>
0.00135522

> <r_epik_Ionization_Penalty_Neutral>
0.00375844

> <r_epik_State_Penalty>
0.00357724

> <r_epik_Charging_Adjusted_Penalty>
0.00493246

> <i_epik_Tot_Q>
-1

> <i_epik_Tot_abs_Q>
1

> <r_epik_Metal_State_Penalty>
-0

> <b_epik_Metal_Only>
0

> <s_lp_Force_Field>
OPLS_2005

> <r_lp_Energy>
17.7567

> <b_lp_Chiralities_Consistent>
1

> <s_lp_Variant>
AV-unprocessed.smi:2665-1

> <Gold.Version>
5.8.1

> <Gold.Id.Protein>
6NUR|6NUR_protein|mol2

> <Gold.PLP.Fitness>
40.7663

> <Gold.PLP.PLP>
-32.5232

> <Gold.PLP.part.hbond>
-2.3558

> <Gold.PLP.part.metal>
0.0000

> <Gold.PLP.part.buried>
-3.3278

> <Gold.PLP.part.nonpolar>
-26.4981

> <Gold.PLP.part.repulsive>
0.2835

> <Gold.PLP.ligand.clash>
0.0000

> <Gold.PLP.ligand.torsion>
0.4788

> <Gold.PLP.Chemscore.Hbond>
3.0322

> <Gold.PLP.Chemscore.CHOScore>
0.0000

> <Gold.PLP.Chemscore.Metal>
0.0000

> <Gold.Chemscore.Hbonds>
donor molecule, donor type, donor heavy atom, donor atom, acceptor molecule, acceptor atom, score
      P1  H  7997  8009       L1    10  1.18
      P1  H 10752 10763       L1     9  1.86

> <Gold.PLP.Chemscore.Internal.Correction>
0.1039

> <Gold.Rescore>
     Score         DG    S(hbond)    S(metal)    S(lipo)     H(rot)  DE(clash)    DE(int)     intcor
     15.42     -16.13       1.18        0.00      79.24       1.00       0.14       0.57       ----

> <Gold.Chemscore.Fitness>
15.4176

> <Gold.Chemscore.DG>
-16.1340

> <Gold.Chemscore.ZeroCoef>
-5.4800

> <Gold.Chemscore.Hbond>
1.1804

> <Gold.Chemscore.Metal>
0.0000

> <Gold.Chemscore.Lipo>
79.2435

> <Gold.Chemscore.Internal_Hbond>
0.0000

> <Gold.Chemscore.DEClash>
0.1426

> <Gold.Chemscore.DEInternal>
0.5738

> <Gold.Chemscore.Rot>
1.0000

> <Gold.Chemscore.Internal.Correction>
   9.000000E+99

> <Gold.Chemscore.Hbonds>
donor molecule, donor type, donor heavy atom, donor atom, acceptor molecule, acceptor atom, score
      P1  H  7997  8009       L1    10  0.34
      P1  H 10752 10763       L1     9  0.78

> <Gold.Chemscore.Hbond.Weighted>
-3.9425

> <Gold.Chemscore.Metal.Weighted>
-0.0000

> <Gold.Chemscore.Lipo.Weighted>
-9.2715

> <Gold.Chemscore.Internal_Hbond.Weighted>
0.0000

> <Gold.Chemscore.DEClash.Weighted>
0.1426

> <Gold.Chemscore.DEInternal.Weighted>
0.5738

> <Gold.Chemscore.Rot.Weighted>
2.5600

> <Gold.Chemscore.Internal.Correction.Weighted>
   9.000000E+99

> <Gold.Protein.RotatedTorsions>
[ 6907 6896 6895 6894 ] final  -92.16 input  -60.11 | X-H torsion
[ 7974 7965 7964 7962 ] final  131.04 input  175.53 | X-H torsion
[ 8008 7997 7996 7995 ] final -148.81 input   59.86 | X-H torsion
[ 10167 10162 10161 10158 ] final   15.11 input  -65.29 | X-H torsion
[ 10718 10713 10712 10709 ] final  -77.83 input   66.30 | X-H torsion
[ 10763 10752 10751 10750 ] final   54.37 input  -60.55 | X-H torsion
[ 11005 11000 10999 10996 ] final   42.87 input  -57.11 | X-H torsion

> <Gold.Protein.ActiveResidues>
 VAL166  LYS551  ARG553  GLY616  TRP617  ASP618  TYR619  PRO620  LYS621  CYS622 
 ASP623  PHE694  ASN695  SER759  ASP760  ASP761  ALA762  ILE779  LEU786  VAL792 
 PHE793  MET794  SER795  GLU796  ALA797  LYS798  CYS799  TRP800  GLU811  SER814 

> <Gold.Protein.RotatedAtoms>
  150.6902  134.2166  159.4379 H   0  0  0  0  0  0  0  0  0  0  0  0  # atno 6907 bound_to 6896
  152.0125  134.9866  160.0578 H   0  0  0  0  0  0  0  0  0  0  0  0  # atno 6908 bound_to 6896
  152.1475  133.4467  159.4834 H   0  0  0  0  0  0  0  0  0  0  0  0  # atno 6909 bound_to 6896
  145.0115  139.4216  143.5242 H   0  0  0  0  0  0  0  0  0  0  0  0  # atno 7974 bound_to 7965
  155.5975  140.0659  157.2742 H   0  0  0  0  0  0  0  0  0  0  0  0  # atno 8008 bound_to 7997
  154.4288  140.1824  156.1186 H   0  0  0  0  0  0  0  0  0  0  0  0  # atno 8009 bound_to 7997
  156.0185  140.3319  155.7017 H   0  0  0  0  0  0  0  0  0  0  0  0  # atno 8010 bound_to 7997
  140.5889  143.8834  150.6856 H   0  0  0  0  0  0  0  0  0  0  0  0  # atno 10167 bound_to 10162
  156.0134  130.4501  150.3404 H   0  0  0  0  0  0  0  0  0  0  0  0  # atno 10718 bound_to 10713
  152.9804  135.5747  154.4894 H   0  0  0  0  0  0  0  0  0  0  0  0  # atno 10763 bound_to 10752
  154.4431  135.2776  155.1836 H   0  0  0  0  0  0  0  0  0  0  0  0  # atno 10764 bound_to 10752
  154.3496  135.6212  153.5689 H   0  0  0  0  0  0  0  0  0  0  0  0  # atno 10765 bound_to 10752
  140.1698  134.4236  155.8264 H   0  0  0  0  0  0  0  0  0  0  0  0  # atno 11005 bound_to 11000
  146.3470  139.9561  142.8723 LP  0  0  0  0  0  0  0  0  0  0  0  0  # atno 17320 bound_to 7965
  145.2017  140.9857  143.4152 LP  0  0  0  0  0  0  0  0  0  0  0  0  # atno 17321 bound_to 7965
  140.2352  143.3705  152.1533 LP  0  0  0  0  0  0  0  0  0  0  0  0  # atno 17342 bound_to 10162
  139.5215  144.7047  151.5390 LP  0  0  0  0  0  0  0  0  0  0  0  0  # atno 17343 bound_to 10162
  157.1499  131.0318  151.2889 LP  0  0  0  0  0  0  0  0  0  0  0  0  # atno 17370 bound_to 10713
  157.4400  130.7539  149.7062 LP  0  0  0  0  0  0  0  0  0  0  0  0  # atno 17371 bound_to 10713
  141.2216  133.6951  156.7743 LP  0  0  0  0  0  0  0  0  0  0  0  0  # atno 17394 bound_to 11000
  140.2390  134.8628  157.3554 LP  0  0  0  0  0  0  0  0  0  0  0  0  # atno 17395 bound_to 11000

$$$$
