AV-unprocessed.smi:3112|AV-procd|sdf|11850|dock6
  -GOLD-   2272017233D 1   1.00000     0.00000
 Structure written by MMmdl.
 36 36  0  0  0  0  0  0  0  0  1 V2000
  147.1226  139.7897  154.1042 C   0  0  0  0  0  0  0  0  0  0  0  0
  148.2495  139.9966  155.1252 C   0  0  0  0  0  0  0  0  0  0  0  0
  149.2878  141.0461  154.6806 C   0  0  2  0  0  0  0  0  0  0  0  0
  149.8426  140.7090  153.4249 O   0  0  0  0  0  0  0  0  0  0  0  0
  150.4299  141.2777  155.6879 C   0  0  0  0  0  0  0  0  0  0  0  0
  150.1096  142.3236  156.6633 N   0  0  0  0  0  0  0  0  0  0  0  0
  151.1766  142.6248  157.6224 C   0  0  1  0  0  0  0  0  0  0  0  0
  150.8950  144.0099  158.2350 C   0  0  0  0  0  0  0  0  0  0  0  0
  151.3069  141.5145  158.7085 C   0  0  1  0  0  0  0  0  0  0  0  0
  151.8986  140.1876  158.1979 C   0  0  0  0  0  0  0  0  0  0  0  0
  152.0681  141.9729  159.8648 N   0  0  0  0  0  0  0  0  0  0  0  0
  153.3110  141.5506  160.2906 C   0  0  0  0  0  0  0  0  0  0  0  0
  153.6215  142.2608  161.4147 C   0  0  0  0  0  0  0  0  0  0  0  0
  152.4929  143.1061  161.6024 C   0  0  0  0  0  0  0  0  0  0  0  0
  151.5658  142.9327  160.6749 N   0  0  0  0  0  0  0  0  0  0  0  0
  146.3957  139.0654  154.4721 H   0  0  0  0  0  0  0  0  0  0  0  0
  147.5090  139.4161  153.1556 H   0  0  0  0  0  0  0  0  0  0  0  0
  146.5920  140.7216  153.9072 H   0  0  0  0  0  0  0  0  0  0  0  0
  147.8054  140.3129  156.0700 H   0  0  0  0  0  0  0  0  0  0  0  0
  148.7367  139.0407  155.3215 H   0  0  0  0  0  0  0  0  0  0  0  0
  148.7762  142.0000  154.5469 H   0  0  0  0  0  0  0  0  0  0  0  0
  149.2967  140.0511  153.0225 H   0  0  0  0  0  0  0  0  0  0  0  0
  150.6819  140.3381  156.1757 H   0  0  0  0  0  0  0  0  0  0  0  0
  151.3224  141.5729  155.1353 H   0  0  0  0  0  0  0  0  0  0  0  0
  149.8536  143.1700  156.1652 H   0  0  0  0  0  0  0  0  0  0  0  0
  152.1258  142.7076  157.0907 H   0  0  0  0  0  0  0  0  0  0  0  0
  151.7191  144.3531  158.8606 H   0  0  0  0  0  0  0  0  0  0  0  0
  149.9933  143.9974  158.8482 H   0  0  0  0  0  0  0  0  0  0  0  0
  150.7568  144.7615  157.4571 H   0  0  0  0  0  0  0  0  0  0  0  0
  150.3024  141.2942  159.0737 H   0  0  0  0  0  0  0  0  0  0  0  0
  151.2191  139.6889  157.5075 H   0  0  0  0  0  0  0  0  0  0  0  0
  152.0701  139.4937  159.0217 H   0  0  0  0  0  0  0  0  0  0  0  0
  152.8510  140.3417  157.6901 H   0  0  0  0  0  0  0  0  0  0  0  0
  153.8649  140.7870  159.7648 H   0  0  0  0  0  0  0  0  0  0  0  0
  154.5181  142.1874  162.0117 H   0  0  0  0  0  0  0  0  0  0  0  0
  152.3209  143.8356  162.3799 H   0  0  0  0  0  0  0  0  0  0  0  0
  1  2  1  0  0  0  0
  1 16  1  0  0  0  0
  1 17  1  0  0  0  0
  1 18  1  0  0  0  0
  2  3  1  0  0  0  0
  2 19  1  0  0  0  0
  2 20  1  0  0  0  0
  3  4  1  0  0  0  0
  3  5  1  0  0  0  0
  3 21  1  0  0  0  0
  4 22  1  0  0  0  0
  5  6  1  0  0  0  0
  5 23  1  0  0  0  0
  5 24  1  0  0  0  0
  6  7  1  0  0  0  0
  6 25  1  0  0  0  0
  7  8  1  0  0  0  0
  7  9  1  0  0  0  0
  7 26  1  0  0  0  0
  8 27  1  0  0  0  0
  8 28  1  0  0  0  0
  8 29  1  0  0  0  0
  9 10  1  0  0  0  0
  9 11  1  0  0  0  0
  9 30  1  0  0  0  0
 10 31  1  0  0  0  0
 10 32  1  0  0  0  0
 10 33  1  0  0  0  0
 11 15  1  0  0  0  0
 11 12  1  0  0  0  0
 12 13  2  0  0  0  0
 12 34  1  0  0  0  0
 13 14  1  0  0  0  0
 13 35  1  0  0  0  0
 14 15  2  0  0  0  0
 14 36  1  0  0  0  0
M  END
> <s_m_source_file>
AV-unprocessed.smi

> <i_m_source_file_index>
3112

> <i_lp_mmshare_version>
43012

> <i_f3d_flags>
0

> <s_epik_input>
W0NIM11bQ0gyXVtDQEhdKFtPSF0pW0NIMl1bTkhdW0NASF0oW0NIM10pW0NASF0oW0NIM10pbjFbY0hdW2NIXVtjSF1uMQ==

> <s_epik_cmdline>
J2VwaWtfcHl0aG9uJywgJy1waCcsICc3LjAnLCAnLXRuJywgJzgnLCAnLW1hJywgJzIwMCcsICctbWV0YWxfYmluZGluZycsICctaW1hZScsICc8aW5maWxlLm1hZT4nLCAnLW9tYWUnLCAnPG91dGZpbGUubWFlPic=

> <r_lp_tautomer_probability>
1

> <r_epik_Ionization_Penalty>
2.16876

> <r_epik_Ionization_Penalty_Charging>
0

> <r_epik_Ionization_Penalty_Neutral>
2.16876

> <r_epik_State_Penalty>
2.30854

> <r_epik_Charging_Adjusted_Penalty>
2.30854

> <i_epik_Tot_Q>
0

> <i_epik_Tot_abs_Q>
0

> <r_epik_Metal_State_Penalty>
2.3073

> <b_epik_Metal_Only>
0

> <s_lp_Force_Field>
OPLS_2005

> <r_lp_Energy>
23.3331

> <b_lp_Chiralities_Consistent>
1

> <s_lp_Variant>
AV-unprocessed.smi:3112-15

> <Gold.Version>
5.8.1

> <Gold.Id.Protein>
6NUR|6NUR_protein|mol2

> <Gold.PLP.Fitness>
42.0610

> <Gold.PLP.PLP>
-36.8755

> <Gold.PLP.part.hbond>
-4.7594

> <Gold.PLP.part.metal>
0.0000

> <Gold.PLP.part.buried>
-5.2485

> <Gold.PLP.part.nonpolar>
-27.3426

> <Gold.PLP.part.repulsive>
0.0626

> <Gold.PLP.ligand.clash>
0.0000

> <Gold.PLP.ligand.torsion>
1.0242

> <Gold.PLP.Chemscore.Hbond>
2.3445

> <Gold.PLP.Chemscore.CHOScore>
0.0000

> <Gold.PLP.Chemscore.Metal>
0.0000

> <Gold.Chemscore.Hbonds>
donor molecule, donor type, donor heavy atom, donor atom, acceptor molecule, acceptor atom, score
      L1  H     4    22       P1  7957  0.18
      L1  H     6    25       P1  8028  1.00
      P1  H  7989  7998       L1     4  0.35
      P1  H  8011  8017       L1     4  1.00

> <Gold.PLP.Chemscore.Internal.Correction>
0.2004

> <Gold.Rescore>
     Score         DG    S(hbond)    S(metal)    S(lipo)     H(rot)  DE(clash)    DE(int)     intcor
     14.64     -17.49       2.33        0.00      86.72       2.31       0.32       2.54       ----

> <Gold.Chemscore.Fitness>
14.6364

> <Gold.Chemscore.DG>
-17.4876

> <Gold.Chemscore.ZeroCoef>
-5.4800

> <Gold.Chemscore.Hbond>
2.3284

> <Gold.Chemscore.Metal>
0.0000

> <Gold.Chemscore.Lipo>
86.7222

> <Gold.Chemscore.Internal_Hbond>
0.0000

> <Gold.Chemscore.DEClash>
0.3158

> <Gold.Chemscore.DEInternal>
2.5354

> <Gold.Chemscore.Rot>
2.3108

> <Gold.Chemscore.Internal.Correction>
   9.000000E+99

> <Gold.Chemscore.Hbonds>
donor molecule, donor type, donor heavy atom, donor atom, acceptor molecule, acceptor atom, score
      L1  H     4    22       P1  7957  0.19
      L1  H     6    25       P1  8028  1.00
      P1  H  7989  7998       L1     4  0.28
      P1  H  8011  8017       L1     4  0.38

> <Gold.Chemscore.Hbond.Weighted>
-7.7768

> <Gold.Chemscore.Metal.Weighted>
-0.0000

> <Gold.Chemscore.Lipo.Weighted>
-10.1465

> <Gold.Chemscore.Internal_Hbond.Weighted>
0.0000

> <Gold.Chemscore.DEClash.Weighted>
0.3158

> <Gold.Chemscore.DEInternal.Weighted>
2.5354

> <Gold.Chemscore.Rot.Weighted>
5.9157

> <Gold.Chemscore.Internal.Correction.Weighted>
   9.000000E+99

> <Gold.Protein.RotatedTorsions>
[ 6907 6896 6895 6894 ] final   48.30 input  -60.11 | X-H torsion
[ 7974 7965 7964 7962 ] final -170.15 input  175.53 | X-H torsion
[ 8008 7997 7996 7995 ] final   46.29 input   59.86 | X-H torsion
[ 10167 10162 10161 10158 ] final  104.51 input  -65.29 | X-H torsion
[ 10718 10713 10712 10709 ] final  -87.94 input   66.30 | X-H torsion
[ 10763 10752 10751 10750 ] final  -72.35 input  -60.55 | X-H torsion
[ 11005 11000 10999 10996 ] final   22.44 input  -57.11 | X-H torsion

> <Gold.Protein.ActiveResidues>
 VAL166  LYS551  ARG553  GLY616  TRP617  ASP618  TYR619  PRO620  LYS621  CYS622 
 ASP623  PHE694  ASN695  SER759  ASP760  ASP761  ALA762  ILE779  LEU786  VAL792 
 PHE793  MET794  SER795  GLU796  ALA797  LYS798  CYS799  TRP800  GLU811  SER814 

> <Gold.Protein.RotatedAtoms>
  152.2779  134.7861  160.0401 H   0  0  0  0  0  0  0  0  0  0  0  0  # atno 6907 bound_to 6896
  151.8451  133.3425  159.3663 H   0  0  0  0  0  0  0  0  0  0  0  0  # atno 6908 bound_to 6896
  150.7178  134.5282  159.5731 H   0  0  0  0  0  0  0  0  0  0  0  0  # atno 6909 bound_to 6896
  144.7174  140.2115  143.6327 H   0  0  0  0  0  0  0  0  0  0  0  0  # atno 7974 bound_to 7965
  155.3500  140.3413  155.4239 H   0  0  0  0  0  0  0  0  0  0  0  0  # atno 8008 bound_to 7997
  156.1769  140.1650  156.8382 H   0  0  0  0  0  0  0  0  0  0  0  0  # atno 8009 bound_to 7997
  154.5291  140.0749  156.8295 H   0  0  0  0  0  0  0  0  0  0  0  0  # atno 8010 bound_to 7997
  139.7171  144.7066  151.0932 H   0  0  0  0  0  0  0  0  0  0  0  0  # atno 10167 bound_to 10162
  155.9984  130.4818  150.4944 H   0  0  0  0  0  0  0  0  0  0  0  0  # atno 10718 bound_to 10713
  154.4445  135.5932  153.6151 H   0  0  0  0  0  0  0  0  0  0  0  0  # atno 10763 bound_to 10752
  152.9808  135.6006  154.3681 H   0  0  0  0  0  0  0  0  0  0  0  0  # atno 10764 bound_to 10752
  154.3535  135.2841  155.2338 H   0  0  0  0  0  0  0  0  0  0  0  0  # atno 10765 bound_to 10752
  140.3806  134.1925  155.7664 H   0  0  0  0  0  0  0  0  0  0  0  0  # atno 11005 bound_to 11000
  145.8586  139.2211  143.1730 LP  0  0  0  0  0  0  0  0  0  0  0  0  # atno 17320 bound_to 7965
  146.0194  140.8362  142.9931 LP  0  0  0  0  0  0  0  0  0  0  0  0  # atno 17321 bound_to 7965
  140.7746  143.5215  150.9531 LP  0  0  0  0  0  0  0  0  0  0  0  0  # atno 17342 bound_to 10162
  139.8901  143.6964  152.3146 LP  0  0  0  0  0  0  0  0  0  0  0  0  # atno 17343 bound_to 10162
  157.2935  131.0631  151.2117 LP  0  0  0  0  0  0  0  0  0  0  0  0  # atno 17370 bound_to 10713
  157.3122  130.6895  149.6222 LP  0  0  0  0  0  0  0  0  0  0  0  0  # atno 17371 bound_to 10713
  141.1925  133.8172  157.0838 LP  0  0  0  0  0  0  0  0  0  0  0  0  # atno 17394 bound_to 11000
  140.0482  134.9819  157.1087 LP  0  0  0  0  0  0  0  0  0  0  0  0  # atno 17395 bound_to 11000

$$$$
