#       Name:                AV-unprocessed.smi:2303
#       Creating user name   scv26
#       Creation time:       Fri Mar 27 12:46:11 2020


#       File generated by GOLD software.
#

@<TRIPOS>MOLECULE
AV-unprocessed.smi:2303
    37    38     1
SMALL
NO_CHARGES


@<TRIPOS>ATOM
      1 ****        -3.0879  -1.9036   0.4823 C.3            1 S1                 0.0000
      2 ****        -2.5681  -1.2159  -0.7900 C.3            1 S1                 0.0000
      3 ****        -3.2626  -1.7628  -2.0499 C.3            1 S1                 0.0000
      4 ****        -1.0425  -1.3044  -0.8820 C.2            1 S1                 0.0000
      5 ****        -0.2864  -0.1552  -0.6982 C.2            1 S1                 0.0000
      6 ****         1.1630  -0.3009  -0.8082 C.2            1 S1                 0.0000
      7 ****         2.0511   0.8533  -0.6648 C.2            1 S1                 0.0000
      8 ****         3.0286   1.0486  -1.3887 O.2            1 S1                 0.0000
      9 ****         1.7401   1.7220   0.3237 N.am           1 S1                 0.0000
     10 ****         2.4816   2.9101   0.7248 C.3            1 S1                 0.0000
     11 ****         1.9588   3.2141   2.1172 C.3            1 S1                 0.0000
     12 ****         1.4932   1.8482   2.5954 C.3            1 S1                 0.0000
     13 ****         0.9739   1.2620   1.4148 O.3            1 S1                 0.0000
     14 ****         1.7020  -1.5003  -1.1274 C.2            1 S1                 0.0000
     15 ****         0.8462  -2.6722  -1.3098 C.2            1 S1                 0.0000
     16 ****         1.3669  -3.7517  -1.5830 O.2            1 S1                 0.0000
     17 ****        -0.5004  -2.5207  -1.1654 N.pl3          1 S1                -1.0000
     18 ****        -2.6238  -1.4787   1.3728 H              1 S1                 0.0000
     19 ****        -2.8743  -2.9730   0.4740 H              1 S1                 0.0000
     20 ****        -4.1666  -1.7814   0.5821 H              1 S1                 0.0000
     21 ****        -2.8488  -0.1643  -0.7157 H              1 S1                 0.0000
     22 ****        -2.8959  -1.2626  -2.9467 H              1 S1                 0.0000
     23 ****        -4.3399  -1.6041  -2.0012 H              1 S1                 0.0000
     24 ****        -3.0935  -2.8332  -2.1719 H              1 S1                 0.0000
     25 ****        -0.7482   0.7995  -0.4927 H              1 S1                 0.0000
     26 ****         3.5499   2.6891   0.7534 H              1 S1                 0.0000
     27 ****         2.3177   3.7378   0.0343 H              1 S1                 0.0000
     28 ****         2.7077   3.6639   2.7695 H              1 S1                 0.0000
     29 ****         1.1074   3.8929   2.0542 H              1 S1                 0.0000
     30 ****         2.3353   1.2542   2.9537 H              1 S1                 0.0000
     31 ****         0.7438   1.9031   3.3852 H              1 S1                 0.0000
     32 ****         2.7713  -1.6133  -1.2411 H              1 S1                 0.0000
     33 ****         3.2479   0.4008  -2.1183 LP             1 S1                 0.0000
     34 ****         3.6028   1.8549  -1.2467 LP             1 S1                 0.0000
     35 ****         2.3603  -3.8181  -1.6771 LP             1 S1                 0.0000
     36 ****         0.7972  -4.5635  -1.7112 LP             1 S1                 0.0000
     37 ****        -1.0993  -3.3148  -1.2692 LP             1 S1                 0.0000
@<TRIPOS>BOND
    1    1    2 1     
    2    1   18 1     
    3    1   19 1     
    4    1   20 1     
    5    2    3 1     
    6    2   21 1     
    7    2    4 1     
    8    3   22 1     
    9    3   23 1     
   10    3   24 1     
   11    4   17 1     
   12    4    5 2     
   13    5   25 1     
   14    5    6 1     
   15    6    7 1     
   16    6   14 2     
   17    7    8 2     
   18    7    9 am    
   19    9   13 1     
   20    9   10 1     
   21   10   11 1     
   22   10   26 1     
   23   10   27 1     
   24   11   12 1     
   25   11   28 1     
   26   11   29 1     
   27   12   13 1     
   28   12   30 1     
   29   12   31 1     
   30   14   15 1     
   31   14   32 1     
   32   15   16 2     
   33   15   17 1     
   34    8   33 1     
   35    8   34 1     
   36   16   35 1     
   37   16   36 1     
   38   17   37 1     
@<TRIPOS>SUBSTRUCTURE
      1 S1             1
@<TRIPOS>SET
LONE_PAIRS      STATIC     ATOMS    <user>   **** ""
5 33 34 35 36 37
ATOM$BLUE        STATIC     ATOMS    COLORGROUP SYSTEM
5 33 34 35 36 37
