AV-unprocessed.smi:2980|AV-procd|sdf|11372|dock1
  -GOLD-   2272016293D 1   1.00000     0.00000
 Structure written by MMmdl.
 38 39  0  0  0  0  0  0  0  0  1 V2000
  156.3379  140.5044  160.0158 C   0  0  0  0  0  0  0  0  0  0  0  0
  155.8241  139.1643  159.4853 C   0  0  0  0  0  0  0  0  0  0  0  0
  154.6280  139.3864  158.7577 O   0  0  0  0  0  0  0  0  0  0  0  0
  153.5377  139.7360  159.5926 C   0  0  0  0  0  0  0  0  0  0  0  0
  152.2705  139.8317  158.7363 C   0  0  0  0  0  0  0  0  0  0  0  0
  151.8809  141.2132  158.4960 N   0  0  0  0  0  0  0  0  0  0  0  0
  151.3266  141.7682  157.3852 C   0  0  0  0  0  0  0  0  0  0  0  0
  151.0001  140.9858  156.1426 C   0  0  0  0  0  0  0  0  0  0  0  0
  149.9448  141.6588  155.2457 C   0  0  0  0  0  0  0  0  0  0  0  0
  149.1550  140.6758  154.3690 C   0  0  0  0  0  0  0  0  0  0  0  0
  150.0476  139.8647  153.6372 O   0  0  0  0  0  0  0  0  0  0  0  0
  151.1208  143.0852  157.4432 N   0  0  0  0  0  0  0  0  0  0  0  0
  151.5378  143.4077  158.7187 C   0  0  0  0  0  0  0  0  0  0  0  0
  151.5542  144.6494  159.3933 C   0  0  0  0  0  0  0  0  0  0  0  0
  152.0314  144.7359  160.7176 C   0  0  0  0  0  0  0  0  0  0  0  0
  152.4996  143.5848  161.3836 C   0  0  0  0  0  0  0  0  0  0  0  0
  152.4946  142.3386  160.7279 C   0  0  0  0  0  0  0  0  0  0  0  0
  152.0158  142.2574  159.4062 C   0  0  0  0  0  0  0  0  0  0  0  0
  157.2606  140.3718  160.5808 H   0  0  0  0  0  0  0  0  0  0  0  0
  155.6055  140.9704  160.6756 H   0  0  0  0  0  0  0  0  0  0  0  0
  156.5419  141.1968  159.1988 H   0  0  0  0  0  0  0  0  0  0  0  0
  156.5759  138.7056  158.8413 H   0  0  0  0  0  0  0  0  0  0  0  0
  155.6387  138.4823  160.3165 H   0  0  0  0  0  0  0  0  0  0  0  0
  153.4118  138.9857  160.3722 H   0  0  0  0  0  0  0  0  0  0  0  0
  153.7335  140.6919  160.0810 H   0  0  0  0  0  0  0  0  0  0  0  0
  152.4439  139.3511  157.7730 H   0  0  0  0  0  0  0  0  0  0  0  0
  151.4438  139.2873  159.1913 H   0  0  0  0  0  0  0  0  0  0  0  0
  151.9233  140.8539  155.5776 H   0  0  0  0  0  0  0  0  0  0  0  0
  150.6560  139.9842  156.3919 H   0  0  0  0  0  0  0  0  0  0  0  0
  149.2540  142.2314  155.8664 H   0  0  0  0  0  0  0  0  0  0  0  0
  150.4440  142.3850  154.6029 H   0  0  0  0  0  0  0  0  0  0  0  0
  148.5258  140.0334  154.9845 H   0  0  0  0  0  0  0  0  0  0  0  0
  148.5067  141.2049  153.6701 H   0  0  0  0  0  0  0  0  0  0  0  0
  149.7550  139.8295  152.7393 H   0  0  0  0  0  0  0  0  0  0  0  0
  151.1973  145.5363  158.8909 H   0  0  0  0  0  0  0  0  0  0  0  0
  152.0380  145.6895  161.2247 H   0  0  0  0  0  0  0  0  0  0  0  0
  152.8632  143.6594  162.3980 H   0  0  0  0  0  0  0  0  0  0  0  0
  152.8532  141.4561  161.2364 H   0  0  0  0  0  0  0  0  0  0  0  0
  1  2  1  0  0  0  0
  1 19  1  0  0  0  0
  1 20  1  0  0  0  0
  1 21  1  0  0  0  0
  2  3  1  0  0  0  0
  2 22  1  0  0  0  0
  2 23  1  0  0  0  0
  3  4  1  0  0  0  0
  4  5  1  0  0  0  0
  4 24  1  0  0  0  0
  4 25  1  0  0  0  0
  5  6  1  0  0  0  0
  5 26  1  0  0  0  0
  5 27  1  0  0  0  0
  6 18  1  0  0  0  0
  6  7  1  0  0  0  0
  7  8  1  0  0  0  0
  7 12  2  0  0  0  0
  8  9  1  0  0  0  0
  8 28  1  0  0  0  0
  8 29  1  0  0  0  0
  9 10  1  0  0  0  0
  9 30  1  0  0  0  0
  9 31  1  0  0  0  0
 10 11  1  0  0  0  0
 10 32  1  0  0  0  0
 10 33  1  0  0  0  0
 11 34  1  0  0  0  0
 12 13  1  0  0  0  0
 13 18  2  0  0  0  0
 13 14  1  0  0  0  0
 14 15  2  0  0  0  0
 14 35  1  0  0  0  0
 15 16  1  0  0  0  0
 15 36  1  0  0  0  0
 16 17  2  0  0  0  0
 16 37  1  0  0  0  0
 17 18  1  0  0  0  0
 17 38  1  0  0  0  0
M  END
> <s_m_source_file>
AV-unprocessed.smi

> <i_m_source_file_index>
2980

> <i_lp_mmshare_version>
43012

> <i_f3d_flags>
0

> <s_epik_input>
W0NIM11bQ0gyXU9bQ0gyXVtDSDJdbihjKG4xKVtDSDJdW0NIMl1bQ0gyXVtPSF0pYyhjMTIpW2NIXVtjSF1bY0hdW2NIXTI=

> <s_epik_cmdline>
J2VwaWtfcHl0aG9uJywgJy1waCcsICc3LjAnLCAnLXRuJywgJzgnLCAnLW1hJywgJzIwMCcsICctbWV0YWxfYmluZGluZycsICctaW1hZScsICc8aW5maWxlLm1hZT4nLCAnLW9tYWUnLCAnPG91dGZpbGUubWFlPic=

> <r_epik_Ionization_Penalty>
0.173195

> <r_epik_Ionization_Penalty_Charging>
0

> <r_epik_Ionization_Penalty_Neutral>
0.173195

> <r_epik_State_Penalty>
0.162604

> <r_epik_Charging_Adjusted_Penalty>
0.162604

> <i_epik_Tot_Q>
0

> <i_epik_Tot_abs_Q>
0

> <r_epik_Metal_State_Penalty>
0.000187077

> <b_epik_Metal_Only>
0

> <s_lp_Force_Field>
OPLS_2005

> <r_lp_Energy>
8.24734

> <b_lp_Chiralities_Consistent>
1

> <s_lp_Variant>
AV-unprocessed.smi:2980-1

> <Gold.Version>
5.8.1

> <Gold.Id.Protein>
6NUR|6NUR_protein|mol2

> <Gold.PLP.Fitness>
48.9592

> <Gold.PLP.PLP>
-42.6334

> <Gold.PLP.part.hbond>
-3.0000

> <Gold.PLP.part.metal>
0.0000

> <Gold.PLP.part.buried>
-5.7556

> <Gold.PLP.part.nonpolar>
-34.6020

> <Gold.PLP.part.repulsive>
0.1270

> <Gold.PLP.ligand.clash>
0.0000

> <Gold.PLP.ligand.torsion>
1.1722

> <Gold.PLP.Chemscore.Hbond>
2.8320

> <Gold.PLP.Chemscore.CHOScore>
0.0000

> <Gold.PLP.Chemscore.Metal>
0.0000

> <Gold.Chemscore.Hbonds>
donor molecule, donor type, donor heavy atom, donor atom, acceptor molecule, acceptor atom, score
      L1  H    11    34       P1  7957  1.00
      P1  H  7989  7998       L1    11  0.78
      P1  H  7997  8008       L1     3  1.00

> <Gold.PLP.Chemscore.Internal.Correction>
0.1742

> <Gold.Rescore>
     Score         DG    S(hbond)    S(metal)    S(lipo)     H(rot)  DE(clash)    DE(int)     intcor
     16.30     -18.90       1.92        0.00     114.19       2.48       0.36       2.24       ----

> <Gold.Chemscore.Fitness>
16.3033

> <Gold.Chemscore.DG>
-18.9038

> <Gold.Chemscore.ZeroCoef>
-5.4800

> <Gold.Chemscore.Hbond>
1.9213

> <Gold.Chemscore.Metal>
0.0000

> <Gold.Chemscore.Lipo>
114.1851

> <Gold.Chemscore.Internal_Hbond>
0.0000

> <Gold.Chemscore.DEClash>
0.3584

> <Gold.Chemscore.DEInternal>
2.2421

> <Gold.Chemscore.Rot>
2.4817

> <Gold.Chemscore.Internal.Correction>
   9.000000E+99

> <Gold.Chemscore.Hbonds>
donor molecule, donor type, donor heavy atom, donor atom, acceptor molecule, acceptor atom, score
      L1  H    11    34       P1  7957  0.98
      P1  H  7989  7998       L1    11  0.13
      P1  H  7997  8008       L1     3  0.39

> <Gold.Chemscore.Hbond.Weighted>
-6.4173

> <Gold.Chemscore.Metal.Weighted>
-0.0000

> <Gold.Chemscore.Lipo.Weighted>
-13.3597

> <Gold.Chemscore.Internal_Hbond.Weighted>
0.0000

> <Gold.Chemscore.DEClash.Weighted>
0.3584

> <Gold.Chemscore.DEInternal.Weighted>
2.2421

> <Gold.Chemscore.Rot.Weighted>
6.3531

> <Gold.Chemscore.Internal.Correction.Weighted>
   9.000000E+99

> <Gold.Protein.RotatedTorsions>
[ 6907 6896 6895 6894 ] final -179.58 input  -60.11 | X-H torsion
[ 7974 7965 7964 7962 ] final  -24.87 input  175.53 | X-H torsion
[ 8008 7997 7996 7995 ] final -124.80 input   59.86 | X-H torsion
[ 10167 10162 10161 10158 ] final -121.19 input  -65.29 | X-H torsion
[ 10718 10713 10712 10709 ] final  120.99 input   66.30 | X-H torsion
[ 10763 10752 10751 10750 ] final  -39.58 input  -60.55 | X-H torsion
[ 11005 11000 10999 10996 ] final -115.66 input  -57.11 | X-H torsion

> <Gold.Protein.ActiveResidues>
 VAL166  LYS551  ARG553  GLY616  TRP617  ASP618  TYR619  PRO620  LYS621  CYS622 
 ASP623  PHE694  ASN695  SER759  ASP760  ASP761  ALA762  ILE779  LEU786  VAL792 
 PHE793  MET794  SER795  GLU796  ALA797  LYS798  CYS799  TRP800  GLU811  SER814 

> <Gold.Protein.RotatedAtoms>
  151.6558  133.3319  159.3162 H   0  0  0  0  0  0  0  0  0  0  0  0  # atno 6907 bound_to 6896
  150.7938  134.6986  159.6546 H   0  0  0  0  0  0  0  0  0  0  0  0  # atno 6908 bound_to 6896
  152.4022  134.6272  160.0117 H   0  0  0  0  0  0  0  0  0  0  0  0  # atno 6909 bound_to 6896
  146.1527  140.4810  142.8604 H   0  0  0  0  0  0  0  0  0  0  0  0  # atno 7974 bound_to 7965
  155.2028  140.0416  157.2920 H   0  0  0  0  0  0  0  0  0  0  0  0  # atno 8008 bound_to 7997
  154.6063  140.2465  155.7698 H   0  0  0  0  0  0  0  0  0  0  0  0  # atno 8009 bound_to 7997
  156.2352  140.2924  156.0303 H   0  0  0  0  0  0  0  0  0  0  0  0  # atno 8010 bound_to 7997
  140.0277  143.5280  152.2191 H   0  0  0  0  0  0  0  0  0  0  0  0  # atno 10167 bound_to 10162
  157.5850  131.1071  150.8112 H   0  0  0  0  0  0  0  0  0  0  0  0  # atno 10718 bound_to 10713
  153.9318  135.6771  153.4745 H   0  0  0  0  0  0  0  0  0  0  0  0  # atno 10763 bound_to 10752
  153.0976  135.4844  154.8804 H   0  0  0  0  0  0  0  0  0  0  0  0  # atno 10764 bound_to 10752
  154.7424  135.3164  154.8662 H   0  0  0  0  0  0  0  0  0  0  0  0  # atno 10765 bound_to 10752
  141.0473  133.9742  157.2895 H   0  0  0  0  0  0  0  0  0  0  0  0  # atno 11005 bound_to 11000
  144.7924  140.6058  143.6532 LP  0  0  0  0  0  0  0  0  0  0  0  0  # atno 17320 bound_to 7965
  145.4784  139.1497  143.3775 LP  0  0  0  0  0  0  0  0  0  0  0  0  # atno 17321 bound_to 7965
  139.6097  144.7605  151.2980 LP  0  0  0  0  0  0  0  0  0  0  0  0  # atno 17342 bound_to 10162
  140.7315  143.6848  150.7970 LP  0  0  0  0  0  0  0  0  0  0  0  0  # atno 17343 bound_to 10162
  156.8548  130.5093  149.5308 LP  0  0  0  0  0  0  0  0  0  0  0  0  # atno 17370 bound_to 10713
  156.0899  130.5887  150.9714 LP  0  0  0  0  0  0  0  0  0  0  0  0  # atno 17371 bound_to 10713
  139.9322  135.0199  156.8438 LP  0  0  0  0  0  0  0  0  0  0  0  0  # atno 17394 bound_to 11000
  140.6122  134.0072  155.7581 LP  0  0  0  0  0  0  0  0  0  0  0  0  # atno 17395 bound_to 11000

$$$$
