AV-unprocessed.smi:3056|AV-procd|sdf|11651|dock8
  -GOLD-   2272017 53D 1   1.00000     0.00000
 Structure written by MMmdl.
 48 49  0  0  0  0  0  0  0  0  2 V2000
  151.5685  142.2898  158.4413 C   0  0  0  0  0  0  0  0  0  0  0  0
  151.1024  141.4632  157.2775 C   0  0  0  0  0  0  0  0  0  0  0  0
  150.7025  141.9153  155.9886 C   0  0  0  0  0  0  0  0  0  0  0  0
  150.3483  140.9258  155.1855 N   0  0  0  0  0  0  0  0  0  0  0  0
  150.4960  139.8084  155.9295 N   0  0  0  0  0  0  0  0  0  0  0  0
  150.2039  138.5058  155.3383 C   0  0  2  0  0  0  0  0  0  0  0  0
  151.1448  138.2058  154.1577 C   0  0  0  0  0  0  0  0  0  0  0  0
  148.6989  138.3186  155.0045 C   0  0  1  0  0  0  0  0  0  0  0  0
  148.2052  139.3108  153.9389 C   0  0  0  0  0  0  0  0  0  0  0  0
  148.4010  136.9391  154.5566 N   0  3  0  0  0  0  0  0  0  0  0  0
  146.9638  136.6095  154.4402 C   0  0  0  0  0  0  0  0  0  0  0  0
  146.7273  135.1275  154.1152 C   0  0  0  0  0  0  0  0  0  0  0  0
  147.3780  134.2756  154.7230 O   0  0  0  0  0  0  0  0  0  0  0  0
  145.8090  134.8016  153.1744 N   0  0  0  0  0  0  0  0  0  0  0  0
  145.0255  135.7434  152.3688 C   0  0  0  0  0  0  0  0  0  0  0  0
  145.4359  135.5737  150.8956 C   0  0  0  0  0  0  0  0  0  0  0  0
  145.2289  134.2218  150.4929 O   0  0  0  0  0  0  0  0  0  0  0  0
  145.9558  133.2760  151.2761 C   0  0  2  0  0  0  0  0  0  0  0  0
  145.6638  131.8749  150.7288 C   0  0  0  0  0  0  0  0  0  0  0  0
  145.5426  133.4232  152.7545 C   0  0  0  0  0  0  0  0  0  0  0  0
  150.9577  140.1075  157.1970 C   0  0  0  0  0  0  0  0  0  0  0  0
  151.8668  143.2920  158.1332 H   0  0  0  0  0  0  0  0  0  0  0  0
  152.4276  141.8385  158.9380 H   0  0  0  0  0  0  0  0  0  0  0  0
  150.7857  142.4040  159.1913 H   0  0  0  0  0  0  0  0  0  0  0  0
  150.6624  142.9276  155.6142 H   0  0  0  0  0  0  0  0  0  0  0  0
  150.4439  137.7568  156.0956 H   0  0  0  0  0  0  0  0  0  0  0  0
  150.9610  137.2102  153.7533 H   0  0  0  0  0  0  0  0  0  0  0  0
  152.1876  138.2419  154.4743 H   0  0  0  0  0  0  0  0  0  0  0  0
  151.0250  138.9229  153.3456 H   0  0  0  0  0  0  0  0  0  0  0  0
  148.1242  138.5237  155.9094 H   0  0  0  0  0  0  0  0  0  0  0  0
  148.4090  140.3397  154.2369 H   0  0  0  0  0  0  0  0  0  0  0  0
  147.1287  139.2213  153.7904 H   0  0  0  0  0  0  0  0  0  0  0  0
  148.6845  139.1431  152.9740 H   0  0  0  0  0  0  0  0  0  0  0  0
  148.8164  136.8054  153.6456 H   0  0  0  0  0  0  0  0  0  0  0  0
  146.4567  136.8509  155.3743 H   0  0  0  0  0  0  0  0  0  0  0  0
  146.5304  137.2280  153.6530 H   0  0  0  0  0  0  0  0  0  0  0  0
  143.9643  135.5204  152.4883 H   0  0  0  0  0  0  0  0  0  0  0  0
  145.1433  136.7846  152.6638 H   0  0  0  0  0  0  0  0  0  0  0  0
  144.8379  136.2259  150.2592 H   0  0  0  0  0  0  0  0  0  0  0  0
  146.4806  135.8517  150.7474 H   0  0  0  0  0  0  0  0  0  0  0  0
  147.0240  133.4751  151.1718 H   0  0  0  0  0  0  0  0  0  0  0  0
  146.2109  131.1140  151.2859 H   0  0  0  0  0  0  0  0  0  0  0  0
  145.9586  131.7958  149.6821 H   0  0  0  0  0  0  0  0  0  0  0  0
  144.6013  131.6391  150.7943 H   0  0  0  0  0  0  0  0  0  0  0  0
  146.0691  132.6862  153.3624 H   0  0  0  0  0  0  0  0  0  0  0  0
  144.4795  133.2090  152.8753 H   0  0  0  0  0  0  0  0  0  0  0  0
  151.1444  139.3403  157.9341 H   0  0  0  0  0  0  0  0  0  0  0  0
  148.8364  136.2916  155.1979 H   0  0  0  0  0  0  0  0  0  0  0  0
  1  2  1  0  0  0  0
  1 22  1  0  0  0  0
  1 23  1  0  0  0  0
  1 24  1  0  0  0  0
  2 21  2  0  0  0  0
  2  3  1  0  0  0  0
  3  4  2  0  0  0  0
  3 25  1  0  0  0  0
  4  5  1  0  0  0  0
  5  6  1  0  0  0  0
  5 21  1  0  0  0  0
  6  7  1  0  0  0  0
  6  8  1  0  0  0  0
  6 26  1  0  0  0  0
  7 27  1  0  0  0  0
  7 28  1  0  0  0  0
  7 29  1  0  0  0  0
  8  9  1  0  0  0  0
  8 10  1  0  0  0  0
  8 30  1  0  0  0  0
  9 31  1  0  0  0  0
  9 32  1  0  0  0  0
  9 33  1  0  0  0  0
 10 11  1  0  0  0  0
 10 34  1  0  0  0  0
 10 48  1  0  0  0  0
 11 12  1  0  0  0  0
 11 35  1  0  0  0  0
 11 36  1  0  0  0  0
 12 13  2  0  0  0  0
 12 14  1  0  0  0  0
 14 20  1  0  0  0  0
 14 15  1  0  0  0  0
 15 16  1  0  0  0  0
 15 37  1  0  0  0  0
 15 38  1  0  0  0  0
 16 17  1  0  0  0  0
 16 39  1  0  0  0  0
 16 40  1  0  0  0  0
 17 18  1  0  0  0  0
 18 19  1  0  0  0  0
 18 20  1  0  0  0  0
 18 41  1  0  0  0  0
 19 42  1  0  0  0  0
 19 43  1  0  0  0  0
 19 44  1  0  0  0  0
 20 45  1  0  0  0  0
 20 46  1  0  0  0  0
 21 47  1  0  0  0  0
M  CHG  1  10   1
M  END
> <s_m_source_file>
AV-unprocessed.smi

> <i_m_source_file_index>
3056

> <i_lp_mmshare_version>
43012

> <i_f3d_flags>
0

> <s_epik_input>
W0NIM11jMVtjSF1ubihbY0hdMSlbQ0BIXShbQ0gzXSlbQ0BIXShbQ0gzXSlbTkhdW0NIMl1DKD1PKU4yW0NIMl1bQ0gyXU9bQ0BASF0oW0NIM10pW0NIMl0y

> <s_epik_cmdline>
J2VwaWtfcHl0aG9uJywgJy1waCcsICc3LjAnLCAnLXRuJywgJzgnLCAnLW1hJywgJzIwMCcsICctbWV0YWxfYmluZGluZycsICctaW1hZScsICc8aW5maWxlLm1hZT4nLCAnLW9tYWUnLCAnPG91dGZpbGUubWFlPic=

> <r_lp_tautomer_probability>
1

> <r_epik_Ionization_Penalty>
0.233715

> <r_epik_Ionization_Penalty_Charging>
0.233698

> <r_epik_Ionization_Penalty_Neutral>
1.68157e-05

> <r_epik_State_Penalty>
0.225221

> <r_epik_Charging_Adjusted_Penalty>
0.458919

> <i_epik_Tot_Q>
1

> <i_epik_Tot_abs_Q>
1

> <r_epik_Metal_State_Penalty>
0.225535

> <b_epik_Metal_Only>
0

> <s_lp_Force_Field>
OPLS_2005

> <r_lp_Energy>
29.3518

> <b_lp_Chiralities_Consistent>
1

> <s_lp_Variant>
AV-unprocessed.smi:3056-7

> <Gold.Version>
5.8.1

> <Gold.Id.Protein>
6NUR|6NUR_protein|mol2

> <Gold.PLP.Fitness>
40.7738

> <Gold.PLP.PLP>
-30.0344

> <Gold.PLP.part.hbond>
-2.0000

> <Gold.PLP.part.metal>
0.0000

> <Gold.PLP.part.buried>
-4.1684

> <Gold.PLP.part.nonpolar>
-23.4699

> <Gold.PLP.part.repulsive>
1.1423

> <Gold.PLP.ligand.clash>
0.0000

> <Gold.PLP.ligand.torsion>
0.3179

> <Gold.PLP.Chemscore.Hbond>
2.7360

> <Gold.PLP.Chemscore.CHOScore>
1.0000

> <Gold.PLP.Chemscore.Metal>
0.0000

> <Gold.Chemscore.Hbonds>
donor molecule, donor type, donor heavy atom, donor atom, acceptor molecule, acceptor atom, score
      L1  H    10    34       P1  7948  2.00
      P1  H  7989  7998       L1     4  0.61
      L1  C     3    25       P1  8028  1.00

> <Gold.PLP.Chemscore.Internal.Correction>
0.1672

> <Gold.Rescore>
     Score         DG    S(hbond)    S(metal)    S(lipo)     H(rot)  DE(clash)    DE(int)     intcor
     15.38     -15.99       1.72        0.00      78.70       1.74       0.05       0.56       ----

> <Gold.Chemscore.Fitness>
15.3849

> <Gold.Chemscore.DG>
-15.9908

> <Gold.Chemscore.ZeroCoef>
-5.4800

> <Gold.Chemscore.Hbond>
1.7203

> <Gold.Chemscore.Metal>
0.0000

> <Gold.Chemscore.Lipo>
78.6970

> <Gold.Chemscore.Internal_Hbond>
0.0000

> <Gold.Chemscore.DEClash>
0.0451

> <Gold.Chemscore.DEInternal>
0.5608

> <Gold.Chemscore.Rot>
1.7354

> <Gold.Chemscore.Internal.Correction>
   9.000000E+99

> <Gold.Chemscore.Hbonds>
donor molecule, donor type, donor heavy atom, donor atom, acceptor molecule, acceptor atom, score
      L1  H    10    34       P1  7948  0.99
      P1  H  7989  7998       L1     4  0.33

> <Gold.Chemscore.Hbond.Weighted>
-5.7458

> <Gold.Chemscore.Metal.Weighted>
-0.0000

> <Gold.Chemscore.Lipo.Weighted>
-9.2076

> <Gold.Chemscore.Internal_Hbond.Weighted>
0.0000

> <Gold.Chemscore.DEClash.Weighted>
0.0451

> <Gold.Chemscore.DEInternal.Weighted>
0.5608

> <Gold.Chemscore.Rot.Weighted>
4.4426

> <Gold.Chemscore.Internal.Correction.Weighted>
   9.000000E+99

> <Gold.Protein.RotatedTorsions>
[ 6907 6896 6895 6894 ] final  -16.79 input  -60.11 | X-H torsion
[ 7974 7965 7964 7962 ] final  135.08 input  175.53 | X-H torsion
[ 8008 7997 7996 7995 ] final    9.81 input   59.86 | X-H torsion
[ 10167 10162 10161 10158 ] final    1.56 input  -65.29 | X-H torsion
[ 10718 10713 10712 10709 ] final  130.82 input   66.30 | X-H torsion
[ 10763 10752 10751 10750 ] final   88.56 input  -60.55 | X-H torsion
[ 11005 11000 10999 10996 ] final    0.15 input  -57.11 | X-H torsion

> <Gold.Protein.ActiveResidues>
 VAL166  LYS551  ARG553  GLY616  TRP617  ASP618  TYR619  PRO620  LYS621  CYS622 
 ASP623  PHE694  ASN695  SER759  ASP760  ASP761  ALA762  ILE779  LEU786  VAL792 
 PHE793  MET794  SER795  GLU796  ALA797  LYS798  CYS799  TRP800  GLU811  SER814 

> <Gold.Protein.RotatedAtoms>
  151.3031  135.0774  159.9245 H   0  0  0  0  0  0  0  0  0  0  0  0  # atno 6907 bound_to 6896
  152.5293  133.9812  159.7818 H   0  0  0  0  0  0  0  0  0  0  0  0  # atno 6908 bound_to 6896
  151.0103  133.5920  159.2714 H   0  0  0  0  0  0  0  0  0  0  0  0  # atno 6909 bound_to 6896
  144.9699  139.4617  143.5438 H   0  0  0  0  0  0  0  0  0  0  0  0  # atno 7974 bound_to 7965
  154.7850  140.2825  155.6035 H   0  0  0  0  0  0  0  0  0  0  0  0  # atno 8008 bound_to 7997
  156.2956  140.2616  156.2613 H   0  0  0  0  0  0  0  0  0  0  0  0  # atno 8009 bound_to 7997
  154.9738  140.0375  157.2236 H   0  0  0  0  0  0  0  0  0  0  0  0  # atno 8010 bound_to 7997
  140.6677  143.7134  150.7860 H   0  0  0  0  0  0  0  0  0  0  0  0  # atno 10167 bound_to 10162
  157.5026  131.1094  150.9405 H   0  0  0  0  0  0  0  0  0  0  0  0  # atno 10718 bound_to 10713
  153.1781  135.4502  154.9991 H   0  0  0  0  0  0  0  0  0  0  0  0  # atno 10763 bound_to 10752
  154.8011  135.3256  154.7549 H   0  0  0  0  0  0  0  0  0  0  0  0  # atno 10764 bound_to 10752
  153.8016  135.6962  153.4909 H   0  0  0  0  0  0  0  0  0  0  0  0  # atno 10765 bound_to 10752
  140.6297  133.9586  155.8268 H   0  0  0  0  0  0  0  0  0  0  0  0  # atno 11005 bound_to 11000
  146.3379  139.8904  142.8810 LP  0  0  0  0  0  0  0  0  0  0  0  0  # atno 17320 bound_to 7965
  145.2575  141.0065  143.3845 LP  0  0  0  0  0  0  0  0  0  0  0  0  # atno 17321 bound_to 7965
  140.0815  143.4965  152.2528 LP  0  0  0  0  0  0  0  0  0  0  0  0  # atno 17342 bound_to 10162
  139.5932  144.7558  151.3349 LP  0  0  0  0  0  0  0  0  0  0  0  0  # atno 17343 bound_to 10162
  157.0071  130.5622  149.5317 LP  0  0  0  0  0  0  0  0  0  0  0  0  # atno 17370 bound_to 10713
  156.0239  130.5333  150.8351 LP  0  0  0  0  0  0  0  0  0  0  0  0  # atno 17371 bound_to 10713
  141.0684  134.0243  157.3561 LP  0  0  0  0  0  0  0  0  0  0  0  0  # atno 17394 bound_to 11000
  139.9121  135.0191  156.7732 LP  0  0  0  0  0  0  0  0  0  0  0  0  # atno 17395 bound_to 11000

$$$$
