AV-unprocessed.smi:688|AV-procd|sdf|3354|dock3
  -GOLD-   22720 0323D 1   1.00000     0.00000
 Structure written by MMmdl.
 36 37  0  0  0  0  0  0  0  0  1 V2000
  144.2955  144.5738  155.8281 O   0  0  0  0  0  0  0  0  0  0  0  0
  145.1241  143.7468  155.4523 C   0  0  0  0  0  0  0  0  0  0  0  0
  145.6524  142.8274  156.3638 N   0  0  0  0  0  0  0  0  0  0  0  0
  146.5943  141.8411  156.0687 C   0  0  0  0  0  0  0  0  0  0  0  0
  146.9973  141.0907  156.9578 O   0  0  0  0  0  0  0  0  0  0  0  0
  147.0400  141.7667  154.7288 N   0  0  0  0  0  0  0  0  0  0  0  0
  148.0224  140.7634  154.3944 C   0  0  0  0  0  0  0  0  0  0  0  0
  149.4571  141.1434  154.8244 C   0  0  2  0  0  0  0  0  0  0  0  0
  150.3576  140.3146  154.1151 O   0  0  0  0  0  0  0  0  0  0  0  0
  149.6871  140.8902  156.3238 C   0  0  0  0  0  0  0  0  0  0  0  0
  150.9570  141.4017  156.6941 O   0  0  0  0  0  0  0  0  0  0  0  0
  150.8824  142.6967  157.2690 C   0  0  0  0  0  0  0  0  0  0  0  0
  151.4985  142.7460  158.6548 C   0  0  0  0  0  0  0  0  0  0  0  0
  151.4077  143.9167  159.4384 C   0  0  0  0  0  0  0  0  0  0  0  0
  151.9968  143.9612  160.7170 C   0  0  0  0  0  0  0  0  0  0  0  0
  152.6860  142.8384  161.2153 C   0  0  0  0  0  0  0  0  0  0  0  0
  153.4079  142.8927  162.7815 Cl  0  0  0  0  0  0  0  0  0  0  0  0
  152.7881  141.6720  160.4324 C   0  0  0  0  0  0  0  0  0  0  0  0
  152.1984  141.6273  159.1540 C   0  0  0  0  0  0  0  0  0  0  0  0
  146.5492  142.6638  153.7928 C   0  0  0  0  0  0  0  0  0  0  0  0
  145.6378  143.6218  154.0887 C   0  0  0  0  0  0  0  0  0  0  0  0
  145.0743  144.7041  152.8660 Cl  0  0  0  0  0  0  0  0  0  0  0  0
  145.3271  142.8846  157.3179 H   0  0  0  0  0  0  0  0  0  0  0  0
  147.6854  139.8338  154.8584 H   0  0  0  0  0  0  0  0  0  0  0  0
  147.9498  140.5957  153.3181 H   0  0  0  0  0  0  0  0  0  0  0  0
  149.6603  142.1908  154.5973 H   0  0  0  0  0  0  0  0  0  0  0  0
  150.4364  139.4933  154.5753 H   0  0  0  0  0  0  0  0  0  0  0  0
  148.9299  141.4165  156.9070 H   0  0  0  0  0  0  0  0  0  0  0  0
  149.5975  139.8289  156.5633 H   0  0  0  0  0  0  0  0  0  0  0  0
  151.3912  143.4139  156.6228 H   0  0  0  0  0  0  0  0  0  0  0  0
  149.8403  143.0101  157.3471 H   0  0  0  0  0  0  0  0  0  0  0  0
  150.8859  144.7850  159.0632 H   0  0  0  0  0  0  0  0  0  0  0  0
  151.9204  144.8583  161.3140 H   0  0  0  0  0  0  0  0  0  0  0  0
  153.3193  140.8106  160.8100 H   0  0  0  0  0  0  0  0  0  0  0  0
  152.2845  140.7303  158.5585 H   0  0  0  0  0  0  0  0  0  0  0  0
  146.9111  142.6012  152.7763 H   0  0  0  0  0  0  0  0  0  0  0  0
  1  2  2  0  0  0  0
  2 21  1  0  0  0  0
  2  3  1  0  0  0  0
  3 23  1  0  0  0  0
  3  4  1  0  0  0  0
  4  5  2  0  0  0  0
  4  6  1  0  0  0  0
  6  7  1  0  0  0  0
  6 20  1  0  0  0  0
  7  8  1  0  0  0  0
  7 24  1  0  0  0  0
  7 25  1  0  0  0  0
  8  9  1  0  0  0  0
  8 10  1  0  0  0  0
  8 26  1  0  0  0  0
  9 27  1  0  0  0  0
 10 11  1  0  0  0  0
 10 28  1  0  0  0  0
 10 29  1  0  0  0  0
 11 12  1  0  0  0  0
 12 13  1  0  0  0  0
 12 30  1  0  0  0  0
 12 31  1  0  0  0  0
 13 19  1  0  0  0  0
 13 14  2  0  0  0  0
 14 15  1  0  0  0  0
 14 32  1  0  0  0  0
 15 16  2  0  0  0  0
 15 33  1  0  0  0  0
 16 17  1  0  0  0  0
 16 18  1  0  0  0  0
 18 19  2  0  0  0  0
 18 34  1  0  0  0  0
 19 35  1  0  0  0  0
 20 21  2  0  0  0  0
 20 36  1  0  0  0  0
 21 22  1  0  0  0  0
M  END
> <s_m_source_file>
AV-unprocessed.smi

> <i_m_source_file_index>
688

> <i_lp_mmshare_version>
43012

> <i_f3d_flags>
0

> <s_epik_input>
Tz1jMVtuSF1jKD1PKW4oW2NIXWMxQ2wpW0NIMl1bQ0BIXShbT0hdKVtDSDJdT1tDSDJdYzJbY0hdW2NIXWMoQ2wpW2NIXVtjSF0y

> <s_epik_cmdline>
J2VwaWtfcHl0aG9uJywgJy1waCcsICc3LjAnLCAnLXRuJywgJzgnLCAnLW1hJywgJzIwMCcsICctbWV0YWxfYmluZGluZycsICctaW1hZScsICc8aW5maWxlLm1hZT4nLCAnLW9tYWUnLCAnPG91dGZpbGUubWFlPic=

> <r_lp_tautomer_probability>
0.999537

> <r_epik_Ionization_Penalty>
0.0280571

> <r_epik_Ionization_Penalty_Charging>
0.028057

> <r_epik_Ionization_Penalty_Neutral>
6.25502e-08

> <r_epik_State_Penalty>
0.0230008

> <r_epik_Charging_Adjusted_Penalty>
0.0510579

> <i_epik_Tot_Q>
0

> <i_epik_Tot_abs_Q>
0

> <r_epik_Metal_State_Penalty>
2.1942

> <b_epik_Metal_Only>
0

> <s_lp_Force_Field>
OPLS_2005

> <r_lp_Energy>
17.1949

> <b_lp_Chiralities_Consistent>
1

> <s_lp_Variant>
AV-unprocessed.smi:688-1

> <Gold.Version>
5.8.1

> <Gold.Id.Protein>
6NUR|6NUR_protein|mol2

> <Gold.PLP.Fitness>
50.4739

> <Gold.PLP.PLP>
-49.8545

> <Gold.PLP.part.hbond>
-1.5511

> <Gold.PLP.part.metal>
0.0000

> <Gold.PLP.part.buried>
-7.8120

> <Gold.PLP.part.nonpolar>
-40.8492

> <Gold.PLP.part.repulsive>
0.1791

> <Gold.PLP.ligand.clash>
0.0000

> <Gold.PLP.ligand.torsion>
1.1204

> <Gold.PLP.Chemscore.Hbond>
0.9048

> <Gold.PLP.Chemscore.CHOScore>
0.0000

> <Gold.PLP.Chemscore.Metal>
0.0000

> <Gold.Chemscore.Hbonds>
donor molecule, donor type, donor heavy atom, donor atom, acceptor molecule, acceptor atom, score
      P1  H  7989  7998       L1     9  0.92

> <Gold.PLP.Chemscore.Internal.Correction>
0.1459

> <Gold.Rescore>
     Score         DG    S(hbond)    S(metal)    S(lipo)     H(rot)  DE(clash)    DE(int)     intcor
     13.33     -15.88       0.96        0.00     125.93       2.94       0.01       2.55       ----

> <Gold.Chemscore.Fitness>
13.3285

> <Gold.Chemscore.DG>
-15.8847

> <Gold.Chemscore.ZeroCoef>
-5.4800

> <Gold.Chemscore.Hbond>
0.9596

> <Gold.Chemscore.Metal>
0.0000

> <Gold.Chemscore.Lipo>
125.9253

> <Gold.Chemscore.Internal_Hbond>
0.0000

> <Gold.Chemscore.DEClash>
0.0103

> <Gold.Chemscore.DEInternal>
2.5459

> <Gold.Chemscore.Rot>
2.9429

> <Gold.Chemscore.Internal.Correction>
   9.000000E+99

> <Gold.Chemscore.Hbonds>
donor molecule, donor type, donor heavy atom, donor atom, acceptor molecule, acceptor atom, score
      P1  H  7989  7998       L1     9  0.77

> <Gold.Chemscore.Hbond.Weighted>
-3.2052

> <Gold.Chemscore.Metal.Weighted>
-0.0000

> <Gold.Chemscore.Lipo.Weighted>
-14.7333

> <Gold.Chemscore.Internal_Hbond.Weighted>
0.0000

> <Gold.Chemscore.DEClash.Weighted>
0.0103

> <Gold.Chemscore.DEInternal.Weighted>
2.5459

> <Gold.Chemscore.Rot.Weighted>
7.5337

> <Gold.Chemscore.Internal.Correction.Weighted>
   9.000000E+99

> <Gold.Protein.RotatedTorsions>
[ 6907 6896 6895 6894 ] final   37.29 input  -60.11 | X-H torsion
[ 7974 7965 7964 7962 ] final   47.16 input  175.53 | X-H torsion
[ 8008 7997 7996 7995 ] final  -64.18 input   59.86 | X-H torsion
[ 10167 10162 10161 10158 ] final  103.07 input  -65.29 | X-H torsion
[ 10718 10713 10712 10709 ] final  158.47 input   66.30 | X-H torsion
[ 10763 10752 10751 10750 ] final -101.75 input  -60.55 | X-H torsion
[ 11005 11000 10999 10996 ] final  -81.61 input  -57.11 | X-H torsion

> <Gold.Protein.ActiveResidues>
 VAL166  LYS551  ARG553  GLY616  TRP617  ASP618  TYR619  PRO620  LYS621  CYS622 
 ASP623  PHE694  ASN695  SER759  ASP760  ASP761  ALA762  ILE779  LEU786  VAL792 
 PHE793  MET794  SER795  GLU796  ALA797  LYS798  CYS799  TRP800  GLU811  SER814 

> <Gold.Protein.RotatedAtoms>
  152.1412  134.9061  160.0553 H   0  0  0  0  0  0  0  0  0  0  0  0  # atno 6907 bound_to 6896
  152.0128  133.3863  159.4235 H   0  0  0  0  0  0  0  0  0  0  0  0  # atno 6908 bound_to 6896
  150.6865  134.3634  159.5004 H   0  0  0  0  0  0  0  0  0  0  0  0  # atno 6909 bound_to 6896
  146.0323  139.4779  142.9830 H   0  0  0  0  0  0  0  0  0  0  0  0  # atno 7974 bound_to 7965
  154.4596  140.0959  156.6857 H   0  0  0  0  0  0  0  0  0  0  0  0  # atno 8008 bound_to 7997
  155.5033  140.3474  155.4356 H   0  0  0  0  0  0  0  0  0  0  0  0  # atno 8009 bound_to 7997
  156.0845  140.1381  156.9659 H   0  0  0  0  0  0  0  0  0  0  0  0  # atno 8010 bound_to 7997
  139.7295  144.7039  151.0745 H   0  0  0  0  0  0  0  0  0  0  0  0  # atno 10167 bound_to 10162
  157.1775  131.0624  151.2150 H   0  0  0  0  0  0  0  0  0  0  0  0  # atno 10718 bound_to 10713
  154.7682  135.4886  153.9595 H   0  0  0  0  0  0  0  0  0  0  0  0  # atno 10763 bound_to 10752
  153.1334  135.6757  153.9150 H   0  0  0  0  0  0  0  0  0  0  0  0  # atno 10764 bound_to 10752
  153.8846  135.3128  155.3424 H   0  0  0  0  0  0  0  0  0  0  0  0  # atno 10765 bound_to 10752
  141.1666  133.7205  156.8448 H   0  0  0  0  0  0  0  0  0  0  0  0  # atno 11005 bound_to 11000
  145.7020  141.0133  143.1499 LP  0  0  0  0  0  0  0  0  0  0  0  0  # atno 17320 bound_to 7965
  144.7036  139.8655  143.7437 LP  0  0  0  0  0  0  0  0  0  0  0  0  # atno 17321 bound_to 7965
  140.7768  143.5062  150.9710 LP  0  0  0  0  0  0  0  0  0  0  0  0  # atno 17342 bound_to 10162
  139.8750  143.7144  152.3163 LP  0  0  0  0  0  0  0  0  0  0  0  0  # atno 17343 bound_to 10162
  157.3985  130.7320  149.6749 LP  0  0  0  0  0  0  0  0  0  0  0  0  # atno 17370 bound_to 10713
  155.9729  130.4127  150.4046 LP  0  0  0  0  0  0  0  0  0  0  0  0  # atno 17371 bound_to 10713
  140.1957  134.8933  157.3112 LP  0  0  0  0  0  0  0  0  0  0  0  0  # atno 17394 bound_to 11000
  140.2241  134.3987  155.7552 LP  0  0  0  0  0  0  0  0  0  0  0  0  # atno 17395 bound_to 11000

$$$$
