#       Name:                AV-unprocessed.smi:825
#       Creating user name   scv26
#       Creation time:       Fri Mar 27 01:30:00 2020


#       File generated by GOLD software.
#

@<TRIPOS>MOLECULE
AV-unprocessed.smi:825
    43    44     1
SMALL
NO_CHARGES


@<TRIPOS>ATOM
      1 ****         0.4682   1.8497  -0.9553 O.2            1 S1                 0.0000
      2 ****         0.0712   0.7461  -0.5818 C.2            1 S1                 0.0000
      3 ****        -1.2225   0.4303  -0.4296 N.am           1 S1                 0.0000
      4 ****        -2.3509   1.3250  -0.6676 C.3            1 S1                 0.0000
      5 ****        -3.2725   1.3899   0.5620 C.3            1 S1                 0.0000
      6 ****        -3.9057   0.0498   0.9564 C.3            1 S1                 0.0000
      7 ****        -5.1697   0.4060   1.7517 C.3            1 S1                 0.0000
      8 ****        -5.4499   1.8920   1.4824 C.3            1 S1                 0.0000
      9 ****        -4.4807   2.3077   0.3739 C.3            1 S1                 0.0000
     10 ****         0.8634  -0.2932  -0.2735 N.am           1 S1                 0.0000
     11 ****         2.2777  -0.3451  -0.3489 C.2            1 S1                 0.0000
     12 ****         3.1965   0.6559  -0.7741 C.2            1 S1                 0.0000
     13 ****         4.4437   0.2145  -0.7079 N.2            1 S1                 0.0000
     14 ****         4.3445  -1.0561  -0.2450 N.pl3          1 S1                 0.0000
     15 ****         5.5453  -1.8476  -0.0616 C.3            1 S1                 0.0000
     16 ****         6.0198  -2.4646  -1.3845 C.3            1 S1                 0.0000
     17 ****         7.1789  -3.2391  -1.1650 O.3            1 S1                 0.0000
     18 ****         3.0347  -1.4278  -0.0160 C.2            1 S1                 0.0000
     19 ****        -1.4469  -0.5035  -0.1184 H              1 S1                 0.0000
     20 ****        -2.0156   2.3317  -0.9210 H              1 S1                 0.0000
     21 ****        -2.9014   0.9573  -1.5340 H              1 S1                 0.0000
     22 ****        -2.6991   1.7608   1.4138 H              1 S1                 0.0000
     23 ****        -4.1892  -0.5046   0.0606 H              1 S1                 0.0000
     24 ****        -3.2222  -0.5792   1.5277 H              1 S1                 0.0000
     25 ****        -6.0077  -0.2190   1.4415 H              1 S1                 0.0000
     26 ****        -5.0175   0.2391   2.8186 H              1 S1                 0.0000
     27 ****        -6.4890   2.0755   1.2073 H              1 S1                 0.0000
     28 ****        -5.2440   2.4701   2.3842 H              1 S1                 0.0000
     29 ****        -4.2165   3.3645   0.4254 H              1 S1                 0.0000
     30 ****        -4.9398   2.1273  -0.5993 H              1 S1                 0.0000
     31 ****         0.4071  -1.1389   0.0355 H              1 S1                 0.0000
     32 ****         3.0164   1.6611  -1.1250 H              1 S1                 0.0000
     33 ****         6.3222  -1.2125   0.3672 H              1 S1                 0.0000
     34 ****         5.3358  -2.6298   0.6695 H              1 S1                 0.0000
     35 ****         5.2437  -3.1003  -1.8121 H              1 S1                 0.0000
     36 ****         6.2447  -1.6870  -2.1154 H              1 S1                 0.0000
     37 ****         7.4619  -3.5978  -1.9924 H              1 S1                 0.0000
     38 ****         2.7643  -2.4068   0.3512 H              1 S1                 0.0000
     39 ****        -0.1896   2.5730  -1.1649 LP             1 S1                 0.0000
     40 ****         1.4486   2.0229  -1.0492 LP             1 S1                 0.0000
     41 ****         5.2780   0.7110  -0.9475 LP             1 S1                 0.0000
     42 ****         6.9723  -3.9822  -0.5285 LP             1 S1                 0.0000
     43 ****         7.9015  -2.6636  -0.7822 LP             1 S1                 0.0000
@<TRIPOS>BOND
    1    1    2 2     
    2    2    3 am    
    3    2   10 am    
    4    3    4 1     
    5    3   19 1     
    6    4    5 1     
    7    4   20 1     
    8    4   21 1     
    9    5    9 1     
   10    5    6 1     
   11    5   22 1     
   12    6    7 1     
   13    6   23 1     
   14    6   24 1     
   15    7    8 1     
   16    7   25 1     
   17    7   26 1     
   18    8    9 1     
   19    8   27 1     
   20    8   28 1     
   21    9   29 1     
   22    9   30 1     
   23   10   11 1     
   24   10   31 1     
   25   11   18 2     
   26   11   12 1     
   27   12   13 2     
   28   12   32 1     
   29   13   14 1     
   30   14   15 1     
   31   14   18 1     
   32   15   16 1     
   33   15   33 1     
   34   15   34 1     
   35   16   17 1     
   36   16   35 1     
   37   16   36 1     
   38   17   37 1     
   39   18   38 1     
   40    1   39 1     
   41    1   40 1     
   42   13   41 1     
   43   17   42 1     
   44   17   43 1     
@<TRIPOS>SUBSTRUCTURE
      1 S1             1
@<TRIPOS>SET
LONE_PAIRS      STATIC     ATOMS    <user>   **** ""
5 39 40 41 42 43
DONOR_HYDROGENS      STATIC     ATOMS    <user>   **** ""
3 19 31 37
ATOM$BLUE        STATIC     ATOMS    COLORGROUP SYSTEM
5 39 40 41 42 43
ATOM$RED        STATIC     ATOMS    COLORGROUP SYSTEM
3 19 31 37
