#       Name:                AV-unprocessed.smi:1512
#       Creating user name   scv26
#       Creation time:       Fri Mar 27 06:23:59 2020


#       File generated by GOLD software.
#

@<TRIPOS>MOLECULE
AV-unprocessed.smi:1512
    50    52     1
SMALL
NO_CHARGES


@<TRIPOS>ATOM
      1 ****        -1.2845   0.7319  -2.5000 C.3            1 S1                 0.0000
      2 ****        -1.2067   0.2061  -1.0566 C.3            1 S1                 0.0000
      3 ****         0.1515  -0.2853  -0.8255 N.am           1 S1                 0.0000
      4 ****         1.0530   0.2455   0.0151 C.2            1 S1                 0.0000
      5 ****         0.8234   1.2219   0.7297 O.2            1 S1                 0.0000
      6 ****         2.4176  -0.4570   0.0612 C.3            1 S1                 0.0000
      7 ****         3.4943   0.3938   0.5971 N.am           1 S1                 0.0000
      8 ****         3.8535   0.1940   1.9431 C.2            1 S1                 0.0000
      9 ****         4.8176   0.9143   2.5338 C.2            1 S1                 0.0000
     10 ****         5.4904   1.9241   1.7537 C.2            1 S1                 0.0000
     11 ****         5.1596   2.1376   0.4593 C.2            1 S1                 0.0000
     12 ****         5.8639   3.1740  -0.2603 N.pl3          1 S1                 1.0000
     13 ****         5.2307   3.9096  -1.0111 O.2            1 S1                 0.0000
     14 ****         7.0730   3.2914  -0.0842 O.2            1 S1                -1.0000
     15 ****         4.1066   1.3309  -0.1922 C.2            1 S1                 0.0000
     16 ****         3.7908   1.4730  -1.3751 O.2            1 S1                 0.0000
     17 ****        -2.2282  -0.9229  -0.7679 C.3            1 S1                 0.0000
     18 ****        -2.1413  -1.4891   0.6725 C.3            1 S1                 0.0000
     19 ****        -3.5850  -1.3713   1.1906 C.3            1 S1                 0.0000
     20 ****        -4.4843  -2.3751   0.4471 C.3            1 S1                 0.0000
     21 ****        -4.5973  -1.7506  -0.9560 C.3            1 S1                 0.0000
     22 ****        -3.7156  -0.4919  -0.8411 C.3            1 S1                 0.0000
     23 ****        -4.0172  -0.0431   0.5852 C.3            1 S1                 0.0000
     24 ****        -2.2434   1.2035  -2.7106 H              1 S1                 0.0000
     25 ****        -1.1406  -0.0712  -3.2238 H              1 S1                 0.0000
     26 ****        -0.5151   1.4832  -2.6825 H              1 S1                 0.0000
     27 ****        -1.4188   1.0422  -0.3887 H              1 S1                 0.0000
     28 ****         0.4329  -1.0924  -1.3629 H              1 S1                 0.0000
     29 ****         2.3097  -1.3639   0.6577 H              1 S1                 0.0000
     30 ****         2.6804  -0.8054  -0.9395 H              1 S1                 0.0000
     31 ****         3.2967  -0.5734   2.4614 H              1 S1                 0.0000
     32 ****         5.0786   0.7479   3.5686 H              1 S1                 0.0000
     33 ****         6.2578   2.5201   2.2263 H              1 S1                 0.0000
     34 ****        -2.0486  -1.7271  -1.4835 H              1 S1                 0.0000
     35 ****        -1.7744  -2.5159   0.6933 H              1 S1                 0.0000
     36 ****        -1.4795  -0.8911   1.3002 H              1 S1                 0.0000
     37 ****        -3.6652  -1.4308   2.2763 H              1 S1                 0.0000
     38 ****        -4.0532  -3.3766   0.4244 H              1 S1                 0.0000
     39 ****        -5.4660  -2.4424   0.9174 H              1 S1                 0.0000
     40 ****        -4.2624  -2.4269  -1.7430 H              1 S1                 0.0000
     41 ****        -5.6318  -1.4790  -1.1702 H              1 S1                 0.0000
     42 ****        -3.9415   0.2487  -1.6071 H              1 S1                 0.0000
     43 ****        -5.0710   0.1863   0.7530 H              1 S1                 0.0000
     44 ****        -3.4120   0.8023   0.9159 H              1 S1                 0.0000
     45 ****        -0.0741   1.6619   0.7018 LP             1 S1                 0.0000
     46 ****         1.5346   1.5748   1.3377 LP             1 S1                 0.0000
     47 ****         4.2440   3.7864  -1.1167 LP             1 S1                 0.0000
     48 ****         5.7014   4.6323  -1.5172 LP             1 S1                 0.0000
     49 ****         3.0762   0.8986  -1.7744 LP             1 S1                 0.0000
     50 ****         4.2493   2.1627  -1.9357 LP             1 S1                 0.0000
@<TRIPOS>BOND
    1    1    2 1     
    2    1   24 1     
    3    1   25 1     
    4    1   26 1     
    5    2    3 1     
    6    2   17 1     
    7    2   27 1     
    8    3    4 am    
    9    3   28 1     
   10    4    5 2     
   11    4    6 1     
   12    6    7 1     
   13    6   29 1     
   14    6   30 1     
   15    7   15 am    
   16    7    8 1     
   17    8    9 2     
   18    8   31 1     
   19    9   10 1     
   20    9   32 1     
   21   10   11 2     
   22   10   33 1     
   23   11   12 1     
   24   11   15 1     
   25   12   13 2     
   26   12   14 1     
   27   15   16 2     
   28   17   22 1     
   29   17   18 1     
   30   17   34 1     
   31   18   19 1     
   32   18   35 1     
   33   18   36 1     
   34   19   23 1     
   35   19   20 1     
   36   19   37 1     
   37   20   21 1     
   38   20   38 1     
   39   20   39 1     
   40   21   22 1     
   41   21   40 1     
   42   21   41 1     
   43   22   23 1     
   44   22   42 1     
   45   23   43 1     
   46   23   44 1     
   47    5   45 1     
   48    5   46 1     
   49   13   47 1     
   50   13   48 1     
   51   16   49 1     
   52   16   50 1     
@<TRIPOS>SUBSTRUCTURE
      1 S1             1
@<TRIPOS>SET
LONE_PAIRS      STATIC     ATOMS    <user>   **** ""
7 45 46 47 48 14 49 50
DONOR_HYDROGENS      STATIC     ATOMS    <user>   **** ""
1 28
ATOM$BLUE        STATIC     ATOMS    COLORGROUP SYSTEM
7 45 46 47 48 14 49 50
ATOM$RED        STATIC     ATOMS    COLORGROUP SYSTEM
1 28
