AV-unprocessed.smi:2289|AV-procd|sdf|9209|dock3
  -GOLD-   2272012423D 1   1.00000     0.00000
 Structure written by MMmdl.
 40 41  0  0  0  0  0  0  0  0  1 V2000
  145.8163  141.8309  155.2617 C   0  0  0  0  0  0  0  0  0  0  0  0
  147.2891  141.5261  155.4697 C   0  0  0  0  0  0  0  0  0  0  0  0
  147.8545  142.0466  156.6373 N   0  0  0  0  0  0  0  0  0  0  0  0
  149.1025  141.8340  156.8988 C   0  0  0  0  0  0  0  0  0  0  0  0
  149.9221  141.0869  156.0358 N   0  0  0  0  0  0  0  0  0  0  0  0
  151.3223  140.9078  156.4578 C   0  0  0  0  0  0  0  0  0  0  0  0
  151.4944  141.0638  157.9862 C   0  0  1  0  0  0  0  0  0  0  0  0
  151.5786  139.7763  158.5622 O   0  0  0  0  0  0  0  0  0  0  0  0
  152.7880  141.8285  158.3392 C   0  0  0  0  0  0  0  0  0  0  0  0
  152.8672  142.2374  159.8077 C   0  0  0  0  0  0  0  0  0  0  0  0
  153.4449  141.3191  160.7127 C   0  0  0  0  0  0  0  0  0  0  0  0
  153.5543  141.6247  162.0804 C   0  0  0  0  0  0  0  0  0  0  0  0
  153.0796  142.8566  162.5593 C   0  0  0  0  0  0  0  0  0  0  0  0
  152.4935  143.7762  161.6704 C   0  0  0  0  0  0  0  0  0  0  0  0
  152.3759  143.4835  160.2905 C   0  0  0  0  0  0  0  0  0  0  0  0
  151.7128  144.5073  159.3676 C   0  0  0  0  0  0  0  0  0  0  0  0
  151.3912  145.6258  160.0190 F   0  0  0  0  0  0  0  0  0  0  0  0
  152.5345  144.8445  158.3746 F   0  0  0  0  0  0  0  0  0  0  0  0
  150.5903  144.0000  158.8578 F   0  0  0  0  0  0  0  0  0  0  0  0
  149.4500  140.5419  154.8775 C   0  0  0  0  0  0  0  0  0  0  0  0
  150.1732  139.8836  154.1279 O   0  0  0  0  0  0  0  0  0  0  0  0
  148.0283  140.7946  154.5914 C   0  0  0  0  0  0  0  0  0  0  0  0
  147.4662  140.2028  153.3046 C   0  0  0  0  0  0  0  0  0  0  0  0
  145.6724  142.4190  154.3550 H   0  0  0  0  0  0  0  0  0  0  0  0
  145.4062  142.3988  156.0976 H   0  0  0  0  0  0  0  0  0  0  0  0
  145.2431  140.9075  155.1737 H   0  0  0  0  0  0  0  0  0  0  0  0
  149.5913  142.2122  157.7985 H   0  0  0  0  0  0  0  0  0  0  0  0
  151.7318  139.9535  156.1208 H   0  0  0  0  0  0  0  0  0  0  0  0
  151.9349  141.6519  155.9445 H   0  0  0  0  0  0  0  0  0  0  0  0
  150.6328  141.5878  158.4009 H   0  0  0  0  0  0  0  0  0  0  0  0
  152.4244  139.4080  158.3567 H   0  0  0  0  0  0  0  0  0  0  0  0
  153.6594  141.2645  158.0128 H   0  0  0  0  0  0  0  0  0  0  0  0
  152.8211  142.7555  157.7654 H   0  0  0  0  0  0  0  0  0  0  0  0
  153.8108  140.3672  160.3561 H   0  0  0  0  0  0  0  0  0  0  0  0
  154.0008  140.9143  162.7607 H   0  0  0  0  0  0  0  0  0  0  0  0
  153.1605  143.0958  163.6095 H   0  0  0  0  0  0  0  0  0  0  0  0
  152.1307  144.7119  162.0686 H   0  0  0  0  0  0  0  0  0  0  0  0
  147.5374  139.1151  153.3297 H   0  0  0  0  0  0  0  0  0  0  0  0
  148.0358  140.5593  152.4460 H   0  0  0  0  0  0  0  0  0  0  0  0
  146.4226  140.4606  153.1323 H   0  0  0  0  0  0  0  0  0  0  0  0
  1  2  1  0  0  0  0
  1 24  1  0  0  0  0
  1 25  1  0  0  0  0
  1 26  1  0  0  0  0
  2 22  2  0  0  0  0
  2  3  1  0  0  0  0
  3  4  2  0  0  0  0
  4  5  1  0  0  0  0
  4 27  1  0  0  0  0
  5  6  1  0  0  0  0
  5 20  1  0  0  0  0
  6  7  1  0  0  0  0
  6 28  1  0  0  0  0
  6 29  1  0  0  0  0
  7  8  1  0  0  0  0
  7  9  1  0  0  0  0
  7 30  1  0  0  0  0
  8 31  1  0  0  0  0
  9 10  1  0  0  0  0
  9 32  1  0  0  0  0
  9 33  1  0  0  0  0
 10 15  1  0  0  0  0
 10 11  2  0  0  0  0
 11 12  1  0  0  0  0
 11 34  1  0  0  0  0
 12 13  2  0  0  0  0
 12 35  1  0  0  0  0
 13 14  1  0  0  0  0
 13 36  1  0  0  0  0
 14 15  2  0  0  0  0
 14 37  1  0  0  0  0
 15 16  1  0  0  0  0
 16 17  1  0  0  0  0
 16 18  1  0  0  0  0
 16 19  1  0  0  0  0
 20 21  2  0  0  0  0
 20 22  1  0  0  0  0
 22 23  1  0  0  0  0
 23 38  1  0  0  0  0
 23 39  1  0  0  0  0
 23 40  1  0  0  0  0
M  END
> <s_m_source_file>
AV-unprocessed.smi

> <i_m_source_file_index>
2289

> <i_lp_mmshare_version>
43012

> <i_f3d_flags>
0

> <s_epik_input>
W0NIM11jMW5bY0hdbihjKD1PKWMxW0NIM10pW0NIMl1bQ0BIXShbT0hdKVtDSDJdYzJbY0hdW2NIXVtjSF1bY0hdYzJDKEYpKEYpRg==

> <s_epik_cmdline>
J2VwaWtfcHl0aG9uJywgJy1waCcsICc3LjAnLCAnLXRuJywgJzgnLCAnLW1hJywgJzIwMCcsICctbWV0YWxfYmluZGluZycsICctaW1hZScsICc8aW5maWxlLm1hZT4nLCAnLW9tYWUnLCAnPG91dGZpbGUubWFlPic=

> <r_lp_tautomer_probability>
1

> <r_epik_Ionization_Penalty>
8.92636e-05

> <r_epik_Ionization_Penalty_Charging>
8.63033e-08

> <r_epik_Ionization_Penalty_Neutral>
8.91773e-05

> <r_epik_State_Penalty>
-0

> <r_epik_Charging_Adjusted_Penalty>
8.63033e-08

> <i_epik_Tot_Q>
0

> <i_epik_Tot_abs_Q>
0

> <r_epik_Metal_State_Penalty>
-0

> <b_epik_Metal_Only>
0

> <s_lp_Force_Field>
OPLS_2005

> <r_lp_Energy>
23.2294

> <b_lp_Chiralities_Consistent>
1

> <s_lp_Variant>
AV-unprocessed.smi:2289-2

> <Gold.Version>
5.8.1

> <Gold.Id.Protein>
6NUR|6NUR_protein|mol2

> <Gold.PLP.Fitness>
54.7791

> <Gold.PLP.PLP>
-54.8348

> <Gold.PLP.part.hbond>
-1.0000

> <Gold.PLP.part.metal>
0.0000

> <Gold.PLP.part.buried>
-6.6360

> <Gold.PLP.part.nonpolar>
-47.5795

> <Gold.PLP.part.repulsive>
1.7298

> <Gold.PLP.ligand.clash>
1.7515

> <Gold.PLP.ligand.torsion>
1.3809

> <Gold.PLP.Chemscore.Hbond>
1.0000

> <Gold.PLP.Chemscore.CHOScore>
0.0000

> <Gold.PLP.Chemscore.Metal>
0.0000

> <Gold.Chemscore.Hbonds>
donor molecule, donor type, donor heavy atom, donor atom, acceptor molecule, acceptor atom, score
      P1  H  7989  7998       L1    21  1.00

> <Gold.PLP.Chemscore.Internal.Correction>
1.4577

> <Gold.Rescore>
     Score         DG    S(hbond)    S(metal)    S(lipo)     H(rot)  DE(clash)    DE(int)     intcor
     14.62     -16.85       0.99        0.00     120.91       2.37       0.27       1.97       ----

> <Gold.Chemscore.Fitness>
14.6177

> <Gold.Chemscore.DG>
-16.8541

> <Gold.Chemscore.ZeroCoef>
-5.4800

> <Gold.Chemscore.Hbond>
0.9850

> <Gold.Chemscore.Metal>
0.0000

> <Gold.Chemscore.Lipo>
120.9108

> <Gold.Chemscore.Internal_Hbond>
0.0000

> <Gold.Chemscore.DEClash>
0.2683

> <Gold.Chemscore.DEInternal>
1.9682

> <Gold.Chemscore.Rot>
2.3681

> <Gold.Chemscore.Internal.Correction>
   9.000000E+99

> <Gold.Chemscore.Hbonds>
donor molecule, donor type, donor heavy atom, donor atom, acceptor molecule, acceptor atom, score
      P1  H  7989  7998       L1    21  0.82

> <Gold.Chemscore.Hbond.Weighted>
-3.2900

> <Gold.Chemscore.Metal.Weighted>
-0.0000

> <Gold.Chemscore.Lipo.Weighted>
-14.1466

> <Gold.Chemscore.Internal_Hbond.Weighted>
0.0000

> <Gold.Chemscore.DEClash.Weighted>
0.2683

> <Gold.Chemscore.DEInternal.Weighted>
1.9682

> <Gold.Chemscore.Rot.Weighted>
6.0624

> <Gold.Chemscore.Internal.Correction.Weighted>
   9.000000E+99

> <Gold.Protein.RotatedTorsions>
[ 6907 6896 6895 6894 ] final -102.29 input  -60.11 | X-H torsion
[ 7974 7965 7964 7962 ] final  -48.70 input  175.53 | X-H torsion
[ 8008 7997 7996 7995 ] final   68.39 input   59.86 | X-H torsion
[ 10167 10162 10161 10158 ] final  -94.74 input  -65.29 | X-H torsion
[ 10718 10713 10712 10709 ] final -150.53 input   66.30 | X-H torsion
[ 10763 10752 10751 10750 ] final  115.47 input  -60.55 | X-H torsion
[ 11005 11000 10999 10996 ] final  -54.34 input  -57.11 | X-H torsion

> <Gold.Protein.ActiveResidues>
 VAL166  LYS551  ARG553  GLY616  TRP617  ASP618  TYR619  PRO620  LYS621  CYS622 
 ASP623  PHE694  ASN695  SER759  ASP760  ASP761  ALA762  ILE779  LEU786  VAL792 
 PHE793  MET794  SER795  GLU796  ALA797  LYS798  CYS799  TRP800  GLU811  SER814 

> <Gold.Protein.RotatedAtoms>
  150.7190  134.0604  159.3829 H   0  0  0  0  0  0  0  0  0  0  0  0  # atno 6907 bound_to 6896
  151.8584  135.0531  160.0476 H   0  0  0  0  0  0  0  0  0  0  0  0  # atno 6908 bound_to 6896
  152.2736  133.5369  159.5491 H   0  0  0  0  0  0  0  0  0  0  0  0  # atno 6909 bound_to 6896
  145.9484  140.7596  142.9517 H   0  0  0  0  0  0  0  0  0  0  0  0  # atno 7974 bound_to 7965
  155.7076  140.3494  155.4959 H   0  0  0  0  0  0  0  0  0  0  0  0  # atno 8008 bound_to 7997
  155.9385  140.1097  157.1097 H   0  0  0  0  0  0  0  0  0  0  0  0  # atno 8009 bound_to 7997
  154.4098  140.1217  156.4882 H   0  0  0  0  0  0  0  0  0  0  0  0  # atno 8010 bound_to 7997
  140.3114  143.3103  152.0145 H   0  0  0  0  0  0  0  0  0  0  0  0  # atno 10167 bound_to 10162
  156.4473  130.8151  151.2381 H   0  0  0  0  0  0  0  0  0  0  0  0  # atno 10718 bound_to 10713
  153.5227  135.3594  155.2639 H   0  0  0  0  0  0  0  0  0  0  0  0  # atno 10763 bound_to 10752
  154.8733  135.4049  154.3241 H   0  0  0  0  0  0  0  0  0  0  0  0  # atno 10764 bound_to 10752
  153.3914  135.7072  153.6559 H   0  0  0  0  0  0  0  0  0  0  0  0  # atno 10765 bound_to 10752
  141.1021  133.6617  156.4306 H   0  0  0  0  0  0  0  0  0  0  0  0  # atno 11005 bound_to 11000
  144.6791  140.2394  143.7345 LP  0  0  0  0  0  0  0  0  0  0  0  0  # atno 17320 bound_to 7965
  145.8205  139.2041  143.1941 LP  0  0  0  0  0  0  0  0  0  0  0  0  # atno 17321 bound_to 7965
  139.4893  144.6382  151.6932 LP  0  0  0  0  0  0  0  0  0  0  0  0  # atno 17342 bound_to 10162
  140.5565  144.0339  150.6150 LP  0  0  0  0  0  0  0  0  0  0  0  0  # atno 17343 bound_to 10162
  157.7504  131.0149  150.3483 LP  0  0  0  0  0  0  0  0  0  0  0  0  # atno 17370 bound_to 10713
  156.3854  130.3888  149.7070 LP  0  0  0  0  0  0  0  0  0  0  0  0  # atno 17371 bound_to 10713
  140.4996  134.6498  157.5243 LP  0  0  0  0  0  0  0  0  0  0  0  0  # atno 17394 bound_to 11000
  139.9876  134.7036  155.9746 LP  0  0  0  0  0  0  0  0  0  0  0  0  # atno 17395 bound_to 11000

$$$$
