AV-unprocessed.smi:2732|AV-procd|sdf|10532|dock3
  -GOLD-   2272014573D 1   1.00000     0.00000
 Structure written by MMmdl.
 34 35  0  0  0  0  0  0  0  0  1 V2000
  152.2775  139.9030  158.3438 C   0  0  0  0  0  0  0  0  0  0  0  0
  151.6146  141.1060  157.6565 C   0  0  2  0  0  0  0  0  0  0  0  0
  150.6410  141.6287  158.5564 O   0  0  0  0  0  0  0  0  0  0  0  0
  150.3010  142.9961  158.3614 C   0  0  0  0  0  0  0  0  0  0  0  0
  151.2448  143.8507  159.1792 C   0  0  0  0  0  0  0  0  0  0  0  0
  152.3027  144.6898  158.4993 C   0  0  0  0  0  0  0  0  0  0  0  0
  152.7051  143.4787  159.3020 C   0  0  0  0  0  0  0  0  0  0  0  0
  150.9492  140.6982  156.3318 C   0  0  0  0  0  0  0  0  0  0  0  0
  151.6195  140.1501  155.4568 O   0  0  0  0  0  0  0  0  0  0  0  0
  149.6386  140.9844  156.2231 N   0  0  0  0  0  0  0  0  0  0  0  0
  148.7546  140.6870  155.1511 C   0  0  0  0  0  0  0  0  0  0  0  0
  147.7435  141.5635  154.6894 C   0  0  0  0  0  0  0  0  0  0  0  0
  146.9463  141.1678  153.5979 C   0  0  0  0  0  0  0  0  0  0  0  0
  147.1937  139.9156  153.0013 C   0  0  0  0  0  0  0  0  0  0  0  0
  146.4264  139.4935  151.9186 N   0  0  0  0  0  0  0  0  0  0  0  0
  148.1627  139.0769  153.4237 N   0  0  0  0  0  0  0  0  0  0  0  0
  148.9236  139.4627  154.4705 C   0  0  0  0  0  0  0  0  0  0  0  0
  153.0257  139.4398  157.6995 H   0  0  0  0  0  0  0  0  0  0  0  0
  151.5457  139.1397  158.6119 H   0  0  0  0  0  0  0  0  0  0  0  0
  152.7797  140.2124  159.2607 H   0  0  0  0  0  0  0  0  0  0  0  0
  152.3807  141.8622  157.4730 H   0  0  0  0  0  0  0  0  0  0  0  0
  150.4020  143.2640  157.3089 H   0  0  0  0  0  0  0  0  0  0  0  0
  149.2734  143.2039  158.6627 H   0  0  0  0  0  0  0  0  0  0  0  0
  150.7886  144.2835  160.0677 H   0  0  0  0  0  0  0  0  0  0  0  0
  152.3821  144.6245  157.4158 H   0  0  0  0  0  0  0  0  0  0  0  0
  152.5138  145.6693  158.9232 H   0  0  0  0  0  0  0  0  0  0  0  0
  153.1890  143.6503  160.2614 H   0  0  0  0  0  0  0  0  0  0  0  0
  153.0549  142.6070  158.7525 H   0  0  0  0  0  0  0  0  0  0  0  0
  149.2396  141.5224  156.9788 H   0  0  0  0  0  0  0  0  0  0  0  0
  147.5753  142.5312  155.1359 H   0  0  0  0  0  0  0  0  0  0  0  0
  146.1673  141.8175  153.2270 H   0  0  0  0  0  0  0  0  0  0  0  0
  145.6852  140.0654  151.5400 H   0  0  0  0  0  0  0  0  0  0  0  0
  146.5929  138.6030  151.4723 H   0  0  0  0  0  0  0  0  0  0  0  0
  149.6917  138.7674  154.7762 H   0  0  0  0  0  0  0  0  0  0  0  0
  1  2  1  0  0  0  0
  1 18  1  0  0  0  0
  1 19  1  0  0  0  0
  1 20  1  0  0  0  0
  2  3  1  0  0  0  0
  2  8  1  0  0  0  0
  2 21  1  0  0  0  0
  3  4  1  0  0  0  0
  4  5  1  0  0  0  0
  4 22  1  0  0  0  0
  4 23  1  0  0  0  0
  5  7  1  0  0  0  0
  5  6  1  0  0  0  0
  5 24  1  0  0  0  0
  6  7  1  0  0  0  0
  6 25  1  0  0  0  0
  6 26  1  0  0  0  0
  7 27  1  0  0  0  0
  7 28  1  0  0  0  0
  8  9  2  0  0  0  0
  8 10  1  0  0  0  0
 10 11  1  0  0  0  0
 10 29  1  0  0  0  0
 11 17  1  0  0  0  0
 11 12  2  0  0  0  0
 12 13  1  0  0  0  0
 12 30  1  0  0  0  0
 13 14  2  0  0  0  0
 13 31  1  0  0  0  0
 14 15  1  0  0  0  0
 14 16  1  0  0  0  0
 15 32  1  0  0  0  0
 15 33  1  0  0  0  0
 16 17  2  0  0  0  0
 17 34  1  0  0  0  0
M  END
> <s_m_source_file>
AV-unprocessed.smi

> <i_m_source_file_index>
2732

> <i_lp_mmshare_version>
43012

> <i_f3d_flags>
0

> <s_epik_input>
W0NIMl0xW0NIMl1bQ0hdMVtDSDJdT1tDQEBIXShbQ0gzXSlDKD1PKVtOSF1jMltjSF1bY0hdYyhbTkgyXSluW2NIXTI=

> <s_epik_cmdline>
J2VwaWtfcHl0aG9uJywgJy1waCcsICc3LjAnLCAnLXRuJywgJzgnLCAnLW1hJywgJzIwMCcsICctbWV0YWxfYmluZGluZycsICctaW1hZScsICc8aW5maWxlLm1hZT4nLCAnLW9tYWUnLCAnPG91dGZpbGUubWFlPic=

> <r_lp_tautomer_probability>
1

> <r_epik_Ionization_Penalty>
0.0764773

> <r_epik_Ionization_Penalty_Charging>
0

> <r_epik_Ionization_Penalty_Neutral>
0.0764773

> <r_epik_State_Penalty>
0.0673619

> <r_epik_Charging_Adjusted_Penalty>
0.0673619

> <i_epik_Tot_Q>
0

> <i_epik_Tot_abs_Q>
0

> <r_epik_Metal_State_Penalty>
0.0594329

> <b_epik_Metal_Only>
0

> <s_lp_Force_Field>
OPLS_2005

> <r_lp_Energy>
19.1894

> <b_lp_Chiralities_Consistent>
1

> <s_lp_Variant>
AV-unprocessed.smi:2732-1

> <Gold.Version>
5.8.1

> <Gold.Id.Protein>
6NUR|6NUR_protein|mol2

> <Gold.PLP.Fitness>
37.9554

> <Gold.PLP.PLP>
-35.0280

> <Gold.PLP.part.hbond>
-2.0497

> <Gold.PLP.part.metal>
0.0000

> <Gold.PLP.part.buried>
-6.2867

> <Gold.PLP.part.nonpolar>
-29.2395

> <Gold.PLP.part.repulsive>
1.3453

> <Gold.PLP.ligand.clash>
0.0000

> <Gold.PLP.ligand.torsion>
1.1834

> <Gold.PLP.Chemscore.Hbond>
1.5788

> <Gold.PLP.Chemscore.CHOScore>
0.0000

> <Gold.PLP.Chemscore.Metal>
0.0000

> <Gold.Chemscore.Hbonds>
donor molecule, donor type, donor heavy atom, donor atom, acceptor molecule, acceptor atom, score
      L1  H    15    32       P1 10175  0.26
      P1  H  7989  7998       L1     9  0.81

> <Gold.PLP.Chemscore.Internal.Correction>
0.5577

> <Gold.Rescore>
     Score         DG    S(hbond)    S(metal)    S(lipo)     H(rot)  DE(clash)    DE(int)     intcor
     14.53     -17.01       1.96        0.00      80.42       1.72       0.00       2.48       ----

> <Gold.Chemscore.Fitness>
14.5280

> <Gold.Chemscore.DG>
-17.0068

> <Gold.Chemscore.ZeroCoef>
-5.4800

> <Gold.Chemscore.Hbond>
1.9552

> <Gold.Chemscore.Metal>
0.0000

> <Gold.Chemscore.Lipo>
80.4205

> <Gold.Chemscore.Internal_Hbond>
0.0000

> <Gold.Chemscore.DEClash>
0.0000

> <Gold.Chemscore.DEInternal>
2.4788

> <Gold.Chemscore.Rot>
1.7237

> <Gold.Chemscore.Internal.Correction>
   9.000000E+99

> <Gold.Chemscore.Hbonds>
donor molecule, donor type, donor heavy atom, donor atom, acceptor molecule, acceptor atom, score
      L1  H    15    32       P1 10175  0.05
      P1  H  7989  7998       L1     9  0.75

> <Gold.Chemscore.Hbond.Weighted>
-6.5303

> <Gold.Chemscore.Metal.Weighted>
-0.0000

> <Gold.Chemscore.Lipo.Weighted>
-9.4092

> <Gold.Chemscore.Internal_Hbond.Weighted>
0.0000

> <Gold.Chemscore.DEClash.Weighted>
0.0000

> <Gold.Chemscore.DEInternal.Weighted>
2.4788

> <Gold.Chemscore.Rot.Weighted>
4.4127

> <Gold.Chemscore.Internal.Correction.Weighted>
   9.000000E+99

> <Gold.Protein.RotatedTorsions>
[ 6907 6896 6895 6894 ] final  134.67 input  -60.11 | X-H torsion
[ 7974 7965 7964 7962 ] final  102.44 input  175.53 | X-H torsion
[ 8008 7997 7996 7995 ] final  150.95 input   59.86 | X-H torsion
[ 10167 10162 10161 10158 ] final  -15.64 input  -65.29 | X-H torsion
[ 10718 10713 10712 10709 ] final  -94.19 input   66.30 | X-H torsion
[ 10763 10752 10751 10750 ] final  -43.19 input  -60.55 | X-H torsion
[ 11005 11000 10999 10996 ] final  -89.15 input  -57.11 | X-H torsion

> <Gold.Protein.ActiveResidues>
 VAL166  LYS551  ARG553  GLY616  TRP617  ASP618  TYR619  PRO620  LYS621  CYS622 
 ASP623  PHE694  ASN695  SER759  ASP760  ASP761  ALA762  ILE779  LEU786  VAL792 
 PHE793  MET794  SER795  GLU796  ALA797  LYS798  CYS799  TRP800  GLU811  SER814 

> <Gold.Protein.RotatedAtoms>
  152.3087  133.5730  159.5666 H   0  0  0  0  0  0  0  0  0  0  0  0  # atno 6907 bound_to 6896
  150.7312  134.0184  159.3702 H   0  0  0  0  0  0  0  0  0  0  0  0  # atno 6908 bound_to 6896
  151.8078  135.0690  160.0460 H   0  0  0  0  0  0  0  0  0  0  0  0  # atno 6909 bound_to 6896
  145.3591  139.2422  143.3516 H   0  0  0  0  0  0  0  0  0  0  0  0  # atno 7974 bound_to 7965
  156.2694  140.2061  156.6099 H   0  0  0  0  0  0  0  0  0  0  0  0  # atno 8008 bound_to 7997
  154.6840  140.0537  157.0319 H   0  0  0  0  0  0  0  0  0  0  0  0  # atno 8009 bound_to 7997
  155.0960  140.3201  155.4563 H   0  0  0  0  0  0  0  0  0  0  0  0  # atno 8010 bound_to 7997
  140.7221  143.5198  150.9648 H   0  0  0  0  0  0  0  0  0  0  0  0  # atno 10167 bound_to 10162
  156.0023  130.5057  150.5889 H   0  0  0  0  0  0  0  0  0  0  0  0  # atno 10718 bound_to 10713
  153.9915  135.6705  153.4754 H   0  0  0  0  0  0  0  0  0  0  0  0  # atno 10763 bound_to 10752
  153.0703  135.4978  154.8286 H   0  0  0  0  0  0  0  0  0  0  0  0  # atno 10764 bound_to 10752
  154.7106  135.3096  154.9165 H   0  0  0  0  0  0  0  0  0  0  0  0  # atno 10765 bound_to 10752
  141.1590  133.7612  156.9553 H   0  0  0  0  0  0  0  0  0  0  0  0  # atno 11005 bound_to 11000
  146.2935  140.4221  142.8730 LP  0  0  0  0  0  0  0  0  0  0  0  0  # atno 17320 bound_to 7965
  144.8660  140.7206  143.6077 LP  0  0  0  0  0  0  0  0  0  0  0  0  # atno 17321 bound_to 7965
  139.8915  143.6948  152.3144 LP  0  0  0  0  0  0  0  0  0  0  0  0  # atno 17342 bound_to 10162
  139.7265  144.7592  151.0870 LP  0  0  0  0  0  0  0  0  0  0  0  0  # atno 17343 bound_to 10162
  157.3757  131.0773  151.1520 LP  0  0  0  0  0  0  0  0  0  0  0  0  # atno 17370 bound_to 10713
  157.2259  130.6502  149.5830 LP  0  0  0  0  0  0  0  0  0  0  0  0  # atno 17371 bound_to 10713
  140.1229  134.9405  157.2229 LP  0  0  0  0  0  0  0  0  0  0  0  0  # atno 17394 bound_to 11000
  140.3049  134.3090  155.7280 LP  0  0  0  0  0  0  0  0  0  0  0  0  # atno 17395 bound_to 11000

$$$$
