AV-unprocessed.smi:3225|AV-procd|sdf|12311|dock3
  -GOLD-   2272018153D 1   1.00000     0.00000
 Structure written by MMmdl.
 41 42  0  0  0  0  0  0  0  0  2 V2000
  152.8315  139.4573  154.6859 C   0  0  0  0  0  0  0  0  0  0  0  0
  151.5883  138.7822  155.2893 C   0  0  2  0  0  0  0  0  0  0  0  0
  150.4750  138.5526  154.2404 C   0  0  0  0  0  0  0  0  0  0  0  0
  149.4467  139.5771  154.2699 N   0  0  0  0  0  0  0  0  0  0  0  0
  148.1073  139.4603  153.9623 C   0  0  0  0  0  0  0  0  0  0  0  0
  147.5448  140.6938  154.1251 C   0  0  0  0  0  0  0  0  0  0  0  0
  148.6351  141.5122  154.5324 C   0  0  0  0  0  0  0  0  0  0  0  0
  149.7731  140.8414  154.6145 N   0  0  0  0  0  0  0  0  0  0  0  0
  151.0908  139.5943  156.4221 N   0  3  0  0  0  0  0  0  0  0  0  0
  152.1251  140.0453  157.3769 C   0  0  0  0  0  0  0  0  0  0  0  0
  151.5768  141.1355  158.3060 C   0  0  0  0  0  0  0  0  0  0  0  0
  152.5669  142.2980  158.4896 C   0  0  0  0  0  0  0  0  0  0  0  0
  152.7534  142.6333  159.8988 N   0  0  0  0  0  0  0  0  0  0  0  0
  153.4950  141.7472  160.7803 C   0  0  0  0  0  0  0  0  0  0  0  0
  153.2997  142.3320  162.1865 C   0  0  0  0  0  0  0  0  0  0  0  0
  152.7546  143.7486  161.9750 C   0  0  0  0  0  0  0  0  0  0  0  0
  152.3469  143.7515  160.5113 C   0  0  0  0  0  0  0  0  0  0  0  0
  151.7259  144.6777  159.9916 O   0  0  0  0  0  0  0  0  0  0  0  0
  153.2855  138.8420  153.9087 H   0  0  0  0  0  0  0  0  0  0  0  0
  153.5942  139.6258  155.4471 H   0  0  0  0  0  0  0  0  0  0  0  0
  152.5838  140.4227  154.2433 H   0  0  0  0  0  0  0  0  0  0  0  0
  151.9069  137.8169  155.6864 H   0  0  0  0  0  0  0  0  0  0  0  0
  150.8863  138.5281  153.2312 H   0  0  0  0  0  0  0  0  0  0  0  0
  149.9992  137.5849  154.4049 H   0  0  0  0  0  0  0  0  0  0  0  0
  147.6697  138.5206  153.6585 H   0  0  0  0  0  0  0  0  0  0  0  0
  146.5120  140.9707  153.9740 H   0  0  0  0  0  0  0  0  0  0  0  0
  148.6344  142.5664  154.7673 H   0  0  0  0  0  0  0  0  0  0  0  0
  150.6605  140.4235  156.0378 H   0  0  0  0  0  0  0  0  0  0  0  0
  152.4762  139.2027  157.9723 H   0  0  0  0  0  0  0  0  0  0  0  0
  152.9826  140.4283  156.8220 H   0  0  0  0  0  0  0  0  0  0  0  0
  150.6360  141.5130  157.9029 H   0  0  0  0  0  0  0  0  0  0  0  0
  151.3445  140.7005  159.2791 H   0  0  0  0  0  0  0  0  0  0  0  0
  153.5317  142.0375  158.0520 H   0  0  0  0  0  0  0  0  0  0  0  0
  152.2154  143.1811  157.9537 H   0  0  0  0  0  0  0  0  0  0  0  0
  153.1308  140.7212  160.7136 H   0  0  0  0  0  0  0  0  0  0  0  0
  154.5482  141.7565  160.4964 H   0  0  0  0  0  0  0  0  0  0  0  0
  152.5744  141.7360  162.7419 H   0  0  0  0  0  0  0  0  0  0  0  0
  154.2291  142.3317  162.7569 H   0  0  0  0  0  0  0  0  0  0  0  0
  151.9088  143.9680  162.6272 H   0  0  0  0  0  0  0  0  0  0  0  0
  153.5275  144.5003  162.1369 H   0  0  0  0  0  0  0  0  0  0  0  0
  150.3842  139.0686  156.9165 H   0  0  0  0  0  0  0  0  0  0  0  0
  1  2  1  0  0  0  0
  1 19  1  0  0  0  0
  1 20  1  0  0  0  0
  1 21  1  0  0  0  0
  2  3  1  0  0  0  0
  2  9  1  0  0  0  0
  2 22  1  0  0  0  0
  3  4  1  0  0  0  0
  3 23  1  0  0  0  0
  3 24  1  0  0  0  0
  4  8  1  0  0  0  0
  4  5  1  0  0  0  0
  5  6  2  0  0  0  0
  5 25  1  0  0  0  0
  6  7  1  0  0  0  0
  6 26  1  0  0  0  0
  7  8  2  0  0  0  0
  7 27  1  0  0  0  0
  9 10  1  0  0  0  0
  9 28  1  0  0  0  0
  9 41  1  0  0  0  0
 10 11  1  0  0  0  0
 10 29  1  0  0  0  0
 10 30  1  0  0  0  0
 11 12  1  0  0  0  0
 11 31  1  0  0  0  0
 11 32  1  0  0  0  0
 12 13  1  0  0  0  0
 12 33  1  0  0  0  0
 12 34  1  0  0  0  0
 13 17  1  0  0  0  0
 13 14  1  0  0  0  0
 14 15  1  0  0  0  0
 14 35  1  0  0  0  0
 14 36  1  0  0  0  0
 15 16  1  0  0  0  0
 15 37  1  0  0  0  0
 15 38  1  0  0  0  0
 16 17  1  0  0  0  0
 16 39  1  0  0  0  0
 16 40  1  0  0  0  0
 17 18  2  0  0  0  0
M  CHG  1   9   1
M  END
> <s_m_source_file>
AV-unprocessed.smi

> <i_m_source_file_index>
3225

> <i_lp_mmshare_version>
43012

> <i_f3d_flags>
0

> <s_epik_input>
bjFbY0hdW2NIXVtjSF1uMVtDSDJdW0NAQEhdKFtDSDNdKVtOSF1bQ0gyXVtDSDJdW0NIMl1OMltDSDJdW0NIMl1bQ0gyXUMyPU8=

> <s_epik_cmdline>
J2VwaWtfcHl0aG9uJywgJy1waCcsICc3LjAnLCAnLXRuJywgJzgnLCAnLW1hJywgJzIwMCcsICctbWV0YWxfYmluZGluZycsICctaW1hZScsICc8aW5maWxlLm1hZT4nLCAnLW9tYWUnLCAnPG91dGZpbGUubWFlPic=

> <r_lp_tautomer_probability>
1

> <r_epik_Ionization_Penalty>
0.00490443

> <r_epik_Ionization_Penalty_Charging>
0.00490019

> <r_epik_Ionization_Penalty_Neutral>
4.24076e-06

> <r_epik_State_Penalty>
0.00355741

> <r_epik_Charging_Adjusted_Penalty>
0.0084576

> <i_epik_Tot_Q>
1

> <i_epik_Tot_abs_Q>
1

> <r_epik_Metal_State_Penalty>
-0

> <b_epik_Metal_Only>
0

> <s_lp_Force_Field>
OPLS_2005

> <r_lp_Energy>
20.009

> <b_lp_Chiralities_Consistent>
1

> <s_lp_Variant>
AV-unprocessed.smi:3225-1

> <Gold.Version>
5.8.1

> <Gold.Id.Protein>
6NUR|6NUR_protein|mol2

> <Gold.PLP.Fitness>
45.8529

> <Gold.PLP.PLP>
-43.9896

> <Gold.PLP.part.hbond>
-1.0000

> <Gold.PLP.part.metal>
0.0000

> <Gold.PLP.part.buried>
-3.4627

> <Gold.PLP.part.nonpolar>
-38.9173

> <Gold.PLP.part.repulsive>
0.2443

> <Gold.PLP.ligand.clash>
0.0000

> <Gold.PLP.ligand.torsion>
1.7472

> <Gold.PLP.Chemscore.Hbond>
0.7680

> <Gold.PLP.Chemscore.CHOScore>
1.0000

> <Gold.PLP.Chemscore.Metal>
0.0000

> <Gold.Chemscore.Hbonds>
donor molecule, donor type, donor heavy atom, donor atom, acceptor molecule, acceptor atom, score
      P1  H  7989  7998       L1     8  0.38
      L1  C     7    27       P1  8028  1.00

> <Gold.PLP.Chemscore.Internal.Correction>
0.0538

> <Gold.Rescore>
     Score         DG    S(hbond)    S(metal)    S(lipo)     H(rot)  DE(clash)    DE(int)     intcor
     12.39     -14.14       0.84        0.00      97.90       2.19       0.10       1.65       ----

> <Gold.Chemscore.Fitness>
12.3896

> <Gold.Chemscore.DG>
-14.1436

> <Gold.Chemscore.ZeroCoef>
-5.4800

> <Gold.Chemscore.Hbond>
0.8417

> <Gold.Chemscore.Metal>
0.0000

> <Gold.Chemscore.Lipo>
97.9016

> <Gold.Chemscore.Internal_Hbond>
0.0000

> <Gold.Chemscore.DEClash>
0.1035

> <Gold.Chemscore.DEInternal>
1.6505

> <Gold.Chemscore.Rot>
2.1884

> <Gold.Chemscore.Internal.Correction>
   9.000000E+99

> <Gold.Chemscore.Hbonds>
donor molecule, donor type, donor heavy atom, donor atom, acceptor molecule, acceptor atom, score
      P1  H  7989  7998       L1     8  0.06

> <Gold.Chemscore.Hbond.Weighted>
-2.8114

> <Gold.Chemscore.Metal.Weighted>
-0.0000

> <Gold.Chemscore.Lipo.Weighted>
-11.4545

> <Gold.Chemscore.Internal_Hbond.Weighted>
0.0000

> <Gold.Chemscore.DEClash.Weighted>
0.1035

> <Gold.Chemscore.DEInternal.Weighted>
1.6505

> <Gold.Chemscore.Rot.Weighted>
5.6023

> <Gold.Chemscore.Internal.Correction.Weighted>
   9.000000E+99

> <Gold.Protein.RotatedTorsions>
[ 6907 6896 6895 6894 ] final -165.86 input  -60.11 | X-H torsion
[ 7974 7965 7964 7962 ] final  127.39 input  175.53 | X-H torsion
[ 8008 7997 7996 7995 ] final  -85.07 input   59.86 | X-H torsion
[ 10167 10162 10161 10158 ] final  -60.20 input  -65.29 | X-H torsion
[ 10718 10713 10712 10709 ] final    5.99 input   66.30 | X-H torsion
[ 10763 10752 10751 10750 ] final -176.62 input  -60.55 | X-H torsion
[ 11005 11000 10999 10996 ] final -152.70 input  -57.11 | X-H torsion

> <Gold.Protein.ActiveResidues>
 VAL166  LYS551  ARG553  GLY616  TRP617  ASP618  TYR619  PRO620  LYS621  CYS622 
 ASP623  PHE694  ASN695  SER759  ASP760  ASP761  ALA762  ILE779  LEU786  VAL792 
 PHE793  MET794  SER795  GLU796  ALA797  LYS798  CYS799  TRP800  GLU811  SER814 

> <Gold.Protein.RotatedAtoms>
  151.4344  133.3661  159.2772 H   0  0  0  0  0  0  0  0  0  0  0  0  # atno 6907 bound_to 6896
  150.9202  134.8621  159.7494 H   0  0  0  0  0  0  0  0  0  0  0  0  # atno 6908 bound_to 6896
  152.4978  134.4281  159.9555 H   0  0  0  0  0  0  0  0  0  0  0  0  # atno 6909 bound_to 6896
  145.0511  139.3882  143.5053 H   0  0  0  0  0  0  0  0  0  0  0  0  # atno 7974 bound_to 7965
  154.6367  140.0596  156.9797 H   0  0  0  0  0  0  0  0  0  0  0  0  # atno 8008 bound_to 7997
  155.1580  140.3280  155.4399 H   0  0  0  0  0  0  0  0  0  0  0  0  # atno 8009 bound_to 7997
  156.2511  140.1936  156.6689 H   0  0  0  0  0  0  0  0  0  0  0  0  # atno 8010 bound_to 7997
  140.6086  143.2380  151.5762 H   0  0  0  0  0  0  0  0  0  0  0  0  # atno 10167 bound_to 10162
  156.9155  130.5772  149.5647 H   0  0  0  0  0  0  0  0  0  0  0  0  # atno 10718 bound_to 10713
  154.5701  135.2827  155.0836 H   0  0  0  0  0  0  0  0  0  0  0  0  # atno 10763 bound_to 10752
  154.2211  135.6391  153.5149 H   0  0  0  0  0  0  0  0  0  0  0  0  # atno 10764 bound_to 10752
  153.0055  135.5515  154.6322 H   0  0  0  0  0  0  0  0  0  0  0  0  # atno 10765 bound_to 10752
  140.7161  134.3779  157.5190 H   0  0  0  0  0  0  0  0  0  0  0  0  # atno 11005 bound_to 11000
  146.3518  140.0162  142.8662 LP  0  0  0  0  0  0  0  0  0  0  0  0  # atno 17320 bound_to 7965
  145.1526  140.9631  143.4424 LP  0  0  0  0  0  0  0  0  0  0  0  0  # atno 17321 bound_to 7965
  139.5344  144.2823  152.1219 LP  0  0  0  0  0  0  0  0  0  0  0  0  # atno 17342 bound_to 10162
  140.2018  144.4650  150.6428 LP  0  0  0  0  0  0  0  0  0  0  0  0  # atno 17343 bound_to 10162
  156.0515  130.5584  150.9000 LP  0  0  0  0  0  0  0  0  0  0  0  0  # atno 17370 bound_to 10713
  157.5940  131.0943  150.9071 LP  0  0  0  0  0  0  0  0  0  0  0  0  # atno 17371 bound_to 10713
  139.8859  134.8923  156.2613 LP  0  0  0  0  0  0  0  0  0  0  0  0  # atno 17394 bound_to 11000
  141.0043  133.7133  156.1010 LP  0  0  0  0  0  0  0  0  0  0  0  0  # atno 17395 bound_to 11000

$$$$
