AV-unprocessed.smi:1278|AV-procd|sdf|5347|dock10
  -GOLD-   22720 4483D 1   1.00000     0.00000
 Structure written by MMmdl.
 39 40  0  0  0  0  0  0  0  0  2 V2000
  148.5323  135.1237  156.3933 C   0  0  0  0  0  0  0  0  0  0  0  0
  149.0871  136.0659  155.3153 C   0  0  2  0  0  0  0  0  0  0  0  0
  150.4855  136.5853  155.6898 C   0  0  0  0  0  0  0  0  0  0  0  0
  151.0023  137.5456  154.6116 C   0  0  0  0  0  0  0  0  0  0  0  0
  150.0022  138.6864  154.3674 C   0  0  0  0  0  0  0  0  0  0  0  0
  148.6631  138.1569  154.0015 N   0  3  2  0  0  0  0  0  0  0  0  0
  147.7167  139.2401  153.6346 C   0  0  0  0  0  0  0  0  0  0  0  0
  146.4716  138.7104  152.8971 C   0  0  0  0  0  0  0  0  0  0  0  0
  146.6976  137.3743  152.3571 N   0  0  0  0  0  0  0  0  0  0  0  0
  145.7275  136.5383  151.9592 C   0  0  0  0  0  0  0  0  0  0  0  0
  144.5304  136.8231  152.0085 O   0  0  0  0  0  0  0  0  0  0  0  0
  146.2341  135.3771  151.5085 N   0  0  0  0  0  0  0  0  0  0  0  0
  145.5317  134.2597  150.9851 C   0  0  0  0  0  0  0  0  0  0  0  0
  144.2844  134.3118  150.5033 N   0  0  0  0  0  0  0  0  0  0  0  0
  143.8455  133.0660  150.0482 C   0  0  0  0  0  0  0  0  0  0  0  0
  144.7785  132.0692  150.1914 C   0  0  0  0  0  0  0  0  0  0  0  0
  146.2536  132.6590  150.9097 S   0  0  0  0  0  0  0  0  0  0  0  0
  148.1308  137.2470  155.0520 C   0  0  0  0  0  0  0  0  0  0  0  0
  148.4099  135.6392  157.3465 H   0  0  0  0  0  0  0  0  0  0  0  0
  149.1998  134.2772  156.5564 H   0  0  0  0  0  0  0  0  0  0  0  0
  147.5597  134.7243  156.1040 H   0  0  0  0  0  0  0  0  0  0  0  0
  149.1759  135.4911  154.3920 H   0  0  0  0  0  0  0  0  0  0  0  0
  150.4471  137.1003  156.6509 H   0  0  0  0  0  0  0  0  0  0  0  0
  151.1806  135.7534  155.8094 H   0  0  0  0  0  0  0  0  0  0  0  0
  151.9682  137.9549  154.9098 H   0  0  0  0  0  0  0  0  0  0  0  0
  151.1714  136.9997  153.6822 H   0  0  0  0  0  0  0  0  0  0  0  0
  149.9165  139.3117  155.2577 H   0  0  0  0  0  0  0  0  0  0  0  0
  150.3792  139.3238  153.5668 H   0  0  0  0  0  0  0  0  0  0  0  0
  147.4399  139.7984  154.5304 H   0  0  0  0  0  0  0  0  0  0  0  0
  148.2181  139.9503  152.9752 H   0  0  0  0  0  0  0  0  0  0  0  0
  145.6266  138.6598  153.5843 H   0  0  0  0  0  0  0  0  0  0  0  0
  146.1710  139.3744  152.0862 H   0  0  0  0  0  0  0  0  0  0  0  0
  147.6561  137.0640  152.2862 H   0  0  0  0  0  0  0  0  0  0  0  0
  147.2386  135.2820  151.5361 H   0  0  0  0  0  0  0  0  0  0  0  0
  142.8516  132.9787  149.6349 H   0  0  0  0  0  0  0  0  0  0  0  0
  144.6872  131.0282  149.9188 H   0  0  0  0  0  0  0  0  0  0  0  0
  147.1604  136.8545  154.7496 H   0  0  0  0  0  0  0  0  0  0  0  0
  147.9669  137.8117  155.9715 H   0  0  0  0  0  0  0  0  0  0  0  0
  148.7989  137.6006  153.1696 H   0  0  0  0  0  0  0  0  0  0  0  0
  1  2  1  0  0  0  0
  1 19  1  0  0  0  0
  1 20  1  0  0  0  0
  1 21  1  0  0  0  0
  2 18  1  0  0  0  0
  2  3  1  0  0  0  0
  2 22  1  0  0  0  0
  3  4  1  0  0  0  0
  3 23  1  0  0  0  0
  3 24  1  0  0  0  0
  4  5  1  0  0  0  0
  4 25  1  0  0  0  0
  4 26  1  0  0  0  0
  5  6  1  0  0  0  0
  5 27  1  0  0  0  0
  5 28  1  0  0  0  0
  6  7  1  0  0  0  0
  6 18  1  0  0  0  0
  6 39  1  0  0  0  0
  7  8  1  0  0  0  0
  7 29  1  0  0  0  0
  7 30  1  0  0  0  0
  8  9  1  0  0  0  0
  8 31  1  0  0  0  0
  8 32  1  0  0  0  0
  9 10  1  0  0  0  0
  9 33  1  0  0  0  0
 10 11  2  0  0  0  0
 10 12  1  0  0  0  0
 12 13  1  0  0  0  0
 12 34  1  0  0  0  0
 13 17  1  0  0  0  0
 13 14  2  0  0  0  0
 14 15  1  0  0  0  0
 15 16  2  0  0  0  0
 15 35  1  0  0  0  0
 16 17  1  0  0  0  0
 16 36  1  0  0  0  0
 18 37  1  0  0  0  0
 18 38  1  0  0  0  0
M  CHG  1   6   1
M  END
> <s_m_source_file>
AV-unprocessed.smi

> <i_m_source_file_index>
1278

> <i_lp_mmshare_version>
43012

> <i_f3d_flags>
0

> <s_epik_input>
W0NIM11bQ0BASF0xW0NIMl1bQ0gyXVtDSDJdTihbQ0gyXTEpW0NIMl1bQ0gyXVtOSF1DKD1PKVtOSF1jMm5bY0hdW2NIXXMy

> <s_epik_cmdline>
J2VwaWtfcHl0aG9uJywgJy1waCcsICc3LjAnLCAnLXRuJywgJzgnLCAnLW1hJywgJzIwMCcsICctbWV0YWxfYmluZGluZycsICctaW1hZScsICc8aW5maWxlLm1hZT4nLCAnLW9tYWUnLCAnPG91dGZpbGUubWFlPic=

> <r_lp_tautomer_probability>
0.999

> <r_epik_Ionization_Penalty>
0.00222194

> <r_epik_Ionization_Penalty_Charging>
0.00208169

> <r_epik_Ionization_Penalty_Neutral>
0.000140251

> <r_epik_State_Penalty>
0.00142585

> <r_epik_Charging_Adjusted_Penalty>
0.00350754

> <i_epik_Tot_Q>
1

> <i_epik_Tot_abs_Q>
1

> <r_epik_Metal_State_Penalty>
0.0570424

> <b_epik_Metal_Only>
0

> <s_lp_Force_Field>
OPLS_2005

> <r_lp_Energy>
14.0127

> <b_lp_Chiralities_Consistent>
1

> <s_lp_Variant>
AV-unprocessed.smi:1278-1

> <Gold.Version>
5.8.1

> <Gold.Id.Protein>
6NUR|6NUR_protein|mol2

> <Gold.PLP.Fitness>
42.4623

> <Gold.PLP.PLP>
-28.7456

> <Gold.PLP.part.hbond>
-3.0000

> <Gold.PLP.part.metal>
0.0000

> <Gold.PLP.part.buried>
-4.7493

> <Gold.PLP.part.nonpolar>
-22.8161

> <Gold.PLP.part.repulsive>
0.4806

> <Gold.PLP.ligand.clash>
0.0000

> <Gold.PLP.ligand.torsion>
0.5692

> <Gold.PLP.Chemscore.Hbond>
3.9440

> <Gold.PLP.Chemscore.CHOScore>
1.0000

> <Gold.PLP.Chemscore.Metal>
0.0000

> <Gold.Chemscore.Hbonds>
donor molecule, donor type, donor heavy atom, donor atom, acceptor molecule, acceptor atom, score
      L1  H     6    39       P1  7948  2.00
      L1  H     9    33       P1  7948  1.00
      L1  H    12    34       P1  7948  0.93
      L1  C    15    35       P1 10186  1.00

> <Gold.PLP.Chemscore.Internal.Correction>
0.0230

> <Gold.Rescore>
     Score         DG    S(hbond)    S(metal)    S(lipo)     H(rot)  DE(clash)    DE(int)     intcor
     17.51     -19.32       2.87        0.00      71.33       1.60       0.09       1.72       ----

> <Gold.Chemscore.Fitness>
17.5142

> <Gold.Chemscore.DG>
-19.3195

> <Gold.Chemscore.ZeroCoef>
-5.4800

> <Gold.Chemscore.Hbond>
2.8713

> <Gold.Chemscore.Metal>
0.0000

> <Gold.Chemscore.Lipo>
71.3300

> <Gold.Chemscore.Internal_Hbond>
0.0000

> <Gold.Chemscore.DEClash>
0.0859

> <Gold.Chemscore.DEInternal>
1.7194

> <Gold.Chemscore.Rot>
1.6001

> <Gold.Chemscore.Internal.Correction>
   9.000000E+99

> <Gold.Chemscore.Hbonds>
donor molecule, donor type, donor heavy atom, donor atom, acceptor molecule, acceptor atom, score
      L1  H     6    39       P1  7948  1.00
      L1  H     9    33       P1  7948  0.98
      L1  H    12    34       P1  7948  0.82

> <Gold.Chemscore.Hbond.Weighted>
-9.5901

> <Gold.Chemscore.Metal.Weighted>
-0.0000

> <Gold.Chemscore.Lipo.Weighted>
-8.3456

> <Gold.Chemscore.Internal_Hbond.Weighted>
0.0000

> <Gold.Chemscore.DEClash.Weighted>
0.0859

> <Gold.Chemscore.DEInternal.Weighted>
1.7194

> <Gold.Chemscore.Rot.Weighted>
4.0963

> <Gold.Chemscore.Internal.Correction.Weighted>
   9.000000E+99

> <Gold.Protein.RotatedTorsions>
[ 6907 6896 6895 6894 ] final  129.42 input  -60.11 | X-H torsion
[ 7974 7965 7964 7962 ] final  -95.31 input  175.53 | X-H torsion
[ 8008 7997 7996 7995 ] final -153.85 input   59.86 | X-H torsion
[ 10167 10162 10161 10158 ] final  132.48 input  -65.29 | X-H torsion
[ 10718 10713 10712 10709 ] final -100.93 input   66.30 | X-H torsion
[ 10763 10752 10751 10750 ] final   66.24 input  -60.55 | X-H torsion
[ 11005 11000 10999 10996 ] final -100.90 input  -57.11 | X-H torsion

> <Gold.Protein.ActiveResidues>
 VAL166  LYS551  ARG553  GLY616  TRP617  ASP618  TYR619  PRO620  LYS621  CYS622 
 ASP623  PHE694  ASN695  SER759  ASP760  ASP761  ALA762  ILE779  LEU786  VAL792 
 PHE793  MET794  SER795  GLU796  ALA797  LYS798  CYS799  TRP800  GLU811  SER814 

> <Gold.Protein.RotatedAtoms>
  152.3625  133.6315  159.6025 H   0  0  0  0  0  0  0  0  0  0  0  0  # atno 6907 bound_to 6896
  150.7611  133.9400  159.3462 H   0  0  0  0  0  0  0  0  0  0  0  0  # atno 6908 bound_to 6896
  151.7236  135.0890  160.0339 H   0  0  0  0  0  0  0  0  0  0  0  0  # atno 6909 bound_to 6896
  145.3618  140.9493  143.2496 H   0  0  0  0  0  0  0  0  0  0  0  0  # atno 7974 bound_to 7965
  155.6772  140.0740  157.2498 H   0  0  0  0  0  0  0  0  0  0  0  0  # atno 8008 bound_to 7997
  154.4112  140.1688  156.1995 H   0  0  0  0  0  0  0  0  0  0  0  0  # atno 8009 bound_to 7997
  155.9566  140.3373  155.6457 H   0  0  0  0  0  0  0  0  0  0  0  0  # atno 8010 bound_to 7997
  139.5338  144.6660  151.4857 H   0  0  0  0  0  0  0  0  0  0  0  0  # atno 10167 bound_to 10162
  156.0178  130.5350  150.6889 H   0  0  0  0  0  0  0  0  0  0  0  0  # atno 10718 bound_to 10713
  153.0131  135.5328  154.6792 H   0  0  0  0  0  0  0  0  0  0  0  0  # atno 10763 bound_to 10752
  154.5956  135.2863  155.0591 H   0  0  0  0  0  0  0  0  0  0  0  0  # atno 10764 bound_to 10752
  154.1668  135.6538  153.5052 H   0  0  0  0  0  0  0  0  0  0  0  0  # atno 10765 bound_to 10752
  141.1252  133.8435  157.1162 H   0  0  0  0  0  0  0  0  0  0  0  0  # atno 11005 bound_to 11000
  144.8641  139.5134  143.6798 LP  0  0  0  0  0  0  0  0  0  0  0  0  # atno 17320 bound_to 7965
  146.2924  139.7178  142.9151 LP  0  0  0  0  0  0  0  0  0  0  0  0  # atno 17321 bound_to 7965
  140.6532  143.8653  150.6808 LP  0  0  0  0  0  0  0  0  0  0  0  0  # atno 17342 bound_to 10162
  140.2024  143.3948  152.1781 LP  0  0  0  0  0  0  0  0  0  0  0  0  # atno 17343 bound_to 10162
  157.4575  131.0879  151.0781 LP  0  0  0  0  0  0  0  0  0  0  0  0  # atno 17370 bound_to 10713
  157.1279  130.6089  149.5522 LP  0  0  0  0  0  0  0  0  0  0  0  0  # atno 17371 bound_to 10713
  140.0245  134.9930  157.0658 LP  0  0  0  0  0  0  0  0  0  0  0  0  # atno 17394 bound_to 11000
  140.4385  134.1705  155.7172 LP  0  0  0  0  0  0  0  0  0  0  0  0  # atno 17395 bound_to 11000

$$$$
