AV-unprocessed.smi:2058|AV-procd|sdf|8346|dock3
  -GOLD-   2272011 13D 1   1.00000     0.00000
 Structure written by MMmdl.
 43 44  0  0  0  0  0  0  0  0  2 V2000
  144.7770  137.1957  153.5848 C   0  0  0  0  0  0  0  0  0  0  0  0
  145.6182  137.3693  152.3111 C   0  0  2  0  0  0  0  0  0  0  0  0
  145.5150  136.1497  151.3728 C   0  0  0  0  0  0  0  0  0  0  0  0
  144.2181  136.0588  150.8228 O   0  0  0  0  0  0  0  0  0  0  0  0
  147.0089  137.6086  152.6887 N   0  0  0  0  0  0  0  0  0  0  0  0
  147.4208  138.4678  153.6317 C   0  0  0  0  0  0  0  0  0  0  0  0
  146.6567  139.1723  154.2912 O   0  0  0  0  0  0  0  0  0  0  0  0
  148.7576  138.4389  153.7669 N   0  0  0  0  0  0  0  0  0  0  0  0
  149.5721  139.2327  154.6178 C   0  0  0  0  0  0  0  0  0  0  0  0
  150.9816  139.1083  154.7011 C   0  0  0  0  0  0  0  0  0  0  0  0
  151.6983  139.9262  155.5985 C   0  0  0  0  0  0  0  0  0  0  0  0
  150.9982  140.8509  156.4065 C   0  0  0  0  0  0  0  0  0  0  0  0
  151.6259  141.7022  157.3251 N   0  0  0  0  0  0  0  0  0  0  0  0
  151.5086  141.2271  158.7010 C   0  0  0  0  0  0  0  0  0  0  0  0
  152.3758  142.0746  159.6485 C   0  0  0  0  0  0  0  0  0  0  0  0
  152.0427  143.5691  159.5113 C   0  0  0  0  0  0  0  0  0  0  0  0
  152.1548  144.0050  158.0415 C   0  0  0  0  0  0  0  0  0  0  0  0
  151.2882  143.1114  157.1376 C   0  0  0  0  0  0  0  0  0  0  0  0
  149.6539  140.9325  156.3021 N   0  3  0  0  0  0  0  0  0  0  0  0
  148.9297  140.1666  155.4575 C   0  0  0  0  0  0  0  0  0  0  0  0
  143.7206  137.0684  153.3466 H   0  0  0  0  0  0  0  0  0  0  0  0
  144.8620  138.0681  154.2334 H   0  0  0  0  0  0  0  0  0  0  0  0
  145.0961  136.3234  154.1564 H   0  0  0  0  0  0  0  0  0  0  0  0
  145.2534  138.2533  151.7839 H   0  0  0  0  0  0  0  0  0  0  0  0
  146.2166  136.2378  150.5425 H   0  0  0  0  0  0  0  0  0  0  0  0
  145.7559  135.2258  151.8997 H   0  0  0  0  0  0  0  0  0  0  0  0
  144.0382  136.8540  150.3450 H   0  0  0  0  0  0  0  0  0  0  0  0
  147.7076  137.0694  152.1987 H   0  0  0  0  0  0  0  0  0  0  0  0
  149.2444  137.7361  153.2298 H   0  0  0  0  0  0  0  0  0  0  0  0
  151.5262  138.3913  154.1062 H   0  0  0  0  0  0  0  0  0  0  0  0
  152.7727  139.8375  155.6634 H   0  0  0  0  0  0  0  0  0  0  0  0
  150.4643  141.2743  159.0135 H   0  0  0  0  0  0  0  0  0  0  0  0
  151.8127  140.1810  158.7581 H   0  0  0  0  0  0  0  0  0  0  0  0
  152.2300  141.7503  160.6793 H   0  0  0  0  0  0  0  0  0  0  0  0
  153.4302  141.9139  159.4190 H   0  0  0  0  0  0  0  0  0  0  0  0
  151.0305  143.7549  159.8730 H   0  0  0  0  0  0  0  0  0  0  0  0
  152.7115  144.1641  160.1340 H   0  0  0  0  0  0  0  0  0  0  0  0
  151.8552  145.0480  157.9347 H   0  0  0  0  0  0  0  0  0  0  0  0
  153.1961  143.9469  157.7220 H   0  0  0  0  0  0  0  0  0  0  0  0
  151.4337  143.3887  156.0927 H   0  0  0  0  0  0  0  0  0  0  0  0
  150.2340  143.2707  157.3676 H   0  0  0  0  0  0  0  0  0  0  0  0
  147.8615  140.3283  155.4779 H   0  0  0  0  0  0  0  0  0  0  0  0
  149.1612  141.6024  156.8934 H   0  0  0  0  0  0  0  0  0  0  0  0
  1  2  1  0  0  0  0
  1 21  1  0  0  0  0
  1 22  1  0  0  0  0
  1 23  1  0  0  0  0
  2  3  1  0  0  0  0
  2  5  1  0  0  0  0
  2 24  1  0  0  0  0
  3  4  1  0  0  0  0
  3 25  1  0  0  0  0
  3 26  1  0  0  0  0
  4 27  1  0  0  0  0
  5  6  1  0  0  0  0
  5 28  1  0  0  0  0
  6  7  2  0  0  0  0
  6  8  1  0  0  0  0
  8  9  1  0  0  0  0
  8 29  1  0  0  0  0
  9 20  1  0  0  0  0
  9 10  2  0  0  0  0
 10 11  1  0  0  0  0
 10 30  1  0  0  0  0
 11 12  2  0  0  0  0
 11 31  1  0  0  0  0
 12 13  1  0  0  0  0
 12 19  1  0  0  0  0
 13 18  1  0  0  0  0
 13 14  1  0  0  0  0
 14 15  1  0  0  0  0
 14 32  1  0  0  0  0
 14 33  1  0  0  0  0
 15 16  1  0  0  0  0
 15 34  1  0  0  0  0
 15 35  1  0  0  0  0
 16 17  1  0  0  0  0
 16 36  1  0  0  0  0
 16 37  1  0  0  0  0
 17 18  1  0  0  0  0
 17 38  1  0  0  0  0
 17 39  1  0  0  0  0
 18 40  1  0  0  0  0
 18 41  1  0  0  0  0
 19 20  2  0  0  0  0
 19 43  1  0  0  0  0
 20 42  1  0  0  0  0
M  CHG  1  19   1
M  END
> <s_m_source_file>
AV-unprocessed.smi

> <i_m_source_file_index>
2058

> <i_lp_mmshare_version>
43012

> <i_f3d_flags>
0

> <s_epik_input>
W09IXVtDSDJdW0NAQEhdKFtDSDNdKVtOSF1DKD1PKVtOSF1jMVtjSF1bY0hdYyhuW2NIXTEpTjJbQ0gyXVtDSDJdW0NIMl1bQ0gyXVtDSDJdMg==

> <s_epik_cmdline>
J2VwaWtfcHl0aG9uJywgJy1waCcsICc3LjAnLCAnLXRuJywgJzgnLCAnLW1hJywgJzIwMCcsICctbWV0YWxfYmluZGluZycsICctaW1hZScsICc8aW5maWxlLm1hZT4nLCAnLW9tYWUnLCAnPG91dGZpbGUubWFlPic=

> <r_lp_tautomer_probability>
0.999994

> <r_epik_Ionization_Penalty>
1.11069

> <r_epik_Ionization_Penalty_Charging>
1.11067

> <r_epik_Ionization_Penalty_Neutral>
2.03008e-05

> <r_epik_State_Penalty>
1.16863

> <r_epik_Charging_Adjusted_Penalty>
2.27929

> <i_epik_Tot_Q>
1

> <i_epik_Tot_abs_Q>
1

> <r_epik_Metal_State_Penalty>
1.25471

> <b_epik_Metal_Only>
0

> <s_lp_Force_Field>
OPLS_2005

> <r_lp_Energy>
25.869

> <b_lp_Chiralities_Consistent>
1

> <s_lp_Variant>
AV-unprocessed.smi:2058-3

> <Gold.Version>
5.8.1

> <Gold.Id.Protein>
6NUR|6NUR_protein|mol2

> <Gold.PLP.Fitness>
44.2854

> <Gold.PLP.PLP>
-36.6565

> <Gold.PLP.part.hbond>
-3.5704

> <Gold.PLP.part.metal>
0.0000

> <Gold.PLP.part.buried>
-2.6167

> <Gold.PLP.part.nonpolar>
-31.3663

> <Gold.PLP.part.repulsive>
0.2806

> <Gold.PLP.ligand.clash>
0.3120

> <Gold.PLP.ligand.torsion>
0.4618

> <Gold.PLP.Chemscore.Hbond>
2.8960

> <Gold.PLP.Chemscore.CHOScore>
0.0000

> <Gold.PLP.Chemscore.Metal>
0.0000

> <Gold.Chemscore.Hbonds>
donor molecule, donor type, donor heavy atom, donor atom, acceptor molecule, acceptor atom, score
      L1  H     4    27       P1 10171  1.00
      L1  H     5    28       P1  7948  0.99
      L1  H     8    29       P1  7948  0.88

> <Gold.PLP.Chemscore.Internal.Correction>
0.1766

> <Gold.Rescore>
     Score         DG    S(hbond)    S(metal)    S(lipo)     H(rot)  DE(clash)    DE(int)     intcor
     17.35     -20.57       2.88        0.00      92.28       2.08       0.04       3.19       ----

> <Gold.Chemscore.Fitness>
17.3528

> <Gold.Chemscore.DG>
-20.5745

> <Gold.Chemscore.ZeroCoef>
-5.4800

> <Gold.Chemscore.Hbond>
2.8785

> <Gold.Chemscore.Metal>
0.0000

> <Gold.Chemscore.Lipo>
92.2792

> <Gold.Chemscore.Internal_Hbond>
0.0000

> <Gold.Chemscore.DEClash>
0.0357

> <Gold.Chemscore.DEInternal>
3.1860

> <Gold.Chemscore.Rot>
2.0767

> <Gold.Chemscore.Internal.Correction>
   9.000000E+99

> <Gold.Chemscore.Hbonds>
donor molecule, donor type, donor heavy atom, donor atom, acceptor molecule, acceptor atom, score
      L1  H     4    27       P1 10171  1.00
      L1  H     5    28       P1  7948  0.92
      L1  H     8    29       P1  7948  0.80

> <Gold.Chemscore.Hbond.Weighted>
-9.6142

> <Gold.Chemscore.Metal.Weighted>
-0.0000

> <Gold.Chemscore.Lipo.Weighted>
-10.7967

> <Gold.Chemscore.Internal_Hbond.Weighted>
0.0000

> <Gold.Chemscore.DEClash.Weighted>
0.0357

> <Gold.Chemscore.DEInternal.Weighted>
3.1860

> <Gold.Chemscore.Rot.Weighted>
5.3164

> <Gold.Chemscore.Internal.Correction.Weighted>
   9.000000E+99

> <Gold.Protein.RotatedTorsions>
[ 6907 6896 6895 6894 ] final   81.77 input  -60.11 | X-H torsion
[ 7974 7965 7964 7962 ] final  119.86 input  175.53 | X-H torsion
[ 8008 7997 7996 7995 ] final  -18.00 input   59.86 | X-H torsion
[ 10167 10162 10161 10158 ] final  -40.56 input  -65.29 | X-H torsion
[ 10718 10713 10712 10709 ] final  112.02 input   66.30 | X-H torsion
[ 10763 10752 10751 10750 ] final   87.14 input  -60.55 | X-H torsion
[ 11005 11000 10999 10996 ] final  -45.76 input  -57.11 | X-H torsion

> <Gold.Protein.ActiveResidues>
 VAL166  LYS551  ARG553  GLY616  TRP617  ASP618  TYR619  PRO620  LYS621  CYS622 
 ASP623  PHE694  ASN695  SER759  ASP760  ASP761  ALA762  ILE779  LEU786  VAL792 
 PHE793  MET794  SER795  GLU796  ALA797  LYS798  CYS799  TRP800  GLU811  SER814 

> <Gold.Protein.RotatedAtoms>
  152.5279  134.3152  159.9128 H   0  0  0  0  0  0  0  0  0  0  0  0  # atno 6907 bound_to 6896
  151.3102  133.4077  159.2654 H   0  0  0  0  0  0  0  0  0  0  0  0  # atno 6908 bound_to 6896
  151.0045  134.9365  159.8030 H   0  0  0  0  0  0  0  0  0  0  0  0  # atno 6909 bound_to 6896
  145.1381  139.3285  143.4630 H   0  0  0  0  0  0  0  0  0  0  0  0  # atno 7974 bound_to 7965
  154.4937  140.2127  155.9493 H   0  0  0  0  0  0  0  0  0  0  0  0  # atno 8008 bound_to 7997
  156.1341  140.3191  155.8362 H   0  0  0  0  0  0  0  0  0  0  0  0  # atno 8009 bound_to 7997
  155.4242  140.0499  157.3014 H   0  0  0  0  0  0  0  0  0  0  0  0  # atno 8010 bound_to 7997
  140.7030  143.3146  151.2942 H   0  0  0  0  0  0  0  0  0  0  0  0  # atno 10167 bound_to 10162
  157.6414  131.0960  150.6834 H   0  0  0  0  0  0  0  0  0  0  0  0  # atno 10718 bound_to 10713
  153.1639  135.4554  154.9811 H   0  0  0  0  0  0  0  0  0  0  0  0  # atno 10763 bound_to 10752
  154.7918  135.3223  154.7762 H   0  0  0  0  0  0  0  0  0  0  0  0  # atno 10764 bound_to 10752
  153.8248  135.6943  153.4877 H   0  0  0  0  0  0  0  0  0  0  0  0  # atno 10765 bound_to 10752
  141.0536  133.6734  156.3058 H   0  0  0  0  0  0  0  0  0  0  0  0  # atno 11005 bound_to 11000
  146.3508  140.1407  142.8594 LP  0  0  0  0  0  0  0  0  0  0  0  0  # atno 17320 bound_to 7965
  145.0562  140.9054  143.4966 LP  0  0  0  0  0  0  0  0  0  0  0  0  # atno 17321 bound_to 7965
  139.6580  144.0241  152.2673 LP  0  0  0  0  0  0  0  0  0  0  0  0  # atno 17342 bound_to 10162
  139.9799  144.6436  150.7911 LP  0  0  0  0  0  0  0  0  0  0  0  0  # atno 17343 bound_to 10162
  156.7157  130.4665  149.5536 LP  0  0  0  0  0  0  0  0  0  0  0  0  # atno 17370 bound_to 10713
  156.1699  130.6430  151.0825 LP  0  0  0  0  0  0  0  0  0  0  0  0  # atno 17371 bound_to 10713
  140.6008  134.5557  157.5517 LP  0  0  0  0  0  0  0  0  0  0  0  0  # atno 17394 bound_to 11000
  139.9371  134.7855  156.0775 LP  0  0  0  0  0  0  0  0  0  0  0  0  # atno 17395 bound_to 11000

$$$$
