AV-unprocessed.smi:249|AV-procd|sdf|1908|dock8
  -GOLD-   2262020593D 1   1.00000     0.00000
 Structure written by MMmdl.
 64 67  0  0  0  0  0  0  0  0  2 V2000
  146.6508  128.2351  151.9102 C   0  0  0  0  0  0  0  0  0  0  0  0
  146.0179  129.6360  151.9356 C   0  0  0  0  0  0  0  0  0  0  0  0
  147.0127  130.7396  152.0705 N   0  3  2  0  0  0  0  0  0  0  0  0
  147.7837  130.6365  153.3428 C   0  0  0  0  0  0  0  0  0  0  0  0
  148.8633  131.7237  153.4595 C   0  0  0  0  0  0  0  0  0  0  0  0
  148.2561  133.1388  153.3633 C   0  0  2  0  0  0  0  0  0  0  0  0
  147.3857  133.4936  154.4969 N   0  0  0  0  0  0  0  0  0  0  0  0
  146.4309  134.5791  154.2989 C   0  0  0  0  0  0  0  0  0  0  0  0
  147.9925  133.6115  155.6989 C   0  0  0  0  0  0  0  0  0  0  0  0
  149.3448  133.7071  155.7035 N   0  0  0  0  0  0  0  0  0  0  0  0
  149.9984  133.8486  156.8606 C   0  0  0  0  0  0  0  0  0  0  0  0
  149.5007  133.9215  158.0970 N   0  0  0  0  0  0  0  0  0  0  0  0
  148.1408  133.8161  158.0931 C   0  0  0  0  0  0  0  0  0  0  0  0
  147.3132  133.6479  156.9486 C   0  0  0  0  0  0  0  0  0  0  0  0
  145.9806  133.5635  157.3326 N   0  0  0  0  0  0  0  0  0  0  0  0
  146.0165  133.6893  158.6312 C   0  0  0  0  0  0  0  0  0  0  0  0
  147.2713  133.8751  159.1676 N   0  0  0  0  0  0  0  0  0  0  0  0
  147.5970  134.0571  160.5704 C   0  0  0  0  0  0  0  0  0  0  0  0
  147.0614  135.3748  161.1989 C   0  0  2  0  0  0  0  0  0  0  0  0
  147.9048  135.7160  162.4518 C   0  0  0  0  0  0  0  0  0  0  0  0
  147.9424  137.1090  162.6852 O   0  0  0  0  0  0  0  0  0  0  0  0
  145.5373  135.3263  161.5271 C   0  0  1  0  0  0  0  0  0  0  0  0
  145.1346  134.3077  162.5838 C   0  0  0  0  0  0  0  0  0  0  0  0
  143.7590  134.8011  163.0072 C   0  0  0  0  0  0  0  0  0  0  0  0
  143.8760  136.2145  163.0042 O   0  0  0  0  0  0  0  0  0  0  0  0
  144.9436  136.6054  162.1458 C   0  0  0  0  0  0  0  0  0  0  0  0
  147.5120  133.1996  152.0170 C   0  0  0  0  0  0  0  0  0  0  0  0
  146.4249  132.1072  151.8833 C   0  0  1  0  0  0  0  0  0  0  0  0
  145.7200  132.2808  150.5219 C   0  0  0  0  0  0  0  0  0  0  0  0
  145.9044  127.4864  151.6443 H   0  0  0  0  0  0  0  0  0  0  0  0
  147.0540  127.9442  152.8797 H   0  0  0  0  0  0  0  0  0  0  0  0
  147.4521  128.1750  151.1731 H   0  0  0  0  0  0  0  0  0  0  0  0
  145.4732  129.7310  150.9991 H   0  0  0  0  0  0  0  0  0  0  0  0
  145.2777  129.7033  152.7340 H   0  0  0  0  0  0  0  0  0  0  0  0
  147.0980  130.6895  154.1895 H   0  0  0  0  0  0  0  0  0  0  0  0
  148.2853  129.6726  153.4073 H   0  0  0  0  0  0  0  0  0  0  0  0
  149.4323  131.5904  154.3799 H   0  0  0  0  0  0  0  0  0  0  0  0
  149.5880  131.5904  152.6551 H   0  0  0  0  0  0  0  0  0  0  0  0
  149.0690  133.8648  153.3316 H   0  0  0  0  0  0  0  0  0  0  0  0
  146.0261  134.9474  155.2433 H   0  0  0  0  0  0  0  0  0  0  0  0
  145.5886  134.2355  153.6987 H   0  0  0  0  0  0  0  0  0  0  0  0
  146.9017  135.4165  153.7828 H   0  0  0  0  0  0  0  0  0  0  0  0
  151.0736  133.9194  156.7851 H   0  0  0  0  0  0  0  0  0  0  0  0
  145.1207  133.6695  159.2349 H   0  0  0  0  0  0  0  0  0  0  0  0
  147.2134  133.2010  161.1266 H   0  0  0  0  0  0  0  0  0  0  0  0
  148.6832  134.0084  160.6498 H   0  0  0  0  0  0  0  0  0  0  0  0
  147.2160  136.1856  160.4855 H   0  0  0  0  0  0  0  0  0  0  0  0
  147.4857  135.2671  163.3511 H   0  0  0  0  0  0  0  0  0  0  0  0
  148.9229  135.3391  162.3490 H   0  0  0  0  0  0  0  0  0  0  0  0
  147.3925  137.3050  163.4285 H   0  0  0  0  0  0  0  0  0  0  0  0
  144.9844  135.0922  160.6158 H   0  0  0  0  0  0  0  0  0  0  0  0
  145.1031  133.2850  162.2071 H   0  0  0  0  0  0  0  0  0  0  0  0
  145.8201  134.3430  163.4320 H   0  0  0  0  0  0  0  0  0  0  0  0
  143.0044  134.5053  162.2771 H   0  0  0  0  0  0  0  0  0  0  0  0
  143.4573  134.4245  163.9847 H   0  0  0  0  0  0  0  0  0  0  0  0
  145.6814  137.1328  162.7511 H   0  0  0  0  0  0  0  0  0  0  0  0
  144.5707  137.2954  161.3903 H   0  0  0  0  0  0  0  0  0  0  0  0
  147.0787  134.1888  151.8677 H   0  0  0  0  0  0  0  0  0  0  0  0
  148.2358  133.0810  151.2090 H   0  0  0  0  0  0  0  0  0  0  0  0
  145.6814  132.2633  152.6668 H   0  0  0  0  0  0  0  0  0  0  0  0
  145.4475  133.3234  150.3549 H   0  0  0  0  0  0  0  0  0  0  0  0
  144.7905  131.7161  150.4590 H   0  0  0  0  0  0  0  0  0  0  0  0
  146.3646  131.9752  149.6971 H   0  0  0  0  0  0  0  0  0  0  0  0
  147.6787  130.6166  151.3211 H   0  0  0  0  0  0  0  0  0  0  0  0
  1  2  1  0  0  0  0
  1 30  1  0  0  0  0
  1 31  1  0  0  0  0
  1 32  1  0  0  0  0
  2  3  1  0  0  0  0
  2 33  1  0  0  0  0
  2 34  1  0  0  0  0
  3 28  1  0  0  0  0
  3  4  1  0  0  0  0
  3 64  1  0  0  0  0
  4  5  1  0  0  0  0
  4 35  1  0  0  0  0
  4 36  1  0  0  0  0
  5  6  1  0  0  0  0
  5 37  1  0  0  0  0
  5 38  1  0  0  0  0
  6  7  1  0  0  0  0
  6 27  1  0  0  0  0
  6 39  1  0  0  0  0
  7  8  1  0  0  0  0
  7  9  1  0  0  0  0
  8 40  1  0  0  0  0
  8 41  1  0  0  0  0
  8 42  1  0  0  0  0
  9 14  1  0  0  0  0
  9 10  2  0  0  0  0
 10 11  1  0  0  0  0
 11 12  2  0  0  0  0
 11 43  1  0  0  0  0
 12 13  1  0  0  0  0
 13 17  1  0  0  0  0
 13 14  2  0  0  0  0
 14 15  1  0  0  0  0
 15 16  2  0  0  0  0
 16 17  1  0  0  0  0
 16 44  1  0  0  0  0
 17 18  1  0  0  0  0
 18 19  1  0  0  0  0
 18 45  1  0  0  0  0
 18 46  1  0  0  0  0
 19 20  1  0  0  0  0
 19 22  1  0  0  0  0
 19 47  1  0  0  0  0
 20 21  1  0  0  0  0
 20 48  1  0  0  0  0
 20 49  1  0  0  0  0
 21 50  1  0  0  0  0
 22 26  1  0  0  0  0
 22 23  1  0  0  0  0
 22 51  1  0  0  0  0
 23 24  1  0  0  0  0
 23 52  1  0  0  0  0
 23 53  1  0  0  0  0
 24 25  1  0  0  0  0
 24 54  1  0  0  0  0
 24 55  1  0  0  0  0
 25 26  1  0  0  0  0
 26 56  1  0  0  0  0
 26 57  1  0  0  0  0
 27 28  1  0  0  0  0
 27 58  1  0  0  0  0
 27 59  1  0  0  0  0
 28 29  1  0  0  0  0
 28 60  1  0  0  0  0
 29 61  1  0  0  0  0
 29 62  1  0  0  0  0
 29 63  1  0  0  0  0
M  CHG  1   3   1
M  END
> <s_m_source_file>
AV-unprocessed.smi

> <i_m_source_file_index>
249

> <i_lp_mmshare_version>
43012

> <i_f3d_flags>
0

> <s_epik_input>
W0NIM11bQ0gyXU4xW0NIMl1bQ0gyXVtDQEhdKFtDSDJdW0NASF0xW0NIM10pTihbQ0gzXSljKG5bY0hdbjIpYyhjMjMpbltjSF1uM1tDSDJdW0NASF0oW0NIMl1bT0hdKVtDQEBIXTRbQ0gyXVtDSDJdT1tDSDJdNA==

> <s_epik_cmdline>
J2VwaWtfcHl0aG9uJywgJy1waCcsICc3LjAnLCAnLXRuJywgJzgnLCAnLW1hJywgJzIwMCcsICctbWV0YWxfYmluZGluZycsICctaW1hZScsICc8aW5maWxlLm1hZT4nLCAnLW9tYWUnLCAnPG91dGZpbGUubWFlPic=

> <r_lp_tautomer_probability>
1

> <r_epik_Ionization_Penalty>
0.00294688

> <r_epik_Ionization_Penalty_Charging>
0.00169971

> <r_epik_Ionization_Penalty_Neutral>
0.00124717

> <r_epik_State_Penalty>
-0

> <r_epik_Charging_Adjusted_Penalty>
0.00169971

> <i_epik_Tot_Q>
1

> <i_epik_Tot_abs_Q>
1

> <r_epik_Metal_State_Penalty>
-0

> <b_epik_Metal_Only>
0

> <s_lp_Force_Field>
OPLS_2005

> <r_lp_Energy>
57.0978

> <b_lp_Chiralities_Consistent>
1

> <s_lp_Variant>
AV-unprocessed.smi:249-11

> <Gold.Version>
5.8.1

> <Gold.Id.Protein>
6NUR|6NUR_protein|mol2

> <Gold.PLP.Fitness>
51.5314

> <Gold.PLP.PLP>
-44.5870

> <Gold.PLP.part.hbond>
-3.2458

> <Gold.PLP.part.metal>
0.0000

> <Gold.PLP.part.buried>
-6.5924

> <Gold.PLP.part.nonpolar>
-35.0967

> <Gold.PLP.part.repulsive>
0.1887

> <Gold.PLP.ligand.clash>
0.0000

> <Gold.PLP.ligand.torsion>
0.9413

> <Gold.PLP.Chemscore.Hbond>
2.7680

> <Gold.PLP.Chemscore.CHOScore>
0.0000

> <Gold.PLP.Chemscore.Metal>
0.0000

> <Gold.Chemscore.Hbonds>
donor molecule, donor type, donor heavy atom, donor atom, acceptor molecule, acceptor atom, score
      L1  H     3    64       P1 10747  1.00
      P1  H  6896  6907       L1    12  1.00
      P1  H  6931  6943       L1    21  0.86

> <Gold.PLP.Chemscore.Internal.Correction>
0.5231

> <Gold.Rescore>
     Score         DG    S(hbond)    S(metal)    S(lipo)     H(rot)  DE(clash)    DE(int)     intcor
     19.36     -20.59       2.85        0.00     111.18       2.90       0.05       1.19       ----

> <Gold.Chemscore.Fitness>
19.3588

> <Gold.Chemscore.DG>
-20.5900

> <Gold.Chemscore.ZeroCoef>
-5.4800

> <Gold.Chemscore.Hbond>
2.8524

> <Gold.Chemscore.Metal>
0.0000

> <Gold.Chemscore.Lipo>
111.1845

> <Gold.Chemscore.Internal_Hbond>
0.0000

> <Gold.Chemscore.DEClash>
0.0456

> <Gold.Chemscore.DEInternal>
1.1856

> <Gold.Chemscore.Rot>
2.9006

> <Gold.Chemscore.Internal.Correction>
   9.000000E+99

> <Gold.Chemscore.Hbonds>
donor molecule, donor type, donor heavy atom, donor atom, acceptor molecule, acceptor atom, score
      L1  H     3    64       P1 10747  1.00
      P1  H  6896  6907       L1    12  0.85
      P1  H  6931  6943       L1    21  0.84

> <Gold.Chemscore.Hbond.Weighted>
-9.5271

> <Gold.Chemscore.Metal.Weighted>
-0.0000

> <Gold.Chemscore.Lipo.Weighted>
-13.0086

> <Gold.Chemscore.Internal_Hbond.Weighted>
0.0000

> <Gold.Chemscore.DEClash.Weighted>
0.0456

> <Gold.Chemscore.DEInternal.Weighted>
1.1856

> <Gold.Chemscore.Rot.Weighted>
7.4256

> <Gold.Chemscore.Internal.Correction.Weighted>
   9.000000E+99

> <Gold.Protein.RotatedTorsions>
[ 6907 6896 6895 6894 ] final -109.91 input  -60.11 | X-H torsion
[ 7974 7965 7964 7962 ] final  113.81 input  175.53 | X-H torsion
[ 8008 7997 7996 7995 ] final  153.38 input   59.86 | X-H torsion
[ 10167 10162 10161 10158 ] final -177.64 input  -65.29 | X-H torsion
[ 10718 10713 10712 10709 ] final -121.90 input   66.30 | X-H torsion
[ 10763 10752 10751 10750 ] final  164.59 input  -60.55 | X-H torsion
[ 11005 11000 10999 10996 ] final   15.21 input  -57.11 | X-H torsion

> <Gold.Protein.ActiveResidues>
 VAL166  LYS551  ARG553  GLY616  TRP617  ASP618  TYR619  PRO620  LYS621  CYS622 
 ASP623  PHE694  ASN695  SER759  ASP760  ASP761  ALA762  ILE779  LEU786  VAL792 
 PHE793  MET794  SER795  GLU796  ALA797  LYS798  CYS799  TRP800  GLU811  SER814 

> <Gold.Protein.RotatedAtoms>
  150.7592  133.9459  159.3470 H   0  0  0  0  0  0  0  0  0  0  0  0  # atno 6907 bound_to 6896
  151.7372  135.0860  160.0319 H   0  0  0  0  0  0  0  0  0  0  0  0  # atno 6908 bound_to 6896
  152.3552  133.6191  159.6010 H   0  0  0  0  0  0  0  0  0  0  0  0  # atno 6909 bound_to 6896
  145.2123  139.2900  143.4262 H   0  0  0  0  0  0  0  0  0  0  0  0  # atno 7974 bound_to 7965
  156.2584  140.1995  156.6482 H   0  0  0  0  0  0  0  0  0  0  0  0  # atno 8008 bound_to 7997
  154.6557  140.0566  157.0031 H   0  0  0  0  0  0  0  0  0  0  0  0  # atno 8009 bound_to 7997
  155.1351  140.3237  155.4468 H   0  0  0  0  0  0  0  0  0  0  0  0  # atno 8010 bound_to 7997
  139.5470  144.2209  152.1007 H   0  0  0  0  0  0  0  0  0  0  0  0  # atno 10167 bound_to 10162
  156.1375  130.6441  150.9719 H   0  0  0  0  0  0  0  0  0  0  0  0  # atno 10718 bound_to 10713
  154.3112  135.2757  155.2565 H   0  0  0  0  0  0  0  0  0  0  0  0  # atno 10763 bound_to 10752
  154.4960  135.5821  153.6498 H   0  0  0  0  0  0  0  0  0  0  0  0  # atno 10764 bound_to 10752
  152.9888  135.6146  154.3289 H   0  0  0  0  0  0  0  0  0  0  0  0  # atno 10765 bound_to 10752
  140.4609  134.1128  155.7716 H   0  0  0  0  0  0  0  0  0  0  0  0  # atno 11005 bound_to 11000
  146.3395  140.2403  142.8595 LP  0  0  0  0  0  0  0  0  0  0  0  0  # atno 17320 bound_to 7965
  144.9844  140.8489  143.5378 LP  0  0  0  0  0  0  0  0  0  0  0  0  # atno 17321 bound_to 7965
  140.1697  144.4947  150.6586 LP  0  0  0  0  0  0  0  0  0  0  0  0  # atno 17342 bound_to 10162
  140.6721  143.2290  151.5598 LP  0  0  0  0  0  0  0  0  0  0  0  0  # atno 17343 bound_to 10162
  157.6545  131.0891  150.7977 LP  0  0  0  0  0  0  0  0  0  0  0  0  # atno 17370 bound_to 10713
  156.8055  130.4935  149.5363 LP  0  0  0  0  0  0  0  0  0  0  0  0  # atno 17371 bound_to 10713
  141.1621  133.8772  157.1817 LP  0  0  0  0  0  0  0  0  0  0  0  0  # atno 17394 bound_to 11000
  139.9946  135.0052  157.0053 LP  0  0  0  0  0  0  0  0  0  0  0  0  # atno 17395 bound_to 11000

$$$$
