AV-unprocessed.smi:227|AV-procd|sdf|1737|dock6
  -GOLD-   2262020233D 1   1.00000     0.00000
 Structure written by MMmdl.
 54 58  0  0  0  0  0  0  0  0  1 V2000
  148.2830  137.1993  162.8271 O   0  0  0  0  0  0  0  0  0  0  0  0
  147.0129  136.8764  162.2995 C   0  0  0  0  0  0  0  0  0  0  0  0
  146.9577  135.4064  161.8157 C   0  0  2  0  0  0  0  0  0  0  0  0
  147.8474  135.1504  160.5737 C   0  0  0  0  0  0  0  0  0  0  0  0
  147.8342  136.2513  159.6260 N   0  0  0  0  0  0  0  0  0  0  0  0
  146.7373  136.9845  159.2379 C   0  0  0  0  0  0  0  0  0  0  0  0
  146.9792  137.9239  158.3654 N   0  0  0  0  0  0  0  0  0  0  0  0
  148.3470  137.8330  158.1302 C   0  0  0  0  0  0  0  0  0  0  0  0
  149.2664  138.5380  157.3000 C   0  0  0  0  0  0  0  0  0  0  0  0
  148.9089  139.5596  156.4751 N   0  0  0  0  0  0  0  0  0  0  0  0
  149.5987  140.8402  156.5224 C   0  0  1  0  0  0  0  0  0  0  0  0
  150.9529  140.5678  155.8340 C   0  0  0  0  0  0  0  0  0  0  0  0
  150.5487  139.5247  154.7807 C   0  0  0  0  0  0  0  0  0  0  0  0
  149.0314  139.4130  155.0326 C   0  0  2  0  0  0  0  0  0  0  0  0
  148.3387  140.6874  154.5002 C   0  0  1  0  0  0  0  0  0  0  0  0
  146.8140  140.5367  154.3453 C   0  0  0  0  0  0  0  0  0  0  0  0
  146.5064  139.8425  153.1553 O   0  0  0  0  0  0  0  0  0  0  0  0
  148.7295  141.7032  155.5934 C   0  0  0  0  0  0  0  0  0  0  0  0
  150.5745  138.1733  157.3716 N   0  0  0  0  0  0  0  0  0  0  0  0
  150.9581  137.1750  158.1715 C   0  0  0  0  0  0  0  0  0  0  0  0
  150.2122  136.4221  158.9806 N   0  0  0  0  0  0  0  0  0  0  0  0
  148.9012  136.7928  158.9306 C   0  0  0  0  0  0  0  0  0  0  0  0
  145.5039  134.9202  161.5880 C   0  0  1  0  0  0  0  0  0  0  0  0
  145.3566  133.4252  161.3663 C   0  0  0  0  0  0  0  0  0  0  0  0
  143.8736  133.2065  161.6418 C   0  0  0  0  0  0  0  0  0  0  0  0
  143.5322  134.1469  162.6530 O   0  0  0  0  0  0  0  0  0  0  0  0
  144.5666  135.1176  162.7849 C   0  0  0  0  0  0  0  0  0  0  0  0
  148.1676  137.5525  163.6962 H   0  0  0  0  0  0  0  0  0  0  0  0
  146.2581  137.0682  163.0621 H   0  0  0  0  0  0  0  0  0  0  0  0
  146.7912  137.5623  161.4822 H   0  0  0  0  0  0  0  0  0  0  0  0
  147.3725  134.8046  162.6257 H   0  0  0  0  0  0  0  0  0  0  0  0
  148.8833  134.9869  160.8709 H   0  0  0  0  0  0  0  0  0  0  0  0
  147.5286  134.2422  160.0607 H   0  0  0  0  0  0  0  0  0  0  0  0
  145.7454  136.7960  159.6223 H   0  0  0  0  0  0  0  0  0  0  0  0
  149.6972  141.2720  157.5191 H   0  0  0  0  0  0  0  0  0  0  0  0
  151.3882  141.4665  155.3957 H   0  0  0  0  0  0  0  0  0  0  0  0
  151.6779  140.1477  156.5321 H   0  0  0  0  0  0  0  0  0  0  0  0
  150.7887  139.8323  153.7624 H   0  0  0  0  0  0  0  0  0  0  0  0
  151.0465  138.5730  154.9718 H   0  0  0  0  0  0  0  0  0  0  0  0
  148.6050  138.5044  154.6119 H   0  0  0  0  0  0  0  0  0  0  0  0
  148.7615  140.9846  153.5392 H   0  0  0  0  0  0  0  0  0  0  0  0
  146.3821  140.0052  155.1941 H   0  0  0  0  0  0  0  0  0  0  0  0
  146.3399  141.5176  154.3027 H   0  0  0  0  0  0  0  0  0  0  0  0
  145.5786  139.9216  152.9935 H   0  0  0  0  0  0  0  0  0  0  0  0
  147.8518  142.0708  156.1272 H   0  0  0  0  0  0  0  0  0  0  0  0
  149.2649  142.5664  155.1968 H   0  0  0  0  0  0  0  0  0  0  0  0
  152.0139  136.9476  158.1621 H   0  0  0  0  0  0  0  0  0  0  0  0
  145.0772  135.4349  160.7252 H   0  0  0  0  0  0  0  0  0  0  0  0
  145.6433  133.1068  160.3636 H   0  0  0  0  0  0  0  0  0  0  0  0
  145.9578  132.8698  162.0878 H   0  0  0  0  0  0  0  0  0  0  0  0
  143.2851  133.4263  160.7501 H   0  0  0  0  0  0  0  0  0  0  0  0
  143.6513  132.1852  161.9518 H   0  0  0  0  0  0  0  0  0  0  0  0
  145.0904  134.9292  163.7230 H   0  0  0  0  0  0  0  0  0  0  0  0
  144.1530  136.1254  162.8272 H   0  0  0  0  0  0  0  0  0  0  0  0
  1  2  1  0  0  0  0
  1 28  1  0  0  0  0
  2  3  1  0  0  0  0
  2 29  1  0  0  0  0
  2 30  1  0  0  0  0
  3  4  1  0  0  0  0
  3 23  1  0  0  0  0
  3 31  1  0  0  0  0
  4  5  1  0  0  0  0
  4 32  1  0  0  0  0
  4 33  1  0  0  0  0
  5 22  1  0  0  0  0
  5  6  1  0  0  0  0
  6  7  2  0  0  0  0
  6 34  1  0  0  0  0
  7  8  1  0  0  0  0
  8 22  2  0  0  0  0
  8  9  1  0  0  0  0
  9 10  1  0  0  0  0
  9 19  2  0  0  0  0
 10 14  1  0  0  0  0
 10 11  1  0  0  0  0
 11 18  1  0  0  0  0
 11 12  1  0  0  0  0
 11 35  1  0  0  0  0
 12 13  1  0  0  0  0
 12 36  1  0  0  0  0
 12 37  1  0  0  0  0
 13 14  1  0  0  0  0
 13 38  1  0  0  0  0
 13 39  1  0  0  0  0
 14 15  1  0  0  0  0
 14 40  1  0  0  0  0
 15 16  1  0  0  0  0
 15 18  1  0  0  0  0
 15 41  1  0  0  0  0
 16 17  1  0  0  0  0
 16 42  1  0  0  0  0
 16 43  1  0  0  0  0
 17 44  1  0  0  0  0
 18 45  1  0  0  0  0
 18 46  1  0  0  0  0
 19 20  1  0  0  0  0
 20 21  2  0  0  0  0
 20 47  1  0  0  0  0
 21 22  1  0  0  0  0
 23 27  1  0  0  0  0
 23 24  1  0  0  0  0
 23 48  1  0  0  0  0
 24 25  1  0  0  0  0
 24 49  1  0  0  0  0
 24 50  1  0  0  0  0
 25 26  1  0  0  0  0
 25 51  1  0  0  0  0
 25 52  1  0  0  0  0
 26 27  1  0  0  0  0
 27 53  1  0  0  0  0
 27 54  1  0  0  0  0
M  END
> <s_m_source_file>
AV-unprocessed.smi

> <i_m_source_file_index>
227

> <i_lp_mmshare_version>
43012

> <i_f3d_flags>
0

> <s_epik_input>
W0NIMl0xT1tDSDJdW0NIMl1bQ0BIXTFbQ0BIXShbQ0gyXVtPSF0pW0NIMl1uKFtjSF1uMiljKGMyMyluW2NIXW5jM04oW0NASF00NSlbQ0BASF0oW0NIMl1bQ0gyXTQpW0NASF0oW0NIMl01KVtDSDJdW09IXQ==

> <s_epik_cmdline>
J2VwaWtfcHl0aG9uJywgJy1waCcsICc3LjAnLCAnLXRuJywgJzgnLCAnLW1hJywgJzIwMCcsICctbWV0YWxfYmluZGluZycsICctaW1hZScsICc8aW5maWxlLm1hZT4nLCAnLW9tYWUnLCAnPG91dGZpbGUubWFlPic=

> <r_lp_tautomer_probability>
1

> <r_epik_Ionization_Penalty>
0.0055791

> <r_epik_Ionization_Penalty_Charging>
0

> <r_epik_Ionization_Penalty_Neutral>
0.0055791

> <r_epik_State_Penalty>
0.00401299

> <r_epik_Charging_Adjusted_Penalty>
0.00401299

> <i_epik_Tot_Q>
0

> <i_epik_Tot_abs_Q>
0

> <r_epik_Metal_State_Penalty>
-0

> <b_epik_Metal_Only>
0

> <s_lp_Force_Field>
OPLS_2005

> <r_lp_Energy>
87.9703

> <b_lp_Chiralities_Consistent>
1

> <s_lp_Variant>
AV-unprocessed.smi:227-11

> <Gold.Version>
5.8.1

> <Gold.Id.Protein>
6NUR|6NUR_protein|mol2

> <Gold.PLP.Fitness>
43.4732

> <Gold.PLP.PLP>
-36.7119

> <Gold.PLP.part.hbond>
-2.5646

> <Gold.PLP.part.metal>
0.0000

> <Gold.PLP.part.buried>
-3.9832

> <Gold.PLP.part.nonpolar>
-28.7774

> <Gold.PLP.part.repulsive>
0.0985

> <Gold.PLP.ligand.clash>
0.0000

> <Gold.PLP.ligand.torsion>
0.8951

> <Gold.PLP.Chemscore.Hbond>
2.7840

> <Gold.PLP.Chemscore.CHOScore>
0.0000

> <Gold.PLP.Chemscore.Metal>
0.0000

> <Gold.Chemscore.Hbonds>
donor molecule, donor type, donor heavy atom, donor atom, acceptor molecule, acceptor atom, score
      L1  H    17    44       P1 10175  0.98
      P1  H  6896  6908       L1    21  1.00
      P1  H  6931  6943       L1     1  0.78

> <Gold.PLP.Chemscore.Internal.Correction>
0.1995

> <Gold.Rescore>
     Score         DG    S(hbond)    S(metal)    S(lipo)     H(rot)  DE(clash)    DE(int)     intcor
     10.80     -14.30       2.36        0.00      86.99       3.61       0.09       3.41       ----

> <Gold.Chemscore.Fitness>
10.8020

> <Gold.Chemscore.DG>
-14.3048

> <Gold.Chemscore.ZeroCoef>
-5.4800

> <Gold.Chemscore.Hbond>
2.3597

> <Gold.Chemscore.Metal>
0.0000

> <Gold.Chemscore.Lipo>
86.9873

> <Gold.Chemscore.Internal_Hbond>
0.0000

> <Gold.Chemscore.DEClash>
0.0884

> <Gold.Chemscore.DEInternal>
3.4144

> <Gold.Chemscore.Rot>
3.6071

> <Gold.Chemscore.Internal.Correction>
   9.000000E+99

> <Gold.Chemscore.Hbonds>
donor molecule, donor type, donor heavy atom, donor atom, acceptor molecule, acceptor atom, score
      L1  H    17    44       P1 10175  0.91
      P1  H  6896  6908       L1    21  0.97
      P1  H  6931  6943       L1     1  0.42

> <Gold.Chemscore.Hbond.Weighted>
-7.8815

> <Gold.Chemscore.Metal.Weighted>
-0.0000

> <Gold.Chemscore.Lipo.Weighted>
-10.1775

> <Gold.Chemscore.Internal_Hbond.Weighted>
0.0000

> <Gold.Chemscore.DEClash.Weighted>
0.0884

> <Gold.Chemscore.DEInternal.Weighted>
3.4144

> <Gold.Chemscore.Rot.Weighted>
9.2342

> <Gold.Chemscore.Internal.Correction.Weighted>
   9.000000E+99

> <Gold.Protein.RotatedTorsions>
[ 6907 6896 6895 6894 ] final -165.01 input  -60.11 | X-H torsion
[ 7974 7965 7964 7962 ] final   -7.62 input  175.53 | X-H torsion
[ 8008 7997 7996 7995 ] final  177.84 input   59.86 | X-H torsion
[ 10167 10162 10161 10158 ] final -141.11 input  -65.29 | X-H torsion
[ 10718 10713 10712 10709 ] final  159.16 input   66.30 | X-H torsion
[ 10763 10752 10751 10750 ] final   -2.52 input  -60.55 | X-H torsion
[ 11005 11000 10999 10996 ] final  146.53 input  -57.11 | X-H torsion

> <Gold.Protein.ActiveResidues>
 VAL166  LYS551  ARG553  GLY616  TRP617  ASP618  TYR619  PRO620  LYS621  CYS622 
 ASP623  PHE694  ASN695  SER759  ASP760  ASP761  ALA762  ILE779  LEU786  VAL792 
 PHE793  MET794  SER795  GLU796  ALA797  LYS798  CYS799  TRP800  GLU811  SER814 

> <Gold.Protein.RotatedAtoms>
  151.4209  133.3698  159.2755 H   0  0  0  0  0  0  0  0  0  0  0  0  # atno 6907 bound_to 6896
  150.9294  134.8711  159.7552 H   0  0  0  0  0  0  0  0  0  0  0  0  # atno 6908 bound_to 6896
  152.5021  134.4152  159.9514 H   0  0  0  0  0  0  0  0  0  0  0  0  # atno 6909 bound_to 6896
  146.2302  140.2347  142.8341 H   0  0  0  0  0  0  0  0  0  0  0  0  # atno 7974 bound_to 7965
  156.0612  140.1348  156.9938 H   0  0  0  0  0  0  0  0  0  0  0  0  # atno 8008 bound_to 7997
  154.4483  140.0991  156.6591 H   0  0  0  0  0  0  0  0  0  0  0  0  # atno 8009 bound_to 7997
  155.5374  140.3460  155.4441 H   0  0  0  0  0  0  0  0  0  0  0  0  # atno 8010 bound_to 7997
  139.8216  143.7566  152.2666 H   0  0  0  0  0  0  0  0  0  0  0  0  # atno 10167 bound_to 10162
  157.1681  131.0603  151.2197 H   0  0  0  0  0  0  0  0  0  0  0  0  # atno 10718 bound_to 10713
  153.3591  135.6989  153.6727 H   0  0  0  0  0  0  0  0  0  0  0  0  # atno 10763 bound_to 10752
  153.5422  135.3570  155.2724 H   0  0  0  0  0  0  0  0  0  0  0  0  # atno 10764 bound_to 10752
  154.8665  135.4206  154.2844 H   0  0  0  0  0  0  0  0  0  0  0  0  # atno 10765 bound_to 10752
  140.0801  134.9102  157.1486 H   0  0  0  0  0  0  0  0  0  0  0  0  # atno 11005 bound_to 11000
  144.9531  140.8199  143.5560 LP  0  0  0  0  0  0  0  0  0  0  0  0  # atno 17320 bound_to 7965
  145.2309  139.2115  143.5043 LP  0  0  0  0  0  0  0  0  0  0  0  0  # atno 17321 bound_to 7965
  139.7746  144.7465  151.0175 LP  0  0  0  0  0  0  0  0  0  0  0  0  # atno 17342 bound_to 10162
  140.7813  143.4607  151.0281 LP  0  0  0  0  0  0  0  0  0  0  0  0  # atno 17343 bound_to 10162
  157.4069  130.7364  149.6809 LP  0  0  0  0  0  0  0  0  0  0  0  0  # atno 17370 bound_to 10713
  155.9743  130.4105  150.3936 LP  0  0  0  0  0  0  0  0  0  0  0  0  # atno 17371 bound_to 10713
  140.3501  134.2609  155.7200 LP  0  0  0  0  0  0  0  0  0  0  0  0  # atno 17394 bound_to 11000
  141.2043  133.7889  157.0292 LP  0  0  0  0  0  0  0  0  0  0  0  0  # atno 17395 bound_to 11000

$$$$
