AV-unprocessed.smi:212|AV-procd|sdf|1621|dock2
  -GOLD-   2262019553D 1   1.00000     0.00000
 Structure written by MMmdl.
 65 68  0  0  0  0  0  0  0  0  2 V2000
  152.1126  133.0444  156.0505 C   0  0  0  0  0  0  0  0  0  0  0  0
  150.5961  133.1279  155.7880 C   0  0  2  0  0  0  0  0  0  0  0  0
  150.2362  132.8141  154.3214 C   0  0  0  0  0  0  0  0  0  0  0  0
  148.7644  132.8273  154.1226 N   0  3  2  0  0  0  0  0  0  0  0  0
  148.3533  132.4089  152.7559 C   0  0  0  0  0  0  0  0  0  0  0  0
  146.8426  132.0911  152.6608 C   0  0  0  0  0  0  0  0  0  0  0  0
  146.0587  133.3565  152.2737 C   0  0  0  0  0  0  0  0  0  0  0  0
  146.5467  130.9558  151.6631 C   0  0  0  0  0  0  0  0  0  0  0  0
  146.3698  131.6997  153.9349 O   0  0  0  0  0  0  0  0  0  0  0  0
  148.1481  134.1087  154.5540 C   0  0  0  0  0  0  0  0  0  0  0  0
  148.5397  134.4646  156.0032 C   0  0  0  0  0  0  0  0  0  0  0  0
  149.9826  134.3879  156.2219 N   0  0  0  0  0  0  0  0  0  0  0  0
  150.6661  135.5338  155.9881 C   0  0  0  0  0  0  0  0  0  0  0  0
  150.8698  135.9629  154.7157 N   0  0  0  0  0  0  0  0  0  0  0  0
  151.5559  137.0878  154.4924 C   0  0  0  0  0  0  0  0  0  0  0  0
  152.1162  137.9126  155.3793 N   0  0  0  0  0  0  0  0  0  0  0  0
  151.9193  137.4804  156.6574 C   0  0  0  0  0  0  0  0  0  0  0  0
  151.2045  136.3133  157.0455 C   0  0  0  0  0  0  0  0  0  0  0  0
  151.1964  136.1952  158.4284 N   0  0  0  0  0  0  0  0  0  0  0  0
  151.8697  137.2362  158.8364 C   0  0  0  0  0  0  0  0  0  0  0  0
  152.3580  138.0533  157.8397 N   0  0  0  0  0  0  0  0  0  0  0  0
  153.1417  139.2689  158.0183 C   0  0  0  0  0  0  0  0  0  0  0  0
  153.4220  139.6380  159.4997 C   0  0  1  0  0  0  0  0  0  0  0  0
  154.8625  139.2375  159.8999 C   0  0  0  0  0  0  0  0  0  0  0  0
  155.8316  139.8768  159.0956 O   0  0  0  0  0  0  0  0  0  0  0  0
  153.1070  141.1308  159.7962 C   0  0  2  0  0  0  0  0  0  0  0  0
  153.2022  141.5529  161.2525 C   0  0  0  0  0  0  0  0  0  0  0  0
  152.4133  142.8582  161.2712 C   0  0  0  0  0  0  0  0  0  0  0  0
  151.4251  142.7267  160.2557 O   0  0  0  0  0  0  0  0  0  0  0  0
  151.6570  141.5380  159.5081 C   0  0  0  0  0  0  0  0  0  0  0  0
  152.4926  132.0510  155.8112 H   0  0  0  0  0  0  0  0  0  0  0  0
  152.3418  133.2358  157.0993 H   0  0  0  0  0  0  0  0  0  0  0  0
  152.6717  133.7604  155.4470 H   0  0  0  0  0  0  0  0  0  0  0  0
  150.1374  132.3535  156.4046 H   0  0  0  0  0  0  0  0  0  0  0  0
  150.7044  133.5312  153.6454 H   0  0  0  0  0  0  0  0  0  0  0  0
  150.6242  131.8293  154.0575 H   0  0  0  0  0  0  0  0  0  0  0  0
  148.6313  133.1732  152.0279 H   0  0  0  0  0  0  0  0  0  0  0  0
  148.9090  131.5170  152.4609 H   0  0  0  0  0  0  0  0  0  0  0  0
  146.3620  133.7244  151.2929 H   0  0  0  0  0  0  0  0  0  0  0  0
  146.2217  134.1620  152.9912 H   0  0  0  0  0  0  0  0  0  0  0  0
  144.9856  133.1653  152.2338 H   0  0  0  0  0  0  0  0  0  0  0  0
  146.9054  131.2075  150.6643 H   0  0  0  0  0  0  0  0  0  0  0  0
  145.4758  130.7638  151.5875 H   0  0  0  0  0  0  0  0  0  0  0  0
  147.0225  130.0199  151.9579 H   0  0  0  0  0  0  0  0  0  0  0  0
  145.4561  131.4673  153.8600 H   0  0  0  0  0  0  0  0  0  0  0  0
  148.4546  134.9022  153.8720 H   0  0  0  0  0  0  0  0  0  0  0  0
  147.0627  134.0431  154.4798 H   0  0  0  0  0  0  0  0  0  0  0  0
  148.1681  135.4575  156.2614 H   0  0  0  0  0  0  0  0  0  0  0  0
  148.0587  133.7695  156.6921 H   0  0  0  0  0  0  0  0  0  0  0  0
  151.6752  137.3665  153.4558 H   0  0  0  0  0  0  0  0  0  0  0  0
  152.0339  137.4335  159.8856 H   0  0  0  0  0  0  0  0  0  0  0  0
  154.0721  139.1688  157.4591 H   0  0  0  0  0  0  0  0  0  0  0  0
  152.6003  140.0851  157.5380 H   0  0  0  0  0  0  0  0  0  0  0  0
  152.7396  139.0300  160.0959 H   0  0  0  0  0  0  0  0  0  0  0  0
  155.0669  139.5373  160.9279 H   0  0  0  0  0  0  0  0  0  0  0  0
  154.9988  138.1568  159.8479 H   0  0  0  0  0  0  0  0  0  0  0  0
  156.6811  139.7508  159.4902 H   0  0  0  0  0  0  0  0  0  0  0  0
  153.7768  141.7704  159.2199 H   0  0  0  0  0  0  0  0  0  0  0  0
  152.7164  140.8168  161.8949 H   0  0  0  0  0  0  0  0  0  0  0  0
  154.2280  141.6852  161.5972 H   0  0  0  0  0  0  0  0  0  0  0  0
  151.9633  143.0576  162.2441 H   0  0  0  0  0  0  0  0  0  0  0  0
  153.0606  143.6987  161.0177 H   0  0  0  0  0  0  0  0  0  0  0  0
  151.4561  141.7016  158.4505 H   0  0  0  0  0  0  0  0  0  0  0  0
  150.9652  140.7722  159.8621 H   0  0  0  0  0  0  0  0  0  0  0  0
  148.4012  132.1190  154.7443 H   0  0  0  0  0  0  0  0  0  0  0  0
  1  2  1  0  0  0  0
  1 31  1  0  0  0  0
  1 32  1  0  0  0  0
  1 33  1  0  0  0  0
  2 12  1  0  0  0  0
  2  3  1  0  0  0  0
  2 34  1  0  0  0  0
  3  4  1  0  0  0  0
  3 35  1  0  0  0  0
  3 36  1  0  0  0  0
  4  5  1  0  0  0  0
  4 10  1  0  0  0  0
  4 65  1  0  0  0  0
  5  6  1  0  0  0  0
  5 37  1  0  0  0  0
  5 38  1  0  0  0  0
  6  7  1  0  0  0  0
  6  8  1  0  0  0  0
  6  9  1  0  0  0  0
  7 39  1  0  0  0  0
  7 40  1  0  0  0  0
  7 41  1  0  0  0  0
  8 42  1  0  0  0  0
  8 43  1  0  0  0  0
  8 44  1  0  0  0  0
  9 45  1  0  0  0  0
 10 11  1  0  0  0  0
 10 46  1  0  0  0  0
 10 47  1  0  0  0  0
 11 12  1  0  0  0  0
 11 48  1  0  0  0  0
 11 49  1  0  0  0  0
 12 13  1  0  0  0  0
 13 18  1  0  0  0  0
 13 14  2  0  0  0  0
 14 15  1  0  0  0  0
 15 16  2  0  0  0  0
 15 50  1  0  0  0  0
 16 17  1  0  0  0  0
 17 21  1  0  0  0  0
 17 18  2  0  0  0  0
 18 19  1  0  0  0  0
 19 20  2  0  0  0  0
 20 21  1  0  0  0  0
 20 51  1  0  0  0  0
 21 22  1  0  0  0  0
 22 23  1  0  0  0  0
 22 52  1  0  0  0  0
 22 53  1  0  0  0  0
 23 24  1  0  0  0  0
 23 26  1  0  0  0  0
 23 54  1  0  0  0  0
 24 25  1  0  0  0  0
 24 55  1  0  0  0  0
 24 56  1  0  0  0  0
 25 57  1  0  0  0  0
 26 30  1  0  0  0  0
 26 27  1  0  0  0  0
 26 58  1  0  0  0  0
 27 28  1  0  0  0  0
 27 59  1  0  0  0  0
 27 60  1  0  0  0  0
 28 29  1  0  0  0  0
 28 61  1  0  0  0  0
 28 62  1  0  0  0  0
 29 30  1  0  0  0  0
 30 63  1  0  0  0  0
 30 64  1  0  0  0  0
M  CHG  1   4   1
M  END
> <s_m_source_file>
AV-unprocessed.smi

> <i_m_source_file_index>
212

> <i_lp_mmshare_version>
43012

> <i_f3d_flags>
0

> <s_epik_input>
W0NIM11bQ0BASF0xW0NIMl1OKFtDSDJdQyhbQ0gzXSkoW0NIM10pW09IXSlbQ0gyXVtDSDJdTjFjKG5bY0hdbjIpYyhjMjMpbltjSF1uM1tDSDJdW0NASF0oW0NIMl1bT0hdKVtDQEBIXTRbQ0gyXVtDSDJdT1tDSDJdNA==

> <s_epik_cmdline>
J2VwaWtfcHl0aG9uJywgJy1waCcsICc3LjAnLCAnLXRuJywgJzgnLCAnLW1hJywgJzIwMCcsICctbWV0YWxfYmluZGluZycsICctaW1hZScsICc8aW5maWxlLm1hZT4nLCAnLW9tYWUnLCAnPG91dGZpbGUubWFlPic=

> <r_lp_tautomer_probability>
1

> <r_epik_Ionization_Penalty>
0.00182193

> <r_epik_Ionization_Penalty_Charging>
0.00173996

> <r_epik_Ionization_Penalty_Neutral>
8.19718e-05

> <r_epik_State_Penalty>
-0

> <r_epik_Charging_Adjusted_Penalty>
0.00173996

> <i_epik_Tot_Q>
1

> <i_epik_Tot_abs_Q>
1

> <r_epik_Metal_State_Penalty>
-0

> <b_epik_Metal_Only>
0

> <s_lp_Force_Field>
OPLS_2005

> <r_lp_Energy>
60.0398

> <b_lp_Chiralities_Consistent>
1

> <s_lp_Variant>
AV-unprocessed.smi:212-5

> <Gold.Version>
5.8.1

> <Gold.Id.Protein>
6NUR|6NUR_protein|mol2

> <Gold.PLP.Fitness>
49.7327

> <Gold.PLP.PLP>
-40.2684

> <Gold.PLP.part.hbond>
-3.0215

> <Gold.PLP.part.metal>
0.0000

> <Gold.PLP.part.buried>
-6.2928

> <Gold.PLP.part.nonpolar>
-32.3674

> <Gold.PLP.part.repulsive>
0.2347

> <Gold.PLP.ligand.clash>
0.0000

> <Gold.PLP.ligand.torsion>
1.5584

> <Gold.PLP.Chemscore.Hbond>
2.8050

> <Gold.PLP.Chemscore.CHOScore>
1.0000

> <Gold.PLP.Chemscore.Metal>
0.0000

> <Gold.Chemscore.Hbonds>
donor molecule, donor type, donor heavy atom, donor atom, acceptor molecule, acceptor atom, score
      P1  H  6896  6908       L1    19  0.58
      P1  H  7997  8010       L1    25  1.00
      L1  C    15    50       P1  7949  0.94

> <Gold.PLP.Chemscore.Internal.Correction>
1.1661

> <Gold.Rescore>
     Score         DG    S(hbond)    S(metal)    S(lipo)     H(rot)  DE(clash)    DE(int)     intcor
     14.67     -16.22       2.73        0.00      94.37       3.68       0.03       1.52       ----

> <Gold.Chemscore.Fitness>
14.6652

> <Gold.Chemscore.DG>
-16.2204

> <Gold.Chemscore.ZeroCoef>
-5.4800

> <Gold.Chemscore.Hbond>
2.7313

> <Gold.Chemscore.Metal>
0.0000

> <Gold.Chemscore.Lipo>
94.3744

> <Gold.Chemscore.Internal_Hbond>
0.0000

> <Gold.Chemscore.DEClash>
0.0308

> <Gold.Chemscore.DEInternal>
1.5244

> <Gold.Chemscore.Rot>
3.6812

> <Gold.Chemscore.Internal.Correction>
   9.000000E+99

> <Gold.Chemscore.Hbonds>
donor molecule, donor type, donor heavy atom, donor atom, acceptor molecule, acceptor atom, score
      P1  H  6896  6908       L1    19  0.46
      P1  H  7997  8010       L1    25  0.97

> <Gold.Chemscore.Hbond.Weighted>
-9.1225

> <Gold.Chemscore.Metal.Weighted>
-0.0000

> <Gold.Chemscore.Lipo.Weighted>
-11.0418

> <Gold.Chemscore.Internal_Hbond.Weighted>
0.0000

> <Gold.Chemscore.DEClash.Weighted>
0.0308

> <Gold.Chemscore.DEInternal.Weighted>
1.5244

> <Gold.Chemscore.Rot.Weighted>
9.4239

> <Gold.Chemscore.Internal.Correction.Weighted>
   9.000000E+99

> <Gold.Protein.RotatedTorsions>
[ 6907 6896 6895 6894 ] final -158.48 input  -60.11 | X-H torsion
[ 7974 7965 7964 7962 ] final  -48.90 input  175.53 | X-H torsion
[ 8008 7997 7996 7995 ] final  -27.56 input   59.86 | X-H torsion
[ 10167 10162 10161 10158 ] final   82.46 input  -65.29 | X-H torsion
[ 10718 10713 10712 10709 ] final  -46.50 input   66.30 | X-H torsion
[ 10763 10752 10751 10750 ] final  144.19 input  -60.55 | X-H torsion
[ 11005 11000 10999 10996 ] final  132.79 input  -57.11 | X-H torsion

> <Gold.Protein.ActiveResidues>
 VAL166  LYS551  ARG553  GLY616  TRP617  ASP618  TYR619  PRO620  LYS621  CYS622 
 ASP623  PHE694  ASN695  SER759  ASP760  ASP761  ALA762  ILE779  LEU786  VAL792 
 PHE793  MET794  SER795  GLU796  ALA797  LYS798  CYS799  TRP800  GLU811  SER814 

> <Gold.Protein.RotatedAtoms>
  151.3188  133.4049  159.2652 H   0  0  0  0  0  0  0  0  0  0  0  0  # atno 6907 bound_to 6896
  151.0052  134.9354  159.7986 H   0  0  0  0  0  0  0  0  0  0  0  0  # atno 6908 bound_to 6896
  152.5286  134.3153  159.9181 H   0  0  0  0  0  0  0  0  0  0  0  0  # atno 6909 bound_to 6896
  145.9463  140.7615  142.9527 H   0  0  0  0  0  0  0  0  0  0  0  0  # atno 7974 bound_to 7965
  154.4372  140.1869  156.0951 H   0  0  0  0  0  0  0  0  0  0  0  0  # atno 8008 bound_to 7997
  156.0336  140.3328  155.7140 H   0  0  0  0  0  0  0  0  0  0  0  0  # atno 8009 bound_to 7997
  155.5804  140.0621  157.2775 H   0  0  0  0  0  0  0  0  0  0  0  0  # atno 8010 bound_to 7997
  139.9286  144.6167  150.8368 H   0  0  0  0  0  0  0  0  0  0  0  0  # atno 10167 bound_to 10162
  156.2177  130.4164  149.9033 H   0  0  0  0  0  0  0  0  0  0  0  0  # atno 10718 bound_to 10713
  153.9847  135.2938  155.3417 H   0  0  0  0  0  0  0  0  0  0  0  0  # atno 10763 bound_to 10752
  154.7249  135.5093  153.8873 H   0  0  0  0  0  0  0  0  0  0  0  0  # atno 10764 bound_to 10752
  153.0837  135.6687  154.0107 H   0  0  0  0  0  0  0  0  0  0  0  0  # atno 10765 bound_to 10752
  139.9812  134.9547  156.9633 H   0  0  0  0  0  0  0  0  0  0  0  0  # atno 11005 bound_to 11000
  144.6788  140.2362  143.7349 LP  0  0  0  0  0  0  0  0  0  0  0  0  # atno 17320 bound_to 7965
  145.8232  139.2053  143.1926 LP  0  0  0  0  0  0  0  0  0  0  0  0  # atno 17321 bound_to 7965
  140.7643  143.3246  151.2544 LP  0  0  0  0  0  0  0  0  0  0  0  0  # atno 17342 bound_to 10162
  139.6801  143.9869  152.2803 LP  0  0  0  0  0  0  0  0  0  0  0  0  # atno 17343 bound_to 10162
  156.6690  130.8812  151.3559 LP  0  0  0  0  0  0  0  0  0  0  0  0  # atno 17370 bound_to 10713
  157.7071  130.9398  150.0968 LP  0  0  0  0  0  0  0  0  0  0  0  0  # atno 17371 bound_to 10713
  140.5093  134.1018  155.7267 LP  0  0  0  0  0  0  0  0  0  0  0  0  # atno 17394 bound_to 11000
  141.1483  133.9014  157.2160 LP  0  0  0  0  0  0  0  0  0  0  0  0  # atno 17395 bound_to 11000

$$$$
