AV-unprocessed.smi:1362|AV-procd|sdf|5563|dock2
  -GOLD-   22720 5153D 1   1.00000     0.00000
 Structure written by MMmdl.
 38 38  0  0  0  0  0  0  0  0  2 V2000
  150.5727  134.8952  154.7693 C   0  0  0  0  0  0  0  0  0  0  0  0
  150.5204  136.3658  155.1243 C   0  0  0  0  0  0  0  0  0  0  0  0
  149.5294  136.8112  155.7981 N   0  0  0  0  0  0  0  0  0  0  0  0
  149.4760  138.1759  156.1292 C   0  0  0  0  0  0  0  0  0  0  0  0
  148.2615  138.6189  156.9271 C   0  0  0  0  0  0  0  0  0  0  0  0
  150.4648  139.0341  155.7467 C   0  0  0  0  0  0  0  0  0  0  0  0
  150.4491  140.5260  156.0788 C   0  0  0  0  0  0  0  0  0  0  0  0
  151.5845  141.0248  156.9760 C   0  0  0  0  0  0  0  0  0  0  0  0
  152.5426  140.2968  157.2369 O   0  0  0  0  0  0  0  0  0  0  0  0
  151.4582  142.2754  157.4460 N   0  0  0  0  0  0  0  0  0  0  0  0
  152.3944  142.9475  158.3460 C   0  0  1  0  0  0  0  0  0  0  0  0
  152.1537  144.4675  158.2711 C   0  0  0  0  0  0  0  0  0  0  0  0
  152.2582  142.3730  159.7811 C   0  0  0  0  0  0  0  0  0  0  0  0
  152.5504  143.4259  160.8656 C   0  0  0  0  0  0  0  0  0  0  0  0
  153.1601  141.1429  160.0061 C   0  0  0  0  0  0  0  0  0  0  0  0
  151.5924  138.4795  154.9764 C   0  0  0  0  0  0  0  0  0  0  0  0
  152.5183  139.2067  154.6187 O   0  0  0  0  0  0  0  0  0  0  0  0
  151.5657  137.1474  154.6862 N   0  5  0  0  0  0  0  0  0  0  0  0
  149.8375  134.3274  155.3412 H   0  0  0  0  0  0  0  0  0  0  0  0
  151.5601  134.4852  154.9842 H   0  0  0  0  0  0  0  0  0  0  0  0
  150.3640  134.7576  153.7081 H   0  0  0  0  0  0  0  0  0  0  0  0
  147.6679  139.3323  156.3554 H   0  0  0  0  0  0  0  0  0  0  0  0
  148.5656  139.0893  157.8624 H   0  0  0  0  0  0  0  0  0  0  0  0
  147.6210  137.7711  157.1732 H   0  0  0  0  0  0  0  0  0  0  0  0
  150.4455  141.1267  155.1691 H   0  0  0  0  0  0  0  0  0  0  0  0
  149.4987  140.7538  156.5625 H   0  0  0  0  0  0  0  0  0  0  0  0
  150.6370  142.7967  157.1757 H   0  0  0  0  0  0  0  0  0  0  0  0
  153.4113  142.7470  158.0026 H   0  0  0  0  0  0  0  0  0  0  0  0
  152.9046  145.0241  158.8310 H   0  0  0  0  0  0  0  0  0  0  0  0
  151.1728  144.7345  158.6655 H   0  0  0  0  0  0  0  0  0  0  0  0
  152.2041  144.8238  157.2418 H   0  0  0  0  0  0  0  0  0  0  0  0
  151.2265  142.0448  159.9167 H   0  0  0  0  0  0  0  0  0  0  0  0
  153.5483  143.8497  160.7479 H   0  0  0  0  0  0  0  0  0  0  0  0
  152.4931  142.9879  161.8625 H   0  0  0  0  0  0  0  0  0  0  0  0
  151.8323  144.2449  160.8416 H   0  0  0  0  0  0  0  0  0  0  0  0
  154.2100  141.3895  159.8454 H   0  0  0  0  0  0  0  0  0  0  0  0
  152.9060  140.3206  159.3370 H   0  0  0  0  0  0  0  0  0  0  0  0
  153.0606  140.7646  161.0238 H   0  0  0  0  0  0  0  0  0  0  0  0
  1  2  1  0  0  0  0
  1 19  1  0  0  0  0
  1 20  1  0  0  0  0
  1 21  1  0  0  0  0
  2 18  1  0  0  0  0
  2  3  2  0  0  0  0
  3  4  1  0  0  0  0
  4  5  1  0  0  0  0
  4  6  2  0  0  0  0
  5 22  1  0  0  0  0
  5 23  1  0  0  0  0
  5 24  1  0  0  0  0
  6  7  1  0  0  0  0
  6 16  1  0  0  0  0
  7  8  1  0  0  0  0
  7 25  1  0  0  0  0
  7 26  1  0  0  0  0
  8  9  2  0  0  0  0
  8 10  1  0  0  0  0
 10 11  1  0  0  0  0
 10 27  1  0  0  0  0
 11 12  1  0  0  0  0
 11 13  1  0  0  0  0
 11 28  1  0  0  0  0
 12 29  1  0  0  0  0
 12 30  1  0  0  0  0
 12 31  1  0  0  0  0
 13 14  1  0  0  0  0
 13 15  1  0  0  0  0
 13 32  1  0  0  0  0
 14 33  1  0  0  0  0
 14 34  1  0  0  0  0
 14 35  1  0  0  0  0
 15 36  1  0  0  0  0
 15 37  1  0  0  0  0
 15 38  1  0  0  0  0
 16 17  2  0  0  0  0
 16 18  1  0  0  0  0
M  CHG  1  18  -1
M  END
> <s_m_source_file>
AV-unprocessed.smi

> <i_m_source_file_index>
1362

> <i_lp_mmshare_version>
43012

> <i_f3d_flags>
0

> <s_epik_input>
W0NIM11jMW5jKFtDSDNdKWMoYyg9TylbbkhdMSlbQ0gyXUMoPU8pW05IXVtDQEhdKFtDSDNdKVtDSF0oW0NIM10pW0NIM10=

> <s_epik_cmdline>
J2VwaWtfcHl0aG9uJywgJy1waCcsICc3LjAnLCAnLXRuJywgJzgnLCAnLW1hJywgJzIwMCcsICctbWV0YWxfYmluZGluZycsICctaW1hZScsICc8aW5maWxlLm1hZT4nLCAnLW9tYWUnLCAnPG91dGZpbGUubWFlPic=

> <r_lp_tautomer_probability>
0.839158

> <r_epik_Ionization_Penalty>
6.62204

> <r_epik_Ionization_Penalty_Charging>
7.30593e-08

> <r_epik_Ionization_Penalty_Neutral>
6.62204

> <r_epik_State_Penalty>
4.44062

> <r_epik_Charging_Adjusted_Penalty>
4.44062

> <i_epik_Tot_Q>
-1

> <i_epik_Tot_abs_Q>
1

> <r_epik_Metal_State_Penalty>
0.802984

> <b_epik_Metal_Only>
1

> <s_lp_Force_Field>
OPLS_2005

> <r_lp_Energy>
10.9313

> <b_lp_Chiralities_Consistent>
1

> <s_lp_Variant>
AV-unprocessed.smi:1362-6

> <Gold.Version>
5.8.1

> <Gold.Id.Protein>
6NUR|6NUR_protein|mol2

> <Gold.PLP.Fitness>
39.2049

> <Gold.PLP.PLP>
-31.6116

> <Gold.PLP.part.hbond>
-3.0000

> <Gold.PLP.part.metal>
0.0000

> <Gold.PLP.part.buried>
-3.5510

> <Gold.PLP.part.nonpolar>
-24.6778

> <Gold.PLP.part.repulsive>
0.2892

> <Gold.PLP.ligand.clash>
0.0000

> <Gold.PLP.ligand.torsion>
1.1027

> <Gold.PLP.Chemscore.Hbond>
3.2511

> <Gold.PLP.Chemscore.CHOScore>
0.0000

> <Gold.PLP.Chemscore.Metal>
0.0000

> <Gold.Chemscore.Hbonds>
donor molecule, donor type, donor heavy atom, donor atom, acceptor molecule, acceptor atom, score
      P1  H  7989  7998       L1    17  0.44
      P1  H  7997  8009       L1     9  0.99
      P1  H 10752 10765       L1    18  1.73

> <Gold.PLP.Chemscore.Internal.Correction>
0.0453

> <Gold.Rescore>
     Score         DG    S(hbond)    S(metal)    S(lipo)     H(rot)  DE(clash)    DE(int)     intcor
     13.35     -16.06       1.82        0.00      74.43       1.64       0.06       2.64       ----

> <Gold.Chemscore.Fitness>
13.3541

> <Gold.Chemscore.DG>
-16.0606

> <Gold.Chemscore.ZeroCoef>
-5.4800

> <Gold.Chemscore.Hbond>
1.8203

> <Gold.Chemscore.Metal>
0.0000

> <Gold.Chemscore.Lipo>
74.4256

> <Gold.Chemscore.Internal_Hbond>
0.0000

> <Gold.Chemscore.DEClash>
0.0643

> <Gold.Chemscore.DEInternal>
2.6422

> <Gold.Chemscore.Rot>
1.6433

> <Gold.Chemscore.Internal.Correction>
   9.000000E+99

> <Gold.Chemscore.Hbonds>
donor molecule, donor type, donor heavy atom, donor atom, acceptor molecule, acceptor atom, score
      P1  H  7989  7998       L1    17  0.29
      P1  H  7997  8009       L1     9  0.93
      P1  H 10752 10765       L1    18  0.16

> <Gold.Chemscore.Hbond.Weighted>
-6.0797

> <Gold.Chemscore.Metal.Weighted>
-0.0000

> <Gold.Chemscore.Lipo.Weighted>
-8.7078

> <Gold.Chemscore.Internal_Hbond.Weighted>
0.0000

> <Gold.Chemscore.DEClash.Weighted>
0.0643

> <Gold.Chemscore.DEInternal.Weighted>
2.6422

> <Gold.Chemscore.Rot.Weighted>
4.2069

> <Gold.Chemscore.Internal.Correction.Weighted>
   9.000000E+99

> <Gold.Protein.RotatedTorsions>
[ 6907 6896 6895 6894 ] final    5.26 input  -60.11 | X-H torsion
[ 7974 7965 7964 7962 ] final -168.57 input  175.53 | X-H torsion
[ 8008 7997 7996 7995 ] final  179.76 input   59.86 | X-H torsion
[ 10167 10162 10161 10158 ] final   57.42 input  -65.29 | X-H torsion
[ 10718 10713 10712 10709 ] final  176.72 input   66.30 | X-H torsion
[ 10763 10752 10751 10750 ] final  169.33 input  -60.55 | X-H torsion
[ 11005 11000 10999 10996 ] final  -18.67 input  -57.11 | X-H torsion

> <Gold.Protein.ActiveResidues>
 VAL166  LYS551  ARG553  GLY616  TRP617  ASP618  TYR619  PRO620  LYS621  CYS622 
 ASP623  PHE694  ASN695  SER759  ASP760  ASP761  ALA762  ILE779  LEU786  VAL792 
 PHE793  MET794  SER795  GLU796  ALA797  LYS798  CYS799  TRP800  GLU811  SER814 

> <Gold.Protein.RotatedAtoms>
  151.6547  135.0997  160.0167 H   0  0  0  0  0  0  0  0  0  0  0  0  # atno 6907 bound_to 6896
  152.3981  133.6772  159.6301 H   0  0  0  0  0  0  0  0  0  0  0  0  # atno 6908 bound_to 6896
  150.7885  133.8756  159.3312 H   0  0  0  0  0  0  0  0  0  0  0  0  # atno 6909 bound_to 6896
  144.7201  140.2350  143.6299 H   0  0  0  0  0  0  0  0  0  0  0  0  # atno 7974 bound_to 7965
  156.0397  140.1300  157.0169 H   0  0  0  0  0  0  0  0  0  0  0  0  # atno 8008 bound_to 7997
  154.4385  140.1033  156.6289 H   0  0  0  0  0  0  0  0  0  0  0  0  # atno 8009 bound_to 7997
  155.5685  140.3466  155.4511 H   0  0  0  0  0  0  0  0  0  0  0  0  # atno 8010 bound_to 7997
  140.1981  144.4016  150.6541 H   0  0  0  0  0  0  0  0  0  0  0  0  # atno 10167 bound_to 10162
  156.9160  130.9925  151.3013 H   0  0  0  0  0  0  0  0  0  0  0  0  # atno 10718 bound_to 10713
  154.3816  135.2753  155.2208 H   0  0  0  0  0  0  0  0  0  0  0  0  # atno 10763 bound_to 10752
  154.4312  135.5977  153.6074 H   0  0  0  0  0  0  0  0  0  0  0  0  # atno 10764 bound_to 10752
  152.9834  135.5996  154.4059 H   0  0  0  0  0  0  0  0  0  0  0  0  # atno 10765 bound_to 10752
  140.8291  133.8010  155.9740 H   0  0  0  0  0  0  0  0  0  0  0  0  # atno 11005 bound_to 11000
  145.8374  139.2114  143.1847 LP  0  0  0  0  0  0  0  0  0  0  0  0  # atno 17320 bound_to 7965
  146.0377  140.8196  142.9844 LP  0  0  0  0  0  0  0  0  0  0  0  0  # atno 17321 bound_to 7965
  140.6409  143.2203  151.6292 LP  0  0  0  0  0  0  0  0  0  0  0  0  # atno 17342 bound_to 10162
  139.5228  144.3152  152.0958 LP  0  0  0  0  0  0  0  0  0  0  0  0  # atno 17343 bound_to 10162
  157.5938  130.8462  149.8698 LP  0  0  0  0  0  0  0  0  0  0  0  0  # atno 17370 bound_to 10713
  156.0513  130.3717  150.1194 LP  0  0  0  0  0  0  0  0  0  0  0  0  # atno 17371 bound_to 10713
  140.9017  134.2370  157.5038 LP  0  0  0  0  0  0  0  0  0  0  0  0  # atno 17394 bound_to 11000
  139.8705  134.9709  156.4719 LP  0  0  0  0  0  0  0  0  0  0  0  0  # atno 17395 bound_to 11000

$$$$
