AV-unprocessed.smi:101|AV-procd|sdf|935|dock4
  -GOLD-   2262017453D 1   1.00000     0.00000
 Structure written by MMmdl.
 43 45  0  0  0  0  0  0  0  0  2 V2000
  148.1480  136.1446  157.6685 C   0  0  0  0  0  0  0  0  0  0  0  0
  149.2879  136.5796  156.7639 C   0  0  0  0  0  0  0  0  0  0  0  0
  149.2234  137.6983  156.0086 C   0  0  0  0  0  0  0  0  0  0  0  0
  150.2597  138.0930  155.1761 N   0  0  0  0  0  0  0  0  0  0  0  0
  150.1741  139.3779  154.3614 C   0  0  2  0  0  0  0  0  0  0  0  0
  151.1288  140.2936  154.8274 O   0  0  0  0  0  0  0  0  0  0  0  0
  150.5255  141.2782  155.6614 C   0  0  2  0  0  0  0  0  0  0  0  0
  150.4979  140.7995  157.1276 C   0  0  0  0  0  0  0  0  0  0  0  0
  151.2697  141.6714  157.9377 O   0  0  0  0  0  0  0  0  0  0  0  0
  152.3250  141.1963  158.6264 C   0  0  0  0  0  0  0  0  0  0  0  0
  153.0113  140.2425  158.2535 O   0  0  0  0  0  0  0  0  0  0  0  0
  152.5783  141.9508  159.8878 C   0  0  0  0  0  0  0  0  0  0  0  0
  153.4278  141.3930  160.8717 C   0  0  0  0  0  0  0  0  0  0  0  0
  153.6840  142.0828  162.0727 C   0  0  0  0  0  0  0  0  0  0  0  0
  153.0935  143.3386  162.3050 C   0  0  0  0  0  0  0  0  0  0  0  0
  152.2455  143.9036  161.3346 C   0  0  0  0  0  0  0  0  0  0  0  0
  151.9883  143.2156  160.1328 C   0  0  0  0  0  0  0  0  0  0  0  0
  149.1614  141.4759  154.9948 C   0  0  2  0  0  0  0  0  0  0  0  0
  148.1816  141.9903  155.8764 O   0  0  0  0  0  0  0  0  0  0  0  0
  148.7984  140.0814  154.4961 C   0  0  1  0  0  0  0  0  0  0  0  0
  148.1409  140.1898  153.2486 O   0  0  0  0  0  0  0  0  0  0  0  0
  151.4840  137.3701  155.2170 C   0  0  0  0  0  0  0  0  0  0  0  0
  152.4437  137.8145  154.5883 O   0  0  0  0  0  0  0  0  0  0  0  0
  151.5516  136.2267  155.9567 N   0  5  0  0  0  0  0  0  0  0  0  0
  150.5117  135.7733  156.7123 C   0  0  0  0  0  0  0  0  0  0  0  0
  150.5744  134.7230  157.3504 O   0  0  0  0  0  0  0  0  0  0  0  0
  147.3107  136.8412  157.6159 H   0  0  0  0  0  0  0  0  0  0  0  0
  148.4826  136.0953  158.7053 H   0  0  0  0  0  0  0  0  0  0  0  0
  147.7853  135.1587  157.3755 H   0  0  0  0  0  0  0  0  0  0  0  0
  148.3294  138.2982  156.0764 H   0  0  0  0  0  0  0  0  0  0  0  0
  150.4218  139.0674  153.3449 H   0  0  0  0  0  0  0  0  0  0  0  0
  151.1210  142.1901  155.6012 H   0  0  0  0  0  0  0  0  0  0  0  0
  149.4747  140.7331  157.5007 H   0  0  0  0  0  0  0  0  0  0  0  0
  150.9375  139.8040  157.1928 H   0  0  0  0  0  0  0  0  0  0  0  0
  153.8929  140.4301  160.7157 H   0  0  0  0  0  0  0  0  0  0  0  0
  154.3345  141.6466  162.8165 H   0  0  0  0  0  0  0  0  0  0  0  0
  153.2895  143.8675  163.2261 H   0  0  0  0  0  0  0  0  0  0  0  0
  151.7907  144.8671  161.5125 H   0  0  0  0  0  0  0  0  0  0  0  0
  151.3308  143.6771  159.4107 H   0  0  0  0  0  0  0  0  0  0  0  0
  149.2837  142.1615  154.1546 H   0  0  0  0  0  0  0  0  0  0  0  0
  148.3438  142.9126  156.0006 H   0  0  0  0  0  0  0  0  0  0  0  0
  148.1721  139.5610  155.2227 H   0  0  0  0  0  0  0  0  0  0  0  0
  148.7948  140.2604  152.5707 H   0  0  0  0  0  0  0  0  0  0  0  0
  1  2  1  0  0  0  0
  1 27  1  0  0  0  0
  1 28  1  0  0  0  0
  1 29  1  0  0  0  0
  2 25  1  0  0  0  0
  2  3  2  0  0  0  0
  3  4  1  0  0  0  0
  3 30  1  0  0  0  0
  4  5  1  0  0  0  0
  4 22  1  0  0  0  0
  5 20  1  0  0  0  0
  5  6  1  0  0  0  0
  5 31  1  0  0  0  0
  6  7  1  0  0  0  0
  7  8  1  0  0  0  0
  7 18  1  0  0  0  0
  7 32  1  0  0  0  0
  8  9  1  0  0  0  0
  8 33  1  0  0  0  0
  8 34  1  0  0  0  0
  9 10  1  0  0  0  0
 10 11  2  0  0  0  0
 10 12  1  0  0  0  0
 12 17  1  0  0  0  0
 12 13  2  0  0  0  0
 13 14  1  0  0  0  0
 13 35  1  0  0  0  0
 14 15  2  0  0  0  0
 14 36  1  0  0  0  0
 15 16  1  0  0  0  0
 15 37  1  0  0  0  0
 16 17  2  0  0  0  0
 16 38  1  0  0  0  0
 17 39  1  0  0  0  0
 18 19  1  0  0  0  0
 18 20  1  0  0  0  0
 18 40  1  0  0  0  0
 19 41  1  0  0  0  0
 20 21  1  0  0  0  0
 20 42  1  0  0  0  0
 21 43  1  0  0  0  0
 22 23  2  0  0  0  0
 22 24  1  0  0  0  0
 24 25  1  0  0  0  0
 25 26  2  0  0  0  0
M  CHG  1  24  -1
M  END
> <s_m_source_file>
AV-unprocessed.smi

> <i_m_source_file_index>
101

> <i_lp_mmshare_version>
43012

> <i_f3d_flags>
0

> <s_epik_input>
Tz1jMVtuSF1jKD1PKW4oW2NIXWMxW0NIM10pW0NAQEhdMk9bQ0BIXShbQ0BASF0oW09IXSlbQ0BIXTJbT0hdKVtDSDJdT0MoPU8pYzNbY0hdW2NIXVtjSF1bY0hdW2NIXTM=

> <s_epik_cmdline>
J2VwaWtfcHl0aG9uJywgJy1waCcsICc3LjAnLCAnLXRuJywgJzgnLCAnLW1hJywgJzIwMCcsICctbWV0YWxfYmluZGluZycsICctaW1hZScsICc8aW5maWxlLm1hZT4nLCAnLW9tYWUnLCAnPG91dGZpbGUubWFlPic=

> <r_lp_tautomer_probability>
0.999537

> <r_epik_Ionization_Penalty>
3.21006

> <r_epik_Ionization_Penalty_Charging>
5.75142e-08

> <r_epik_Ionization_Penalty_Neutral>
3.21006

> <r_epik_State_Penalty>
3.20925

> <r_epik_Charging_Adjusted_Penalty>
3.20925

> <i_epik_Tot_Q>
-1

> <i_epik_Tot_abs_Q>
1

> <r_epik_Metal_State_Penalty>
0.119957

> <b_epik_Metal_Only>
1

> <s_epik_Chemistry_Notes>
This compound has an ester and may undergo hydrolysis at high or low pH. This compound contains an acetal/aminal-like group ( X-CH(R)-Y where X, Y are N, S, or O) that may be acid/base labile, releasing an aldehyde.

> <s_lp_Force_Field>
OPLS_2005

> <r_lp_Energy>
44.0889

> <b_lp_Chiralities_Consistent>
1

> <s_lp_Variant>
AV-unprocessed.smi:101-23

> <Gold.Version>
5.8.1

> <Gold.Id.Protein>
6NUR|6NUR_protein|mol2

> <Gold.PLP.Fitness>
65.1615

> <Gold.PLP.PLP>
-49.4102

> <Gold.PLP.part.hbond>
-6.8673

> <Gold.PLP.part.metal>
0.0000

> <Gold.PLP.part.buried>
-6.2320

> <Gold.PLP.part.nonpolar>
-36.3280

> <Gold.PLP.part.repulsive>
0.2067

> <Gold.PLP.ligand.clash>
0.0000

> <Gold.PLP.ligand.torsion>
1.6287

> <Gold.PLP.Chemscore.Hbond>
6.2978

> <Gold.PLP.Chemscore.CHOScore>
0.0000

> <Gold.PLP.Chemscore.Metal>
0.0000

> <Gold.Chemscore.Hbonds>
donor molecule, donor type, donor heavy atom, donor atom, acceptor molecule, acceptor atom, score
      L1  H    19    41       P1  8028  1.00
      L1  H    21    43       P1  7957  1.00
      P1  H  6896  6907       L1    26  0.45
      P1  H  7989  7998       L1     6  1.00
      P1  H  7997  8008       L1    11  0.94
      P1  H 10752 10763       L1    24  1.80

> <Gold.PLP.Chemscore.Internal.Correction>
0.1153

> <Gold.Rescore>
     Score         DG    S(hbond)    S(metal)    S(lipo)     H(rot)  DE(clash)    DE(int)     intcor
     16.92     -21.37       3.84        0.00      97.73       3.27       1.45       3.00       ----

> <Gold.Chemscore.Fitness>
16.9240

> <Gold.Chemscore.DG>
-21.3711

> <Gold.Chemscore.ZeroCoef>
-5.4800

> <Gold.Chemscore.Hbond>
3.8372

> <Gold.Chemscore.Metal>
0.0000

> <Gold.Chemscore.Lipo>
97.7320

> <Gold.Chemscore.Internal_Hbond>
0.0000

> <Gold.Chemscore.DEClash>
1.4457

> <Gold.Chemscore.DEInternal>
3.0013

> <Gold.Chemscore.Rot>
3.2656

> <Gold.Chemscore.Internal.Correction>
   9.000000E+99

> <Gold.Chemscore.Hbonds>
donor molecule, donor type, donor heavy atom, donor atom, acceptor molecule, acceptor atom, score
      L1  H    19    41       P1  8028  0.92
      L1  H    21    43       P1  7957  0.99
      P1  H  6896  6907       L1    26  0.43
      P1  H  7989  7998       L1     6  0.24
      P1  H  7997  8008       L1    11  0.89
      P1  H 10752 10763       L1    24  0.17

> <Gold.Chemscore.Hbond.Weighted>
-12.8163

> <Gold.Chemscore.Metal.Weighted>
-0.0000

> <Gold.Chemscore.Lipo.Weighted>
-11.4346

> <Gold.Chemscore.Internal_Hbond.Weighted>
0.0000

> <Gold.Chemscore.DEClash.Weighted>
1.4457

> <Gold.Chemscore.DEInternal.Weighted>
3.0013

> <Gold.Chemscore.Rot.Weighted>
8.3598

> <Gold.Chemscore.Internal.Correction.Weighted>
   9.000000E+99

> <Gold.Protein.RotatedTorsions>
[ 6907 6896 6895 6894 ] final -110.55 input  -60.11 | X-H torsion
[ 7974 7965 7964 7962 ] final -134.18 input  175.53 | X-H torsion
[ 8008 7997 7996 7995 ] final  -84.12 input   59.86 | X-H torsion
[ 10167 10162 10161 10158 ] final   34.77 input  -65.29 | X-H torsion
[ 10718 10713 10712 10709 ] final  133.12 input   66.30 | X-H torsion
[ 10763 10752 10751 10750 ] final   94.44 input  -60.55 | X-H torsion
[ 11005 11000 10999 10996 ] final -156.98 input  -57.11 | X-H torsion

> <Gold.Protein.ActiveResidues>
 VAL166  LYS551  ARG553  GLY616  TRP617  ASP618  TYR619  PRO620  LYS621  CYS622 
 ASP623  PHE694  ASN695  SER759  ASP760  ASP761  ALA762  ILE779  LEU786  VAL792 
 PHE793  MET794  SER795  GLU796  ALA797  LYS798  CYS799  TRP800  GLU811  SER814 

> <Gold.Protein.RotatedAtoms>
  150.7632  133.9366  159.3442 H   0  0  0  0  0  0  0  0  0  0  0  0  # atno 6907 bound_to 6896
  151.7270  135.0881  160.0303 H   0  0  0  0  0  0  0  0  0  0  0  0  # atno 6908 bound_to 6896
  152.3614  133.6264  159.6053 H   0  0  0  0  0  0  0  0  0  0  0  0  # atno 6909 bound_to 6896
  144.9126  140.6914  143.5015 H   0  0  0  0  0  0  0  0  0  0  0  0  # atno 7974 bound_to 7965
  154.6263  140.0609  156.9678 H   0  0  0  0  0  0  0  0  0  0  0  0  # atno 8008 bound_to 7997
  155.1736  140.3293  155.4369 H   0  0  0  0  0  0  0  0  0  0  0  0  # atno 8009 bound_to 7997
  156.2459  140.1910  156.6837 H   0  0  0  0  0  0  0  0  0  0  0  0  # atno 8010 bound_to 7997
  140.4284  144.1359  150.6156 H   0  0  0  0  0  0  0  0  0  0  0  0  # atno 10167 bound_to 10162
  157.4804  131.1085  150.9689 H   0  0  0  0  0  0  0  0  0  0  0  0  # atno 10718 bound_to 10713
  153.2416  135.4289  155.0704 H   0  0  0  0  0  0  0  0  0  0  0  0  # atno 10763 bound_to 10752
  154.8343  135.3404  154.6640 H   0  0  0  0  0  0  0  0  0  0  0  0  # atno 10764 bound_to 10752
  153.7064  135.7025  153.5105 H   0  0  0  0  0  0  0  0  0  0  0  0  # atno 10765 bound_to 10752
  140.6697  134.4261  157.5232 H   0  0  0  0  0  0  0  0  0  0  0  0  # atno 11005 bound_to 11000
  145.3429  139.1727  143.4476 LP  0  0  0  0  0  0  0  0  0  0  0  0  # atno 17320 bound_to 7965
  146.3166  140.3472  142.8653 LP  0  0  0  0  0  0  0  0  0  0  0  0  # atno 17321 bound_to 7965
  140.4455  143.2508  151.9417 LP  0  0  0  0  0  0  0  0  0  0  0  0  # atno 17342 bound_to 10162
  139.4784  144.5613  151.8234 LP  0  0  0  0  0  0  0  0  0  0  0  0  # atno 17343 bound_to 10162
  157.0424  130.5754  149.5358 LP  0  0  0  0  0  0  0  0  0  0  0  0  # atno 17370 bound_to 10713
  156.0118  130.5210  150.8014 LP  0  0  0  0  0  0  0  0  0  0  0  0  # atno 17371 bound_to 10713
  139.8986  134.8611  156.1996 LP  0  0  0  0  0  0  0  0  0  0  0  0  # atno 17394 bound_to 11000
  141.0402  133.6942  156.1584 LP  0  0  0  0  0  0  0  0  0  0  0  0  # atno 17395 bound_to 11000

$$$$
