AV-unprocessed.smi:2001|AV-procd|sdf|8107|dock6
  -GOLD-   2272010333D 1   1.00000     0.00000
 Structure written by MMmdl.
 51 52  0  0  0  0  0  0  0  0  2 V2000
  152.4935  140.9651  158.6466 C   0  0  0  0  0  0  0  0  0  0  0  0
  151.2413  140.3790  158.3380 O   0  0  0  0  0  0  0  0  0  0  0  0
  150.4583  141.1872  157.4752 C   0  0  0  0  0  0  0  0  0  0  0  0
  151.0125  141.1136  156.0428 C   0  0  0  0  0  0  0  0  0  0  0  0
  150.8965  139.7622  155.4829 N   0  0  0  0  0  0  0  0  0  0  0  0
  149.6326  139.2092  155.6103 N   0  0  0  0  0  0  0  0  0  0  0  0
  149.3908  138.0251  155.1483 C   0  0  0  0  0  0  0  0  0  0  0  0
  148.0467  137.3945  155.2700 C   0  0  0  0  0  0  0  0  0  0  0  0
  147.3548  137.5229  156.2814 O   0  0  0  0  0  0  0  0  0  0  0  0
  147.6437  136.6844  154.2024 N   0  0  0  0  0  0  0  0  0  0  0  0
  146.3586  136.0078  154.1006 C   0  0  0  0  0  0  0  0  0  0  0  0
  145.9445  135.8618  152.6276 C   0  0  0  0  0  0  0  0  0  0  0  0
  145.7561  134.4451  152.2273 N   0  3  1  0  0  0  0  0  0  0  0  0
  145.0082  134.3158  150.9556 C   0  0  0  0  0  0  0  0  0  0  0  0
  144.7382  132.8349  150.6365 C   0  0  1  0  0  0  0  0  0  0  0  0
  144.0401  132.6598  149.2833 C   0  0  0  0  0  0  0  0  0  0  0  0
  145.9752  132.1284  150.5891 O   0  0  0  0  0  0  0  0  0  0  0  0
  146.7540  132.2005  151.7835 C   0  0  2  0  0  0  0  0  0  0  0  0
  146.1434  131.3745  152.9296 C   0  0  0  0  0  0  0  0  0  0  0  0
  147.0208  133.6717  152.1599 C   0  0  0  0  0  0  0  0  0  0  0  0
  150.4329  137.2559  154.4899 C   0  0  0  0  0  0  0  0  0  0  0  0
  151.6601  137.8084  154.3721 C   0  0  0  0  0  0  0  0  0  0  0  0
  151.9608  139.1462  154.8844 C   0  0  0  0  0  0  0  0  0  0  0  0
  153.0700  139.6695  154.7844 O   0  0  0  0  0  0  0  0  0  0  0  0
  153.0524  140.3049  159.3099 H   0  0  0  0  0  0  0  0  0  0  0  0
  152.3668  141.9230  159.1530 H   0  0  0  0  0  0  0  0  0  0  0  0
  153.0887  141.1207  157.7459 H   0  0  0  0  0  0  0  0  0  0  0  0
  149.4274  140.8302  157.4834 H   0  0  0  0  0  0  0  0  0  0  0  0
  150.4454  142.2207  157.8259 H   0  0  0  0  0  0  0  0  0  0  0  0
  150.5232  141.8563  155.4102 H   0  0  0  0  0  0  0  0  0  0  0  0
  152.0655  141.4004  156.0553 H   0  0  0  0  0  0  0  0  0  0  0  0
  148.2676  136.6201  153.4105 H   0  0  0  0  0  0  0  0  0  0  0  0
  146.4417  135.0339  154.5835 H   0  0  0  0  0  0  0  0  0  0  0  0
  145.6050  136.5775  154.6469 H   0  0  0  0  0  0  0  0  0  0  0  0
  145.0041  136.3970  152.4866 H   0  0  0  0  0  0  0  0  0  0  0  0
  146.6737  136.3383  151.9703 H   0  0  0  0  0  0  0  0  0  0  0  0
  144.0602  134.8504  151.0281 H   0  0  0  0  0  0  0  0  0  0  0  0
  145.5775  134.7816  150.1492 H   0  0  0  0  0  0  0  0  0  0  0  0
  144.0963  132.4046  151.4056 H   0  0  0  0  0  0  0  0  0  0  0  0
  143.0802  133.1768  149.2668 H   0  0  0  0  0  0  0  0  0  0  0  0
  143.8528  131.6061  149.0746 H   0  0  0  0  0  0  0  0  0  0  0  0
  144.6483  133.0573  148.4701 H   0  0  0  0  0  0  0  0  0  0  0  0
  147.7136  131.7414  151.5437 H   0  0  0  0  0  0  0  0  0  0  0  0
  146.8246  131.3319  153.7799 H   0  0  0  0  0  0  0  0  0  0  0  0
  145.9526  130.3497  152.6107 H   0  0  0  0  0  0  0  0  0  0  0  0
  145.2041  131.7937  153.2893 H   0  0  0  0  0  0  0  0  0  0  0  0
  147.6759  134.1260  151.4149 H   0  0  0  0  0  0  0  0  0  0  0  0
  147.5524  133.7117  153.1101 H   0  0  0  0  0  0  0  0  0  0  0  0
  150.2398  136.2663  154.1018 H   0  0  0  0  0  0  0  0  0  0  0  0
  152.4446  137.2479  153.8853 H   0  0  0  0  0  0  0  0  0  0  0  0
  145.1820  134.0162  152.9393 H   0  0  0  0  0  0  0  0  0  0  0  0
  1  2  1  0  0  0  0
  1 25  1  0  0  0  0
  1 26  1  0  0  0  0
  1 27  1  0  0  0  0
  2  3  1  0  0  0  0
  3  4  1  0  0  0  0
  3 28  1  0  0  0  0
  3 29  1  0  0  0  0
  4  5  1  0  0  0  0
  4 30  1  0  0  0  0
  4 31  1  0  0  0  0
  5 23  1  0  0  0  0
  5  6  1  0  0  0  0
  6  7  2  0  0  0  0
  7  8  1  0  0  0  0
  7 21  1  0  0  0  0
  8  9  2  0  0  0  0
  8 10  1  0  0  0  0
 10 11  1  0  0  0  0
 10 32  1  0  0  0  0
 11 12  1  0  0  0  0
 11 33  1  0  0  0  0
 11 34  1  0  0  0  0
 12 13  1  0  0  0  0
 12 35  1  0  0  0  0
 12 36  1  0  0  0  0
 13 20  1  0  0  0  0
 13 14  1  0  0  0  0
 13 51  1  0  0  0  0
 14 15  1  0  0  0  0
 14 37  1  0  0  0  0
 14 38  1  0  0  0  0
 15 16  1  0  0  0  0
 15 17  1  0  0  0  0
 15 39  1  0  0  0  0
 16 40  1  0  0  0  0
 16 41  1  0  0  0  0
 16 42  1  0  0  0  0
 17 18  1  0  0  0  0
 18 19  1  0  0  0  0
 18 20  1  0  0  0  0
 18 43  1  0  0  0  0
 19 44  1  0  0  0  0
 19 45  1  0  0  0  0
 19 46  1  0  0  0  0
 20 47  1  0  0  0  0
 20 48  1  0  0  0  0
 21 22  2  0  0  0  0
 21 49  1  0  0  0  0
 22 23  1  0  0  0  0
 22 50  1  0  0  0  0
 23 24  2  0  0  0  0
M  CHG  1  13   1
M  END
> <s_m_source_file>
AV-unprocessed.smi

> <i_m_source_file_index>
2001

> <i_lp_mmshare_version>
43012

> <i_f3d_flags>
0

> <s_epik_input>
W0NIM11PW0NIMl1bQ0gyXW4xbmMoW2NIXVtjSF1jMT1PKUMoPU8pW05IXVtDSDJdW0NIMl1OMltDSDJdW0NAQEhdKFtDSDNdKU9bQ0BASF0oW0NIM10pW0NIMl0y

> <s_epik_cmdline>
J2VwaWtfcHl0aG9uJywgJy1waCcsICc3LjAnLCAnLXRuJywgJzgnLCAnLW1hJywgJzIwMCcsICctbWV0YWxfYmluZGluZycsICctaW1hZScsICc8aW5maWxlLm1hZT4nLCAnLW9tYWUnLCAnPG91dGZpbGUubWFlPic=

> <r_lp_tautomer_probability>
1

> <r_epik_Ionization_Penalty>
0.724354

> <r_epik_Ionization_Penalty_Charging>
0.724348

> <r_epik_Ionization_Penalty_Neutral>
6.1656e-06

> <r_epik_State_Penalty>
0.749058

> <r_epik_Charging_Adjusted_Penalty>
1.47341

> <i_epik_Tot_Q>
1

> <i_epik_Tot_abs_Q>
1

> <r_epik_Metal_State_Penalty>
0.750779

> <b_epik_Metal_Only>
0

> <s_lp_Force_Field>
OPLS_2005

> <r_lp_Energy>
40.2428

> <b_lp_Chiralities_Consistent>
1

> <s_lp_Variant>
AV-unprocessed.smi:2001-6

> <Gold.Version>
5.8.1

> <Gold.Id.Protein>
6NUR|6NUR_protein|mol2

> <Gold.PLP.Fitness>
41.1134

> <Gold.PLP.PLP>
-37.6483

> <Gold.PLP.part.hbond>
-3.0000

> <Gold.PLP.part.metal>
0.0000

> <Gold.PLP.part.buried>
-2.1229

> <Gold.PLP.part.nonpolar>
-31.8555

> <Gold.PLP.part.repulsive>
0.1992

> <Gold.PLP.ligand.clash>
0.0000

> <Gold.PLP.ligand.torsion>
1.3890

> <Gold.PLP.Chemscore.Hbond>
2.0000

> <Gold.PLP.Chemscore.CHOScore>
0.0000

> <Gold.PLP.Chemscore.Metal>
0.0000

> <Gold.Chemscore.Hbonds>
donor molecule, donor type, donor heavy atom, donor atom, acceptor molecule, acceptor atom, score
      L1  H    10    32       P1  7948  1.00
      P1  H  7997  8008       L1    24  1.00

> <Gold.PLP.Chemscore.Internal.Correction>
0.2431

> <Gold.Rescore>
     Score         DG    S(hbond)    S(metal)    S(lipo)     H(rot)  DE(clash)    DE(int)     intcor
     15.33     -16.77       2.00        0.00      84.74       2.07       0.01       1.43       ----

> <Gold.Chemscore.Fitness>
15.3272

> <Gold.Chemscore.DG>
-16.7677

> <Gold.Chemscore.ZeroCoef>
-5.4800

> <Gold.Chemscore.Hbond>
1.9994

> <Gold.Chemscore.Metal>
0.0000

> <Gold.Chemscore.Lipo>
84.7378

> <Gold.Chemscore.Internal_Hbond>
0.0000

> <Gold.Chemscore.DEClash>
0.0101

> <Gold.Chemscore.DEInternal>
1.4305

> <Gold.Chemscore.Rot>
2.0721

> <Gold.Chemscore.Internal.Correction>
   9.000000E+99

> <Gold.Chemscore.Hbonds>
donor molecule, donor type, donor heavy atom, donor atom, acceptor molecule, acceptor atom, score
      L1  H    10    32       P1  7948  1.00
      P1  H  7997  8008       L1    24  1.00

> <Gold.Chemscore.Hbond.Weighted>
-6.6781

> <Gold.Chemscore.Metal.Weighted>
-0.0000

> <Gold.Chemscore.Lipo.Weighted>
-9.9143

> <Gold.Chemscore.Internal_Hbond.Weighted>
0.0000

> <Gold.Chemscore.DEClash.Weighted>
0.0101

> <Gold.Chemscore.DEInternal.Weighted>
1.4305

> <Gold.Chemscore.Rot.Weighted>
5.3047

> <Gold.Chemscore.Internal.Correction.Weighted>
   9.000000E+99

> <Gold.Protein.RotatedTorsions>
[ 6907 6896 6895 6894 ] final  -81.77 input  -60.11 | X-H torsion
[ 7974 7965 7964 7962 ] final  -73.35 input  175.53 | X-H torsion
[ 8008 7997 7996 7995 ] final   -9.15 input   59.86 | X-H torsion
[ 10167 10162 10161 10158 ] final  122.29 input  -65.29 | X-H torsion
[ 10718 10713 10712 10709 ] final   -4.27 input   66.30 | X-H torsion
[ 10763 10752 10751 10750 ] final  -64.42 input  -60.55 | X-H torsion
[ 11005 11000 10999 10996 ] final  137.42 input  -57.11 | X-H torsion

> <Gold.Protein.ActiveResidues>
 VAL166  LYS551  ARG553  GLY616  TRP617  ASP618  TYR619  PRO620  LYS621  CYS622 
 ASP623  PHE694  ASN695  SER759  ASP760  ASP761  ALA762  ILE779  LEU786  VAL792 
 PHE793  MET794  SER795  GLU796  ALA797  LYS798  CYS799  TRP800  GLU811  SER814 

> <Gold.Protein.RotatedAtoms>
  150.6907  134.3767  159.5015 H   0  0  0  0  0  0  0  0  0  0  0  0  # atno 6907 bound_to 6896
  152.1575  134.8936  160.0553 H   0  0  0  0  0  0  0  0  0  0  0  0  # atno 6908 bound_to 6896
  152.0011  133.3791  159.4219 H   0  0  0  0  0  0  0  0  0  0  0  0  # atno 6909 bound_to 6896
  145.6533  140.9275  143.0973 H   0  0  0  0  0  0  0  0  0  0  0  0  # atno 7974 bound_to 7965
  154.5674  140.2362  155.8243 H   0  0  0  0  0  0  0  0  0  0  0  0  # atno 8008 bound_to 7997
  156.2079  140.3034  155.9626 H   0  0  0  0  0  0  0  0  0  0  0  0  # atno 8009 bound_to 7997
  155.2776  140.0421  157.3003 H   0  0  0  0  0  0  0  0  0  0  0  0  # atno 8010 bound_to 7997
  139.5868  144.7009  151.3390 H   0  0  0  0  0  0  0  0  0  0  0  0  # atno 10167 bound_to 10162
  156.7637  130.5278  149.5780 H   0  0  0  0  0  0  0  0  0  0  0  0  # atno 10718 bound_to 10713
  154.3298  135.6179  153.5546 H   0  0  0  0  0  0  0  0  0  0  0  0  # atno 10763 bound_to 10752
  152.9812  135.5744  154.4975 H   0  0  0  0  0  0  0  0  0  0  0  0  # atno 10764 bound_to 10752
  154.4659  135.2857  155.1655 H   0  0  0  0  0  0  0  0  0  0  0  0  # atno 10765 bound_to 10752
  140.0113  134.9438  157.0283 H   0  0  0  0  0  0  0  0  0  0  0  0  # atno 11005 bound_to 11000
  144.7114  139.8355  143.7413 LP  0  0  0  0  0  0  0  0  0  0  0  0  # atno 17320 bound_to 7965
  146.1185  139.4200  143.0243 LP  0  0  0  0  0  0  0  0  0  0  0  0  # atno 17321 bound_to 7965
  140.7138  143.7320  150.7616 LP  0  0  0  0  0  0  0  0  0  0  0  0  # atno 17342 bound_to 10162
  140.0867  143.4917  152.2501 LP  0  0  0  0  0  0  0  0  0  0  0  0  # atno 17343 bound_to 10162
  156.1322  130.6186  151.0350 LP  0  0  0  0  0  0  0  0  0  0  0  0  # atno 17370 bound_to 10713
  157.6723  131.0858  150.7582 LP  0  0  0  0  0  0  0  0  0  0  0  0  # atno 17371 bound_to 10713
  140.4550  134.1543  155.7185 LP  0  0  0  0  0  0  0  0  0  0  0  0  # atno 17394 bound_to 11000
  141.1713  133.8604  157.1563 LP  0  0  0  0  0  0  0  0  0  0  0  0  # atno 17395 bound_to 11000

$$$$
