AV-unprocessed.smi:1662|AV-procd|sdf|6659|dock7
  -GOLD-   22720 7373D 1   1.00000     0.00000
 Structure written by MMmdl.
 47 48  0  0  0  0  0  0  0  0  1 V2000
  148.7355  137.0646  159.4254 C   0  0  0  0  0  0  0  0  0  0  0  0
  149.4285  136.8512  158.1068 C   0  0  0  0  0  0  0  0  0  0  0  0
  149.9967  137.8838  157.5760 N   0  0  0  0  0  0  0  0  0  0  0  0
  150.6549  137.7993  156.3643 N   0  0  0  0  0  0  0  0  0  0  0  0
  151.2297  139.0718  155.9033 C   0  0  0  0  0  0  0  0  0  0  0  0
  152.2007  139.7027  156.9119 C   0  0  0  0  0  0  0  0  0  0  0  0
  153.2958  139.1874  157.1416 O   0  0  0  0  0  0  0  0  0  0  0  0
  151.7840  140.8368  157.4953 N   0  0  0  0  0  0  0  0  0  0  0  0
  152.5386  141.6152  158.4763 C   0  0  2  0  0  0  0  0  0  0  0  0
  152.8423  140.7306  159.7017 C   0  0  0  0  0  0  0  0  0  0  0  0
  153.5919  141.5136  160.7831 C   0  0  0  0  0  0  0  0  0  0  0  0
  152.7937  142.7527  161.2009 C   0  0  0  0  0  0  0  0  0  0  0  0
  152.4941  143.6740  160.0015 C   0  0  2  0  0  0  0  0  0  0  0  0
  151.7215  144.9142  160.4883 C   0  0  0  0  0  0  0  0  0  0  0  0
  151.7596  142.9007  158.8690 C   0  0  1  0  0  0  0  0  0  0  0  0
  151.5037  143.7923  157.6337 C   0  0  0  0  0  0  0  0  0  0  0  0
  150.7777  136.6591  155.6248 C   0  0  0  0  0  0  0  0  0  0  0  0
  151.3755  136.6290  154.5479 O   0  0  0  0  0  0  0  0  0  0  0  0
  150.1340  135.4929  156.2338 C   0  0  0  0  0  0  0  0  0  0  0  0
  150.2357  134.2784  155.4908 C   0  0  0  0  0  0  0  0  0  0  0  0
  150.3192  133.3048  154.8696 N   0  0  0  0  0  0  0  0  0  0  0  0
  149.4849  135.5633  157.4229 C   0  0  0  0  0  0  0  0  0  0  0  0
  148.8003  134.3815  158.0957 C   0  0  0  0  0  0  0  0  0  0  0  0
  149.2395  136.5141  160.2198 H   0  0  0  0  0  0  0  0  0  0  0  0
  147.7014  136.7229  159.3801 H   0  0  0  0  0  0  0  0  0  0  0  0
  148.7198  138.1173  159.7113 H   0  0  0  0  0  0  0  0  0  0  0  0
  151.7675  138.9257  154.9647 H   0  0  0  0  0  0  0  0  0  0  0  0
  150.4300  139.7792  155.6745 H   0  0  0  0  0  0  0  0  0  0  0  0
  150.8724  141.1899  157.2423 H   0  0  0  0  0  0  0  0  0  0  0  0
  153.4865  141.9228  158.0298 H   0  0  0  0  0  0  0  0  0  0  0  0
  151.9120  140.3391  160.1160 H   0  0  0  0  0  0  0  0  0  0  0  0
  153.4359  139.8651  159.4051 H   0  0  0  0  0  0  0  0  0  0  0  0
  153.7692  140.8753  161.6490 H   0  0  0  0  0  0  0  0  0  0  0  0
  154.5725  141.8128  160.4109 H   0  0  0  0  0  0  0  0  0  0  0  0
  151.8592  142.4420  161.6705 H   0  0  0  0  0  0  0  0  0  0  0  0
  153.3526  143.2989  161.9617 H   0  0  0  0  0  0  0  0  0  0  0  0
  153.4509  144.0199  159.6072 H   0  0  0  0  0  0  0  0  0  0  0  0
  150.7158  144.6511  160.8166 H   0  0  0  0  0  0  0  0  0  0  0  0
  151.6352  145.6727  159.7113 H   0  0  0  0  0  0  0  0  0  0  0  0
  152.2302  145.3857  161.3295 H   0  0  0  0  0  0  0  0  0  0  0  0
  150.7867  142.5927  159.2564 H   0  0  0  0  0  0  0  0  0  0  0  0
  152.4381  144.1816  157.2284 H   0  0  0  0  0  0  0  0  0  0  0  0
  150.8629  144.6405  157.8713 H   0  0  0  0  0  0  0  0  0  0  0  0
  151.0004  143.2484  156.8347 H   0  0  0  0  0  0  0  0  0  0  0  0
  148.9870  133.4446  157.5721 H   0  0  0  0  0  0  0  0  0  0  0  0
  147.7213  134.5343  158.1250 H   0  0  0  0  0  0  0  0  0  0  0  0
  149.1585  134.2576  159.1180 H   0  0  0  0  0  0  0  0  0  0  0  0
  1  2  1  0  0  0  0
  1 24  1  0  0  0  0
  1 25  1  0  0  0  0
  1 26  1  0  0  0  0
  2 22  1  0  0  0  0
  2  3  2  0  0  0  0
  3  4  1  0  0  0  0
  4  5  1  0  0  0  0
  4 17  1  0  0  0  0
  5  6  1  0  0  0  0
  5 27  1  0  0  0  0
  5 28  1  0  0  0  0
  6  7  2  0  0  0  0
  6  8  1  0  0  0  0
  8  9  1  0  0  0  0
  8 29  1  0  0  0  0
  9 15  1  0  0  0  0
  9 10  1  0  0  0  0
  9 30  1  0  0  0  0
 10 11  1  0  0  0  0
 10 31  1  0  0  0  0
 10 32  1  0  0  0  0
 11 12  1  0  0  0  0
 11 33  1  0  0  0  0
 11 34  1  0  0  0  0
 12 13  1  0  0  0  0
 12 35  1  0  0  0  0
 12 36  1  0  0  0  0
 13 14  1  0  0  0  0
 13 15  1  0  0  0  0
 13 37  1  0  0  0  0
 14 38  1  0  0  0  0
 14 39  1  0  0  0  0
 14 40  1  0  0  0  0
 15 16  1  0  0  0  0
 15 41  1  0  0  0  0
 16 42  1  0  0  0  0
 16 43  1  0  0  0  0
 16 44  1  0  0  0  0
 17 18  2  0  0  0  0
 17 19  1  0  0  0  0
 19 20  1  0  0  0  0
 19 22  2  0  0  0  0
 20 21  3  0  0  0  0
 22 23  1  0  0  0  0
 23 45  1  0  0  0  0
 23 46  1  0  0  0  0
 23 47  1  0  0  0  0
M  END
> <s_m_source_file>
AV-unprocessed.smi

> <i_m_source_file_index>
1662

> <i_lp_mmshare_version>
43012

> <i_f3d_flags>
0

> <s_epik_input>
TiNDYyhjMVtDSDNdKWMoPU8pbihuYzFbQ0gzXSlbQ0gyXUMoPU8pW05IXVtDQEBIXTJbQ0gyXVtDSDJdW0NIMl1bQ0BASF0oW0NIM10pW0NASF0yW0NIM10=

> <s_epik_cmdline>
J2VwaWtfcHl0aG9uJywgJy1waCcsICc3LjAnLCAnLXRuJywgJzgnLCAnLW1hJywgJzIwMCcsICctbWV0YWxfYmluZGluZycsICctaW1hZScsICc8aW5maWxlLm1hZT4nLCAnLW9tYWUnLCAnPG91dGZpbGUubWFlPic=

> <r_lp_tautomer_probability>
1

> <r_epik_Ionization_Penalty>
1.90709e-08

> <r_epik_Ionization_Penalty_Charging>
2.37982e-11

> <r_epik_Ionization_Penalty_Neutral>
1.90471e-08

> <r_epik_State_Penalty>
-0

> <r_epik_Charging_Adjusted_Penalty>
2.37982e-11

> <i_epik_Tot_Q>
0

> <i_epik_Tot_abs_Q>
0

> <r_epik_Metal_State_Penalty>
-0

> <b_epik_Metal_Only>
0

> <s_lp_Force_Field>
OPLS_2005

> <r_lp_Energy>
27.4579

> <b_lp_Chiralities_Consistent>
1

> <s_lp_Variant>
AV-unprocessed.smi:1662-3

> <Gold.Version>
5.8.1

> <Gold.Id.Protein>
6NUR|6NUR_protein|mol2

> <Gold.PLP.Fitness>
45.4178

> <Gold.PLP.PLP>
-39.6036

> <Gold.PLP.part.hbond>
-2.0000

> <Gold.PLP.part.metal>
0.0000

> <Gold.PLP.part.buried>
-6.0379

> <Gold.PLP.part.nonpolar>
-32.3426

> <Gold.PLP.part.repulsive>
0.3079

> <Gold.PLP.ligand.clash>
0.0000

> <Gold.PLP.ligand.torsion>
0.0964

> <Gold.PLP.Chemscore.Hbond>
2.0000

> <Gold.PLP.Chemscore.CHOScore>
0.0000

> <Gold.PLP.Chemscore.Metal>
0.0000

> <Gold.Chemscore.Hbonds>
donor molecule, donor type, donor heavy atom, donor atom, acceptor molecule, acceptor atom, score
      P1  H  7997  8008       L1     7  0.86
      P1  H 10752 10763       L1    18  1.00

> <Gold.PLP.Chemscore.Internal.Correction>
0.0071

> <Gold.Rescore>
     Score         DG    S(hbond)    S(metal)    S(lipo)     H(rot)  DE(clash)    DE(int)     intcor
     19.29     -20.55       1.92        0.00     105.82       1.45       0.00       1.25       ----

> <Gold.Chemscore.Fitness>
19.2948

> <Gold.Chemscore.DG>
-20.5533

> <Gold.Chemscore.ZeroCoef>
-5.4800

> <Gold.Chemscore.Hbond>
1.9177

> <Gold.Chemscore.Metal>
0.0000

> <Gold.Chemscore.Lipo>
105.8223

> <Gold.Chemscore.Internal_Hbond>
0.0000

> <Gold.Chemscore.DEClash>
0.0038

> <Gold.Chemscore.DEInternal>
1.2548

> <Gold.Chemscore.Rot>
1.4504

> <Gold.Chemscore.Internal.Correction>
   9.000000E+99

> <Gold.Chemscore.Hbonds>
donor molecule, donor type, donor heavy atom, donor atom, acceptor molecule, acceptor atom, score
      P1  H  7997  8008       L1     7  0.66
      P1  H 10752 10763       L1    18  0.91

> <Gold.Chemscore.Hbond.Weighted>
-6.4051

> <Gold.Chemscore.Metal.Weighted>
-0.0000

> <Gold.Chemscore.Lipo.Weighted>
-12.3812

> <Gold.Chemscore.Internal_Hbond.Weighted>
0.0000

> <Gold.Chemscore.DEClash.Weighted>
0.0038

> <Gold.Chemscore.DEInternal.Weighted>
1.2548

> <Gold.Chemscore.Rot.Weighted>
3.7129

> <Gold.Chemscore.Internal.Correction.Weighted>
   9.000000E+99

> <Gold.Protein.RotatedTorsions>
[ 6907 6896 6895 6894 ] final  131.02 input  -60.11 | X-H torsion
[ 7974 7965 7964 7962 ] final  -19.17 input  175.53 | X-H torsion
[ 8008 7997 7996 7995 ] final  -62.85 input   59.86 | X-H torsion
[ 10167 10162 10161 10158 ] final  125.19 input  -65.29 | X-H torsion
[ 10718 10713 10712 10709 ] final  152.20 input   66.30 | X-H torsion
[ 10763 10752 10751 10750 ] final   56.81 input  -60.55 | X-H torsion
[ 11005 11000 10999 10996 ] final  154.21 input  -57.11 | X-H torsion

> <Gold.Protein.ActiveResidues>
 VAL166  LYS551  ARG553  GLY616  TRP617  ASP618  TYR619  PRO620  LYS621  CYS622 
 ASP623  PHE694  ASN695  SER759  ASP760  ASP761  ALA762  ILE779  LEU786  VAL792 
 PHE793  MET794  SER795  GLU796  ALA797  LYS798  CYS799  TRP800  GLU811  SER814 

> <Gold.Protein.RotatedAtoms>
  152.3468  133.6132  159.5915 H   0  0  0  0  0  0  0  0  0  0  0  0  # atno 6907 bound_to 6896
  150.7513  133.9636  159.3532 H   0  0  0  0  0  0  0  0  0  0  0  0  # atno 6908 bound_to 6896
  151.7493  135.0837  160.0379 H   0  0  0  0  0  0  0  0  0  0  0  0  # atno 6909 bound_to 6896
  146.1855  140.4025  142.8478 H   0  0  0  0  0  0  0  0  0  0  0  0  # atno 7974 bound_to 7965
  154.4522  140.0987  156.6652 H   0  0  0  0  0  0  0  0  0  0  0  0  # atno 8008 bound_to 7997
  155.5249  140.3480  155.4396 H   0  0  0  0  0  0  0  0  0  0  0  0  # atno 8009 bound_to 7997
  156.0704  140.1348  156.9824 H   0  0  0  0  0  0  0  0  0  0  0  0  # atno 8010 bound_to 7997
  139.5699  144.6933  151.3807 H   0  0  0  0  0  0  0  0  0  0  0  0  # atno 10167 bound_to 10162
  157.2608  131.0798  151.1666 H   0  0  0  0  0  0  0  0  0  0  0  0  # atno 10718 bound_to 10713
  152.9838  135.5663  154.5290 H   0  0  0  0  0  0  0  0  0  0  0  0  # atno 10763 bound_to 10752
  154.4765  135.2787  155.1605 H   0  0  0  0  0  0  0  0  0  0  0  0  # atno 10764 bound_to 10752
  154.3132  135.6284  153.5528 H   0  0  0  0  0  0  0  0  0  0  0  0  # atno 10765 bound_to 10752
  140.1468  134.8701  157.2403 H   0  0  0  0  0  0  0  0  0  0  0  0  # atno 11005 bound_to 11000
  144.8389  140.6826  143.6242 LP  0  0  0  0  0  0  0  0  0  0  0  0  # atno 17320 bound_to 7965
  145.3952  139.1608  143.4207 LP  0  0  0  0  0  0  0  0  0  0  0  0  # atno 17321 bound_to 7965
  140.6983  143.7694  150.7362 LP  0  0  0  0  0  0  0  0  0  0  0  0  # atno 17342 bound_to 10162
  140.1197  143.4623  152.2321 LP  0  0  0  0  0  0  0  0  0  0  0  0  # atno 17343 bound_to 10162
  157.3177  130.6921  149.6251 LP  0  0  0  0  0  0  0  0  0  0  0  0  # atno 17370 bound_to 10713
  155.9664  130.4345  150.5050 LP  0  0  0  0  0  0  0  0  0  0  0  0  # atno 17371 bound_to 10713
  140.2653  134.3523  155.7392 LP  0  0  0  0  0  0  0  0  0  0  0  0  # atno 17394 bound_to 11000
  141.2194  133.7392  156.9142 LP  0  0  0  0  0  0  0  0  0  0  0  0  # atno 17395 bound_to 11000

$$$$
