AV-unprocessed.smi:574|AV-procd|sdf|2976|dock5
  -GOLD-   2262023483D 1   1.00000     0.00000
 Structure written by MMmdl.
 39 40  0  0  0  0  0  0  0  0  2 V2000
  150.2350  138.8426  153.6653 C   0  0  0  0  0  0  0  0  0  0  0  0
  151.1026  139.1162  154.8891 C   0  0  0  0  0  0  0  0  0  0  0  0
  151.4906  140.2588  155.1312 O   0  0  0  0  0  0  0  0  0  0  0  0
  151.3928  138.0568  155.6566 N   0  0  0  0  0  0  0  0  0  0  0  0
  152.1557  138.1049  156.9002 C   0  0  0  0  0  0  0  0  0  0  0  0
  151.2734  137.7484  158.1109 C   0  0  0  0  0  0  0  0  0  0  0  0
  151.6128  138.6125  159.2391 N   0  5  0  0  0  0  0  0  0  0  0  0
  151.0461  138.5278  160.4770 C   0  0  0  0  0  0  0  0  0  0  0  0
  150.5298  137.5526  161.0334 O   0  0  0  0  0  0  0  0  0  0  0  0
  151.0697  139.8521  161.2058 C   0  0  0  0  0  0  0  0  0  0  0  0
  151.2016  140.9754  160.4555 N   0  0  0  0  0  0  0  0  0  0  0  0
  151.2065  142.1669  161.0594 C   0  0  0  0  0  0  0  0  0  0  0  0
  151.3523  143.2992  160.2474 N   0  0  0  0  0  0  0  0  0  0  0  0
  150.7721  144.5947  160.6070 C   0  0  0  0  0  0  0  0  0  0  0  0
  151.6453  145.7471  160.0828 C   0  0  0  0  0  0  0  0  0  0  0  0
  151.8351  145.6084  158.6799 O   0  0  0  0  0  0  0  0  0  0  0  0
  152.5135  144.3995  158.3613 C   0  0  0  0  0  0  0  0  0  0  0  0
  151.6773  143.1942  158.8220 C   0  0  0  0  0  0  0  0  0  0  0  0
  151.0820  142.3535  162.3784 N   0  0  0  0  0  0  0  0  0  0  0  0
  150.9495  141.2565  163.1528 C   0  0  0  0  0  0  0  0  0  0  0  0
  150.9367  139.9543  162.6162 C   0  0  0  0  0  0  0  0  0  0  0  0
  150.7964  138.5958  163.6796 Cl  0  0  0  0  0  0  0  0  0  0  0  0
  149.2151  138.6071  153.9704 H   0  0  0  0  0  0  0  0  0  0  0  0
  150.6290  138.0000  153.0961 H   0  0  0  0  0  0  0  0  0  0  0  0
  150.2040  139.7131  153.0092 H   0  0  0  0  0  0  0  0  0  0  0  0
  151.0212  137.1542  155.3960 H   0  0  0  0  0  0  0  0  0  0  0  0
  152.9918  137.4069  156.8387 H   0  0  0  0  0  0  0  0  0  0  0  0
  152.5819  139.1018  157.0247 H   0  0  0  0  0  0  0  0  0  0  0  0
  150.2263  137.8398  157.8179 H   0  0  0  0  0  0  0  0  0  0  0  0
  151.4203  136.6968  158.3581 H   0  0  0  0  0  0  0  0  0  0  0  0
  149.7720  144.6579  160.1769 H   0  0  0  0  0  0  0  0  0  0  0  0
  150.6594  144.7115  161.6845 H   0  0  0  0  0  0  0  0  0  0  0  0
  151.1614  146.7034  160.2814 H   0  0  0  0  0  0  0  0  0  0  0  0
  152.6099  145.7670  160.5925 H   0  0  0  0  0  0  0  0  0  0  0  0
  152.6710  144.3543  157.2836 H   0  0  0  0  0  0  0  0  0  0  0  0
  153.5003  144.3881  158.8271 H   0  0  0  0  0  0  0  0  0  0  0  0
  152.2368  142.2873  158.5928 H   0  0  0  0  0  0  0  0  0  0  0  0
  150.7472  143.1433  158.2548 H   0  0  0  0  0  0  0  0  0  0  0  0
  150.8582  141.4211  164.2163 H   0  0  0  0  0  0  0  0  0  0  0  0
  1  2  1  0  0  0  0
  1 23  1  0  0  0  0
  1 24  1  0  0  0  0
  1 25  1  0  0  0  0
  2  3  2  0  0  0  0
  2  4  1  0  0  0  0
  4  5  1  0  0  0  0
  4 26  1  0  0  0  0
  5  6  1  0  0  0  0
  5 27  1  0  0  0  0
  5 28  1  0  0  0  0
  6  7  1  0  0  0  0
  6 29  1  0  0  0  0
  6 30  1  0  0  0  0
  7  8  1  0  0  0  0
  8  9  2  0  0  0  0
  8 10  1  0  0  0  0
 10 21  1  0  0  0  0
 10 11  2  0  0  0  0
 11 12  1  0  0  0  0
 12 13  1  0  0  0  0
 12 19  2  0  0  0  0
 13 18  1  0  0  0  0
 13 14  1  0  0  0  0
 14 15  1  0  0  0  0
 14 31  1  0  0  0  0
 14 32  1  0  0  0  0
 15 16  1  0  0  0  0
 15 33  1  0  0  0  0
 15 34  1  0  0  0  0
 16 17  1  0  0  0  0
 17 18  1  0  0  0  0
 17 35  1  0  0  0  0
 17 36  1  0  0  0  0
 18 37  1  0  0  0  0
 18 38  1  0  0  0  0
 19 20  1  0  0  0  0
 20 21  2  0  0  0  0
 20 39  1  0  0  0  0
 21 22  1  0  0  0  0
M  CHG  1   7  -1
M  END
> <s_m_source_file>
AV-unprocessed.smi

> <i_m_source_file_index>
574

> <i_lp_mmshare_version>
43012

> <i_f3d_flags>
0

> <s_epik_input>
W0NIM11DKD1PKVtOSF1bQ0gyXVtDSDJdW05IXUMoPU8pYzFuYyhuW2NIXWMxQ2wpTjJbQ0gyXVtDSDJdT1tDSDJdW0NIMl0y

> <s_epik_cmdline>
J2VwaWtfcHl0aG9uJywgJy1waCcsICc3LjAnLCAnLXRuJywgJzgnLCAnLW1hJywgJzIwMCcsICctbWV0YWxfYmluZGluZycsICctaW1hZScsICc8aW5maWxlLm1hZT4nLCAnLW9tYWUnLCAnPG91dGZpbGUubWFlPic=

> <r_lp_tautomer_probability>
1

> <r_epik_Ionization_Penalty>
5.61005

> <r_epik_Ionization_Penalty_Charging>
5.61003

> <r_epik_Ionization_Penalty_Neutral>
1.98059e-05

> <r_epik_State_Penalty>
5.60999

> <r_epik_Charging_Adjusted_Penalty>
11.22

> <i_epik_Tot_Q>
-1

> <i_epik_Tot_abs_Q>
1

> <r_epik_Metal_State_Penalty>
1.60231

> <b_epik_Metal_Only>
1

> <s_lp_Force_Field>
OPLS_2005

> <r_lp_Energy>
13.7471

> <b_lp_Chiralities_Consistent>
1

> <s_lp_Variant>
AV-unprocessed.smi:574-2

> <Gold.Version>
5.8.1

> <Gold.Id.Protein>
6NUR|6NUR_protein|mol2

> <Gold.PLP.Fitness>
53.6109

> <Gold.PLP.PLP>
-46.3794

> <Gold.PLP.part.hbond>
-3.2295

> <Gold.PLP.part.metal>
0.0000

> <Gold.PLP.part.buried>
-3.4552

> <Gold.PLP.part.nonpolar>
-38.5001

> <Gold.PLP.part.repulsive>
0.3632

> <Gold.PLP.ligand.clash>
0.0000

> <Gold.PLP.ligand.torsion>
0.8464

> <Gold.PLP.Chemscore.Hbond>
2.9000

> <Gold.PLP.Chemscore.CHOScore>
0.0000

> <Gold.PLP.Chemscore.Metal>
0.0000

> <Gold.Chemscore.Hbonds>
donor molecule, donor type, donor heavy atom, donor atom, acceptor molecule, acceptor atom, score
      P1  H  7989  7998       L1     3  0.99

> <Gold.PLP.Chemscore.Internal.Correction>
0.2244

> <Gold.Rescore>
     Score         DG    S(hbond)    S(metal)    S(lipo)     H(rot)  DE(clash)    DE(int)     intcor
     12.52     -14.78       0.88        0.00      90.94       1.67       0.02       2.24       ----

> <Gold.Chemscore.Fitness>
12.5225

> <Gold.Chemscore.DG>
-14.7840

> <Gold.Chemscore.ZeroCoef>
-5.4800

> <Gold.Chemscore.Hbond>
0.8808

> <Gold.Chemscore.Metal>
0.0000

> <Gold.Chemscore.Lipo>
90.9389

> <Gold.Chemscore.Internal_Hbond>
0.0000

> <Gold.Chemscore.DEClash>
0.0199

> <Gold.Chemscore.DEInternal>
2.2416

> <Gold.Chemscore.Rot>
1.6710

> <Gold.Chemscore.Internal.Correction>
   9.000000E+99

> <Gold.Chemscore.Hbonds>
donor molecule, donor type, donor heavy atom, donor atom, acceptor molecule, acceptor atom, score
      P1  H  6931  6943       L1     9  0.01
      P1  H  7989  7998       L1     3  0.24

> <Gold.Chemscore.Hbond.Weighted>
-2.9420

> <Gold.Chemscore.Metal.Weighted>
-0.0000

> <Gold.Chemscore.Lipo.Weighted>
-10.6399

> <Gold.Chemscore.Internal_Hbond.Weighted>
0.0000

> <Gold.Chemscore.DEClash.Weighted>
0.0199

> <Gold.Chemscore.DEInternal.Weighted>
2.2416

> <Gold.Chemscore.Rot.Weighted>
4.2779

> <Gold.Chemscore.Internal.Correction.Weighted>
   9.000000E+99

> <Gold.Protein.RotatedTorsions>
[ 6907 6896 6895 6894 ] final   92.41 input  -60.11 | X-H torsion
[ 7974 7965 7964 7962 ] final -155.72 input  175.53 | X-H torsion
[ 8008 7997 7996 7995 ] final  -95.85 input   59.86 | X-H torsion
[ 10167 10162 10161 10158 ] final  166.23 input  -65.29 | X-H torsion
[ 10718 10713 10712 10709 ] final   52.88 input   66.30 | X-H torsion
[ 10763 10752 10751 10750 ] final  -80.53 input  -60.55 | X-H torsion
[ 11005 11000 10999 10996 ] final   -0.08 input  -57.11 | X-H torsion

> <Gold.Protein.ActiveResidues>
 VAL166  LYS551  ARG553  GLY616  TRP617  ASP618  TYR619  PRO620  LYS621  CYS622 
 ASP623  PHE694  ASN695  SER759  ASP760  ASP761  ALA762  ILE779  LEU786  VAL792 
 PHE793  MET794  SER795  GLU796  ALA797  LYS798  CYS799  TRP800  GLU811  SER814 

> <Gold.Protein.RotatedAtoms>
  152.5452  134.1506  159.8516 H   0  0  0  0  0  0  0  0  0  0  0  0  # atno 6907 bound_to 6896
  151.1533  133.4885  159.2602 H   0  0  0  0  0  0  0  0  0  0  0  0  # atno 6908 bound_to 6896
  151.1449  135.0209  159.8697 H   0  0  0  0  0  0  0  0  0  0  0  0  # atno 6909 bound_to 6896
  144.7627  140.4210  143.5965 H   0  0  0  0  0  0  0  0  0  0  0  0  # atno 7974 bound_to 7965
  154.7667  140.0476  157.1018 H   0  0  0  0  0  0  0  0  0  0  0  0  # atno 8008 bound_to 7997
  154.9870  140.3108  155.4902 H   0  0  0  0  0  0  0  0  0  0  0  0  # atno 8009 bound_to 7997
  156.2914  140.2225  156.4973 H   0  0  0  0  0  0  0  0  0  0  0  0  # atno 8010 bound_to 7997
  139.4920  144.4049  151.9367 H   0  0  0  0  0  0  0  0  0  0  0  0  # atno 10167 bound_to 10162
  157.5116  130.8504  149.8442 H   0  0  0  0  0  0  0  0  0  0  0  0  # atno 10718 bound_to 10713
  154.5523  135.5658  153.6933 H   0  0  0  0  0  0  0  0  0  0  0  0  # atno 10763 bound_to 10752
  152.9993  135.6254  154.2357 H   0  0  0  0  0  0  0  0  0  0  0  0  # atno 10764 bound_to 10752
  154.2292  135.2866  155.2876 H   0  0  0  0  0  0  0  0  0  0  0  0  # atno 10765 bound_to 10752
  140.6322  133.9564  155.8281 H   0  0  0  0  0  0  0  0  0  0  0  0  # atno 11005 bound_to 11000
  145.6569  139.1574  143.2830 LP  0  0  0  0  0  0  0  0  0  0  0  0  # atno 17320 bound_to 7965
  146.1705  140.6653  142.9235 LP  0  0  0  0  0  0  0  0  0  0  0  0  # atno 17321 bound_to 7965
  140.3489  144.3113  150.5953 LP  0  0  0  0  0  0  0  0  0  0  0  0  # atno 17342 bound_to 10162
  140.5502  143.2208  151.7940 LP  0  0  0  0  0  0  0  0  0  0  0  0  # atno 17343 bound_to 10162
  156.0293  130.3769  150.1734 LP  0  0  0  0  0  0  0  0  0  0  0  0  # atno 17370 bound_to 10713
  156.9923  130.9897  151.3411 LP  0  0  0  0  0  0  0  0  0  0  0  0  # atno 17371 bound_to 10713
  141.0667  134.0267  157.3584 LP  0  0  0  0  0  0  0  0  0  0  0  0  # atno 17394 bound_to 11000
  139.9111  135.0190  156.7696 LP  0  0  0  0  0  0  0  0  0  0  0  0  # atno 17395 bound_to 11000

$$$$
