#       Name:                AV-unprocessed.smi:51
#       Creating user name   scv26
#       Creation time:       Thu Mar 26 16:37:56 2020


#       File generated by GOLD software.
#

@<TRIPOS>MOLECULE
AV-unprocessed.smi:51
    33    34     1
SMALL
NO_CHARGES


@<TRIPOS>ATOM
      1 ****        -3.0785   0.0533   1.3458 O.co2          1 S1                 0.0000
      2 ****        -1.8759  -0.0411   1.6726 C.2            1 S1                 0.0000
      3 ****        -1.4214  -0.8066   2.5514 O.co2          1 S1                -1.0000
      4 ****        -0.8822   0.8459   0.9063 C.3            1 S1                 0.0000
      5 ****        -0.1474   1.8370   1.8273 C.3            1 S1                 0.0000
      6 ****         1.1784   1.1376   2.1387 C.3            1 S1                 0.0000
      7 ****         2.2033   2.0460   2.4826 O.3            1 S1                 0.0000
      8 ****         1.4845   0.3744   0.8484 C.3            1 S1                 0.0000
      9 ****         0.1774   0.0464   0.2959 N.pl3          1 S1                 0.0000
     10 ****         0.0240  -0.6663  -0.9105 C.ar           1 S1                 0.0000
     11 ****        -1.2211  -0.7808  -1.5657 C.ar           1 S1                 0.0000
     12 ****        -1.2579  -1.5253  -2.7583 C.ar           1 S1                 0.0000
     13 ****        -0.1305  -2.0970  -3.2447 N.pl3          1 S1                 1.0000
     14 ****         1.0234  -1.9482  -2.5789 C.ar           1 S1                 0.0000
     15 ****         1.1221  -1.2535  -1.4398 N.ar           1 S1                 0.0000
     16 ****        -1.4220   1.4044   0.1403 H              1 S1                 0.0000
     17 ****         0.0364   2.7623   1.2790 H              1 S1                 0.0000
     18 ****        -0.7052   2.0978   2.7283 H              1 S1                 0.0000
     19 ****         1.0354   0.4314   2.9581 H              1 S1                 0.0000
     20 ****         2.3044   2.6654   1.7762 H              1 S1                 0.0000
     21 ****         2.0223   1.0015   0.1354 H              1 S1                 0.0000
     22 ****         2.0825  -0.5162   1.0460 H              1 S1                 0.0000
     23 ****        -2.1232  -0.3298  -1.1804 H              1 S1                 0.0000
     24 ****        -2.1547  -1.6825  -3.3394 H              1 S1                 0.0000
     25 ****         1.8957  -2.4212  -3.0052 H              1 S1                 0.0000
     26 ****        -0.1691  -2.6354  -4.1103 H              1 S1                 0.0000
     27 ****        -3.7662  -0.5127   1.8006 LP             1 S1                 0.0000
     28 ****        -3.3531   0.6949   0.6296 LP             1 S1                 0.0000
     29 ****        -2.0386  -1.4091   3.0575 LP             1 S1                 0.0000
     30 ****        -0.4410  -0.8160   2.7479 LP             1 S1                 0.0000
     31 ****         3.0606   1.5504   2.6220 LP             1 S1                 0.0000
     32 ****         1.9575   2.5296   3.3227 LP             1 S1                 0.0000
     33 ****         2.0061  -1.1683  -0.9802 LP             1 S1                 0.0000
@<TRIPOS>BOND
    1    1    2 ar    
    2    2    3 ar    
    3    2    4 1     
    4    4    9 1     
    5    4    5 1     
    6    4   16 1     
    7    5    6 1     
    8    5   17 1     
    9    5   18 1     
   10    6    7 1     
   11    6    8 1     
   12    6   19 1     
   13    7   20 1     
   14    8    9 1     
   15    8   21 1     
   16    8   22 1     
   17    9   10 1     
   18   10   15 ar    
   19   10   11 ar    
   20   11   12 ar    
   21   11   23 1     
   22   12   13 ar    
   23   12   24 1     
   24   13   14 ar    
   25   13   26 1     
   26   14   15 ar    
   27   14   25 1     
   28    1   27 1     
   29    1   28 1     
   30    3   29 1     
   31    3   30 1     
   32    7   31 1     
   33    7   32 1     
   34   15   33 1     
@<TRIPOS>SUBSTRUCTURE
      1 S1             1
@<TRIPOS>SET
LONE_PAIRS      STATIC     ATOMS    <user>   **** ""
7 27 28 29 30 31 32 33
DONOR_HYDROGENS      STATIC     ATOMS    <user>   **** ""
2 20 26
ATOM$BLUE        STATIC     ATOMS    COLORGROUP SYSTEM
7 27 28 29 30 31 32 33
ATOM$RED        STATIC     ATOMS    COLORGROUP SYSTEM
2 20 26
