AV-unprocessed.smi:2888|AV-procd|sdf|11103|dock6
  -GOLD-   2272015573D 1   1.00000     0.00000
 Structure written by MMmdl.
 33 35  0  0  0  0  0  0  0  0  1 V2000
  151.8955  145.7307  159.8518 C   0  0  0  0  0  0  0  0  0  0  0  0
  151.8916  144.2857  159.4012 C   0  0  0  0  0  0  0  0  0  0  0  0
  152.7174  143.3186  160.0115 C   0  0  0  0  0  0  0  0  0  0  0  0
  152.6199  142.0078  159.4991 C   0  0  0  0  0  0  0  0  0  0  0  0
  153.4524  140.8744  160.0599 C   0  0  0  0  0  0  0  0  0  0  0  0
  151.7841  141.7008  158.4823 N   0  0  0  0  0  0  0  0  0  0  0  0
  151.0506  142.6959  157.9769 C   0  0  0  0  0  0  0  0  0  0  0  0
  150.2141  142.3473  156.9326 N   0  0  0  0  0  0  0  0  0  0  0  0
  149.8424  140.9780  156.5986 C   0  0  1  0  0  0  0  0  0  0  0  0
  149.0009  140.8814  155.3197 C   0  0  0  0  0  0  0  0  0  0  0  0
  149.8276  139.9082  154.4704 C   0  0  2  0  0  0  0  0  0  0  0  0
  149.8131  138.4827  155.0393 C   0  0  0  0  0  0  0  0  0  0  0  0
  150.7167  138.6261  156.2637 C   0  0  0  0  0  0  0  0  0  0  0  0
  151.0640  140.1207  156.2275 C   0  0  1  0  0  0  0  0  0  0  0  0
  151.1360  140.3197  154.8246 O   0  0  0  0  0  0  0  0  0  0  0  0
  151.0603  143.9713  158.3837 N   0  0  0  0  0  0  0  0  0  0  0  0
  152.5336  145.8694  160.7251 H   0  0  0  0  0  0  0  0  0  0  0  0
  150.8865  146.0505  160.1134 H   0  0  0  0  0  0  0  0  0  0  0  0
  152.2649  146.3742  159.0530 H   0  0  0  0  0  0  0  0  0  0  0  0
  153.3859  143.5676  160.8227 H   0  0  0  0  0  0  0  0  0  0  0  0
  154.0060  141.1929  160.9434 H   0  0  0  0  0  0  0  0  0  0  0  0
  154.1682  140.5268  159.3150 H   0  0  0  0  0  0  0  0  0  0  0  0
  152.8146  140.0364  160.3424 H   0  0  0  0  0  0  0  0  0  0  0  0
  149.7071  143.0959  156.4834 H   0  0  0  0  0  0  0  0  0  0  0  0
  149.3238  140.5361  157.4505 H   0  0  0  0  0  0  0  0  0  0  0  0
  147.9905  140.5173  155.5084 H   0  0  0  0  0  0  0  0  0  0  0  0
  148.9222  141.8455  154.8149 H   0  0  0  0  0  0  0  0  0  0  0  0
  149.6136  139.9622  153.4027 H   0  0  0  0  0  0  0  0  0  0  0  0
  148.8059  138.1492  155.2915 H   0  0  0  0  0  0  0  0  0  0  0  0
  150.2408  137.7742  154.3292 H   0  0  0  0  0  0  0  0  0  0  0  0
  150.2242  138.3335  157.1916 H   0  0  0  0  0  0  0  0  0  0  0  0
  151.6151  138.0187  156.1480 H   0  0  0  0  0  0  0  0  0  0  0  0
  151.9764  140.3697  156.7711 H   0  0  0  0  0  0  0  0  0  0  0  0
  1  2  1  0  0  0  0
  1 17  1  0  0  0  0
  1 18  1  0  0  0  0
  1 19  1  0  0  0  0
  2 16  1  0  0  0  0
  2  3  2  0  0  0  0
  3  4  1  0  0  0  0
  3 20  1  0  0  0  0
  4  5  1  0  0  0  0
  4  6  2  0  0  0  0
  5 21  1  0  0  0  0
  5 22  1  0  0  0  0
  5 23  1  0  0  0  0
  6  7  1  0  0  0  0
  7  8  1  0  0  0  0
  7 16  2  0  0  0  0
  8  9  1  0  0  0  0
  8 24  1  0  0  0  0
  9 14  1  0  0  0  0
  9 10  1  0  0  0  0
  9 25  1  0  0  0  0
 10 11  1  0  0  0  0
 10 26  1  0  0  0  0
 10 27  1  0  0  0  0
 11 15  1  0  0  0  0
 11 12  1  0  0  0  0
 11 28  1  0  0  0  0
 12 13  1  0  0  0  0
 12 29  1  0  0  0  0
 12 30  1  0  0  0  0
 13 14  1  0  0  0  0
 13 31  1  0  0  0  0
 13 32  1  0  0  0  0
 14 15  1  0  0  0  0
 14 33  1  0  0  0  0
M  END
> <s_m_source_file>
AV-unprocessed.smi

> <i_m_source_file_index>
2888

> <i_lp_mmshare_version>
43012

> <i_f3d_flags>
0

> <s_epik_input>
W0NIM11jMVtjSF1jKFtDSDNdKW5jKG4xKVtOSF1bQ0BIXShbQ0gyXVtDQEBIXTIzKVtDQEBIXShPMylbQ0gyXVtDSDJdMg==

> <s_epik_cmdline>
J2VwaWtfcHl0aG9uJywgJy1waCcsICc3LjAnLCAnLXRuJywgJzgnLCAnLW1hJywgJzIwMCcsICctbWV0YWxfYmluZGluZycsICctaW1hZScsICc8aW5maWxlLm1hZT4nLCAnLW9tYWUnLCAnPG91dGZpbGUubWFlPic=

> <r_lp_tautomer_probability>
1

> <r_epik_Ionization_Penalty>
0.00890508

> <r_epik_Ionization_Penalty_Charging>
0

> <r_epik_Ionization_Penalty_Neutral>
0.00890508

> <r_epik_State_Penalty>
0.0067342

> <r_epik_Charging_Adjusted_Penalty>
0.0067342

> <i_epik_Tot_Q>
0

> <i_epik_Tot_abs_Q>
0

> <r_epik_Metal_State_Penalty>
0.00663442

> <b_epik_Metal_Only>
0

> <s_lp_Force_Field>
OPLS_2005

> <r_lp_Energy>
31.5377

> <b_lp_Chiralities_Consistent>
1

> <s_lp_Variant>
AV-unprocessed.smi:2888-4

> <Gold.Version>
5.8.1

> <Gold.Id.Protein>
6NUR|6NUR_protein|mol2

> <Gold.PLP.Fitness>
39.2158

> <Gold.PLP.PLP>
-33.3382

> <Gold.PLP.part.hbond>
-1.8903

> <Gold.PLP.part.metal>
0.0000

> <Gold.PLP.part.buried>
-4.0997

> <Gold.PLP.part.nonpolar>
-28.4201

> <Gold.PLP.part.repulsive>
0.2256

> <Gold.PLP.ligand.clash>
0.0000

> <Gold.PLP.ligand.torsion>
0.0705

> <Gold.PLP.Chemscore.Hbond>
2.0000

> <Gold.PLP.Chemscore.CHOScore>
0.0000

> <Gold.PLP.Chemscore.Metal>
0.0000

> <Gold.Chemscore.Hbonds>
donor molecule, donor type, donor heavy atom, donor atom, acceptor molecule, acceptor atom, score
      L1  H     8    24       P1  8028  1.00
      P1  H  7989  7998       L1    15  0.98

> <Gold.PLP.Chemscore.Internal.Correction>
0.0187

> <Gold.Rescore>
     Score         DG    S(hbond)    S(metal)    S(lipo)     H(rot)  DE(clash)    DE(int)     intcor
     18.20     -19.59       1.95        0.00      86.80       1.00       0.05       1.34       ----

> <Gold.Chemscore.Fitness>
18.2031

> <Gold.Chemscore.DG>
-19.5902

> <Gold.Chemscore.ZeroCoef>
-5.4800

> <Gold.Chemscore.Hbond>
1.9506

> <Gold.Chemscore.Metal>
0.0000

> <Gold.Chemscore.Lipo>
86.7961

> <Gold.Chemscore.Internal_Hbond>
0.0000

> <Gold.Chemscore.DEClash>
0.0484

> <Gold.Chemscore.DEInternal>
1.3387

> <Gold.Chemscore.Rot>
1.0000

> <Gold.Chemscore.Internal.Correction>
   9.000000E+99

> <Gold.Chemscore.Hbonds>
donor molecule, donor type, donor heavy atom, donor atom, acceptor molecule, acceptor atom, score
      L1  H     8    24       P1  8028  0.97
      P1  H  7989  7998       L1    15  0.27

> <Gold.Chemscore.Hbond.Weighted>
-6.5150

> <Gold.Chemscore.Metal.Weighted>
-0.0000

> <Gold.Chemscore.Lipo.Weighted>
-10.1551

> <Gold.Chemscore.Internal_Hbond.Weighted>
0.0000

> <Gold.Chemscore.DEClash.Weighted>
0.0484

> <Gold.Chemscore.DEInternal.Weighted>
1.3387

> <Gold.Chemscore.Rot.Weighted>
2.5600

> <Gold.Chemscore.Internal.Correction.Weighted>
   9.000000E+99

> <Gold.Protein.RotatedTorsions>
[ 6907 6896 6895 6894 ] final -177.71 input  -60.11 | X-H torsion
[ 7974 7965 7964 7962 ] final  -69.45 input  175.53 | X-H torsion
[ 8008 7997 7996 7995 ] final   87.62 input   59.86 | X-H torsion
[ 10167 10162 10161 10158 ] final  124.05 input  -65.29 | X-H torsion
[ 10718 10713 10712 10709 ] final -117.86 input   66.30 | X-H torsion
[ 10763 10752 10751 10750 ] final  -95.08 input  -60.55 | X-H torsion
[ 11005 11000 10999 10996 ] final  -82.21 input  -57.11 | X-H torsion

> <Gold.Protein.ActiveResidues>
 VAL166  LYS551  ARG553  GLY616  TRP617  ASP618  TYR619  PRO620  LYS621  CYS622 
 ASP623  PHE694  ASN695  SER759  ASP760  ASP761  ALA762  ILE779  LEU786  VAL792 
 PHE793  MET794  SER795  GLU796  ALA797  LYS798  CYS799  TRP800  GLU811  SER814 

> <Gold.Protein.RotatedAtoms>
  151.6255  133.3336  159.3097 H   0  0  0  0  0  0  0  0  0  0  0  0  # atno 6907 bound_to 6896
  150.8084  134.7227  159.6676 H   0  0  0  0  0  0  0  0  0  0  0  0  # atno 6908 bound_to 6896
  152.4180  134.6012  160.0052 H   0  0  0  0  0  0  0  0  0  0  0  0  # atno 6909 bound_to 6896
  145.7036  140.9107  143.0718 H   0  0  0  0  0  0  0  0  0  0  0  0  # atno 7974 bound_to 7965
  155.9777  140.3380  155.6634 H   0  0  0  0  0  0  0  0  0  0  0  0  # atno 8008 bound_to 7997
  155.6591  140.0714  157.2578 H   0  0  0  0  0  0  0  0  0  0  0  0  # atno 8009 bound_to 7997
  154.4183  140.1712  156.1744 H   0  0  0  0  0  0  0  0  0  0  0  0  # atno 8010 bound_to 7997
  139.5763  144.6965  151.3643 H   0  0  0  0  0  0  0  0  0  0  0  0  # atno 10167 bound_to 10162
  156.1064  130.6214  150.9218 H   0  0  0  0  0  0  0  0  0  0  0  0  # atno 10718 bound_to 10713
  154.7115  135.5134  153.8673 H   0  0  0  0  0  0  0  0  0  0  0  0  # atno 10763 bound_to 10752
  153.0784  135.6624  154.0105 H   0  0  0  0  0  0  0  0  0  0  0  0  # atno 10764 bound_to 10752
  153.9946  135.3016  155.3388 H   0  0  0  0  0  0  0  0  0  0  0  0  # atno 10765 bound_to 10752
  141.1664  133.7233  156.8537 H   0  0  0  0  0  0  0  0  0  0  0  0  # atno 11005 bound_to 11000
  144.6961  139.8980  143.7457 LP  0  0  0  0  0  0  0  0  0  0  0  0  # atno 17320 bound_to 7965
  146.0776  139.3764  143.0484 LP  0  0  0  0  0  0  0  0  0  0  0  0  # atno 17321 bound_to 7965
  140.7046  143.7547  150.7460 LP  0  0  0  0  0  0  0  0  0  0  0  0  # atno 17342 bound_to 10162
  140.1067  143.4737  152.2394 LP  0  0  0  0  0  0  0  0  0  0  0  0  # atno 17343 bound_to 10162
  157.6241  131.0927  150.8566 LP  0  0  0  0  0  0  0  0  0  0  0  0  # atno 17370 bound_to 10713
  156.8684  130.5137  149.5298 LP  0  0  0  0  0  0  0  0  0  0  0  0  # atno 17371 bound_to 10713
  140.1897  134.8974  157.3046 LP  0  0  0  0  0  0  0  0  0  0  0  0  # atno 17394 bound_to 11000
  140.2303  134.3917  155.7525 LP  0  0  0  0  0  0  0  0  0  0  0  0  # atno 17395 bound_to 11000

$$$$
