AV-unprocessed.smi:1211|AV-procd|sdf|5080|dock6
  -GOLD-   22720 4133D 1   1.00000     0.00000
 Structure written by MMmdl.
 48 50  0  0  0  0  0  0  0  0  2 V2000
  146.4651  131.7521  152.1679 C   0  0  0  0  0  0  0  0  0  0  0  0
  145.5073  132.4583  151.2221 C   0  0  0  0  0  0  0  0  0  0  0  0
  144.6664  131.6884  150.3903 C   0  0  0  0  0  0  0  0  0  0  0  0
  143.7824  132.3421  149.5151 C   0  0  0  0  0  0  0  0  0  0  0  0
  143.7769  133.7472  149.5083 C   0  0  0  0  0  0  0  0  0  0  0  0
  144.5773  134.4909  150.2991 N   0  0  0  0  0  0  0  0  0  0  0  0
  145.4350  133.8755  151.1512 C   0  0  0  0  0  0  0  0  0  0  0  0
  146.3056  134.5958  152.0173 N   0  0  0  0  0  0  0  0  0  0  0  0
  146.3900  134.5345  153.3581 C   0  0  0  0  0  0  0  0  0  0  0  0
  145.7086  133.8111  154.0844 O   0  0  0  0  0  0  0  0  0  0  0  0
  147.3219  135.3790  153.8235 N   0  0  0  0  0  0  0  0  0  0  0  0
  147.6808  135.5549  155.2309 C   0  0  0  0  0  0  0  0  0  0  0  0
  149.2182  135.7023  155.4697 C   0  0  1  0  0  0  0  0  0  0  0  0
  149.6990  136.9516  154.7705 N   0  3  0  0  0  0  0  0  0  0  0  0
  148.9804  138.2205  155.0766 C   0  0  0  0  0  0  0  0  0  0  0  0
  149.5080  139.3791  154.2113 C   0  0  0  0  0  0  0  0  0  0  0  0
  150.9109  139.5183  154.3778 O   0  0  0  0  0  0  0  0  0  0  0  0
  151.6013  138.3491  153.9641 C   0  0  0  0  0  0  0  0  0  0  0  0
  151.1712  137.1696  154.8491 C   0  0  0  0  0  0  0  0  0  0  0  0
  149.5223  135.6921  156.9947 C   0  0  0  0  0  0  0  0  0  0  0  0
  149.2709  134.2800  157.5326 C   0  0  0  0  0  0  0  0  0  0  0  0
  149.7458  133.1266  156.2219 S   0  0  0  0  0  0  0  0  0  0  0  0
  149.9454  134.4298  154.9749 C   0  0  0  0  0  0  0  0  0  0  0  0
  146.3770  130.6683  152.0860 H   0  0  0  0  0  0  0  0  0  0  0  0
  146.2536  132.0278  153.2014 H   0  0  0  0  0  0  0  0  0  0  0  0
  147.4965  132.0227  151.9391 H   0  0  0  0  0  0  0  0  0  0  0  0
  144.6962  130.6090  150.4197 H   0  0  0  0  0  0  0  0  0  0  0  0
  143.1259  131.7813  148.8663 H   0  0  0  0  0  0  0  0  0  0  0  0
  143.1131  134.2891  148.8512 H   0  0  0  0  0  0  0  0  0  0  0  0
  146.9361  135.2344  151.5562 H   0  0  0  0  0  0  0  0  0  0  0  0
  147.8433  135.9217  153.1509 H   0  0  0  0  0  0  0  0  0  0  0  0
  147.1190  136.3841  155.6610 H   0  0  0  0  0  0  0  0  0  0  0  0
  147.2997  134.6819  155.7595 H   0  0  0  0  0  0  0  0  0  0  0  0
  147.9173  138.1313  154.8587 H   0  0  0  0  0  0  0  0  0  0  0  0
  149.0855  138.4634  156.1345 H   0  0  0  0  0  0  0  0  0  0  0  0
  149.2716  139.2151  153.1586 H   0  0  0  0  0  0  0  0  0  0  0  0
  149.0250  140.3125  154.5009 H   0  0  0  0  0  0  0  0  0  0  0  0
  151.4075  138.1422  152.9103 H   0  0  0  0  0  0  0  0  0  0  0  0
  152.6733  138.5204  154.0635 H   0  0  0  0  0  0  0  0  0  0  0  0
  151.4667  137.3743  155.8786 H   0  0  0  0  0  0  0  0  0  0  0  0
  151.7169  136.2826  154.5322 H   0  0  0  0  0  0  0  0  0  0  0  0
  150.5783  135.8796  157.1838 H   0  0  0  0  0  0  0  0  0  0  0  0
  148.9665  136.4470  157.5496 H   0  0  0  0  0  0  0  0  0  0  0  0
  149.8388  134.0855  158.4428 H   0  0  0  0  0  0  0  0  0  0  0  0
  148.2171  134.1337  157.7701 H   0  0  0  0  0  0  0  0  0  0  0  0
  149.5857  134.0832  154.0057 H   0  0  0  0  0  0  0  0  0  0  0  0
  151.0157  134.6135  154.8758 H   0  0  0  0  0  0  0  0  0  0  0  0
  149.5009  136.7826  153.7947 H   0  0  0  0  0  0  0  0  0  0  0  0
  1  2  1  0  0  0  0
  1 24  1  0  0  0  0
  1 25  1  0  0  0  0
  1 26  1  0  0  0  0
  2  7  1  0  0  0  0
  2  3  2  0  0  0  0
  3  4  1  0  0  0  0
  3 27  1  0  0  0  0
  4  5  2  0  0  0  0
  4 28  1  0  0  0  0
  5  6  1  0  0  0  0
  5 29  1  0  0  0  0
  6  7  2  0  0  0  0
  7  8  1  0  0  0  0
  8  9  1  0  0  0  0
  8 30  1  0  0  0  0
  9 10  2  0  0  0  0
  9 11  1  0  0  0  0
 11 12  1  0  0  0  0
 11 31  1  0  0  0  0
 12 13  1  0  0  0  0
 12 32  1  0  0  0  0
 12 33  1  0  0  0  0
 13 23  1  0  0  0  0
 13 14  1  0  0  0  0
 13 20  1  0  0  0  0
 14 19  1  0  0  0  0
 14 15  1  0  0  0  0
 14 48  1  0  0  0  0
 15 16  1  0  0  0  0
 15 34  1  0  0  0  0
 15 35  1  0  0  0  0
 16 17  1  0  0  0  0
 16 36  1  0  0  0  0
 16 37  1  0  0  0  0
 17 18  1  0  0  0  0
 18 19  1  0  0  0  0
 18 38  1  0  0  0  0
 18 39  1  0  0  0  0
 19 40  1  0  0  0  0
 19 41  1  0  0  0  0
 20 21  1  0  0  0  0
 20 42  1  0  0  0  0
 20 43  1  0  0  0  0
 21 22  1  0  0  0  0
 21 44  1  0  0  0  0
 21 45  1  0  0  0  0
 22 23  1  0  0  0  0
 23 46  1  0  0  0  0
 23 47  1  0  0  0  0
M  CHG  1  14   1
M  END
> <s_m_source_file>
AV-unprocessed.smi

> <i_m_source_file_index>
1211

> <i_lp_mmshare_version>
43012

> <i_f3d_flags>
0

> <s_epik_input>
W0NIM11jMVtjSF1bY0hdW2NIXW5jMVtOSF1DKD1PKVtOSF1bQ0gyXVtDQF0yKFtDSDJdW0NIMl1TW0NIMl0yKU4zW0NIMl1bQ0gyXU9bQ0gyXVtDSDJdMw==

> <s_epik_cmdline>
J2VwaWtfcHl0aG9uJywgJy1waCcsICc3LjAnLCAnLXRuJywgJzgnLCAnLW1hJywgJzIwMCcsICctbWV0YWxfYmluZGluZycsICctaW1hZScsICc8aW5maWxlLm1hZT4nLCAnLW9tYWUnLCAnPG91dGZpbGUubWFlPic=

> <r_epik_Ionization_Penalty>
2.03223

> <r_epik_Ionization_Penalty_Charging>
2.03219

> <r_epik_Ionization_Penalty_Neutral>
4.05816e-05

> <r_epik_State_Penalty>
2.16328

> <r_epik_Charging_Adjusted_Penalty>
4.19546

> <i_epik_Tot_Q>
1

> <i_epik_Tot_abs_Q>
1

> <r_epik_Metal_State_Penalty>
2.16328

> <b_epik_Metal_Only>
0

> <s_lp_Force_Field>
OPLS_2005

> <r_lp_Energy>
45.8952

> <b_lp_Chiralities_Consistent>
1

> <s_lp_Variant>
AV-unprocessed.smi:1211-3

> <Gold.Version>
5.8.1

> <Gold.Id.Protein>
6NUR|6NUR_protein|mol2

> <Gold.PLP.Fitness>
45.0353

> <Gold.PLP.PLP>
-30.8215

> <Gold.PLP.part.hbond>
-3.9771

> <Gold.PLP.part.metal>
0.0000

> <Gold.PLP.part.buried>
-0.6136

> <Gold.PLP.part.nonpolar>
-27.0693

> <Gold.PLP.part.repulsive>
1.4088

> <Gold.PLP.ligand.clash>
0.0000

> <Gold.PLP.ligand.torsion>
0.7410

> <Gold.PLP.Chemscore.Hbond>
4.5303

> <Gold.PLP.Chemscore.CHOScore>
0.6538

> <Gold.PLP.Chemscore.Metal>
0.0000

> <Gold.Chemscore.Hbonds>
donor molecule, donor type, donor heavy atom, donor atom, acceptor molecule, acceptor atom, score
      L1  H     8    30       P1  7948  0.42
      L1  H    11    31       P1  7948  1.00
      L1  H    14    48       P1  7948  1.89
      P1  H  7989  7998       L1    17  1.00
      L1  C     5    29       P1 10186  0.72

> <Gold.PLP.Chemscore.Internal.Correction>
0.1435

> <Gold.Rescore>
     Score         DG    S(hbond)    S(metal)    S(lipo)     H(rot)  DE(clash)    DE(int)     intcor
     18.04     -22.57       2.85        0.00      97.21       1.48       3.73       0.80       ----

> <Gold.Chemscore.Fitness>
18.0411

> <Gold.Chemscore.DG>
-22.5699

> <Gold.Chemscore.ZeroCoef>
-5.4800

> <Gold.Chemscore.Hbond>
2.8472

> <Gold.Chemscore.Metal>
0.0000

> <Gold.Chemscore.Lipo>
97.2141

> <Gold.Chemscore.Internal_Hbond>
0.0000

> <Gold.Chemscore.DEClash>
3.7256

> <Gold.Chemscore.DEInternal>
0.8032

> <Gold.Chemscore.Rot>
1.4820

> <Gold.Chemscore.Internal.Correction>
   9.000000E+99

> <Gold.Chemscore.Hbonds>
donor molecule, donor type, donor heavy atom, donor atom, acceptor molecule, acceptor atom, score
      L1  H     8    30       P1  7948  0.41
      L1  H    11    31       P1  7948  0.99
      L1  H    14    48       P1  7948  0.77
      P1  H  7989  7998       L1    17  0.50

> <Gold.Chemscore.Hbond.Weighted>
-9.5098

> <Gold.Chemscore.Metal.Weighted>
-0.0000

> <Gold.Chemscore.Lipo.Weighted>
-11.3741

> <Gold.Chemscore.Internal_Hbond.Weighted>
0.0000

> <Gold.Chemscore.DEClash.Weighted>
3.7256

> <Gold.Chemscore.DEInternal.Weighted>
0.8032

> <Gold.Chemscore.Rot.Weighted>
3.7939

> <Gold.Chemscore.Internal.Correction.Weighted>
   9.000000E+99

> <Gold.Protein.RotatedTorsions>
[ 6907 6896 6895 6894 ] final  123.25 input  -60.11 | X-H torsion
[ 7974 7965 7964 7962 ] final  160.72 input  175.53 | X-H torsion
[ 8008 7997 7996 7995 ] final  103.69 input   59.86 | X-H torsion
[ 10167 10162 10161 10158 ] final -160.81 input  -65.29 | X-H torsion
[ 10718 10713 10712 10709 ] final   32.07 input   66.30 | X-H torsion
[ 10763 10752 10751 10750 ] final   -0.68 input  -60.55 | X-H torsion
[ 11005 11000 10999 10996 ] final   43.29 input  -57.11 | X-H torsion

> <Gold.Protein.ActiveResidues>
 VAL166  LYS551  ARG553  GLY616  TRP617  ASP618  TYR619  PRO620  LYS621  CYS622 
 ASP623  PHE694  ASN695  SER759  ASP760  ASP761  ALA762  ILE779  LEU786  VAL792 
 PHE793  MET794  SER795  GLU796  ALA797  LYS798  CYS799  TRP800  GLU811  SER814 

> <Gold.Protein.RotatedAtoms>
  152.4177  133.7065  159.6453 H   0  0  0  0  0  0  0  0  0  0  0  0  # atno 6907 bound_to 6896
  150.8054  133.8510  159.3214 H   0  0  0  0  0  0  0  0  0  0  0  0  # atno 6908 bound_to 6896
  151.6235  135.1032  160.0158 H   0  0  0  0  0  0  0  0  0  0  0  0  # atno 6909 bound_to 6896
  144.7722  139.7797  143.6292 H   0  0  0  0  0  0  0  0  0  0  0  0  # atno 7974 bound_to 7965
  156.1507  140.3160  155.8643 H   0  0  0  0  0  0  0  0  0  0  0  0  # atno 8008 bound_to 7997
  155.3977  140.0497  157.3055 H   0  0  0  0  0  0  0  0  0  0  0  0  # atno 8009 bound_to 7997
  154.5056  140.2145  155.9270 H   0  0  0  0  0  0  0  0  0  0  0  0  # atno 8010 bound_to 7997
  139.6511  144.0082  152.2162 H   0  0  0  0  0  0  0  0  0  0  0  0  # atno 10167 bound_to 10162
  157.2805  130.7252  149.6554 H   0  0  0  0  0  0  0  0  0  0  0  0  # atno 10718 bound_to 10713
  153.3350  135.6977  153.6915 H   0  0  0  0  0  0  0  0  0  0  0  0  # atno 10763 bound_to 10752
  153.5703  135.3517  155.2835 H   0  0  0  0  0  0  0  0  0  0  0  0  # atno 10764 bound_to 10752
  154.8625  135.4270  154.2548 H   0  0  0  0  0  0  0  0  0  0  0  0  # atno 10765 bound_to 10752
  140.1658  134.4284  155.8288 H   0  0  0  0  0  0  0  0  0  0  0  0  # atno 11005 bound_to 11000
  146.1877  139.5101  142.9825 LP  0  0  0  0  0  0  0  0  0  0  0  0  # atno 17320 bound_to 7965
  145.6290  141.0308  143.1874 LP  0  0  0  0  0  0  0  0  0  0  0  0  # atno 17321 bound_to 7965
  139.9796  144.6437  150.7913 LP  0  0  0  0  0  0  0  0  0  0  0  0  # atno 17342 bound_to 10162
  140.7538  143.3015  151.3068 LP  0  0  0  0  0  0  0  0  0  0  0  0  # atno 17343 bound_to 10162
  155.9664  130.4339  150.5028 LP  0  0  0  0  0  0  0  0  0  0  0  0  # atno 17370 bound_to 10713
  157.2971  131.0638  151.2094 LP  0  0  0  0  0  0  0  0  0  0  0  0  # atno 17371 bound_to 10713
  141.2213  133.6934  156.7676 LP  0  0  0  0  0  0  0  0  0  0  0  0  # atno 17394 bound_to 11000
  140.2435  134.8595  157.3597 LP  0  0  0  0  0  0  0  0  0  0  0  0  # atno 17395 bound_to 11000

$$$$
