AV-unprocessed.smi:1464|AV-procd|sdf|5945|dock10
  -GOLD-   22720 6 23D 1   1.00000     0.00000
 Structure written by MMmdl.
 41 42  0  0  0  0  0  0  0  0  1 V2000
  152.4932  144.2081  161.8932 C   0  0  0  0  0  0  0  0  0  0  0  0
  152.5760  143.9018  160.3865 C   0  0  2  0  0  0  0  0  0  0  0  0
  151.6994  144.9042  159.6093 C   0  0  0  0  0  0  0  0  0  0  0  0
  151.7679  144.6690  158.0967 C   0  0  0  0  0  0  0  0  0  0  0  0
  151.3481  143.2367  157.7554 C   0  0  0  0  0  0  0  0  0  0  0  0
  152.2159  142.2053  158.5022 C   0  0  2  0  0  0  0  0  0  0  0  0
  151.7512  140.8578  158.1771 N   0  0  0  0  0  0  0  0  0  0  0  0
  152.4756  139.7347  158.2931 C   0  0  0  0  0  0  0  0  0  0  0  0
  153.6497  139.7233  158.6654 O   0  0  0  0  0  0  0  0  0  0  0  0
  151.7614  138.4316  157.9066 C   0  0  0  0  0  0  0  0  0  0  0  0
  151.2818  138.4243  156.5171 N   0  0  0  0  0  0  0  0  0  0  0  0
  150.7359  139.6285  156.0992 N   0  0  0  0  0  0  0  0  0  0  0  0
  150.2939  139.7520  154.8933 C   0  0  0  0  0  0  0  0  0  0  0  0
  149.7644  140.9627  154.5196 O   0  0  0  0  0  0  0  0  0  0  0  0
  150.3514  138.6496  153.9583 C   0  0  0  0  0  0  0  0  0  0  0  0
  150.8792  137.4784  154.3768 C   0  0  0  0  0  0  0  0  0  0  0  0
  151.3888  137.3040  155.7382 C   0  0  0  0  0  0  0  0  0  0  0  0
  151.8712  136.2479  156.1472 O   0  0  0  0  0  0  0  0  0  0  0  0
  152.1945  142.4347  160.0382 C   0  0  1  0  0  0  0  0  0  0  0  0
  153.0998  141.4144  160.7635 C   0  0  0  0  0  0  0  0  0  0  0  0
  149.0155  141.0938  155.0803 H   0  0  0  0  0  0  0  0  0  0  0  0
  151.5033  143.9826  162.2906 H   0  0  0  0  0  0  0  0  0  0  0  0
  152.6953  145.2616  162.0890 H   0  0  0  0  0  0  0  0  0  0  0  0
  153.2245  143.6389  162.4659 H   0  0  0  0  0  0  0  0  0  0  0  0
  153.6099  144.0628  160.0771 H   0  0  0  0  0  0  0  0  0  0  0  0
  150.6635  144.8255  159.9426 H   0  0  0  0  0  0  0  0  0  0  0  0
  152.0152  145.9249  159.8281 H   0  0  0  0  0  0  0  0  0  0  0  0
  151.1227  145.3793  157.5792 H   0  0  0  0  0  0  0  0  0  0  0  0
  152.7821  144.8520  157.7392 H   0  0  0  0  0  0  0  0  0  0  0  0
  150.2977  143.0950  158.0142 H   0  0  0  0  0  0  0  0  0  0  0  0
  151.4239  143.0843  156.6781 H   0  0  0  0  0  0  0  0  0  0  0  0
  153.2484  142.3153  158.1641 H   0  0  0  0  0  0  0  0  0  0  0  0
  150.7976  140.7729  157.8567 H   0  0  0  0  0  0  0  0  0  0  0  0
  152.4283  137.5829  158.0716 H   0  0  0  0  0  0  0  0  0  0  0  0
  150.9277  138.2875  158.5962 H   0  0  0  0  0  0  0  0  0  0  0  0
  149.9781  138.7679  152.9517 H   0  0  0  0  0  0  0  0  0  0  0  0
  150.9281  136.6464  153.6899 H   0  0  0  0  0  0  0  0  0  0  0  0
  151.1728  142.2678  160.3837 H   0  0  0  0  0  0  0  0  0  0  0  0
  154.1485  141.5627  160.5035 H   0  0  0  0  0  0  0  0  0  0  0  0
  152.8413  140.3863  160.5103 H   0  0  0  0  0  0  0  0  0  0  0  0
  153.0098  141.4901  161.8463 H   0  0  0  0  0  0  0  0  0  0  0  0
  1  2  1  0  0  0  0
  1 22  1  0  0  0  0
  1 23  1  0  0  0  0
  1 24  1  0  0  0  0
  2 19  1  0  0  0  0
  2  3  1  0  0  0  0
  2 25  1  0  0  0  0
  3  4  1  0  0  0  0
  3 26  1  0  0  0  0
  3 27  1  0  0  0  0
  4  5  1  0  0  0  0
  4 28  1  0  0  0  0
  4 29  1  0  0  0  0
  5  6  1  0  0  0  0
  5 30  1  0  0  0  0
  5 31  1  0  0  0  0
  6  7  1  0  0  0  0
  6 19  1  0  0  0  0
  6 32  1  0  0  0  0
  7  8  1  0  0  0  0
  7 33  1  0  0  0  0
  8  9  2  0  0  0  0
  8 10  1  0  0  0  0
 10 34  1  0  0  0  0
 10 35  1  0  0  0  0
 10 11  1  0  0  0  0
 11 12  1  0  0  0  0
 11 17  1  0  0  0  0
 12 13  2  0  0  0  0
 13 14  1  0  0  0  0
 13 15  1  0  0  0  0
 14 21  1  0  0  0  0
 15 36  1  0  0  0  0
 15 16  2  0  0  0  0
 16 37  1  0  0  0  0
 16 17  1  0  0  0  0
 17 18  2  0  0  0  0
 19 20  1  0  0  0  0
 19 38  1  0  0  0  0
 20 39  1  0  0  0  0
 20 40  1  0  0  0  0
 20 41  1  0  0  0  0
M  END
> <s_m_source_file>
AV-unprocessed.smi

> <i_m_source_file_index>
1464

> <i_lp_mmshare_version>
43012

> <i_f3d_flags>
0

> <s_epik_input>
W0NIM11bQ0BASF0xW0NIMl1bQ0gyXVtDSDJdW0NASF0oW0NASF0xW0NIM10pW05IXUMoPU8pW0NIMl1uMltuSF1jKD1PKVtjSF1bY0hdYzI9Tw==

> <s_epik_cmdline>
J2VwaWtfcHl0aG9uJywgJy1waCcsICc3LjAnLCAnLXRuJywgJzgnLCAnLW1hJywgJzIwMCcsICctbWV0YWxfYmluZGluZycsICctaW1hZScsICc8aW5maWxlLm1hZT4nLCAnLW9tYWUnLCAnPG91dGZpbGUubWFlPic=

> <r_lp_tautomer_probability>
0.9996

> <r_epik_Ionization_Penalty>
2.10335

> <r_epik_Ionization_Penalty_Charging>
3.98079e-08

> <r_epik_Ionization_Penalty_Neutral>
2.10335

> <r_epik_State_Penalty>
1.67957

> <r_epik_Charging_Adjusted_Penalty>
1.67957

> <i_epik_Tot_Q>
0

> <i_epik_Tot_abs_Q>
0

> <r_epik_Metal_State_Penalty>
1.67957

> <b_epik_Metal_Only>
0

> <s_lp_Force_Field>
OPLS_2005

> <r_lp_Energy>
21.8095

> <b_lp_Chiralities_Consistent>
1

> <s_lp_Variant>
AV-unprocessed.smi:1464-11

> <Gold.Version>
5.8.1

> <Gold.Id.Protein>
6NUR|6NUR_protein|mol2

> <Gold.PLP.Fitness>
47.1584

> <Gold.PLP.PLP>
-42.2458

> <Gold.PLP.part.hbond>
-3.0000

> <Gold.PLP.part.metal>
0.0000

> <Gold.PLP.part.buried>
-5.0374

> <Gold.PLP.part.nonpolar>
-33.7656

> <Gold.PLP.part.repulsive>
0.1064

> <Gold.PLP.ligand.clash>
0.0000

> <Gold.PLP.ligand.torsion>
0.5486

> <Gold.PLP.Chemscore.Hbond>
2.0000

> <Gold.PLP.Chemscore.CHOScore>
0.0000

> <Gold.PLP.Chemscore.Metal>
0.0000

> <Gold.Chemscore.Hbonds>
donor molecule, donor type, donor heavy atom, donor atom, acceptor molecule, acceptor atom, score
      P1  H  7997  8009       L1     9  1.00
      P1  H 10752 10764       L1    18  1.00

> <Gold.PLP.Chemscore.Internal.Correction>
0.0097

> <Gold.Rescore>
     Score         DG    S(hbond)    S(metal)    S(lipo)     H(rot)  DE(clash)    DE(int)     intcor
     17.47     -19.58       1.96        0.00     113.15       2.22       0.06       2.04       ----

> <Gold.Chemscore.Fitness>
17.4705

> <Gold.Chemscore.DG>
-19.5800

> <Gold.Chemscore.ZeroCoef>
-5.4800

> <Gold.Chemscore.Hbond>
1.9614

> <Gold.Chemscore.Metal>
0.0000

> <Gold.Chemscore.Lipo>
113.1473

> <Gold.Chemscore.Internal_Hbond>
0.0000

> <Gold.Chemscore.DEClash>
0.0645

> <Gold.Chemscore.DEInternal>
2.0450

> <Gold.Chemscore.Rot>
2.2224

> <Gold.Chemscore.Internal.Correction>
   9.000000E+99

> <Gold.Chemscore.Hbonds>
donor molecule, donor type, donor heavy atom, donor atom, acceptor molecule, acceptor atom, score
      P1  H  7997  8009       L1     9  0.70
      P1  H 10752 10764       L1    18  0.95

> <Gold.Chemscore.Hbond.Weighted>
-6.5511

> <Gold.Chemscore.Metal.Weighted>
-0.0000

> <Gold.Chemscore.Lipo.Weighted>
-13.2382

> <Gold.Chemscore.Internal_Hbond.Weighted>
0.0000

> <Gold.Chemscore.DEClash.Weighted>
0.0645

> <Gold.Chemscore.DEInternal.Weighted>
2.0450

> <Gold.Chemscore.Rot.Weighted>
5.6893

> <Gold.Chemscore.Internal.Correction.Weighted>
   9.000000E+99

> <Gold.Protein.RotatedTorsions>
[ 6907 6896 6895 6894 ] final  -88.12 input  -60.11 | X-H torsion
[ 7974 7965 7964 7962 ] final -124.39 input  175.53 | X-H torsion
[ 8008 7997 7996 7995 ] final  141.71 input   59.86 | X-H torsion
[ 10167 10162 10161 10158 ] final  -94.62 input  -65.29 | X-H torsion
[ 10718 10713 10712 10709 ] final  -55.18 input   66.30 | X-H torsion
[ 10763 10752 10751 10750 ] final  -14.43 input  -60.55 | X-H torsion
[ 11005 11000 10999 10996 ] final  -16.15 input  -57.11 | X-H torsion

> <Gold.Protein.ActiveResidues>
 VAL166  LYS551  ARG553  GLY616  TRP617  ASP618  TYR619  PRO620  LYS621  CYS622 
 ASP623  PHE694  ASN695  SER759  ASP760  ASP761  ALA762  ILE779  LEU786  VAL792 
 PHE793  MET794  SER795  GLU796  ALA797  LYS798  CYS799  TRP800  GLU811  SER814 

> <Gold.Protein.RotatedAtoms>
  150.6868  134.2791  159.4619 H   0  0  0  0  0  0  0  0  0  0  0  0  # atno 6907 bound_to 6896
  152.0707  134.9533  160.0584 H   0  0  0  0  0  0  0  0  0  0  0  0  # atno 6908 bound_to 6896
  152.0924  133.4172  159.4587 H   0  0  0  0  0  0  0  0  0  0  0  0  # atno 6909 bound_to 6896
  145.0085  140.7885  143.4452 H   0  0  0  0  0  0  0  0  0  0  0  0  # atno 7974 bound_to 7965
  156.2961  140.2308  156.4609 H   0  0  0  0  0  0  0  0  0  0  0  0  # atno 8008 bound_to 7997
  154.8019  140.0448  157.1300 H   0  0  0  0  0  0  0  0  0  0  0  0  # atno 8009 bound_to 7997
  154.9523  140.3043  155.5073 H   0  0  0  0  0  0  0  0  0  0  0  0  # atno 8010 bound_to 7997
  140.3126  143.3096  152.0132 H   0  0  0  0  0  0  0  0  0  0  0  0  # atno 10167 bound_to 10162
  156.1389  130.4155  150.0137 H   0  0  0  0  0  0  0  0  0  0  0  0  # atno 10718 bound_to 10713
  153.5281  135.7015  153.5697 H   0  0  0  0  0  0  0  0  0  0  0  0  # atno 10763 bound_to 10752
  153.3716  135.3943  155.1793 H   0  0  0  0  0  0  0  0  0  0  0  0  # atno 10764 bound_to 10752
  154.8687  135.3813  154.4776 H   0  0  0  0  0  0  0  0  0  0  0  0  # atno 10765 bound_to 10752
  140.8038  133.8193  155.9496 H   0  0  0  0  0  0  0  0  0  0  0  0  # atno 11005 bound_to 11000
  145.2055  139.2231  143.5170 LP  0  0  0  0  0  0  0  0  0  0  0  0  # atno 17320 bound_to 7965
  146.3465  140.1881  142.8589 LP  0  0  0  0  0  0  0  0  0  0  0  0  # atno 17321 bound_to 7965
  139.4890  144.6373  151.6949 LP  0  0  0  0  0  0  0  0  0  0  0  0  # atno 17342 bound_to 10162
  140.5555  144.0355  150.6145 LP  0  0  0  0  0  0  0  0  0  0  0  0  # atno 17343 bound_to 10162
  156.8028  130.9296  151.3645 LP  0  0  0  0  0  0  0  0  0  0  0  0  # atno 17370 bound_to 10713
  157.6558  130.8923  149.9725 LP  0  0  0  0  0  0  0  0  0  0  0  0  # atno 17371 bound_to 10713
  140.9267  134.2073  157.4891 LP  0  0  0  0  0  0  0  0  0  0  0  0  # atno 17394 bound_to 11000
  139.8719  134.9815  156.5121 LP  0  0  0  0  0  0  0  0  0  0  0  0  # atno 17395 bound_to 11000

$$$$
