AV-unprocessed.smi:1382|AV-procd|sdf|5621|dock5
  -GOLD-   22720 5233D 1   1.00000     0.00000
 Structure written by MMmdl.
 44 45  0  0  0  0  0  0  0  0  1 V2000
  144.6239  133.2766  151.8099 C   0  0  0  0  0  0  0  0  0  0  0  0
  144.3092  134.5672  151.0463 C   0  0  0  0  0  0  0  0  0  0  0  0
  144.3649  135.8122  151.9461 C   0  0  0  0  0  0  0  0  0  0  0  0
  145.7650  136.1136  152.5197 C   0  0  0  0  0  0  0  0  0  0  0  0
  145.8041  137.2449  153.4294 N   0  0  0  0  0  0  0  0  0  0  0  0
  146.6372  138.3572  153.2662 C   0  0  0  0  0  0  0  0  0  0  0  0
  147.4885  138.3840  152.1712 N   0  0  0  0  0  0  0  0  0  0  0  0
  146.6184  139.4031  154.1464 C   0  0  0  0  0  0  0  0  0  0  0  0
  147.4848  140.5022  154.0029 N   0  0  0  0  0  0  0  0  0  0  0  0
  146.8686  141.8127  153.7775 C   0  0  0  0  0  0  0  0  0  0  0  0
  148.8340  140.3991  154.1209 C   0  0  0  0  0  0  0  0  0  0  0  0
  149.5720  141.3698  153.9413 O   0  0  0  0  0  0  0  0  0  0  0  0
  149.4649  139.0392  154.5203 C   0  0  1  0  0  0  0  0  0  0  0  0
  150.9915  138.9697  154.3877 C   0  0  0  0  0  0  0  0  0  0  0  0
  151.5057  139.5932  155.6778 C   0  0  0  0  0  0  0  0  0  0  0  0
  150.3112  139.5110  156.6334 C   0  0  0  0  0  0  0  0  0  0  0  0
  149.3014  138.8068  155.9164 O   0  0  0  0  0  0  0  0  0  0  0  0
  145.7495  139.3683  155.3304 C   0  0  0  0  0  0  0  0  0  0  0  0
  145.6835  140.2377  156.1987 O   0  0  0  0  0  0  0  0  0  0  0  0
  144.9564  138.2297  155.4416 N   0  0  0  0  0  0  0  0  0  0  0  0
  144.9399  137.1651  154.5480 C   0  0  0  0  0  0  0  0  0  0  0  0
  144.1931  136.2097  154.7624 O   0  0  0  0  0  0  0  0  0  0  0  0
  144.3447  138.1693  156.2425 H   0  0  0  0  0  0  0  0  0  0  0  0
  144.5790  132.4124  151.1470 H   0  0  0  0  0  0  0  0  0  0  0  0
  143.9106  133.1134  152.6182 H   0  0  0  0  0  0  0  0  0  0  0  0
  145.6229  133.3105  152.2452 H   0  0  0  0  0  0  0  0  0  0  0  0
  145.0162  134.6714  150.2228 H   0  0  0  0  0  0  0  0  0  0  0  0
  143.3190  134.4848  150.5970 H   0  0  0  0  0  0  0  0  0  0  0  0
  144.0352  136.6789  151.3722 H   0  0  0  0  0  0  0  0  0  0  0  0
  143.6464  135.7031  152.7590 H   0  0  0  0  0  0  0  0  0  0  0  0
  146.1684  135.2506  153.0471 H   0  0  0  0  0  0  0  0  0  0  0  0
  146.4867  136.3140  151.7254 H   0  0  0  0  0  0  0  0  0  0  0  0
  147.5173  137.6283  151.5015 H   0  0  0  0  0  0  0  0  0  0  0  0
  148.0802  139.1787  151.9757 H   0  0  0  0  0  0  0  0  0  0  0  0
  147.0840  142.4885  154.6065 H   0  0  0  0  0  0  0  0  0  0  0  0
  145.7841  141.7377  153.6839 H   0  0  0  0  0  0  0  0  0  0  0  0
  147.2436  142.2644  152.8577 H   0  0  0  0  0  0  0  0  0  0  0  0
  149.0003  138.2412  153.9416 H   0  0  0  0  0  0  0  0  0  0  0  0
  151.2987  137.9241  154.3417 H   0  0  0  0  0  0  0  0  0  0  0  0
  151.3850  139.4571  153.4947 H   0  0  0  0  0  0  0  0  0  0  0  0
  152.3756  139.0577  156.0593 H   0  0  0  0  0  0  0  0  0  0  0  0
  151.7937  140.6334  155.5211 H   0  0  0  0  0  0  0  0  0  0  0  0
  150.5548  138.9917  157.5603 H   0  0  0  0  0  0  0  0  0  0  0  0
  149.9511  140.5085  156.8892 H   0  0  0  0  0  0  0  0  0  0  0  0
  1  2  1  0  0  0  0
  1 24  1  0  0  0  0
  1 25  1  0  0  0  0
  1 26  1  0  0  0  0
  2  3  1  0  0  0  0
  2 27  1  0  0  0  0
  2 28  1  0  0  0  0
  3  4  1  0  0  0  0
  3 29  1  0  0  0  0
  3 30  1  0  0  0  0
  4  5  1  0  0  0  0
  4 31  1  0  0  0  0
  4 32  1  0  0  0  0
  5 21  1  0  0  0  0
  5  6  1  0  0  0  0
  6  7  1  0  0  0  0
  6  8  2  0  0  0  0
  7 33  1  0  0  0  0
  7 34  1  0  0  0  0
  8  9  1  0  0  0  0
  8 18  1  0  0  0  0
  9 10  1  0  0  0  0
  9 11  1  0  0  0  0
 10 35  1  0  0  0  0
 10 36  1  0  0  0  0
 10 37  1  0  0  0  0
 11 12  2  0  0  0  0
 11 13  1  0  0  0  0
 13 17  1  0  0  0  0
 13 14  1  0  0  0  0
 13 38  1  0  0  0  0
 14 15  1  0  0  0  0
 14 39  1  0  0  0  0
 14 40  1  0  0  0  0
 15 16  1  0  0  0  0
 15 41  1  0  0  0  0
 15 42  1  0  0  0  0
 16 17  1  0  0  0  0
 16 43  1  0  0  0  0
 16 44  1  0  0  0  0
 18 19  2  0  0  0  0
 18 20  1  0  0  0  0
 20 23  1  0  0  0  0
 20 21  1  0  0  0  0
 21 22  2  0  0  0  0
M  END
> <s_m_source_file>
AV-unprocessed.smi

> <i_m_source_file_index>
1382

> <i_lp_mmshare_version>
43012

> <i_f3d_flags>
0

> <s_epik_input>
W0NIM11bQ0gyXVtDSDJdW0NIMl1uMWMoW05IMl0pYyhjKD1PKVtuSF1jMT1PKU4oW0NIM10pQyg9TylbQ0BASF0yW0NIMl1bQ0gyXVtDSDJdTzI=

> <s_epik_cmdline>
J2VwaWtfcHl0aG9uJywgJy1waCcsICc3LjAnLCAnLXRuJywgJzgnLCAnLW1hJywgJzIwMCcsICctbWV0YWxfYmluZGluZycsICctaW1hZScsICc8aW5maWxlLm1hZT4nLCAnLW9tYWUnLCAnPG91dGZpbGUubWFlPic=

> <r_lp_tautomer_probability>
1

> <r_epik_Ionization_Penalty>
1.19634e-05

> <r_epik_Ionization_Penalty_Charging>
6.01811e-06

> <r_epik_Ionization_Penalty_Neutral>
5.94533e-06

> <r_epik_State_Penalty>
-0

> <r_epik_Charging_Adjusted_Penalty>
6.01811e-06

> <i_epik_Tot_Q>
0

> <i_epik_Tot_abs_Q>
0

> <r_epik_Metal_State_Penalty>
-0

> <b_epik_Metal_Only>
0

> <s_epik_Chemistry_Notes>
This compound has an imine and may undergo hydrolysis.

> <s_lp_Force_Field>
OPLS_2005

> <r_lp_Energy>
42.8449

> <b_lp_Chiralities_Consistent>
1

> <s_lp_Variant>
AV-unprocessed.smi:1382-2

> <Gold.Version>
5.8.1

> <Gold.Id.Protein>
6NUR|6NUR_protein|mol2

> <Gold.PLP.Fitness>
36.5301

> <Gold.PLP.PLP>
-30.9821

> <Gold.PLP.part.hbond>
-4.0000

> <Gold.PLP.part.metal>
0.0000

> <Gold.PLP.part.buried>
-2.3030

> <Gold.PLP.part.nonpolar>
-24.4156

> <Gold.PLP.part.repulsive>
0.3761

> <Gold.PLP.ligand.clash>
0.0000

> <Gold.PLP.ligand.torsion>
1.6214

> <Gold.PLP.Chemscore.Hbond>
2.1730

> <Gold.PLP.Chemscore.CHOScore>
0.0000

> <Gold.PLP.Chemscore.Metal>
0.0000

> <Gold.Chemscore.Hbonds>
donor molecule, donor type, donor heavy atom, donor atom, acceptor molecule, acceptor atom, score
      L1  H     7    33       P1  7948  0.32
      L1  H     7    34       P1  7957  1.00
      P1  H  7989  7998       L1    12  0.19
      P1  H  8011  8017       L1    12  0.75

> <Gold.PLP.Chemscore.Internal.Correction>
2.2719

> <Gold.Rescore>
     Score         DG    S(hbond)    S(metal)    S(lipo)     H(rot)  DE(clash)    DE(int)     intcor
     11.84     -15.34       2.30        0.00      55.75       1.69       0.55       2.95       ----

> <Gold.Chemscore.Fitness>
11.8407

> <Gold.Chemscore.DG>
-15.3387

> <Gold.Chemscore.ZeroCoef>
-5.4800

> <Gold.Chemscore.Hbond>
2.2973

> <Gold.Chemscore.Metal>
0.0000

> <Gold.Chemscore.Lipo>
55.7519

> <Gold.Chemscore.Internal_Hbond>
0.0000

> <Gold.Chemscore.DEClash>
0.5506

> <Gold.Chemscore.DEInternal>
2.9474

> <Gold.Chemscore.Rot>
1.6942

> <Gold.Chemscore.Internal.Correction>
   9.000000E+99

> <Gold.Chemscore.Hbonds>
donor molecule, donor type, donor heavy atom, donor atom, acceptor molecule, acceptor atom, score
      L1  H     7    33       P1  7948  0.31
      L1  H     7    34       P1  7957  0.96
      P1  H  7989  7998       L1    12  0.18
      P1  H  8011  8017       L1    12  0.74

> <Gold.Chemscore.Hbond.Weighted>
-7.6730

> <Gold.Chemscore.Metal.Weighted>
-0.0000

> <Gold.Chemscore.Lipo.Weighted>
-6.5230

> <Gold.Chemscore.Internal_Hbond.Weighted>
0.0000

> <Gold.Chemscore.DEClash.Weighted>
0.5506

> <Gold.Chemscore.DEInternal.Weighted>
2.9474

> <Gold.Chemscore.Rot.Weighted>
4.3372

> <Gold.Chemscore.Internal.Correction.Weighted>
   9.000000E+99

> <Gold.Protein.RotatedTorsions>
[ 6907 6896 6895 6894 ] final -132.37 input  -60.11 | X-H torsion
[ 7974 7965 7964 7962 ] final  162.88 input  175.53 | X-H torsion
[ 8008 7997 7996 7995 ] final  175.30 input   59.86 | X-H torsion
[ 10167 10162 10161 10158 ] final  178.61 input  -65.29 | X-H torsion
[ 10718 10713 10712 10709 ] final   41.53 input   66.30 | X-H torsion
[ 10763 10752 10751 10750 ] final  101.13 input  -60.55 | X-H torsion
[ 11005 11000 10999 10996 ] final  134.44 input  -57.11 | X-H torsion

> <Gold.Protein.ActiveResidues>
 VAL166  LYS551  ARG553  GLY616  TRP617  ASP618  TYR619  PRO620  LYS621  CYS622 
 ASP623  PHE694  ASN695  SER759  ASP760  ASP761  ALA762  ILE779  LEU786  VAL792 
 PHE793  MET794  SER795  GLU796  ALA797  LYS798  CYS799  TRP800  GLU811  SER814 

> <Gold.Protein.RotatedAtoms>
  150.9616  133.6439  159.2753 H   0  0  0  0  0  0  0  0  0  0  0  0  # atno 6907 bound_to 6896
  151.3760  135.0930  159.9490 H   0  0  0  0  0  0  0  0  0  0  0  0  # atno 6908 bound_to 6896
  152.5149  133.9160  159.7566 H   0  0  0  0  0  0  0  0  0  0  0  0  # atno 6909 bound_to 6896
  144.7615  139.8103  143.6330 H   0  0  0  0  0  0  0  0  0  0  0  0  # atno 7974 bound_to 7965
  156.0884  140.1412  156.9623 H   0  0  0  0  0  0  0  0  0  0  0  0  # atno 8008 bound_to 7997
  154.4627  140.0937  156.6984 H   0  0  0  0  0  0  0  0  0  0  0  0  # atno 8009 bound_to 7997
  155.4960  140.3449  155.4365 H   0  0  0  0  0  0  0  0  0  0  0  0  # atno 8010 bound_to 7997
  139.5301  144.2659  152.0668 H   0  0  0  0  0  0  0  0  0  0  0  0  # atno 10167 bound_to 10162
  157.3946  130.7826  149.7298 H   0  0  0  0  0  0  0  0  0  0  0  0  # atno 10718 bound_to 10713
  153.3227  135.4055  155.1430 H   0  0  0  0  0  0  0  0  0  0  0  0  # atno 10763 bound_to 10752
  154.8604  135.3591  154.5575 H   0  0  0  0  0  0  0  0  0  0  0  0  # atno 10764 bound_to 10752
  153.6009  135.7071  153.5444 H   0  0  0  0  0  0  0  0  0  0  0  0  # atno 10765 bound_to 10752
  139.9915  134.9513  156.9867 H   0  0  0  0  0  0  0  0  0  0  0  0  # atno 11005 bound_to 11000
  146.1683  139.4824  142.9944 LP  0  0  0  0  0  0  0  0  0  0  0  0  # atno 17320 bound_to 7965
  145.6603  141.0242  143.1712 LP  0  0  0  0  0  0  0  0  0  0  0  0  # atno 17321 bound_to 7965
  140.2121  144.4552  150.6381 LP  0  0  0  0  0  0  0  0  0  0  0  0  # atno 17342 bound_to 10162
  140.6473  143.2216  151.6156 LP  0  0  0  0  0  0  0  0  0  0  0  0  # atno 17343 bound_to 10162
  155.9807  130.4027  150.3513 LP  0  0  0  0  0  0  0  0  0  0  0  0  # atno 17370 bound_to 10713
  157.1633  131.0350  151.2830 LP  0  0  0  0  0  0  0  0  0  0  0  0  # atno 17371 bound_to 10713
  140.4899  134.1204  155.7231 LP  0  0  0  0  0  0  0  0  0  0  0  0  # atno 17394 bound_to 11000
  141.1570  133.8864  157.1951 LP  0  0  0  0  0  0  0  0  0  0  0  0  # atno 17395 bound_to 11000

$$$$
