AV-unprocessed.smi:114|AV-procd|sdf|1108|dock2
  -GOLD-   2262018223D 1   1.00000     0.00000
 Structure written by MMmdl.
 32 34  0  0  0  0  0  0  0  0  1 V2000
  143.2225  145.4118  155.7037 N   0  0  0  0  0  0  0  0  0  0  0  0
  144.0867  144.9506  154.7888 C   0  0  0  0  0  0  0  0  0  0  0  0
  144.1814  145.6012  153.6055 N   0  0  0  0  0  0  0  0  0  0  0  0
  145.0342  145.1748  152.6653 C   0  0  0  0  0  0  0  0  0  0  0  0
  145.0645  145.8862  151.5141 F   0  0  0  0  0  0  0  0  0  0  0  0
  145.8598  144.1245  152.7344 N   0  0  0  0  0  0  0  0  0  0  0  0
  145.7629  143.4653  153.9251 C   0  0  0  0  0  0  0  0  0  0  0  0
  144.9067  143.8154  155.0018 C   0  0  0  0  0  0  0  0  0  0  0  0
  145.0858  142.9287  156.0545 N   0  0  0  0  0  0  0  0  0  0  0  0
  146.0018  142.1043  155.6193 C   0  0  0  0  0  0  0  0  0  0  0  0
  146.4513  142.3444  154.3361 N   0  0  0  0  0  0  0  0  0  0  0  0
  147.4934  141.6217  153.5358 C   0  0  1  0  0  0  0  0  0  0  0  0
  148.7103  141.6993  154.2103 O   0  0  0  0  0  0  0  0  0  0  0  0
  148.8396  140.5760  155.0716 C   0  0  2  0  0  0  0  0  0  0  0  0
  150.3144  140.3746  155.4493 C   0  0  0  0  0  0  0  0  0  0  0  0
  150.9965  139.7252  154.3979 O   0  0  0  0  0  0  0  0  0  0  0  0
  148.2650  139.4463  154.2120 C   0  0  1  0  0  0  0  0  0  0  0  0
  147.7464  138.4200  155.0342 O   0  0  0  0  0  0  0  0  0  0  0  0
  147.1442  140.1249  153.4254 C   0  0  2  0  0  0  0  0  0  0  0  0
  147.1490  139.6893  152.0814 O   0  0  0  0  0  0  0  0  0  0  0  0
  147.5243  142.1587  152.5867 H   0  0  0  0  0  0  0  0  0  0  0  0
  148.2221  140.7160  155.9613 H   0  0  0  0  0  0  0  0  0  0  0  0
  149.0323  139.0513  153.5435 H   0  0  0  0  0  0  0  0  0  0  0  0
  146.1650  139.9325  153.8677 H   0  0  0  0  0  0  0  0  0  0  0  0
  143.1360  144.9424  156.5940 H   0  0  0  0  0  0  0  0  0  0  0  0
  142.6590  146.2248  155.5016 H   0  0  0  0  0  0  0  0  0  0  0  0
  146.3720  141.2954  156.2323 H   0  0  0  0  0  0  0  0  0  0  0  0
  150.7967  141.3400  155.6051 H   0  0  0  0  0  0  0  0  0  0  0  0
  150.4146  139.8081  156.3756 H   0  0  0  0  0  0  0  0  0  0  0  0
  150.6089  138.8730  154.2690 H   0  0  0  0  0  0  0  0  0  0  0  0
  146.9412  138.7271  155.4224 H   0  0  0  0  0  0  0  0  0  0  0  0
  148.0151  139.8245  151.7274 H   0  0  0  0  0  0  0  0  0  0  0  0
  1  2  1  0  0  0  0
  1 25  1  0  0  0  0
  1 26  1  0  0  0  0
  2  8  1  0  0  0  0
  2  3  2  0  0  0  0
  3  4  1  0  0  0  0
  4  5  1  0  0  0  0
  4  6  2  0  0  0  0
  6  7  1  0  0  0  0
  7 11  1  0  0  0  0
  7  8  2  0  0  0  0
  8  9  1  0  0  0  0
  9 10  2  0  0  0  0
 10 11  1  0  0  0  0
 10 27  1  0  0  0  0
 11 12  1  0  0  0  0
 12 21  1  0  0  0  0
 12 19  1  0  0  0  0
 12 13  1  0  0  0  0
 13 14  1  0  0  0  0
 14 22  1  0  0  0  0
 14 15  1  0  0  0  0
 14 17  1  0  0  0  0
 15 16  1  0  0  0  0
 15 28  1  0  0  0  0
 15 29  1  0  0  0  0
 16 30  1  0  0  0  0
 17 23  1  0  0  0  0
 17 18  1  0  0  0  0
 17 19  1  0  0  0  0
 18 31  1  0  0  0  0
 19 24  1  0  0  0  0
 19 20  1  0  0  0  0
 20 32  1  0  0  0  0
M  END
> <s_m_source_file>
AV-unprocessed.smi

> <i_m_source_file_index>
114

> <i_lp_mmshare_version>
43012

> <i_f3d_flags>
0

> <s_epik_input>
RmMobjEpbmMoW05IMl0pYyhjMTIpbltjSF1uMltDQEBIXTNPW0NASF0oW0NIMl1bT0hdKVtDQEBIXShbT0hdKVtDQEBIXTNbT0hd

> <s_epik_cmdline>
J2VwaWtfcHl0aG9uJywgJy1waCcsICc3LjAnLCAnLXRuJywgJzgnLCAnLW1hJywgJzIwMCcsICctbWV0YWxfYmluZGluZycsICctaW1hZScsICc8aW5maWxlLm1hZT4nLCAnLW9tYWUnLCAnPG91dGZpbGUubWFlPic=

> <r_lp_tautomer_probability>
1

> <r_epik_Ionization_Penalty>
1.13199e-05

> <r_epik_Ionization_Penalty_Charging>
0

> <r_epik_Ionization_Penalty_Neutral>
1.13199e-05

> <r_epik_State_Penalty>
-0

> <r_epik_Charging_Adjusted_Penalty>
0

> <i_epik_Tot_Q>
0

> <i_epik_Tot_abs_Q>
0

> <r_epik_Metal_State_Penalty>
-0

> <b_epik_Metal_Only>
0

> <s_epik_Chemistry_Notes>
This compound contains an acetal/aminal-like group ( X-CH(R)-Y where X, Y are N, S, or O) that may be acid/base labile, releasing an aldehyde.

> <s_lp_Force_Field>
OPLS_2005

> <r_lp_Energy>
32.1203

> <b_lp_Chiralities_Consistent>
1

> <s_lp_Variant>
AV-unprocessed.smi:114-2

> <Gold.Version>
5.8.1

> <Gold.Id.Protein>
6NUR|6NUR_protein|mol2

> <Gold.PLP.Fitness>
38.0875

> <Gold.PLP.PLP>
-32.1470

> <Gold.PLP.part.hbond>
-4.5015

> <Gold.PLP.part.metal>
0.0000

> <Gold.PLP.part.buried>
-1.7071

> <Gold.PLP.part.nonpolar>
-26.9169

> <Gold.PLP.part.repulsive>
0.6047

> <Gold.PLP.ligand.clash>
0.0000

> <Gold.PLP.ligand.torsion>
0.2688

> <Gold.PLP.Chemscore.Hbond>
2.1494

> <Gold.PLP.Chemscore.CHOScore>
0.0000

> <Gold.PLP.Chemscore.Metal>
0.0000

> <Gold.Chemscore.Hbonds>
donor molecule, donor type, donor heavy atom, donor atom, acceptor molecule, acceptor atom, score
      L1  H    20    32       P1  7957  1.00
      P1  H  7989  7998       L1    16  1.00
      P1  H  8011  8017       L1    13  0.12

> <Gold.PLP.Chemscore.Internal.Correction>
0.0299

> <Gold.Rescore>
     Score         DG    S(hbond)    S(metal)    S(lipo)     H(rot)  DE(clash)    DE(int)     intcor
      3.85      -4.90       1.98        0.00      26.76       4.03       0.84       0.21       ----

> <Gold.Chemscore.Fitness>
3.8529

> <Gold.Chemscore.DG>
-4.8998

> <Gold.Chemscore.ZeroCoef>
-5.4800

> <Gold.Chemscore.Hbond>
1.9759

> <Gold.Chemscore.Metal>
0.0000

> <Gold.Chemscore.Lipo>
26.7635

> <Gold.Chemscore.Internal_Hbond>
0.0000

> <Gold.Chemscore.DEClash>
0.8408

> <Gold.Chemscore.DEInternal>
0.2060

> <Gold.Chemscore.Rot>
4.0277

> <Gold.Chemscore.Internal.Correction>
   9.000000E+99

> <Gold.Chemscore.Hbonds>
donor molecule, donor type, donor heavy atom, donor atom, acceptor molecule, acceptor atom, score
      L1  H    20    32       P1  7957  1.00
      P1  H  7989  7998       L1    16  0.59
      P1  H  8011  8017       L1    13  0.01

> <Gold.Chemscore.Hbond.Weighted>
-6.5994

> <Gold.Chemscore.Metal.Weighted>
-0.0000

> <Gold.Chemscore.Lipo.Weighted>
-3.1313

> <Gold.Chemscore.Internal_Hbond.Weighted>
0.0000

> <Gold.Chemscore.DEClash.Weighted>
0.8408

> <Gold.Chemscore.DEInternal.Weighted>
0.2060

> <Gold.Chemscore.Rot.Weighted>
10.3110

> <Gold.Chemscore.Internal.Correction.Weighted>
   9.000000E+99

> <Gold.Protein.RotatedTorsions>
[ 6907 6896 6895 6894 ] final  122.12 input  -60.11 | X-H torsion
[ 7974 7965 7964 7962 ] final  -64.13 input  175.53 | X-H torsion
[ 8008 7997 7996 7995 ] final   49.49 input   59.86 | X-H torsion
[ 10167 10162 10161 10158 ] final -171.92 input  -65.29 | X-H torsion
[ 10718 10713 10712 10709 ] final  137.79 input   66.30 | X-H torsion
[ 10763 10752 10751 10750 ] final -158.95 input  -60.55 | X-H torsion
[ 11005 11000 10999 10996 ] final  108.30 input  -57.11 | X-H torsion

> <Gold.Protein.ActiveResidues>
 VAL166  LYS551  ARG553  GLY616  TRP617  ASP618  TYR619  PRO620  LYS621  CYS622 
 ASP623  PHE694  ASN695  SER759  ASP760  ASP761  ALA762  ILE779  LEU786  VAL792 
 PHE793  MET794  SER795  GLU796  ALA797  LYS798  CYS799  TRP800  GLU811  SER814 

> <Gold.Protein.RotatedAtoms>
  152.4268  133.7209  159.6532 H   0  0  0  0  0  0  0  0  0  0  0  0  # atno 6907 bound_to 6896
  150.8145  133.8351  159.3172 H   0  0  0  0  0  0  0  0  0  0  0  0  # atno 6908 bound_to 6896
  151.6051  135.1046  160.0120 H   0  0  0  0  0  0  0  0  0  0  0  0  # atno 6909 bound_to 6896
  145.7704  140.8815  143.0383 H   0  0  0  0  0  0  0  0  0  0  0  0  # atno 7974 bound_to 7965
  155.4031  140.3439  155.4258 H   0  0  0  0  0  0  0  0  0  0  0  0  # atno 8008 bound_to 7997
  156.1492  140.1565  156.8830 H   0  0  0  0  0  0  0  0  0  0  0  0  # atno 8009 bound_to 7997
  154.5037  140.0808  156.7832 H   0  0  0  0  0  0  0  0  0  0  0  0  # atno 8010 bound_to 7997
  139.5774  144.1500  152.1469 H   0  0  0  0  0  0  0  0  0  0  0  0  # atno 10167 bound_to 10162
  157.4323  131.1050  151.0236 H   0  0  0  0  0  0  0  0  0  0  0  0  # atno 10718 bound_to 10713
  154.7515  135.3093  154.8549 H   0  0  0  0  0  0  0  0  0  0  0  0  # atno 10763 bound_to 10752
  153.9335  135.6782  153.4749 H   0  0  0  0  0  0  0  0  0  0  0  0  # atno 10764 bound_to 10752
  153.1111  135.4866  154.8964 H   0  0  0  0  0  0  0  0  0  0  0  0  # atno 10765 bound_to 10752
  139.8842  134.9426  156.5951 H   0  0  0  0  0  0  0  0  0  0  0  0  # atno 11005 bound_to 11000
  144.6813  139.9848  143.7484 LP  0  0  0  0  0  0  0  0  0  0  0  0  # atno 17320 bound_to 7965
  146.0175  139.3222  143.0833 LP  0  0  0  0  0  0  0  0  0  0  0  0  # atno 17321 bound_to 7965
  140.1046  144.5510  150.6966 LP  0  0  0  0  0  0  0  0  0  0  0  0  # atno 17342 bound_to 10162
  140.7056  143.2465  151.4737 LP  0  0  0  0  0  0  0  0  0  0  0  0  # atno 17343 bound_to 10162
  157.1128  130.6029  149.5486 LP  0  0  0  0  0  0  0  0  0  0  0  0  # atno 17370 bound_to 10713
  155.9918  130.4973  150.7313 LP  0  0  0  0  0  0  0  0  0  0  0  0  # atno 17371 bound_to 10713
  140.7926  133.8570  155.8659 LP  0  0  0  0  0  0  0  0  0  0  0  0  # atno 17394 bound_to 11000
  140.9664  134.1589  157.4613 LP  0  0  0  0  0  0  0  0  0  0  0  0  # atno 17395 bound_to 11000

$$$$
