AV-unprocessed.smi:260|AV-procd|sdf|1977|dock2
  -GOLD-   2262021143D 1   1.00000     0.00000
 Structure written by MMmdl.
 53 56  0  0  0  0  0  0  0  0  1 V2000
  144.9018  138.1542  155.8465 C   0  0  0  0  0  0  0  0  0  0  0  0
  145.6412  139.3215  155.3908 N   0  0  0  0  0  0  0  0  0  0  0  0
  146.8567  139.6741  155.8393 C   0  0  0  0  0  0  0  0  0  0  0  0
  147.4497  139.0121  156.6930 O   0  0  0  0  0  0  0  0  0  0  0  0
  147.5103  140.9560  155.2515 C   0  0  1  0  0  0  0  0  0  0  0  0
  146.6366  141.6074  154.1540 C   0  0  0  0  0  0  0  0  0  0  0  0
  147.8315  141.9529  156.3842 C   0  0  0  0  0  0  0  0  0  0  0  0
  149.1983  141.5220  156.9217 C   0  0  0  0  0  0  0  0  0  0  0  0
  149.8588  140.8871  155.7947 N   0  0  0  0  0  0  0  0  0  0  0  0
  151.0598  140.2588  155.8879 C   0  0  0  0  0  0  0  0  0  0  0  0
  151.5845  139.7071  154.7615 N   0  0  0  0  0  0  0  0  0  0  0  0
  152.7612  139.0765  154.7956 C   0  0  0  0  0  0  0  0  0  0  0  0
  153.5741  138.8855  155.8349 N   0  0  0  0  0  0  0  0  0  0  0  0
  153.0619  139.4412  156.9695 C   0  0  0  0  0  0  0  0  0  0  0  0
  151.8255  140.1407  157.0870 C   0  0  0  0  0  0  0  0  0  0  0  0
  151.6543  140.5579  158.4037 N   0  0  0  0  0  0  0  0  0  0  0  0
  152.7178  140.1274  159.0243 C   0  0  0  0  0  0  0  0  0  0  0  0
  153.6145  139.4436  158.2380 N   0  0  0  0  0  0  0  0  0  0  0  0
  154.8701  138.8549  158.6695 C   0  0  0  0  0  0  0  0  0  0  0  0
  154.6856  137.8782  159.8470 C   0  0  1  0  0  0  0  0  0  0  0  0
  153.4563  137.1935  159.6980 O   0  0  0  0  0  0  0  0  0  0  0  0
  155.8237  136.8446  159.9286 C   0  0  2  0  0  0  0  0  0  0  0  0
  155.9104  135.8973  158.7304 C   0  0  0  0  0  0  0  0  0  0  0  0
  156.5847  134.6575  159.2977 C   0  0  0  0  0  0  0  0  0  0  0  0
  156.4812  134.8377  160.8144 C   0  0  0  0  0  0  0  0  0  0  0  0
  155.6002  135.9370  160.9970 O   0  0  0  0  0  0  0  0  0  0  0  0
  148.9211  140.6383  154.7042 C   0  0  0  0  0  0  0  0  0  0  0  0
  143.9453  138.0943  155.3276 H   0  0  0  0  0  0  0  0  0  0  0  0
  144.7056  138.2127  156.9179 H   0  0  0  0  0  0  0  0  0  0  0  0
  145.4584  137.2385  155.6430 H   0  0  0  0  0  0  0  0  0  0  0  0
  145.2027  139.9018  154.6903 H   0  0  0  0  0  0  0  0  0  0  0  0
  147.1335  142.4747  153.7179 H   0  0  0  0  0  0  0  0  0  0  0  0
  145.6822  141.9557  154.5510 H   0  0  0  0  0  0  0  0  0  0  0  0
  146.4319  140.9120  153.3388 H   0  0  0  0  0  0  0  0  0  0  0  0
  147.9094  142.9634  155.9809 H   0  0  0  0  0  0  0  0  0  0  0  0
  147.0735  141.9790  157.1686 H   0  0  0  0  0  0  0  0  0  0  0  0
  149.7663  142.3753  157.2931 H   0  0  0  0  0  0  0  0  0  0  0  0
  149.0838  140.8016  157.7325 H   0  0  0  0  0  0  0  0  0  0  0  0
  153.0994  138.6664  153.8555 H   0  0  0  0  0  0  0  0  0  0  0  0
  152.8765  140.2948  160.0797 H   0  0  0  0  0  0  0  0  0  0  0  0
  155.3339  138.3507  157.8208 H   0  0  0  0  0  0  0  0  0  0  0  0
  155.5421  139.6658  158.9529 H   0  0  0  0  0  0  0  0  0  0  0  0
  154.6445  138.4427  160.7796 H   0  0  0  0  0  0  0  0  0  0  0  0
  152.7838  137.8256  159.4938 H   0  0  0  0  0  0  0  0  0  0  0  0
  156.7838  137.3416  160.0818 H   0  0  0  0  0  0  0  0  0  0  0  0
  154.9101  135.6387  158.3802 H   0  0  0  0  0  0  0  0  0  0  0  0
  156.4572  136.3304  157.8923 H   0  0  0  0  0  0  0  0  0  0  0  0
  156.0771  133.7526  158.9621 H   0  0  0  0  0  0  0  0  0  0  0  0
  157.6284  134.5918  158.9884 H   0  0  0  0  0  0  0  0  0  0  0  0
  156.1070  133.9464  161.3184 H   0  0  0  0  0  0  0  0  0  0  0  0
  157.4556  135.0848  161.2385 H   0  0  0  0  0  0  0  0  0  0  0  0
  148.9836  139.6114  154.3398 H   0  0  0  0  0  0  0  0  0  0  0  0
  149.1806  141.2937  153.8722 H   0  0  0  0  0  0  0  0  0  0  0  0
  1  2  1  0  0  0  0
  1 28  1  0  0  0  0
  1 29  1  0  0  0  0
  1 30  1  0  0  0  0
  2  3  1  0  0  0  0
  2 31  1  0  0  0  0
  3  4  2  0  0  0  0
  3  5  1  0  0  0  0
  5 27  1  0  0  0  0
  5  6  1  0  0  0  0
  5  7  1  0  0  0  0
  6 32  1  0  0  0  0
  6 33  1  0  0  0  0
  6 34  1  0  0  0  0
  7  8  1  0  0  0  0
  7 35  1  0  0  0  0
  7 36  1  0  0  0  0
  8  9  1  0  0  0  0
  8 37  1  0  0  0  0
  8 38  1  0  0  0  0
  9 10  1  0  0  0  0
  9 27  1  0  0  0  0
 10 15  1  0  0  0  0
 10 11  2  0  0  0  0
 11 12  1  0  0  0  0
 12 13  2  0  0  0  0
 12 39  1  0  0  0  0
 13 14  1  0  0  0  0
 14 18  1  0  0  0  0
 14 15  2  0  0  0  0
 15 16  1  0  0  0  0
 16 17  2  0  0  0  0
 17 18  1  0  0  0  0
 17 40  1  0  0  0  0
 18 19  1  0  0  0  0
 19 20  1  0  0  0  0
 19 41  1  0  0  0  0
 19 42  1  0  0  0  0
 20 21  1  0  0  0  0
 20 22  1  0  0  0  0
 20 43  1  0  0  0  0
 21 44  1  0  0  0  0
 22 26  1  0  0  0  0
 22 23  1  0  0  0  0
 22 45  1  0  0  0  0
 23 24  1  0  0  0  0
 23 46  1  0  0  0  0
 23 47  1  0  0  0  0
 24 25  1  0  0  0  0
 24 48  1  0  0  0  0
 24 49  1  0  0  0  0
 25 26  1  0  0  0  0
 25 50  1  0  0  0  0
 25 51  1  0  0  0  0
 27 52  1  0  0  0  0
 27 53  1  0  0  0  0
M  END
> <s_m_source_file>
AV-unprocessed.smi

> <i_m_source_file_index>
260

> <i_lp_mmshare_version>
43012

> <i_f3d_flags>
0

> <s_epik_input>
W0NIM11bTkhdQyg9TylbQ0BAXTEoW0NIM10pW0NIMl1bQ0gyXU4oW0NIMl0xKWMobltjSF1uMiljKGMyMyluW2NIXW4zW0NIMl1bQ0BIXShbT0hdKVtDQEBIXTRbQ0gyXVtDSDJdW0NIMl1PNA==

> <s_epik_cmdline>
J2VwaWtfcHl0aG9uJywgJy1waCcsICc3LjAnLCAnLXRuJywgJzgnLCAnLW1hJywgJzIwMCcsICctbWV0YWxfYmluZGluZycsICctaW1hZScsICc8aW5maWxlLm1hZT4nLCAnLW9tYWUnLCAnPG91dGZpbGUubWFlPic=

> <r_lp_tautomer_probability>
1

> <r_epik_Ionization_Penalty>
0.00115068

> <r_epik_Ionization_Penalty_Charging>
0

> <r_epik_Ionization_Penalty_Neutral>
0.00115068

> <r_epik_State_Penalty>
0.000668876

> <r_epik_Charging_Adjusted_Penalty>
0.000668876

> <i_epik_Tot_Q>
0

> <i_epik_Tot_abs_Q>
0

> <r_epik_Metal_State_Penalty>
-0

> <b_epik_Metal_Only>
0

> <s_lp_Force_Field>
OPLS_2005

> <r_lp_Energy>
48.4888

> <b_lp_Chiralities_Consistent>
1

> <s_lp_Variant>
AV-unprocessed.smi:260-3

> <Gold.Version>
5.8.1

> <Gold.Id.Protein>
6NUR|6NUR_protein|mol2

> <Gold.PLP.Fitness>
42.9308

> <Gold.PLP.PLP>
-32.8947

> <Gold.PLP.part.hbond>
-4.4336

> <Gold.PLP.part.metal>
0.0000

> <Gold.PLP.part.buried>
-2.2314

> <Gold.PLP.part.nonpolar>
-25.1941

> <Gold.PLP.part.repulsive>
0.0713

> <Gold.PLP.ligand.clash>
0.0000

> <Gold.PLP.ligand.torsion>
0.4380

> <Gold.PLP.Chemscore.Hbond>
3.5552

> <Gold.PLP.Chemscore.CHOScore>
0.0000

> <Gold.PLP.Chemscore.Metal>
0.0000

> <Gold.Chemscore.Hbonds>
donor molecule, donor type, donor heavy atom, donor atom, acceptor molecule, acceptor atom, score
      P1  H  7989  7998       L1    11  1.00
      P1  H  7997  8009       L1    13  0.10

> <Gold.PLP.Chemscore.Internal.Correction>
0.2465

> <Gold.Rescore>
     Score         DG    S(hbond)    S(metal)    S(lipo)     H(rot)  DE(clash)    DE(int)     intcor
     12.19     -14.10       2.52        0.00      56.86       2.53       0.34       1.57       ----

> <Gold.Chemscore.Fitness>
12.1871

> <Gold.Chemscore.DG>
-14.0962

> <Gold.Chemscore.ZeroCoef>
-5.4800

> <Gold.Chemscore.Hbond>
2.5240

> <Gold.Chemscore.Metal>
0.0000

> <Gold.Chemscore.Lipo>
56.8566

> <Gold.Chemscore.Internal_Hbond>
0.0000

> <Gold.Chemscore.DEClash>
0.3395

> <Gold.Chemscore.DEInternal>
1.5696

> <Gold.Chemscore.Rot>
2.5259

> <Gold.Chemscore.Internal.Correction>
   9.000000E+99

> <Gold.Chemscore.Hbonds>
donor molecule, donor type, donor heavy atom, donor atom, acceptor molecule, acceptor atom, score
      P1  H  7989  7998       L1    11  0.47

> <Gold.Chemscore.Hbond.Weighted>
-8.4303

> <Gold.Chemscore.Metal.Weighted>
-0.0000

> <Gold.Chemscore.Lipo.Weighted>
-6.6522

> <Gold.Chemscore.Internal_Hbond.Weighted>
0.0000

> <Gold.Chemscore.DEClash.Weighted>
0.3395

> <Gold.Chemscore.DEInternal.Weighted>
1.5696

> <Gold.Chemscore.Rot.Weighted>
6.4663

> <Gold.Chemscore.Internal.Correction.Weighted>
   9.000000E+99

> <Gold.Protein.RotatedTorsions>
[ 6907 6896 6895 6894 ] final   18.77 input  -60.11 | X-H torsion
[ 7974 7965 7964 7962 ] final  139.32 input  175.53 | X-H torsion
[ 8008 7997 7996 7995 ] final -131.49 input   59.86 | X-H torsion
[ 10167 10162 10161 10158 ] final -164.93 input  -65.29 | X-H torsion
[ 10718 10713 10712 10709 ] final  -90.32 input   66.30 | X-H torsion
[ 10763 10752 10751 10750 ] final -138.57 input  -60.55 | X-H torsion
[ 11005 11000 10999 10996 ] final   57.93 input  -57.11 | X-H torsion

> <Gold.Protein.ActiveResidues>
 VAL166  LYS551  ARG553  GLY616  TRP617  ASP618  TYR619  PRO620  LYS621  CYS622 
 ASP623  PHE694  ASN695  SER759  ASP760  ASP761  ALA762  ILE779  LEU786  VAL792 
 PHE793  MET794  SER795  GLU796  ALA797  LYS798  CYS799  TRP800  GLU811  SER814 

> <Gold.Protein.RotatedAtoms>
  151.8705  135.0491  160.0478 H   0  0  0  0  0  0  0  0  0  0  0  0  # atno 6907 bound_to 6896
  152.2592  133.5278  159.5380 H   0  0  0  0  0  0  0  0  0  0  0  0  # atno 6908 bound_to 6896
  150.7110  134.0769  159.3926 H   0  0  0  0  0  0  0  0  0  0  0  0  # atno 6909 bound_to 6896
  144.9290  139.5071  143.5627 H   0  0  0  0  0  0  0  0  0  0  0  0  # atno 7974 bound_to 7965
  155.3132  140.0458  157.3036 H   0  0  0  0  0  0  0  0  0  0  0  0  # atno 8008 bound_to 7997
  154.5421  140.2291  155.8590 H   0  0  0  0  0  0  0  0  0  0  0  0  # atno 8009 bound_to 7997
  156.1890  140.3055  155.9302 H   0  0  0  0  0  0  0  0  0  0  0  0  # atno 8010 bound_to 7997
  139.6217  144.0612  152.1938 H   0  0  0  0  0  0  0  0  0  0  0  0  # atno 10167 bound_to 10162
  155.9987  130.4905  150.5305 H   0  0  0  0  0  0  0  0  0  0  0  0  # atno 10718 bound_to 10713
  154.8633  135.3608  154.5406 H   0  0  0  0  0  0  0  0  0  0  0  0  # atno 10763 bound_to 10752
  153.6028  135.7012  153.5382 H   0  0  0  0  0  0  0  0  0  0  0  0  # atno 10764 bound_to 10752
  153.3276  135.4133  155.1430 H   0  0  0  0  0  0  0  0  0  0  0  0  # atno 10765 bound_to 10752
  140.0415  134.5866  155.9375 H   0  0  0  0  0  0  0  0  0  0  0  0  # atno 11005 bound_to 11000
  146.3239  139.8226  142.8924 LP  0  0  0  0  0  0  0  0  0  0  0  0  # atno 17320 bound_to 7965
  145.3173  141.0235  143.3520 LP  0  0  0  0  0  0  0  0  0  0  0  0  # atno 17321 bound_to 7965
  140.0256  144.6120  150.7530 LP  0  0  0  0  0  0  0  0  0  0  0  0  # atno 17342 bound_to 10162
  140.7386  143.2780  151.3684 LP  0  0  0  0  0  0  0  0  0  0  0  0  # atno 17343 bound_to 10162
  157.3254  131.0690  151.1900 LP  0  0  0  0  0  0  0  0  0  0  0  0  # atno 17370 bound_to 10713
  157.2799  130.6745  149.6061 LP  0  0  0  0  0  0  0  0  0  0  0  0  # atno 17371 bound_to 10713
  141.1885  133.6563  156.5329 LP  0  0  0  0  0  0  0  0  0  0  0  0  # atno 17394 bound_to 11000
  140.4061  134.7314  157.4808 LP  0  0  0  0  0  0  0  0  0  0  0  0  # atno 17395 bound_to 11000

$$$$
