AV-unprocessed.smi:270|AV-procd|sdf|2045|dock10
  -GOLD-   2262021273D 1   1.00000     0.00000
 Structure written by MMmdl.
 54 57  0  0  0  0  0  0  0  0  1 V2000
  152.0832  143.4025  159.6352 C   0  0  0  0  0  0  0  0  0  0  0  0
  150.9155  143.5087  158.6418 C   0  0  2  0  0  0  0  0  0  0  0  0
  149.7055  143.4712  159.3945 O   0  0  0  0  0  0  0  0  0  0  0  0
  148.6946  142.8644  158.6093 C   0  0  0  0  0  0  0  0  0  0  0  0
  149.4475  141.7354  157.9230 C   0  0  0  0  0  0  0  0  0  0  0  0
  150.7907  142.3758  157.5835 C   0  0  1  0  0  0  0  0  0  0  0  0
  150.6680  142.9900  156.3109 O   0  0  0  0  0  0  0  0  0  0  0  0
  151.9634  141.3622  157.5136 C   0  0  0  0  0  0  0  0  0  0  0  0
  151.5275  139.9840  157.3425 N   0  0  0  0  0  0  0  0  0  0  0  0
  151.4978  139.0029  158.3072 C   0  0  0  0  0  0  0  0  0  0  0  0
  151.0630  137.8404  157.9049 N   0  0  0  0  0  0  0  0  0  0  0  0
  150.7661  138.0310  156.5601 C   0  0  0  0  0  0  0  0  0  0  0  0
  150.2590  137.1824  155.5325 C   0  0  0  0  0  0  0  0  0  0  0  0
  149.9068  135.8145  155.7201 N   0  0  0  0  0  0  0  0  0  0  0  0
  150.3701  134.8817  154.7032 C   0  0  0  0  0  0  0  0  0  0  0  0
  148.9877  134.2264  154.7880 C   0  0  0  0  0  0  0  0  0  0  0  0
  148.9538  133.0533  155.5859 O   0  0  0  0  0  0  0  0  0  0  0  0
  149.8077  132.0304  155.0995 C   0  0  0  0  0  0  0  0  0  0  0  0
  150.9256  131.7936  156.1215 C   0  0  0  0  0  0  0  0  0  0  0  0
  150.9964  132.5483  157.0923 O   0  0  0  0  0  0  0  0  0  0  0  0
  151.7885  130.7678  155.9320 N   0  0  0  0  0  0  0  0  0  0  0  0
  151.7413  129.8846  154.7630 C   0  0  0  0  0  0  0  0  0  0  0  0
  152.8561  130.4978  156.8986 C   0  0  0  0  0  0  0  0  0  0  0  0
  148.5028  135.4556  155.5581 C   0  0  0  0  0  0  0  0  0  0  0  0
  150.0657  137.7614  154.3168 N   0  0  0  0  0  0  0  0  0  0  0  0
  150.3664  139.0458  154.1060 C   0  0  0  0  0  0  0  0  0  0  0  0
  150.8595  139.9373  154.9653 N   0  0  0  0  0  0  0  0  0  0  0  0
  151.0429  139.3802  156.1951 C   0  0  0  0  0  0  0  0  0  0  0  0
  153.0459  143.4340  159.1248 H   0  0  0  0  0  0  0  0  0  0  0  0
  152.0329  142.4808  160.2153 H   0  0  0  0  0  0  0  0  0  0  0  0
  152.0621  144.2328  160.3413 H   0  0  0  0  0  0  0  0  0  0  0  0
  150.9697  144.4829  158.1519 H   0  0  0  0  0  0  0  0  0  0  0  0
  147.8661  142.5092  159.2224 H   0  0  0  0  0  0  0  0  0  0  0  0
  148.3085  143.5813  157.8831 H   0  0  0  0  0  0  0  0  0  0  0  0
  149.5884  140.9256  158.6396 H   0  0  0  0  0  0  0  0  0  0  0  0
  148.9202  141.3275  157.0594 H   0  0  0  0  0  0  0  0  0  0  0  0
  149.9928  143.6492  156.3608 H   0  0  0  0  0  0  0  0  0  0  0  0
  152.6347  141.6104  156.6904 H   0  0  0  0  0  0  0  0  0  0  0  0
  152.5625  141.4075  158.4233 H   0  0  0  0  0  0  0  0  0  0  0  0
  151.8150  139.1769  159.3251 H   0  0  0  0  0  0  0  0  0  0  0  0
  150.5589  135.3510  153.7365 H   0  0  0  0  0  0  0  0  0  0  0  0
  151.1984  134.2555  155.0354 H   0  0  0  0  0  0  0  0  0  0  0  0
  148.4910  134.1133  153.8228 H   0  0  0  0  0  0  0  0  0  0  0  0
  149.2376  131.1096  154.9643 H   0  0  0  0  0  0  0  0  0  0  0  0
  150.2309  132.2876  154.1280 H   0  0  0  0  0  0  0  0  0  0  0  0
  150.8293  129.2867  154.7696 H   0  0  0  0  0  0  0  0  0  0  0  0
  152.5831  129.1925  154.7302 H   0  0  0  0  0  0  0  0  0  0  0  0
  151.7720  130.4557  153.8346 H   0  0  0  0  0  0  0  0  0  0  0  0
  153.6751  131.2048  156.7606 H   0  0  0  0  0  0  0  0  0  0  0  0
  153.2620  129.4909  156.7977 H   0  0  0  0  0  0  0  0  0  0  0  0
  152.4988  130.5884  157.9257 H   0  0  0  0  0  0  0  0  0  0  0  0
  147.9973  135.2321  156.4978 H   0  0  0  0  0  0  0  0  0  0  0  0
  147.9361  136.1447  154.9301 H   0  0  0  0  0  0  0  0  0  0  0  0
  150.1835  139.4110  153.1062 H   0  0  0  0  0  0  0  0  0  0  0  0
  1  2  1  0  0  0  0
  1 29  1  0  0  0  0
  1 30  1  0  0  0  0
  1 31  1  0  0  0  0
  2  6  1  0  0  0  0
  2  3  1  0  0  0  0
  2 32  1  0  0  0  0
  3  4  1  0  0  0  0
  4  5  1  0  0  0  0
  4 33  1  0  0  0  0
  4 34  1  0  0  0  0
  5  6  1  0  0  0  0
  5 35  1  0  0  0  0
  5 36  1  0  0  0  0
  6  7  1  0  0  0  0
  6  8  1  0  0  0  0
  7 37  1  0  0  0  0
  8  9  1  0  0  0  0
  8 38  1  0  0  0  0
  8 39  1  0  0  0  0
  9 28  1  0  0  0  0
  9 10  1  0  0  0  0
 10 11  2  0  0  0  0
 10 40  1  0  0  0  0
 11 12  1  0  0  0  0
 12 28  2  0  0  0  0
 12 13  1  0  0  0  0
 13 14  1  0  0  0  0
 13 25  2  0  0  0  0
 14 24  1  0  0  0  0
 14 15  1  0  0  0  0
 15 16  1  0  0  0  0
 15 41  1  0  0  0  0
 15 42  1  0  0  0  0
 16 17  1  0  0  0  0
 16 24  1  0  0  0  0
 16 43  1  0  0  0  0
 17 18  1  0  0  0  0
 18 19  1  0  0  0  0
 18 44  1  0  0  0  0
 18 45  1  0  0  0  0
 19 20  2  0  0  0  0
 19 21  1  0  0  0  0
 21 22  1  0  0  0  0
 21 23  1  0  0  0  0
 22 46  1  0  0  0  0
 22 47  1  0  0  0  0
 22 48  1  0  0  0  0
 23 49  1  0  0  0  0
 23 50  1  0  0  0  0
 23 51  1  0  0  0  0
 24 52  1  0  0  0  0
 24 53  1  0  0  0  0
 25 26  1  0  0  0  0
 26 27  2  0  0  0  0
 26 54  1  0  0  0  0
 27 28  1  0  0  0  0
M  END
> <s_m_source_file>
AV-unprocessed.smi

> <i_m_source_file_index>
270

> <i_lp_mmshare_version>
43012

> <i_f3d_flags>
0

> <s_epik_input>
W0NIMl0xW0NIMl1PW0NAQEhdKFtDSDNdKVtDQEBdMShbT0hdKVtDSDJdbihbY0hdbjIpYyhjMjMpbltjSF1uYzNONFtDSDJdW0NIXShbQ0gyXTQpT1tDSDJdQyg9TylOKFtDSDNdKVtDSDNd

> <s_epik_cmdline>
J2VwaWtfcHl0aG9uJywgJy1waCcsICc3LjAnLCAnLXRuJywgJzgnLCAnLW1hJywgJzIwMCcsICctbWV0YWxfYmluZGluZycsICctaW1hZScsICc8aW5maWxlLm1hZT4nLCAnLW9tYWUnLCAnPG91dGZpbGUubWFlPic=

> <r_lp_tautomer_probability>
1

> <r_epik_Ionization_Penalty>
0.00375854

> <r_epik_Ionization_Penalty_Charging>
0

> <r_epik_Ionization_Penalty_Neutral>
0.00375854

> <r_epik_State_Penalty>
-0

> <r_epik_Charging_Adjusted_Penalty>
0

> <i_epik_Tot_Q>
0

> <i_epik_Tot_abs_Q>
0

> <r_epik_Metal_State_Penalty>
-0

> <b_epik_Metal_Only>
0

> <s_lp_Force_Field>
OPLS_2005

> <r_lp_Energy>
54.2687

> <b_lp_Chiralities_Consistent>
1

> <s_lp_Variant>
AV-unprocessed.smi:270-1

> <Gold.Version>
5.8.1

> <Gold.Id.Protein>
6NUR|6NUR_protein|mol2

> <Gold.PLP.Fitness>
44.1450

> <Gold.PLP.PLP>
-36.3067

> <Gold.PLP.part.hbond>
-3.1430

> <Gold.PLP.part.metal>
0.0000

> <Gold.PLP.part.buried>
-7.1221

> <Gold.PLP.part.nonpolar>
-25.8513

> <Gold.PLP.part.repulsive>
0.4669

> <Gold.PLP.ligand.clash>
0.0000

> <Gold.PLP.ligand.torsion>
1.7462

> <Gold.PLP.Chemscore.Hbond>
2.6500

> <Gold.PLP.Chemscore.CHOScore>
1.0000

> <Gold.PLP.Chemscore.Metal>
0.0000

> <Gold.Chemscore.Hbonds>
donor molecule, donor type, donor heavy atom, donor atom, acceptor molecule, acceptor atom, score
      L1  H     7    37       P1  8028  1.00
      P1  H  6896  6908       L1    20  0.20
      P1  H  7989  7998       L1    27  0.45
      L1  C    26    54       P1  7957  1.00

> <Gold.PLP.Chemscore.Internal.Correction>
0.3807

> <Gold.Rescore>
     Score         DG    S(hbond)    S(metal)    S(lipo)     H(rot)  DE(clash)    DE(int)     intcor
     10.60     -13.38       2.15        0.00      74.46       3.12       1.01       1.77       ----

> <Gold.Chemscore.Fitness>
10.6016

> <Gold.Chemscore.DG>
-13.3762

> <Gold.Chemscore.ZeroCoef>
-5.4800

> <Gold.Chemscore.Hbond>
2.1497

> <Gold.Chemscore.Metal>
0.0000

> <Gold.Chemscore.Lipo>
74.4617

> <Gold.Chemscore.Internal_Hbond>
0.0000

> <Gold.Chemscore.DEClash>
1.0069

> <Gold.Chemscore.DEInternal>
1.7677

> <Gold.Chemscore.Rot>
3.1234

> <Gold.Chemscore.Internal.Correction>
   9.000000E+99

> <Gold.Chemscore.Hbonds>
donor molecule, donor type, donor heavy atom, donor atom, acceptor molecule, acceptor atom, score
      L1  H     7    37       P1  8028  0.97
      P1  H  6896  6908       L1    20  0.19
      P1  H  7989  7998       L1    27  0.02

> <Gold.Chemscore.Hbond.Weighted>
-7.1801

> <Gold.Chemscore.Metal.Weighted>
-0.0000

> <Gold.Chemscore.Lipo.Weighted>
-8.7120

> <Gold.Chemscore.Internal_Hbond.Weighted>
0.0000

> <Gold.Chemscore.DEClash.Weighted>
1.0069

> <Gold.Chemscore.DEInternal.Weighted>
1.7677

> <Gold.Chemscore.Rot.Weighted>
7.9959

> <Gold.Chemscore.Internal.Correction.Weighted>
   9.000000E+99

> <Gold.Protein.RotatedTorsions>
[ 6907 6896 6895 6894 ] final   64.85 input  -60.11 | X-H torsion
[ 7974 7965 7964 7962 ] final -172.37 input  175.53 | X-H torsion
[ 8008 7997 7996 7995 ] final  158.58 input   59.86 | X-H torsion
[ 10167 10162 10161 10158 ] final -137.56 input  -65.29 | X-H torsion
[ 10718 10713 10712 10709 ] final -174.58 input   66.30 | X-H torsion
[ 10763 10752 10751 10750 ] final   88.76 input  -60.55 | X-H torsion
[ 11005 11000 10999 10996 ] final  170.39 input  -57.11 | X-H torsion

> <Gold.Protein.ActiveResidues>
 VAL166  LYS551  ARG553  GLY616  TRP617  ASP618  TYR619  PRO620  LYS621  CYS622 
 ASP623  PHE694  ASN695  SER759  ASP760  ASP761  ALA762  ILE779  LEU786  VAL792 
 PHE793  MET794  SER795  GLU796  ALA797  LYS798  CYS799  TRP800  GLU811  SER814 

> <Gold.Protein.RotatedAtoms>
  152.4363  134.5680  159.9912 H   0  0  0  0  0  0  0  0  0  0  0  0  # atno 6907 bound_to 6896
  151.5789  133.3374  159.3012 H   0  0  0  0  0  0  0  0  0  0  0  0  # atno 6908 bound_to 6896
  150.8262  134.7528  159.6879 H   0  0  0  0  0  0  0  0  0  0  0  0  # atno 6909 bound_to 6896
  144.7147  140.1783  143.6361 H   0  0  0  0  0  0  0  0  0  0  0  0  # atno 7974 bound_to 7965
  156.2293  140.1854  156.7282 H   0  0  0  0  0  0  0  0  0  0  0  0  # atno 8008 bound_to 7997
  154.5995  140.0638  156.9377 H   0  0  0  0  0  0  0  0  0  0  0  0  # atno 8009 bound_to 7997
  155.2198  140.3306  155.4319 H   0  0  0  0  0  0  0  0  0  0  0  0  # atno 8010 bound_to 7997
  139.8566  143.7131  152.2654 H   0  0  0  0  0  0  0  0  0  0  0  0  # atno 10167 bound_to 10162
  156.7872  130.9505  151.3120 H   0  0  0  0  0  0  0  0  0  0  0  0  # atno 10718 bound_to 10713
  153.1802  135.4495  155.0017 H   0  0  0  0  0  0  0  0  0  0  0  0  # atno 10763 bound_to 10752
  154.8025  135.3261  154.7518 H   0  0  0  0  0  0  0  0  0  0  0  0  # atno 10764 bound_to 10752
  153.7983  135.6964  153.4915 H   0  0  0  0  0  0  0  0  0  0  0  0  # atno 10765 bound_to 10752
  140.3079  134.7541  157.3968 H   0  0  0  0  0  0  0  0  0  0  0  0  # atno 11005 bound_to 11000
  145.8880  139.2360  143.1566 LP  0  0  0  0  0  0  0  0  0  0  0  0  # atno 17320 bound_to 7965
  145.9931  140.8586  143.0056 LP  0  0  0  0  0  0  0  0  0  0  0  0  # atno 17321 bound_to 7965
  139.7414  144.7558  151.0646 LP  0  0  0  0  0  0  0  0  0  0  0  0  # atno 17342 bound_to 10162
  140.7781  143.4968  150.9823 LP  0  0  0  0  0  0  0  0  0  0  0  0  # atno 17343 bound_to 10162
  157.6618  130.8972  149.9846 LP  0  0  0  0  0  0  0  0  0  0  0  0  # atno 17370 bound_to 10713
  156.1181  130.3647  149.9933 LP  0  0  0  0  0  0  0  0  0  0  0  0  # atno 17371 bound_to 10713
  140.1051  134.5420  155.8317 LP  0  0  0  0  0  0  0  0  0  0  0  0  # atno 17394 bound_to 11000
  141.2114  133.6707  156.6583 LP  0  0  0  0  0  0  0  0  0  0  0  0  # atno 17395 bound_to 11000

$$$$
