AV-unprocessed.smi:768|AV-procd|sdf|3673|dock6
  -GOLD-   22720 1 83D 1   1.00000     0.00000
 Structure written by MMmdl.
 48 49  0  0  0  0  0  0  0  0  1 V2000
  153.2685  142.7027  161.6809 C   0  0  0  0  0  0  0  0  0  0  0  0
  152.6855  143.2309  160.3821 C   0  0  0  0  0  0  0  0  0  0  0  0
  152.4709  144.5508  160.1917 C   0  0  0  0  0  0  0  0  0  0  0  0
  151.9213  145.0462  158.9531 C   0  0  0  0  0  0  0  0  0  0  0  0
  151.6257  144.1598  157.9920 C   0  0  0  0  0  0  0  0  0  0  0  0
  151.8375  142.7795  158.1651 N   0  0  0  0  0  0  0  0  0  0  0  0
  151.4801  141.9022  157.0343 C   0  0  0  0  0  0  0  0  0  0  0  0
  149.9700  141.7733  156.7673 C   0  0  0  0  0  0  0  0  0  0  0  0
  149.1795  142.0510  157.6679 O   0  0  0  0  0  0  0  0  0  0  0  0
  149.5781  141.3431  155.5562 N   0  0  0  0  0  0  0  0  0  0  0  0
  148.2076  141.0526  155.1501 C   0  0  0  0  0  0  0  0  0  0  0  0
  147.7163  142.0835  154.1210 C   0  0  0  0  0  0  0  0  0  0  0  0
  146.2189  142.4035  154.2426 C   0  0  0  0  0  0  0  0  0  0  0  0
  146.0139  143.2125  155.3910 O   0  0  0  0  0  0  0  0  0  0  0  0
  144.7938  143.9434  155.3842 C   0  0  0  0  0  0  0  0  0  0  0  0
  144.7222  144.8878  154.1649 C   0  0  0  0  0  0  0  0  0  0  0  0
  143.4746  145.7839  154.2188 C   0  0  0  0  0  0  0  0  0  0  0  0
  143.4114  146.5768  155.5335 C   0  0  0  0  0  0  0  0  0  0  0  0
  143.4815  145.6402  156.7498 C   0  0  0  0  0  0  0  0  0  0  0  0
  144.7336  144.7501  156.6934 C   0  0  0  0  0  0  0  0  0  0  0  0
  152.3603  142.2604  159.3201 C   0  0  0  0  0  0  0  0  0  0  0  0
  152.5503  141.0501  159.4525 O   0  0  0  0  0  0  0  0  0  0  0  0
  153.4240  143.5048  162.4029 H   0  0  0  0  0  0  0  0  0  0  0  0
  154.2306  142.2245  161.4988 H   0  0  0  0  0  0  0  0  0  0  0  0
  152.5991  141.9695  162.1322 H   0  0  0  0  0  0  0  0  0  0  0  0
  152.7142  145.2541  160.9746 H   0  0  0  0  0  0  0  0  0  0  0  0
  151.7558  146.1029  158.8035 H   0  0  0  0  0  0  0  0  0  0  0  0
  151.2173  144.4478  157.0341 H   0  0  0  0  0  0  0  0  0  0  0  0
  151.9655  142.2528  156.1215 H   0  0  0  0  0  0  0  0  0  0  0  0
  151.8777  140.8991  157.1935 H   0  0  0  0  0  0  0  0  0  0  0  0
  150.2979  141.1508  154.8745 H   0  0  0  0  0  0  0  0  0  0  0  0
  148.1140  140.0483  154.7341 H   0  0  0  0  0  0  0  0  0  0  0  0
  147.5736  141.0838  156.0362 H   0  0  0  0  0  0  0  0  0  0  0  0
  148.2897  143.0040  154.2365 H   0  0  0  0  0  0  0  0  0  0  0  0
  147.9266  141.7186  153.1150 H   0  0  0  0  0  0  0  0  0  0  0  0
  145.8751  142.9219  153.3484 H   0  0  0  0  0  0  0  0  0  0  0  0
  145.6446  141.4799  154.3277 H   0  0  0  0  0  0  0  0  0  0  0  0
  143.9476  143.2535  155.3679 H   0  0  0  0  0  0  0  0  0  0  0  0
  145.6165  145.5116  154.1339 H   0  0  0  0  0  0  0  0  0  0  0  0
  144.7083  144.3203  153.2352 H   0  0  0  0  0  0  0  0  0  0  0  0
  143.4739  146.4692  153.3706 H   0  0  0  0  0  0  0  0  0  0  0  0
  142.5797  145.1683  154.1196 H   0  0  0  0  0  0  0  0  0  0  0  0
  144.2379  147.2878  155.5717 H   0  0  0  0  0  0  0  0  0  0  0  0
  142.4947  147.1661  155.5691 H   0  0  0  0  0  0  0  0  0  0  0  0
  143.4828  146.2251  157.6701 H   0  0  0  0  0  0  0  0  0  0  0  0
  142.5886  145.0142  156.7823 H   0  0  0  0  0  0  0  0  0  0  0  0
  144.7435  144.0725  157.5476 H   0  0  0  0  0  0  0  0  0  0  0  0
  145.6252  145.3723  156.7828 H   0  0  0  0  0  0  0  0  0  0  0  0
  1  2  1  0  0  0  0
  1 23  1  0  0  0  0
  1 24  1  0  0  0  0
  1 25  1  0  0  0  0
  2 21  1  0  0  0  0
  2  3  2  0  0  0  0
  3  4  1  0  0  0  0
  3 26  1  0  0  0  0
  4  5  2  0  0  0  0
  4 27  1  0  0  0  0
  5  6  1  0  0  0  0
  5 28  1  0  0  0  0
  6  7  1  0  0  0  0
  6 21  1  0  0  0  0
  7  8  1  0  0  0  0
  7 29  1  0  0  0  0
  7 30  1  0  0  0  0
  8  9  2  0  0  0  0
  8 10  1  0  0  0  0
 10 11  1  0  0  0  0
 10 31  1  0  0  0  0
 11 12  1  0  0  0  0
 11 32  1  0  0  0  0
 11 33  1  0  0  0  0
 12 13  1  0  0  0  0
 12 34  1  0  0  0  0
 12 35  1  0  0  0  0
 13 14  1  0  0  0  0
 13 36  1  0  0  0  0
 13 37  1  0  0  0  0
 14 15  1  0  0  0  0
 15 20  1  0  0  0  0
 15 16  1  0  0  0  0
 15 38  1  0  0  0  0
 16 17  1  0  0  0  0
 16 39  1  0  0  0  0
 16 40  1  0  0  0  0
 17 18  1  0  0  0  0
 17 41  1  0  0  0  0
 17 42  1  0  0  0  0
 18 19  1  0  0  0  0
 18 43  1  0  0  0  0
 18 44  1  0  0  0  0
 19 20  1  0  0  0  0
 19 45  1  0  0  0  0
 19 46  1  0  0  0  0
 20 47  1  0  0  0  0
 20 48  1  0  0  0  0
 21 22  2  0  0  0  0
M  END
> <s_m_source_file>
AV-unprocessed.smi

> <i_m_source_file_index>
768

> <i_lp_mmshare_version>
43012

> <i_f3d_flags>
0

> <s_epik_input>
W0NIM11jMVtjSF1bY0hdW2NIXW4oYzE9TylbQ0gyXUMoPU8pW05IXVtDSDJdW0NIMl1bQ0gyXU9bQ0hdMltDSDJdW0NIMl1bQ0gyXVtDSDJdW0NIMl0y

> <s_epik_cmdline>
J2VwaWtfcHl0aG9uJywgJy1waCcsICc3LjAnLCAnLXRuJywgJzgnLCAnLW1hJywgJzIwMCcsICctbWV0YWxfYmluZGluZycsICctaW1hZScsICc8aW5maWxlLm1hZT4nLCAnLW9tYWUnLCAnPG91dGZpbGUubWFlPic=

> <r_lp_tautomer_probability>
1

> <r_epik_Ionization_Penalty>
7.81262e-07

> <r_epik_Ionization_Penalty_Charging>
7.6198e-07

> <r_epik_Ionization_Penalty_Neutral>
1.92812e-08

> <r_epik_State_Penalty>
-0

> <r_epik_Charging_Adjusted_Penalty>
7.6198e-07

> <i_epik_Tot_Q>
0

> <i_epik_Tot_abs_Q>
0

> <r_epik_Metal_State_Penalty>
-0

> <b_epik_Metal_Only>
0

> <s_lp_Force_Field>
OPLS_2005

> <r_lp_Energy>
20.2971

> <b_lp_Chiralities_Consistent>
1

> <s_lp_Variant>
AV-unprocessed.smi:768-1

> <Gold.Version>
5.8.1

> <Gold.Id.Protein>
6NUR|6NUR_protein|mol2

> <Gold.PLP.Fitness>
51.7086

> <Gold.PLP.PLP>
-50.1545

> <Gold.PLP.part.hbond>
0.0000

> <Gold.PLP.part.metal>
0.0000

> <Gold.PLP.part.buried>
-6.8486

> <Gold.PLP.part.nonpolar>
-43.3730

> <Gold.PLP.part.repulsive>
0.4583

> <Gold.PLP.ligand.clash>
0.0000

> <Gold.PLP.ligand.torsion>
0.7729

> <Gold.PLP.Chemscore.Hbond>
0.0000

> <Gold.PLP.Chemscore.CHOScore>
1.0000

> <Gold.PLP.Chemscore.Metal>
0.0000

> <Gold.Chemscore.Hbonds>
donor molecule, donor type, donor heavy atom, donor atom, acceptor molecule, acceptor atom, score
      L1  C     5    28       P1  8028  0.61

> <Gold.PLP.Chemscore.Internal.Correction>
0.0999

> <Gold.Rescore>
     Score         DG    S(hbond)    S(metal)    S(lipo)     H(rot)  DE(clash)    DE(int)     intcor
     14.04     -15.29       0.00        0.00     126.91       1.97       0.18       1.07       ----

> <Gold.Chemscore.Fitness>
14.0445

> <Gold.Chemscore.DG>
-15.2923

> <Gold.Chemscore.ZeroCoef>
-5.4800

> <Gold.Chemscore.Hbond>
0.0000

> <Gold.Chemscore.Metal>
0.0000

> <Gold.Chemscore.Lipo>
126.9070

> <Gold.Chemscore.Internal_Hbond>
0.0000

> <Gold.Chemscore.DEClash>
0.1803

> <Gold.Chemscore.DEInternal>
1.0674

> <Gold.Chemscore.Rot>
1.9671

> <Gold.Chemscore.Internal.Correction>
   9.000000E+99

> <Gold.Chemscore.Hbond.Weighted>
-0.0000

> <Gold.Chemscore.Metal.Weighted>
-0.0000

> <Gold.Chemscore.Lipo.Weighted>
-14.8481

> <Gold.Chemscore.Internal_Hbond.Weighted>
0.0000

> <Gold.Chemscore.DEClash.Weighted>
0.1803

> <Gold.Chemscore.DEInternal.Weighted>
1.0674

> <Gold.Chemscore.Rot.Weighted>
5.0359

> <Gold.Chemscore.Internal.Correction.Weighted>
   9.000000E+99

> <Gold.Protein.RotatedTorsions>
[ 6907 6896 6895 6894 ] final  -77.26 input  -60.11 | X-H torsion
[ 7974 7965 7964 7962 ] final -177.72 input  175.53 | X-H torsion
[ 8008 7997 7996 7995 ] final -141.58 input   59.86 | X-H torsion
[ 10167 10162 10161 10158 ] final  -16.94 input  -65.29 | X-H torsion
[ 10718 10713 10712 10709 ] final  -90.69 input   66.30 | X-H torsion
[ 10763 10752 10751 10750 ] final  164.99 input  -60.55 | X-H torsion
[ 11005 11000 10999 10996 ] final  -50.07 input  -57.11 | X-H torsion

> <Gold.Protein.ActiveResidues>
 VAL166  LYS551  ARG553  GLY616  TRP617  ASP618  TYR619  PRO620  LYS621  CYS622 
 ASP623  PHE694  ASN695  SER759  ASP760  ASP761  ALA762  ILE779  LEU786  VAL792 
 PHE793  MET794  SER795  GLU796  ALA797  LYS798  CYS799  TRP800  GLU811  SER814 

> <Gold.Protein.RotatedAtoms>
  150.7003  134.4448  159.5308 H   0  0  0  0  0  0  0  0  0  0  0  0  # atno 6907 bound_to 6896
  152.2151  134.8462  160.0502 H   0  0  0  0  0  0  0  0  0  0  0  0  # atno 6908 bound_to 6896
  151.9333  133.3582  159.3975 H   0  0  0  0  0  0  0  0  0  0  0  0  # atno 6909 bound_to 6896
  144.7128  140.0977  143.6418 H   0  0  0  0  0  0  0  0  0  0  0  0  # atno 7974 bound_to 7965
  155.4801  140.0559  157.2968 H   0  0  0  0  0  0  0  0  0  0  0  0  # atno 8008 bound_to 7997
  154.4664  140.2020  156.0061 H   0  0  0  0  0  0  0  0  0  0  0  0  # atno 8009 bound_to 7997
  156.0981  140.3223  155.7909 H   0  0  0  0  0  0  0  0  0  0  0  0  # atno 8010 bound_to 7997
  140.7240  143.5066  150.9802 H   0  0  0  0  0  0  0  0  0  0  0  0  # atno 10167 bound_to 10162
  155.9989  130.4919  150.5361 H   0  0  0  0  0  0  0  0  0  0  0  0  # atno 10718 bound_to 10713
  154.3173  135.2756  155.2537 H   0  0  0  0  0  0  0  0  0  0  0  0  # atno 10763 bound_to 10752
  154.4906  135.5834  153.6460 H   0  0  0  0  0  0  0  0  0  0  0  0  # atno 10764 bound_to 10752
  152.9881  135.6133  154.3354 H   0  0  0  0  0  0  0  0  0  0  0  0  # atno 10765 bound_to 10752
  141.0795  133.6657  156.3677 H   0  0  0  0  0  0  0  0  0  0  0  0  # atno 11005 bound_to 11000
  145.9565  139.2770  143.1181 LP  0  0  0  0  0  0  0  0  0  0  0  0  # atno 17320 bound_to 7965
  145.9267  140.9077  143.0377 LP  0  0  0  0  0  0  0  0  0  0  0  0  # atno 17321 bound_to 7965
  139.8778  143.7111  152.3160 LP  0  0  0  0  0  0  0  0  0  0  0  0  # atno 17342 bound_to 10162
  139.7382  144.7566  151.0694 LP  0  0  0  0  0  0  0  0  0  0  0  0  # atno 17343 bound_to 10162
  157.3304  131.0698  151.1865 LP  0  0  0  0  0  0  0  0  0  0  0  0  # atno 17370 bound_to 10713
  157.2748  130.6722  149.6037 LP  0  0  0  0  0  0  0  0  0  0  0  0  # atno 17371 bound_to 10713
  140.5500  134.6037  157.5405 LP  0  0  0  0  0  0  0  0  0  0  0  0  # atno 17394 bound_to 11000
  139.9608  134.7456  156.0241 LP  0  0  0  0  0  0  0  0  0  0  0  0  # atno 17395 bound_to 11000

$$$$
