AV-unprocessed.smi:1943|AV-procd|sdf|7851|dock10
  -GOLD-   22720 9593D 1   1.00000     0.00000
 Structure written by MMmdl.
 48 49  0  0  0  0  0  0  0  0  2 V2000
  143.3879  132.7329  151.1768 C   0  0  0  0  0  0  0  0  0  0  0  0
  143.7233  133.4569  152.4319 N   0  3  0  0  0  0  0  0  0  0  0  0
  142.8747  134.6704  152.5622 C   0  0  0  0  0  0  0  0  0  0  0  0
  145.1964  133.6541  152.6902 C   0  0  0  0  0  0  0  0  0  0  0  0
  145.9454  132.2978  152.6901 C   0  0  0  0  0  0  0  0  0  0  0  0
  145.8367  134.5519  151.5977 C   0  0  0  0  0  0  0  0  0  0  0  0
  145.3639  134.3820  154.0591 C   0  0  0  0  0  0  0  0  0  0  0  0
  146.7433  134.7603  154.3630 N   0  0  0  0  0  0  0  0  0  0  0  0
  147.3393  134.6557  155.5625 C   0  0  0  0  0  0  0  0  0  0  0  0
  146.7724  134.2272  156.5680 O   0  0  0  0  0  0  0  0  0  0  0  0
  148.7880  135.0549  155.5854 C   0  0  0  0  0  0  0  0  0  0  0  0
  149.1122  136.2255  154.9864 N   0  0  0  0  0  0  0  0  0  0  0  0
  150.3886  136.6290  155.0174 C   0  0  0  0  0  0  0  0  0  0  0  0
  150.7027  137.8382  154.3850 N   0  0  0  0  0  0  0  0  0  0  0  0
  149.6997  138.8744  154.1429 C   0  0  0  0  0  0  0  0  0  0  0  0
  149.7451  139.9109  155.2802 C   0  0  0  0  0  0  0  0  0  0  0  0
  151.0573  140.4629  155.3656 O   0  0  0  0  0  0  0  0  0  0  0  0
  152.0539  139.4727  155.6136 C   0  0  0  0  0  0  0  0  0  0  0  0
  152.0366  138.4300  154.4809 C   0  0  0  0  0  0  0  0  0  0  0  0
  151.3884  135.9596  155.6029 N   0  0  0  0  0  0  0  0  0  0  0  0
  151.0915  134.7905  156.2072 C   0  0  0  0  0  0  0  0  0  0  0  0
  149.7810  134.2756  156.2316 C   0  0  0  0  0  0  0  0  0  0  0  0
  149.4662  132.7553  156.9961 Cl  0  0  0  0  0  0  0  0  0  0  0  0
  143.5784  133.3499  150.2980 H   0  0  0  0  0  0  0  0  0  0  0  0
  142.3291  132.4724  151.1666 H   0  0  0  0  0  0  0  0  0  0  0  0
  143.9368  131.8006  151.0627 H   0  0  0  0  0  0  0  0  0  0  0  0
  143.2062  135.4634  151.8913 H   0  0  0  0  0  0  0  0  0  0  0  0
  142.8674  135.0540  153.5820 H   0  0  0  0  0  0  0  0  0  0  0  0
  141.8364  134.4429  152.3183 H   0  0  0  0  0  0  0  0  0  0  0  0
  147.0251  132.4371  152.7503 H   0  0  0  0  0  0  0  0  0  0  0  0
  145.7543  131.7301  151.7795 H   0  0  0  0  0  0  0  0  0  0  0  0
  145.6620  131.6731  153.5374 H   0  0  0  0  0  0  0  0  0  0  0  0
  146.8840  134.7691  151.8084 H   0  0  0  0  0  0  0  0  0  0  0  0
  145.3203  135.5090  151.5138 H   0  0  0  0  0  0  0  0  0  0  0  0
  145.8290  134.0775  150.6160 H   0  0  0  0  0  0  0  0  0  0  0  0
  144.7722  135.2983  154.0581 H   0  0  0  0  0  0  0  0  0  0  0  0
  144.9736  133.7875  154.8837 H   0  0  0  0  0  0  0  0  0  0  0  0
  147.2969  135.1242  153.6003 H   0  0  0  0  0  0  0  0  0  0  0  0
  149.9261  139.3615  153.1937 H   0  0  0  0  0  0  0  0  0  0  0  0
  148.6953  138.4657  154.0336 H   0  0  0  0  0  0  0  0  0  0  0  0
  149.0343  140.7142  155.0865 H   0  0  0  0  0  0  0  0  0  0  0  0
  149.4657  139.4576  156.2328 H   0  0  0  0  0  0  0  0  0  0  0  0
  153.0290  139.9571  155.6654 H   0  0  0  0  0  0  0  0  0  0  0  0
  151.8794  138.9996  156.5814 H   0  0  0  0  0  0  0  0  0  0  0  0
  152.8175  137.6868  154.6390 H   0  0  0  0  0  0  0  0  0  0  0  0
  152.2722  138.9133  153.5320 H   0  0  0  0  0  0  0  0  0  0  0  0
  151.9097  134.2589  156.6701 H   0  0  0  0  0  0  0  0  0  0  0  0
  143.4119  132.8502  153.1772 H   0  0  0  0  0  0  0  0  0  0  0  0
  1  2  1  0  0  0  0
  1 24  1  0  0  0  0
  1 25  1  0  0  0  0
  1 26  1  0  0  0  0
  2  3  1  0  0  0  0
  2  4  1  0  0  0  0
  2 48  1  0  0  0  0
  3 27  1  0  0  0  0
  3 28  1  0  0  0  0
  3 29  1  0  0  0  0
  4  5  1  0  0  0  0
  4  6  1  0  0  0  0
  4  7  1  0  0  0  0
  5 30  1  0  0  0  0
  5 31  1  0  0  0  0
  5 32  1  0  0  0  0
  6 33  1  0  0  0  0
  6 34  1  0  0  0  0
  6 35  1  0  0  0  0
  7  8  1  0  0  0  0
  7 36  1  0  0  0  0
  7 37  1  0  0  0  0
  8  9  1  0  0  0  0
  8 38  1  0  0  0  0
  9 10  2  0  0  0  0
  9 11  1  0  0  0  0
 11 22  1  0  0  0  0
 11 12  2  0  0  0  0
 12 13  1  0  0  0  0
 13 14  1  0  0  0  0
 13 20  2  0  0  0  0
 14 19  1  0  0  0  0
 14 15  1  0  0  0  0
 15 16  1  0  0  0  0
 15 39  1  0  0  0  0
 15 40  1  0  0  0  0
 16 17  1  0  0  0  0
 16 41  1  0  0  0  0
 16 42  1  0  0  0  0
 17 18  1  0  0  0  0
 18 19  1  0  0  0  0
 18 43  1  0  0  0  0
 18 44  1  0  0  0  0
 19 45  1  0  0  0  0
 19 46  1  0  0  0  0
 20 21  1  0  0  0  0
 21 22  2  0  0  0  0
 21 47  1  0  0  0  0
 22 23  1  0  0  0  0
M  CHG  1   2   1
M  END
> <s_m_source_file>
AV-unprocessed.smi

> <i_m_source_file_index>
1943

> <i_lp_mmshare_version>
43012

> <i_f3d_flags>
0

> <s_epik_input>
W0NIM11OKFtDSDNdKUMoW0NIM10pKFtDSDNdKVtDSDJdW05IXUMoPU8pYzFuYyhuW2NIXWMxQ2wpTjJbQ0gyXVtDSDJdT1tDSDJdW0NIMl0y

> <s_epik_cmdline>
J2VwaWtfcHl0aG9uJywgJy1waCcsICc3LjAnLCAnLXRuJywgJzgnLCAnLW1hJywgJzIwMCcsICctbWV0YWxfYmluZGluZycsICctaW1hZScsICc8aW5maWxlLm1hZT4nLCAnLW9tYWUnLCAnPG91dGZpbGUubWFlPic=

> <r_lp_tautomer_probability>
1

> <r_epik_Ionization_Penalty>
0.00747112

> <r_epik_Ionization_Penalty_Charging>
0.00734137

> <r_epik_Ionization_Penalty_Neutral>
0.000129757

> <r_epik_State_Penalty>
0.00547931

> <r_epik_Charging_Adjusted_Penalty>
0.0128207

> <i_epik_Tot_Q>
1

> <i_epik_Tot_abs_Q>
1

> <r_epik_Metal_State_Penalty>
0.0979204

> <b_epik_Metal_Only>
0

> <s_lp_Force_Field>
OPLS_2005

> <r_lp_Energy>
30.7364

> <b_lp_Chiralities_Consistent>
1

> <s_lp_Variant>
AV-unprocessed.smi:1943-1

> <Gold.Version>
5.8.1

> <Gold.Id.Protein>
6NUR|6NUR_protein|mol2

> <Gold.PLP.Fitness>
43.1746

> <Gold.PLP.PLP>
-33.1118

> <Gold.PLP.part.hbond>
-3.0000

> <Gold.PLP.part.metal>
0.0000

> <Gold.PLP.part.buried>
-5.9424

> <Gold.PLP.part.nonpolar>
-25.6032

> <Gold.PLP.part.repulsive>
0.2504

> <Gold.PLP.ligand.clash>
0.0000

> <Gold.PLP.ligand.torsion>
1.0850

> <Gold.PLP.Chemscore.Hbond>
3.9760

> <Gold.PLP.Chemscore.CHOScore>
0.0000

> <Gold.PLP.Chemscore.Metal>
0.0000

> <Gold.Chemscore.Hbonds>
donor molecule, donor type, donor heavy atom, donor atom, acceptor molecule, acceptor atom, score
      L1  H     2    48       P1 10957  1.82
      P1  H  7989  7998       L1    17  0.77
      P1  H 10752 10765       L1    20  0.95

> <Gold.PLP.Chemscore.Internal.Correction>
0.3049

> <Gold.Rescore>
     Score         DG    S(hbond)    S(metal)    S(lipo)     H(rot)  DE(clash)    DE(int)     intcor
     16.85     -18.10       2.44        0.00      69.64       1.43       0.11       1.14       ----

> <Gold.Chemscore.Fitness>
16.8461

> <Gold.Chemscore.DG>
-18.1026

> <Gold.Chemscore.ZeroCoef>
-5.4800

> <Gold.Chemscore.Hbond>
2.4356

> <Gold.Chemscore.Metal>
0.0000

> <Gold.Chemscore.Lipo>
69.6415

> <Gold.Chemscore.Internal_Hbond>
0.0000

> <Gold.Chemscore.DEClash>
0.1132

> <Gold.Chemscore.DEInternal>
1.1433

> <Gold.Chemscore.Rot>
1.4298

> <Gold.Chemscore.Internal.Correction>
   9.000000E+99

> <Gold.Chemscore.Hbonds>
donor molecule, donor type, donor heavy atom, donor atom, acceptor molecule, acceptor atom, score
      L1  H     2    48       P1 10957  0.44
      P1  H  7989  7998       L1    17  0.06
      P1  H 10752 10765       L1    20  0.22

> <Gold.Chemscore.Hbond.Weighted>
-8.1349

> <Gold.Chemscore.Metal.Weighted>
-0.0000

> <Gold.Chemscore.Lipo.Weighted>
-8.1481

> <Gold.Chemscore.Internal_Hbond.Weighted>
0.0000

> <Gold.Chemscore.DEClash.Weighted>
0.1132

> <Gold.Chemscore.DEInternal.Weighted>
1.1433

> <Gold.Chemscore.Rot.Weighted>
3.6604

> <Gold.Chemscore.Internal.Correction.Weighted>
   9.000000E+99

> <Gold.Protein.RotatedTorsions>
[ 6907 6896 6895 6894 ] final   55.97 input  -60.11 | X-H torsion
[ 7974 7965 7964 7962 ] final   69.77 input  175.53 | X-H torsion
[ 8008 7997 7996 7995 ] final -116.12 input   59.86 | X-H torsion
[ 10167 10162 10161 10158 ] final  -59.92 input  -65.29 | X-H torsion
[ 10718 10713 10712 10709 ] final  127.39 input   66.30 | X-H torsion
[ 10763 10752 10751 10750 ] final -162.56 input  -60.55 | X-H torsion
[ 11005 11000 10999 10996 ] final  -95.08 input  -57.11 | X-H torsion

> <Gold.Protein.ActiveResidues>
 VAL166  LYS551  ARG553  GLY616  TRP617  ASP618  TYR619  PRO620  LYS621  CYS622 
 ASP623  PHE694  ASN695  SER759  ASP760  ASP761  ALA762  ILE779  LEU786  VAL792 
 PHE793  MET794  SER795  GLU796  ALA797  LYS798  CYS799  TRP800  GLU811  SER814 

> <Gold.Protein.RotatedAtoms>
  152.3591  134.6898  160.0212 H   0  0  0  0  0  0  0  0  0  0  0  0  # atno 6907 bound_to 6896
  151.7227  133.3309  159.3327 H   0  0  0  0  0  0  0  0  0  0  0  0  # atno 6908 bound_to 6896
  150.7592  134.6368  159.6260 H   0  0  0  0  0  0  0  0  0  0  0  0  # atno 6909 bound_to 6896
  145.7864  139.2912  143.1236 H   0  0  0  0  0  0  0  0  0  0  0  0  # atno 7974 bound_to 7965
  155.0628  140.0393  157.2582 H   0  0  0  0  0  0  0  0  0  0  0  0  # atno 8008 bound_to 7997
  154.7046  140.2680  155.6663 H   0  0  0  0  0  0  0  0  0  0  0  0  # atno 8009 bound_to 7997
  156.2771  140.2734  156.1667 H   0  0  0  0  0  0  0  0  0  0  0  0  # atno 8010 bound_to 7997
  140.6105  143.2386  151.5721 H   0  0  0  0  0  0  0  0  0  0  0  0  # atno 10167 bound_to 10162
  157.5337  131.1098  150.8970 H   0  0  0  0  0  0  0  0  0  0  0  0  # atno 10718 bound_to 10713
  154.7203  135.3024  154.9058 H   0  0  0  0  0  0  0  0  0  0  0  0  # atno 10763 bound_to 10752
  153.9931  135.6716  153.4759 H   0  0  0  0  0  0  0  0  0  0  0  0  # atno 10764 bound_to 10752
  153.0828  135.5000  154.8455 H   0  0  0  0  0  0  0  0  0  0  0  0  # atno 10765 bound_to 10752
  141.1452  133.8001  157.0386 H   0  0  0  0  0  0  0  0  0  0  0  0  # atno 11005 bound_to 11000
  146.0022  140.8510  143.0013 LP  0  0  0  0  0  0  0  0  0  0  0  0  # atno 17320 bound_to 7965
  144.6788  140.2369  143.7348 LP  0  0  0  0  0  0  0  0  0  0  0  0  # atno 17321 bound_to 7965
  139.5357  144.2787  152.1246 LP  0  0  0  0  0  0  0  0  0  0  0  0  # atno 17342 bound_to 10162
  140.1986  144.4681  150.6443 LP  0  0  0  0  0  0  0  0  0  0  0  0  # atno 17343 bound_to 10162
  156.9543  130.5431  149.5283 LP  0  0  0  0  0  0  0  0  0  0  0  0  # atno 17370 bound_to 10713
  156.0442  130.5520  150.8841 LP  0  0  0  0  0  0  0  0  0  0  0  0  # atno 17371 bound_to 10713
  140.0708  134.9703  157.1463 LP  0  0  0  0  0  0  0  0  0  0  0  0  # atno 17394 bound_to 11000
  140.3714  134.2386  155.7177 LP  0  0  0  0  0  0  0  0  0  0  0  0  # atno 17395 bound_to 11000

$$$$
