AV-unprocessed.smi:916|AV-procd|sdf|4158|dock1
  -GOLD-   22720 2 63D 1   1.00000     0.00000
 Structure written by MMmdl.
 43 44  0  0  0  0  0  0  0  0  1 V2000
  144.1041  132.8053  149.0598 C   0  0  0  0  0  0  0  0  0  0  0  0
  144.0879  132.5414  150.5695 C   0  0  0  0  0  0  0  0  0  0  0  0
  144.2170  133.8015  151.3706 C   0  0  0  0  0  0  0  0  0  0  0  0
  143.1992  134.5080  151.9635 C   0  0  0  0  0  0  0  0  0  0  0  0
  143.7854  135.9153  152.8090 S   0  0  0  0  0  0  0  0  0  0  0  0
  145.4144  135.4879  152.3106 C   0  0  0  0  0  0  0  0  0  0  0  0
  146.5423  136.2632  152.6866 N   0  0  0  0  0  0  0  0  0  0  0  0
  146.5664  137.4051  153.3957 C   0  0  0  0  0  0  0  0  0  0  0  0
  145.5856  137.9448  153.9086 O   0  0  0  0  0  0  0  0  0  0  0  0
  147.8132  137.8898  153.4892 N   0  0  0  0  0  0  0  0  0  0  0  0
  148.1984  139.1105  154.1910 C   0  0  0  0  0  0  0  0  0  0  0  0
  149.7234  139.3277  154.1598 C   0  0  2  0  0  0  0  0  0  0  0  0
  150.5429  138.0523  154.0998 C   0  0  0  0  0  0  0  0  0  0  0  0
  151.9153  138.5353  154.5573 C   0  0  0  0  0  0  0  0  0  0  0  0
  151.6691  139.6040  155.4662 O   0  0  0  0  0  0  0  0  0  0  0  0
  150.2911  139.9693  155.4348 C   0  0  1  0  0  0  0  0  0  0  0  0
  150.1144  141.4998  155.5706 C   0  0  0  0  0  0  0  0  0  0  0  0
  150.7506  142.0811  156.8461 C   0  0  0  0  0  0  0  0  0  0  0  0
  148.6303  141.8883  155.4820 C   0  0  0  0  0  0  0  0  0  0  0  0
  145.4772  134.3730  151.5737 N   0  0  0  0  0  0  0  0  0  0  0  0
  144.0063  131.8738  148.5021 H   0  0  0  0  0  0  0  0  0  0  0  0
  145.0361  133.2807  148.7525 H   0  0  0  0  0  0  0  0  0  0  0  0
  143.2814  133.4578  148.7659 H   0  0  0  0  0  0  0  0  0  0  0  0
  143.1643  132.0247  150.8325 H   0  0  0  0  0  0  0  0  0  0  0  0
  144.8962  131.8547  150.8228 H   0  0  0  0  0  0  0  0  0  0  0  0
  142.1428  134.2842  151.9560 H   0  0  0  0  0  0  0  0  0  0  0  0
  147.4331  135.9167  152.3623 H   0  0  0  0  0  0  0  0  0  0  0  0
  148.5557  137.3759  153.0378 H   0  0  0  0  0  0  0  0  0  0  0  0
  147.6991  139.9425  153.6948 H   0  0  0  0  0  0  0  0  0  0  0  0
  147.8309  139.1069  155.2187 H   0  0  0  0  0  0  0  0  0  0  0  0
  149.9824  139.9315  153.2905 H   0  0  0  0  0  0  0  0  0  0  0  0
  150.1526  137.3151  154.8030 H   0  0  0  0  0  0  0  0  0  0  0  0
  150.5642  137.5989  153.1083 H   0  0  0  0  0  0  0  0  0  0  0  0
  152.5016  137.7423  155.0223 H   0  0  0  0  0  0  0  0  0  0  0  0
  152.4822  138.9256  153.7116 H   0  0  0  0  0  0  0  0  0  0  0  0
  149.8233  139.4816  156.2919 H   0  0  0  0  0  0  0  0  0  0  0  0
  150.6100  141.9658  154.7186 H   0  0  0  0  0  0  0  0  0  0  0  0
  150.3291  141.6282  157.7439 H   0  0  0  0  0  0  0  0  0  0  0  0
  150.5805  143.1561  156.9100 H   0  0  0  0  0  0  0  0  0  0  0  0
  151.8289  141.9311  156.8698 H   0  0  0  0  0  0  0  0  0  0  0  0
  148.0596  141.4669  156.3102 H   0  0  0  0  0  0  0  0  0  0  0  0
  148.1834  141.5305  154.5541 H   0  0  0  0  0  0  0  0  0  0  0  0
  148.5043  142.9711  155.5092 H   0  0  0  0  0  0  0  0  0  0  0  0
  1  2  1  0  0  0  0
  1 21  1  0  0  0  0
  1 22  1  0  0  0  0
  1 23  1  0  0  0  0
  2  3  1  0  0  0  0
  2 24  1  0  0  0  0
  2 25  1  0  0  0  0
  3 20  1  0  0  0  0
  3  4  2  0  0  0  0
  4  5  1  0  0  0  0
  4 26  1  0  0  0  0
  5  6  1  0  0  0  0
  6  7  1  0  0  0  0
  6 20  2  0  0  0  0
  7  8  1  0  0  0  0
  7 27  1  0  0  0  0
  8  9  2  0  0  0  0
  8 10  1  0  0  0  0
 10 11  1  0  0  0  0
 10 28  1  0  0  0  0
 11 12  1  0  0  0  0
 11 29  1  0  0  0  0
 11 30  1  0  0  0  0
 12 16  1  0  0  0  0
 12 13  1  0  0  0  0
 12 31  1  0  0  0  0
 13 14  1  0  0  0  0
 13 32  1  0  0  0  0
 13 33  1  0  0  0  0
 14 15  1  0  0  0  0
 14 34  1  0  0  0  0
 14 35  1  0  0  0  0
 15 16  1  0  0  0  0
 16 17  1  0  0  0  0
 16 36  1  0  0  0  0
 17 18  1  0  0  0  0
 17 19  1  0  0  0  0
 17 37  1  0  0  0  0
 18 38  1  0  0  0  0
 18 39  1  0  0  0  0
 18 40  1  0  0  0  0
 19 41  1  0  0  0  0
 19 42  1  0  0  0  0
 19 43  1  0  0  0  0
M  END
> <s_m_source_file>
AV-unprocessed.smi

> <i_m_source_file_index>
916

> <i_lp_mmshare_version>
43012

> <i_f3d_flags>
0

> <s_epik_input>
W0NIM11bQ0gyXWMxW2NIXXNjKG4xKVtOSF1DKD1PKVtOSF1bQ0gyXVtDQEBIXTJbQ0gyXVtDSDJdT1tDQEhdMltDSF0oW0NIM10pW0NIM10=

> <s_epik_cmdline>
J2VwaWtfcHl0aG9uJywgJy1waCcsICc3LjAnLCAnLXRuJywgJzgnLCAnLW1hJywgJzIwMCcsICctbWV0YWxfYmluZGluZycsICctaW1hZScsICc8aW5maWxlLm1hZT4nLCAnLW9tYWUnLCAnPG91dGZpbGUubWFlPic=

> <r_lp_tautomer_probability>
0.999

> <r_epik_Ionization_Penalty>
0.000518907

> <r_epik_Ionization_Penalty_Charging>
0

> <r_epik_Ionization_Penalty_Neutral>
0.000518907

> <r_epik_State_Penalty>
0.000177984

> <r_epik_Charging_Adjusted_Penalty>
0.000177984

> <i_epik_Tot_Q>
0

> <i_epik_Tot_abs_Q>
0

> <r_epik_Metal_State_Penalty>
-0

> <b_epik_Metal_Only>
0

> <s_lp_Force_Field>
OPLS_2005

> <r_lp_Energy>
16.7546

> <b_lp_Chiralities_Consistent>
1

> <s_lp_Variant>
AV-unprocessed.smi:916-1

> <Gold.Version>
5.8.1

> <Gold.Id.Protein>
6NUR|6NUR_protein|mol2

> <Gold.PLP.Fitness>
38.7662

> <Gold.PLP.PLP>
-34.0598

> <Gold.PLP.part.hbond>
-2.3108

> <Gold.PLP.part.metal>
0.0000

> <Gold.PLP.part.buried>
-0.7676

> <Gold.PLP.part.nonpolar>
-31.3289

> <Gold.PLP.part.repulsive>
0.3001

> <Gold.PLP.ligand.clash>
0.0000

> <Gold.PLP.ligand.torsion>
0.7334

> <Gold.PLP.Chemscore.Hbond>
1.9383

> <Gold.PLP.Chemscore.CHOScore>
0.0871

> <Gold.PLP.Chemscore.Metal>
0.0000

> <Gold.Chemscore.Hbonds>
donor molecule, donor type, donor heavy atom, donor atom, acceptor molecule, acceptor atom, score
      L1  H     7    27       P1  7948  0.99
      L1  H    10    28       P1  7948  0.94
      L1  C     4    26       P1 10186  0.10

> <Gold.PLP.Chemscore.Internal.Correction>
0.0971

> <Gold.Rescore>
     Score         DG    S(hbond)    S(metal)    S(lipo)     H(rot)  DE(clash)    DE(int)     intcor
     15.74     -18.29       1.93        0.00      87.76       1.52       0.52       2.03       ----

> <Gold.Chemscore.Fitness>
15.7412

> <Gold.Chemscore.DG>
-18.2896

> <Gold.Chemscore.ZeroCoef>
-5.4800

> <Gold.Chemscore.Hbond>
1.9291

> <Gold.Chemscore.Metal>
0.0000

> <Gold.Chemscore.Lipo>
87.7558

> <Gold.Chemscore.Internal_Hbond>
0.0000

> <Gold.Chemscore.DEClash>
0.5160

> <Gold.Chemscore.DEInternal>
2.0324

> <Gold.Chemscore.Rot>
1.5238

> <Gold.Chemscore.Internal.Correction>
   9.000000E+99

> <Gold.Chemscore.Hbonds>
donor molecule, donor type, donor heavy atom, donor atom, acceptor molecule, acceptor atom, score
      L1  H     7    27       P1  7948  0.94
      L1  H    10    28       P1  7948  0.91

> <Gold.Chemscore.Hbond.Weighted>
-6.4431

> <Gold.Chemscore.Metal.Weighted>
-0.0000

> <Gold.Chemscore.Lipo.Weighted>
-10.2674

> <Gold.Chemscore.Internal_Hbond.Weighted>
0.0000

> <Gold.Chemscore.DEClash.Weighted>
0.5160

> <Gold.Chemscore.DEInternal.Weighted>
2.0324

> <Gold.Chemscore.Rot.Weighted>
3.9008

> <Gold.Chemscore.Internal.Correction.Weighted>
   9.000000E+99

> <Gold.Protein.RotatedTorsions>
[ 6907 6896 6895 6894 ] final   67.11 input  -60.11 | X-H torsion
[ 7974 7965 7964 7962 ] final   11.19 input  175.53 | X-H torsion
[ 8008 7997 7996 7995 ] final  -14.47 input   59.86 | X-H torsion
[ 10167 10162 10161 10158 ] final   15.28 input  -65.29 | X-H torsion
[ 10718 10713 10712 10709 ] final -172.84 input   66.30 | X-H torsion
[ 10763 10752 10751 10750 ] final  155.71 input  -60.55 | X-H torsion
[ 11005 11000 10999 10996 ] final   31.40 input  -57.11 | X-H torsion

> <Gold.Protein.ActiveResidues>
 VAL166  LYS551  ARG553  GLY616  TRP617  ASP618  TYR619  PRO620  LYS621  CYS622 
 ASP623  PHE694  ASN695  SER759  ASP760  ASP761  ALA762  ILE779  LEU786  VAL792 
 PHE793  MET794  SER795  GLU796  ALA797  LYS798  CYS799  TRP800  GLU811  SER814 

> <Gold.Protein.RotatedAtoms>
  152.4529  134.5354  159.9823 H   0  0  0  0  0  0  0  0  0  0  0  0  # atno 6907 bound_to 6896
  151.5422  133.3425  159.2945 H   0  0  0  0  0  0  0  0  0  0  0  0  # atno 6908 bound_to 6896
  150.8464  134.7805  159.7036 H   0  0  0  0  0  0  0  0  0  0  0  0  # atno 6909 bound_to 6896
  146.2375  139.9521  142.8469 H   0  0  0  0  0  0  0  0  0  0  0  0  # atno 7974 bound_to 7965
  154.5208  140.2222  155.8980 H   0  0  0  0  0  0  0  0  0  0  0  0  # atno 8008 bound_to 7997
  156.1659  140.3132  155.8853 H   0  0  0  0  0  0  0  0  0  0  0  0  # atno 8009 bound_to 7997
  155.3657  140.0463  157.3036 H   0  0  0  0  0  0  0  0  0  0  0  0  # atno 8010 bound_to 7997
  140.5878  143.8855  150.6846 H   0  0  0  0  0  0  0  0  0  0  0  0  # atno 10167 bound_to 10162
  156.7616  130.9415  151.3118 H   0  0  0  0  0  0  0  0  0  0  0  0  # atno 10718 bound_to 10713
  154.1728  135.2803  155.3076 H   0  0  0  0  0  0  0  0  0  0  0  0  # atno 10763 bound_to 10752
  154.6062  135.5513  153.7429 H   0  0  0  0  0  0  0  0  0  0  0  0  # atno 10764 bound_to 10752
  153.0160  135.6404  154.1868 H   0  0  0  0  0  0  0  0  0  0  0  0  # atno 10765 bound_to 10752
  140.2843  134.2937  155.7792 H   0  0  0  0  0  0  0  0  0  0  0  0  # atno 11005 bound_to 11000
  145.1851  140.9785  143.4243 LP  0  0  0  0  0  0  0  0  0  0  0  0  # atno 17320 bound_to 7965
  144.9907  139.3692  143.6216 LP  0  0  0  0  0  0  0  0  0  0  0  0  # atno 17321 bound_to 7965
  140.2370  143.3692  152.1518 LP  0  0  0  0  0  0  0  0  0  0  0  0  # atno 17342 bound_to 10162
  139.5208  144.7038  151.5415 LP  0  0  0  0  0  0  0  0  0  0  0  0  # atno 17343 bound_to 10162
  157.6732  130.9070  150.0089 LP  0  0  0  0  0  0  0  0  0  0  0  0  # atno 17370 bound_to 10713
  156.1335  130.3643  149.9693 LP  0  0  0  0  0  0  0  0  0  0  0  0  # atno 17371 bound_to 10713
  141.2157  133.7545  156.9528 LP  0  0  0  0  0  0  0  0  0  0  0  0  # atno 17394 bound_to 11000
  140.1254  134.9390  157.2263 LP  0  0  0  0  0  0  0  0  0  0  0  0  # atno 17395 bound_to 11000

$$$$
