AV-unprocessed.smi:949|AV-procd|sdf|4249|dock6
  -GOLD-   22720 2153D 1   1.00000     0.00000
 Structure written by MMmdl.
 32 33  0  0  0  0  0  0  0  0  1 V2000
  150.0435  140.4058  157.5354 C   0  0  0  0  0  0  0  0  0  0  0  0
  150.6253  141.6186  156.7853 C   0  0  1  0  0  0  0  0  0  0  0  0
  149.7097  142.0493  155.7352 N   0  0  0  0  0  0  0  0  0  0  0  0
  148.9734  141.1492  154.9444 C   0  0  0  0  0  0  0  0  0  0  0  0
  149.4254  139.8409  154.6491 C   0  0  0  0  0  0  0  0  0  0  0  0
  148.6225  139.0076  153.8458 C   0  0  0  0  0  0  0  0  0  0  0  0
  147.4340  139.3881  153.3348 N   0  0  0  0  0  0  0  0  0  0  0  0
  147.0020  140.6346  153.6151 C   0  0  0  0  0  0  0  0  0  0  0  0
  147.7245  141.5506  154.4087 C   0  0  0  0  0  0  0  0  0  0  0  0
  147.1953  142.8219  154.6454 N   0  0  0  0  0  0  0  0  0  0  0  0
  150.9033  142.7956  157.7404 C   0  0  1  0  0  0  0  0  0  0  0  0
  151.8485  142.4745  158.8997 C   0  0  0  0  0  0  0  0  0  0  0  0
  152.4471  143.8246  159.2617 C   0  0  0  0  0  0  0  0  0  0  0  0
  152.1317  144.7073  158.0516 C   0  0  0  0  0  0  0  0  0  0  0  0
  151.6216  143.8190  157.0675 O   0  0  0  0  0  0  0  0  0  0  0  0
  150.7394  140.0307  158.2857 H   0  0  0  0  0  0  0  0  0  0  0  0
  149.8269  139.5786  156.8597 H   0  0  0  0  0  0  0  0  0  0  0  0
  149.1146  140.6655  158.0443 H   0  0  0  0  0  0  0  0  0  0  0  0
  151.5751  141.3342  156.3319 H   0  0  0  0  0  0  0  0  0  0  0  0
  149.6952  143.0297  155.4944 H   0  0  0  0  0  0  0  0  0  0  0  0
  150.3640  139.4602  155.0206 H   0  0  0  0  0  0  0  0  0  0  0  0
  148.9457  138.0051  153.6073 H   0  0  0  0  0  0  0  0  0  0  0  0
  146.0468  140.9092  153.1912 H   0  0  0  0  0  0  0  0  0  0  0  0
  147.6872  143.5007  155.2089 H   0  0  0  0  0  0  0  0  0  0  0  0
  146.2770  143.0806  154.3148 H   0  0  0  0  0  0  0  0  0  0  0  0
  149.9691  143.2095  158.1263 H   0  0  0  0  0  0  0  0  0  0  0  0
  151.3404  142.0004  159.7401 H   0  0  0  0  0  0  0  0  0  0  0  0
  152.6407  141.8040  158.5639 H   0  0  0  0  0  0  0  0  0  0  0  0
  151.9905  144.2340  160.1635 H   0  0  0  0  0  0  0  0  0  0  0  0
  153.5205  143.7425  159.4357 H   0  0  0  0  0  0  0  0  0  0  0  0
  151.3667  145.4433  158.3026 H   0  0  0  0  0  0  0  0  0  0  0  0
  153.0078  145.2398  157.6811 H   0  0  0  0  0  0  0  0  0  0  0  0
  1  2  1  0  0  0  0
  1 16  1  0  0  0  0
  1 17  1  0  0  0  0
  1 18  1  0  0  0  0
  2  3  1  0  0  0  0
  2 11  1  0  0  0  0
  2 19  1  0  0  0  0
  3  4  1  0  0  0  0
  3 20  1  0  0  0  0
  4  9  1  0  0  0  0
  4  5  2  0  0  0  0
  5  6  1  0  0  0  0
  5 21  1  0  0  0  0
  6  7  2  0  0  0  0
  6 22  1  0  0  0  0
  7  8  1  0  0  0  0
  8  9  2  0  0  0  0
  8 23  1  0  0  0  0
  9 10  1  0  0  0  0
 10 24  1  0  0  0  0
 10 25  1  0  0  0  0
 11 15  1  0  0  0  0
 11 12  1  0  0  0  0
 11 26  1  0  0  0  0
 12 13  1  0  0  0  0
 12 27  1  0  0  0  0
 12 28  1  0  0  0  0
 13 14  1  0  0  0  0
 13 29  1  0  0  0  0
 13 30  1  0  0  0  0
 14 15  1  0  0  0  0
 14 31  1  0  0  0  0
 14 32  1  0  0  0  0
M  END
> <s_m_source_file>
AV-unprocessed.smi

> <i_m_source_file_index>
949

> <i_lp_mmshare_version>
43012

> <i_f3d_flags>
0

> <s_epik_input>
TzFbQ0gyXVtDSDJdW0NIMl1bQ0BIXTFbQ0BIXShbQ0gzXSlbTkhdYzJbY0hdW2NIXW5bY0hdYzJbTkgyXQ==

> <s_epik_cmdline>
J2VwaWtfcHl0aG9uJywgJy1waCcsICc3LjAnLCAnLXRuJywgJzgnLCAnLW1hJywgJzIwMCcsICctbWV0YWxfYmluZGluZycsICctaW1hZScsICc8aW5maWxlLm1hZT4nLCAnLW9tYWUnLCAnPG91dGZpbGUubWFlPic=

> <r_epik_Ionization_Penalty>
3.88091

> <r_epik_Ionization_Penalty_Charging>
0

> <r_epik_Ionization_Penalty_Neutral>
3.88091

> <r_epik_State_Penalty>
3.88049

> <r_epik_Charging_Adjusted_Penalty>
3.88049

> <i_epik_Tot_Q>
0

> <i_epik_Tot_abs_Q>
0

> <r_epik_Metal_State_Penalty>
0.313783

> <b_epik_Metal_Only>
1

> <s_lp_Force_Field>
OPLS_2005

> <r_lp_Energy>
24.4145

> <b_lp_Chiralities_Consistent>
1

> <s_lp_Variant>
AV-unprocessed.smi:949-8

> <Gold.Version>
5.8.1

> <Gold.Id.Protein>
6NUR|6NUR_protein|mol2

> <Gold.PLP.Fitness>
41.1585

> <Gold.PLP.PLP>
-30.1222

> <Gold.PLP.part.hbond>
-2.0000

> <Gold.PLP.part.metal>
0.0000

> <Gold.PLP.part.buried>
-2.9977

> <Gold.PLP.part.nonpolar>
-26.7700

> <Gold.PLP.part.repulsive>
1.1502

> <Gold.PLP.ligand.clash>
0.0000

> <Gold.PLP.ligand.torsion>
0.4835

> <Gold.PLP.Chemscore.Hbond>
1.9920

> <Gold.PLP.Chemscore.CHOScore>
2.0000

> <Gold.PLP.Chemscore.Metal>
0.0000

> <Gold.Chemscore.Hbonds>
donor molecule, donor type, donor heavy atom, donor atom, acceptor molecule, acceptor atom, score
      L1  H     3    20       P1  8028  0.99
      L1  H    10    24       P1  8028  0.95
      L1  C     6    22       P1  7948  1.00
      L1  C     8    23       P1 10175  1.00

> <Gold.PLP.Chemscore.Internal.Correction>
0.0271

> <Gold.Rescore>
     Score         DG    S(hbond)    S(metal)    S(lipo)     H(rot)  DE(clash)    DE(int)     intcor
     15.16     -16.36       1.05        0.00      89.57       1.22       0.11       1.09       ----

> <Gold.Chemscore.Fitness>
15.1634

> <Gold.Chemscore.DG>
-16.3569

> <Gold.Chemscore.ZeroCoef>
-5.4800

> <Gold.Chemscore.Hbond>
1.0516

> <Gold.Chemscore.Metal>
0.0000

> <Gold.Chemscore.Lipo>
89.5702

> <Gold.Chemscore.Internal_Hbond>
0.0000

> <Gold.Chemscore.DEClash>
0.1059

> <Gold.Chemscore.DEInternal>
1.0876

> <Gold.Chemscore.Rot>
1.2169

> <Gold.Chemscore.Internal.Correction>
   9.000000E+99

> <Gold.Chemscore.Hbonds>
donor molecule, donor type, donor heavy atom, donor atom, acceptor molecule, acceptor atom, score
      L1  H     3    20       P1  8028  0.94
      L1  H    10    24       P1  8028  0.21

> <Gold.Chemscore.Hbond.Weighted>
-3.5124

> <Gold.Chemscore.Metal.Weighted>
-0.0000

> <Gold.Chemscore.Lipo.Weighted>
-10.4797

> <Gold.Chemscore.Internal_Hbond.Weighted>
0.0000

> <Gold.Chemscore.DEClash.Weighted>
0.1059

> <Gold.Chemscore.DEInternal.Weighted>
1.0876

> <Gold.Chemscore.Rot.Weighted>
3.1152

> <Gold.Chemscore.Internal.Correction.Weighted>
   9.000000E+99

> <Gold.Protein.RotatedTorsions>
[ 6907 6896 6895 6894 ] final -153.48 input  -60.11 | X-H torsion
[ 7974 7965 7964 7962 ] final   93.60 input  175.53 | X-H torsion
[ 8008 7997 7996 7995 ] final  -78.57 input   59.86 | X-H torsion
[ 10167 10162 10161 10158 ] final   98.17 input  -65.29 | X-H torsion
[ 10718 10713 10712 10709 ] final -108.25 input   66.30 | X-H torsion
[ 10763 10752 10751 10750 ] final  -32.74 input  -60.55 | X-H torsion
[ 11005 11000 10999 10996 ] final  -89.05 input  -57.11 | X-H torsion

> <Gold.Protein.ActiveResidues>
 VAL166  LYS551  ARG553  GLY616  TRP617  ASP618  TYR619  PRO620  LYS621  CYS622 
 ASP623  PHE694  ASN695  SER759  ASP760  ASP761  ALA762  ILE779  LEU786  VAL792 
 PHE793  MET794  SER795  GLU796  ALA797  LYS798  CYS799  TRP800  GLU811  SER814 

> <Gold.Protein.RotatedAtoms>
  151.2432  133.4388  159.2608 H   0  0  0  0  0  0  0  0  0  0  0  0  # atno 6907 bound_to 6896
  151.0686  134.9783  159.8307 H   0  0  0  0  0  0  0  0  0  0  0  0  # atno 6908 bound_to 6896
  152.5409  134.2379  159.8903 H   0  0  0  0  0  0  0  0  0  0  0  0  # atno 6909 bound_to 6896
  145.4768  139.2280  143.2904 H   0  0  0  0  0  0  0  0  0  0  0  0  # atno 7974 bound_to 7965
  154.5701  140.0692  156.8952 H   0  0  0  0  0  0  0  0  0  0  0  0  # atno 8008 bound_to 7997
  155.2649  140.3361  155.4252 H   0  0  0  0  0  0  0  0  0  0  0  0  # atno 8009 bound_to 7997
  156.2112  140.1760  156.7676 H   0  0  0  0  0  0  0  0  0  0  0  0  # atno 8010 bound_to 7997
  139.7733  144.6914  151.0125 H   0  0  0  0  0  0  0  0  0  0  0  0  # atno 10167 bound_to 10162
  156.0476  130.5703  150.7935 H   0  0  0  0  0  0  0  0  0  0  0  0  # atno 10718 bound_to 10713
  153.8188  135.6876  153.4830 H   0  0  0  0  0  0  0  0  0  0  0  0  # atno 10763 bound_to 10752
  153.1582  135.4590  154.9733 H   0  0  0  0  0  0  0  0  0  0  0  0  # atno 10764 bound_to 10752
  154.7936  135.3311  154.7662 H   0  0  0  0  0  0  0  0  0  0  0  0  # atno 10765 bound_to 10752
  141.1591  133.7607  156.9540 H   0  0  0  0  0  0  0  0  0  0  0  0  # atno 11005 bound_to 11000
  146.2364  140.5551  142.8953 LP  0  0  0  0  0  0  0  0  0  0  0  0  # atno 17320 bound_to 7965
  144.7912  140.6036  143.6540 LP  0  0  0  0  0  0  0  0  0  0  0  0  # atno 17321 bound_to 7965
  140.7815  143.4564  151.0340 LP  0  0  0  0  0  0  0  0  0  0  0  0  # atno 17342 bound_to 10162
  139.8247  143.7773  152.3178 LP  0  0  0  0  0  0  0  0  0  0  0  0  # atno 17343 bound_to 10162
  157.5369  131.0939  150.9880 LP  0  0  0  0  0  0  0  0  0  0  0  0  # atno 17370 bound_to 10713
  157.0172  130.5660  149.5327 LP  0  0  0  0  0  0  0  0  0  0  0  0  # atno 17371 bound_to 10713
  140.1238  134.9400  157.2241 LP  0  0  0  0  0  0  0  0  0  0  0  0  # atno 17394 bound_to 11000
  140.3038  134.3101  155.7283 LP  0  0  0  0  0  0  0  0  0  0  0  0  # atno 17395 bound_to 11000

$$$$
