AV-unprocessed.smi:546|AV-procd|sdf|2888|dock4
  -GOLD-   2262023383D 1   1.00000     0.00000
 Structure written by MMmdl.
 51 53  0  0  0  0  0  0  0  0  2 V2000
  151.2874  137.6141  154.4063 C   0  0  0  0  0  0  0  0  0  0  0  0
  150.2059  138.6635  154.1410 C   0  0  0  0  0  0  0  0  0  0  0  0
  150.7367  139.9409  154.4419 O   0  0  0  0  0  0  0  0  0  0  0  0
  149.8084  140.7933  155.0907 C   0  0  0  0  0  0  0  0  0  0  0  0
  149.8504  140.5439  156.6055 C   0  0  0  0  0  0  0  0  0  0  0  0
  148.9694  141.4603  157.3236 N   0  0  0  0  0  0  0  0  0  0  0  0
  149.3244  142.5127  158.1091 C   0  0  0  0  0  0  0  0  0  0  0  0
  150.6573  142.8287  158.3850 N   0  0  0  0  0  0  0  0  0  0  0  0
  151.3708  143.9582  157.7800 C   0  0  0  0  0  0  0  0  0  0  0  0
  152.4434  144.5911  158.6974 C   0  0  1  0  0  0  0  0  0  0  0  0
  151.8533  145.4577  159.8214 C   0  0  0  0  0  0  0  0  0  0  0  0
  153.4049  143.5147  159.2279 C   0  0  0  0  0  0  0  0  0  0  0  0
  152.6311  142.3329  159.8324 C   0  0  2  0  0  0  0  0  0  0  0  0
  153.5789  141.2208  160.3007 C   0  0  0  0  0  0  0  0  0  0  0  0
  151.6131  141.8051  158.8067 C   0  0  0  0  0  0  0  0  0  0  0  0
  148.2988  143.2326  158.5683 N   0  0  0  0  0  0  0  0  0  0  0  0
  147.1958  142.5727  158.0503 C   0  0  0  0  0  0  0  0  0  0  0  0
  147.5698  141.5026  157.2987 C   0  0  0  0  0  0  0  0  0  0  0  0
  146.6104  140.6205  156.5943 C   0  0  0  0  0  0  0  0  0  0  0  0
  146.9948  139.6725  155.9129 O   0  0  0  0  0  0  0  0  0  0  0  0
  145.3096  140.9980  156.8042 N   0  5  0  0  0  0  0  0  0  0  0  0
  144.8886  142.0705  157.5600 C   0  0  0  0  0  0  0  0  0  0  0  0
  143.6946  142.3394  157.6985 O   0  0  0  0  0  0  0  0  0  0  0  0
  145.8117  142.8692  158.1815 N   0  0  0  0  0  0  0  0  0  0  0  0
  145.3937  144.0228  158.9833 C   0  0  0  0  0  0  0  0  0  0  0  0
  150.9207  136.6111  154.1876 H   0  0  0  0  0  0  0  0  0  0  0  0
  151.6043  137.6360  155.4493 H   0  0  0  0  0  0  0  0  0  0  0  0
  152.1663  137.7933  153.7865 H   0  0  0  0  0  0  0  0  0  0  0  0
  149.8901  138.6226  153.0977 H   0  0  0  0  0  0  0  0  0  0  0  0
  149.3318  138.4625  154.7621 H   0  0  0  0  0  0  0  0  0  0  0  0
  150.0424  141.8371  154.8769 H   0  0  0  0  0  0  0  0  0  0  0  0
  148.8042  140.5977  154.7118 H   0  0  0  0  0  0  0  0  0  0  0  0
  149.5812  139.5151  156.8333 H   0  0  0  0  0  0  0  0  0  0  0  0
  150.8655  140.6487  156.9739 H   0  0  0  0  0  0  0  0  0  0  0  0
  151.8533  143.5904  156.8736 H   0  0  0  0  0  0  0  0  0  0  0  0
  150.6648  144.7163  157.4424 H   0  0  0  0  0  0  0  0  0  0  0  0
  153.0316  145.2692  158.0779 H   0  0  0  0  0  0  0  0  0  0  0  0
  151.2349  144.8750  160.5021 H   0  0  0  0  0  0  0  0  0  0  0  0
  151.2397  146.2618  159.4152 H   0  0  0  0  0  0  0  0  0  0  0  0
  152.6439  145.9210  160.4120 H   0  0  0  0  0  0  0  0  0  0  0  0
  154.0234  143.1543  158.4044 H   0  0  0  0  0  0  0  0  0  0  0  0
  154.0907  143.9416  159.9608 H   0  0  0  0  0  0  0  0  0  0  0  0
  152.0828  142.6831  160.7079 H   0  0  0  0  0  0  0  0  0  0  0  0
  154.1513  140.8096  159.4685 H   0  0  0  0  0  0  0  0  0  0  0  0
  153.0248  140.4017  160.7601 H   0  0  0  0  0  0  0  0  0  0  0  0
  154.2871  141.5950  161.0402 H   0  0  0  0  0  0  0  0  0  0  0  0
  151.0651  140.9683  159.2419 H   0  0  0  0  0  0  0  0  0  0  0  0
  152.1265  141.4139  157.9272 H   0  0  0  0  0  0  0  0  0  0  0  0
  144.8083  143.6954  159.8431 H   0  0  0  0  0  0  0  0  0  0  0  0
  144.7789  144.7011  158.3901 H   0  0  0  0  0  0  0  0  0  0  0  0
  146.2366  144.6001  159.3617 H   0  0  0  0  0  0  0  0  0  0  0  0
  1  2  1  0  0  0  0
  1 26  1  0  0  0  0
  1 27  1  0  0  0  0
  1 28  1  0  0  0  0
  2  3  1  0  0  0  0
  2 29  1  0  0  0  0
  2 30  1  0  0  0  0
  3  4  1  0  0  0  0
  4  5  1  0  0  0  0
  4 31  1  0  0  0  0
  4 32  1  0  0  0  0
  5  6  1  0  0  0  0
  5 33  1  0  0  0  0
  5 34  1  0  0  0  0
  6 18  1  0  0  0  0
  6  7  1  0  0  0  0
  7  8  1  0  0  0  0
  7 16  2  0  0  0  0
  8 15  1  0  0  0  0
  8  9  1  0  0  0  0
  9 10  1  0  0  0  0
  9 35  1  0  0  0  0
  9 36  1  0  0  0  0
 10 11  1  0  0  0  0
 10 12  1  0  0  0  0
 10 37  1  0  0  0  0
 11 38  1  0  0  0  0
 11 39  1  0  0  0  0
 11 40  1  0  0  0  0
 12 13  1  0  0  0  0
 12 41  1  0  0  0  0
 12 42  1  0  0  0  0
 13 14  1  0  0  0  0
 13 15  1  0  0  0  0
 13 43  1  0  0  0  0
 14 44  1  0  0  0  0
 14 45  1  0  0  0  0
 14 46  1  0  0  0  0
 15 47  1  0  0  0  0
 15 48  1  0  0  0  0
 16 17  1  0  0  0  0
 17 24  1  0  0  0  0
 17 18  2  0  0  0  0
 18 19  1  0  0  0  0
 19 20  2  0  0  0  0
 19 21  1  0  0  0  0
 21 22  1  0  0  0  0
 22 23  2  0  0  0  0
 22 24  1  0  0  0  0
 24 25  1  0  0  0  0
 25 49  1  0  0  0  0
 25 50  1  0  0  0  0
 25 51  1  0  0  0  0
M  CHG  1  21  -1
M  END
> <s_m_source_file>
AV-unprocessed.smi

> <i_m_source_file_index>
546

> <i_lp_mmshare_version>
43012

> <i_f3d_flags>
0

> <s_epik_input>
W0NIM11uMWMoPU8pW25IXWMoPU8pYyhjMTIpbihbQ0gyXVtDSDJdT1tDSDJdW0NIM10pYyhuMilOM1tDSDJdW0NAQEhdKFtDSDNdKVtDSDJdW0NAQEhdKFtDSDNdKVtDSDJdMw==

> <s_epik_cmdline>
J2VwaWtfcHl0aG9uJywgJy1waCcsICc3LjAnLCAnLXRuJywgJzgnLCAnLW1hJywgJzIwMCcsICctbWV0YWxfYmluZGluZycsICctaW1hZScsICc8aW5maWxlLm1hZT4nLCAnLW9tYWUnLCAnPG91dGZpbGUubWFlPic=

> <r_lp_tautomer_probability>
1

> <r_epik_Ionization_Penalty>
5.12825

> <r_epik_Ionization_Penalty_Charging>
0.0743105

> <r_epik_Ionization_Penalty_Neutral>
5.05394

> <r_epik_State_Penalty>
5.04406

> <r_epik_Charging_Adjusted_Penalty>
5.11837

> <i_epik_Tot_Q>
-1

> <i_epik_Tot_abs_Q>
1

> <r_epik_Metal_State_Penalty>
1.15122

> <b_epik_Metal_Only>
1

> <s_lp_Force_Field>
OPLS_2005

> <r_lp_Energy>
44.0722

> <b_lp_Chiralities_Consistent>
1

> <s_lp_Variant>
AV-unprocessed.smi:546-6

> <Gold.Version>
5.8.1

> <Gold.Id.Protein>
6NUR|6NUR_protein|mol2

> <Gold.PLP.Fitness>
46.5025

> <Gold.PLP.PLP>
-46.1407

> <Gold.PLP.part.hbond>
-1.0000

> <Gold.PLP.part.metal>
0.0000

> <Gold.PLP.part.buried>
-7.0478

> <Gold.PLP.part.nonpolar>
-39.5301

> <Gold.PLP.part.repulsive>
0.9519

> <Gold.PLP.ligand.clash>
0.0000

> <Gold.PLP.ligand.torsion>
1.6228

> <Gold.PLP.Chemscore.Hbond>
1.0000

> <Gold.PLP.Chemscore.CHOScore>
0.0000

> <Gold.PLP.Chemscore.Metal>
0.0000

> <Gold.Chemscore.Hbonds>
donor molecule, donor type, donor heavy atom, donor atom, acceptor molecule, acceptor atom, score
      P1  H  7989  7998       L1     3  1.00

> <Gold.PLP.Chemscore.Internal.Correction>
0.6075

> <Gold.Rescore>
     Score         DG    S(hbond)    S(metal)    S(lipo)     H(rot)  DE(clash)    DE(int)     intcor
     15.17     -17.18       0.96        0.00     105.95       1.52       0.36       1.65       ----

> <Gold.Chemscore.Fitness>
15.1718

> <Gold.Chemscore.DG>
-17.1830

> <Gold.Chemscore.ZeroCoef>
-5.4800

> <Gold.Chemscore.Hbond>
0.9579

> <Gold.Chemscore.Metal>
0.0000

> <Gold.Chemscore.Lipo>
105.9523

> <Gold.Chemscore.Internal_Hbond>
0.0000

> <Gold.Chemscore.DEClash>
0.3572

> <Gold.Chemscore.DEInternal>
1.6540

> <Gold.Chemscore.Rot>
1.5206

> <Gold.Chemscore.Internal.Correction>
   9.000000E+99

> <Gold.Chemscore.Hbonds>
donor molecule, donor type, donor heavy atom, donor atom, acceptor molecule, acceptor atom, score
      P1  H  7989  7998       L1     3  0.59

> <Gold.Chemscore.Hbond.Weighted>
-3.1992

> <Gold.Chemscore.Metal.Weighted>
-0.0000

> <Gold.Chemscore.Lipo.Weighted>
-12.3964

> <Gold.Chemscore.Internal_Hbond.Weighted>
0.0000

> <Gold.Chemscore.DEClash.Weighted>
0.3572

> <Gold.Chemscore.DEInternal.Weighted>
1.6540

> <Gold.Chemscore.Rot.Weighted>
3.8926

> <Gold.Chemscore.Internal.Correction.Weighted>
   9.000000E+99

> <Gold.Protein.RotatedTorsions>
[ 6907 6896 6895 6894 ] final   31.05 input  -60.11 | X-H torsion
[ 7974 7965 7964 7962 ] final -140.45 input  175.53 | X-H torsion
[ 8008 7997 7996 7995 ] final   -9.66 input   59.86 | X-H torsion
[ 10167 10162 10161 10158 ] final -119.44 input  -65.29 | X-H torsion
[ 10718 10713 10712 10709 ] final  134.19 input   66.30 | X-H torsion
[ 10763 10752 10751 10750 ] final  -41.02 input  -60.55 | X-H torsion
[ 11005 11000 10999 10996 ] final  -98.42 input  -57.11 | X-H torsion

> <Gold.Protein.ActiveResidues>
 VAL166  LYS551  ARG553  GLY616  TRP617  ASP618  TYR619  PRO620  LYS621  CYS622 
 ASP623  PHE694  ASN695  SER759  ASP760  ASP761  ALA762  ILE779  LEU786  VAL792 
 PHE793  MET794  SER795  GLU796  ALA797  LYS798  CYS799  TRP800  GLU811  SER814 

> <Gold.Protein.RotatedAtoms>
  152.0548  134.9631  160.0574 H   0  0  0  0  0  0  0  0  0  0  0  0  # atno 6907 bound_to 6896
  152.1018  133.4249  159.4599 H   0  0  0  0  0  0  0  0  0  0  0  0  # atno 6908 bound_to 6896
  150.6839  134.2671  159.4616 H   0  0  0  0  0  0  0  0  0  0  0  0  # atno 6909 bound_to 6896
  144.8596  140.6199  143.5337 H   0  0  0  0  0  0  0  0  0  0  0  0  # atno 7974 bound_to 7965
  154.5626  140.2349  155.8313 H   0  0  0  0  0  0  0  0  0  0  0  0  # atno 8008 bound_to 7997
  156.2042  140.3044  155.9549 H   0  0  0  0  0  0  0  0  0  0  0  0  # atno 8009 bound_to 7997
  155.2861  140.0424  157.3010 H   0  0  0  0  0  0  0  0  0  0  0  0  # atno 8010 bound_to 7997
  140.0466  143.5101  152.2103 H   0  0  0  0  0  0  0  0  0  0  0  0  # atno 10167 bound_to 10162
  157.4697  131.1079  150.9818 H   0  0  0  0  0  0  0  0  0  0  0  0  # atno 10718 bound_to 10713
  153.9556  135.6745  153.4744 H   0  0  0  0  0  0  0  0  0  0  0  0  # atno 10763 bound_to 10752
  153.0863  135.4897  154.8599 H   0  0  0  0  0  0  0  0  0  0  0  0  # atno 10764 bound_to 10752
  154.7301  135.3136  154.8865 H   0  0  0  0  0  0  0  0  0  0  0  0  # atno 10765 bound_to 10752
  141.1345  133.8244  157.0836 H   0  0  0  0  0  0  0  0  0  0  0  0  # atno 11005 bound_to 11000
  145.4337  139.1545  143.4008 LP  0  0  0  0  0  0  0  0  0  0  0  0  # atno 17320 bound_to 7965
  146.2850  140.4455  142.8761 LP  0  0  0  0  0  0  0  0  0  0  0  0  # atno 17321 bound_to 7965
  139.5980  144.7573  151.3240 LP  0  0  0  0  0  0  0  0  0  0  0  0  # atno 17342 bound_to 10162
  140.7236  143.7067  150.7802 LP  0  0  0  0  0  0  0  0  0  0  0  0  # atno 17343 bound_to 10162
  157.0587  130.5816  149.5382 LP  0  0  0  0  0  0  0  0  0  0  0  0  # atno 17370 bound_to 10713
  156.0067  130.5155  150.7854 LP  0  0  0  0  0  0  0  0  0  0  0  0  # atno 17371 bound_to 10713
  140.0436  134.9842  157.1007 LP  0  0  0  0  0  0  0  0  0  0  0  0  # atno 17394 bound_to 11000
  140.4097  134.1994  155.7163 LP  0  0  0  0  0  0  0  0  0  0  0  0  # atno 17395 bound_to 11000

$$$$
