#       Name:                AV-unprocessed.smi:666
#       Creating user name   scv26
#       Creation time:       Fri Mar 27 00:20:29 2020


#       File generated by GOLD software.
#

@<TRIPOS>MOLECULE
AV-unprocessed.smi:666
    40    41     1
SMALL
NO_CHARGES


@<TRIPOS>ATOM
      1 ****         1.1506   0.5841   2.0363 O.2            1 S1                 0.0000
      2 ****         0.6120  -0.4900   1.7666 C.2            1 S1                 0.0000
      3 ****        -0.9180  -0.5651   1.6931 C.3            1 S1                 0.0000
      4 ****        -1.5961   0.6056   1.0010 C.2            1 S1                 0.0000
      5 ****        -2.0324   1.6856   1.6786 C.2            1 S1                 0.0000
      6 ****        -2.7271   2.8721   1.0340 C.3            1 S1                 0.0000
      7 ****        -3.1974   2.5664  -0.3981 C.3            1 S1                 0.0000
      8 ****        -2.1167   1.8164  -1.1872 C.3            1 S1                 0.0000
      9 ****        -1.7461   0.4842  -0.5105 C.3            1 S1                 0.0000
     10 ****         1.1876  -1.6840   1.4939 N.pl3          1 S1                -1.0000
     11 ****         2.7945  -1.9052   1.4449 S.o2           1 S1                 0.0000
     12 ****         3.4758  -1.2960   2.5983 O.2            1 S1                 0.0000
     13 ****         3.1327  -3.3031   1.1353 O.2            1 S1                 0.0000
     14 ****         3.2969  -0.9093  -0.0363 C.3            1 S1                 0.0000
     15 ****         2.9755  -1.6410  -1.3116 C.2            1 S1                 0.0000
     16 ****         1.7001  -1.9295  -1.8732 C.2            1 S1                 0.0000
     17 ****         2.0002  -2.5955  -3.0258 C.2            1 S1                 0.0000
     18 ****         3.3441  -2.7034  -3.1757 O.3            1 S1                 0.0000
     19 ****         3.9583  -2.0882  -2.0788 N.2            1 S1                 0.0000
     20 ****        -1.2551  -1.4883   1.2169 H              1 S1                 0.0000
     21 ****        -1.2808  -0.6151   2.7206 H              1 S1                 0.0000
     22 ****        -1.8824   1.7434   2.7469 H              1 S1                 0.0000
     23 ****        -3.5776   3.1686   1.6482 H              1 S1                 0.0000
     24 ****        -2.0290   3.7097   1.0310 H              1 S1                 0.0000
     25 ****        -4.1018   1.9576  -0.3626 H              1 S1                 0.0000
     26 ****        -3.4683   3.4916  -0.9074 H              1 S1                 0.0000
     27 ****        -2.4499   1.6338  -2.2092 H              1 S1                 0.0000
     28 ****        -1.2282   2.4449  -1.2608 H              1 S1                 0.0000
     29 ****        -0.8167   0.1085  -0.9390 H              1 S1                 0.0000
     30 ****        -2.5125  -0.2645  -0.7139 H              1 S1                 0.0000
     31 ****         2.8172   0.0677  -0.0027 H              1 S1                 0.0000
     32 ****         4.3704  -0.7365   0.0435 H              1 S1                 0.0000
     33 ****         0.7207  -1.6919  -1.4860 H              1 S1                 0.0000
     34 ****         1.3980  -3.0319  -3.8088 H              1 S1                 0.0000
     35 ****         0.5911   1.3956   2.2046 LP             1 S1                 0.0000
     36 ****         2.1475   0.6447   2.0869 LP             1 S1                 0.0000
     37 ****         0.5939  -2.4683   1.3138 LP             1 S1                 0.0000
     38 ****         3.6278  -2.2500  -4.0206 LP             1 S1                 0.0000
     39 ****         3.6042  -3.6684  -3.2119 LP             1 S1                 0.0000
     40 ****         4.9401  -2.0035  -1.9088 LP             1 S1                 0.0000
@<TRIPOS>BOND
    1    1    2 2     
    2    2    3 1     
    3    2   10 1     
    4    3    4 1     
    5    3   20 1     
    6    3   21 1     
    7    4    9 1     
    8    4    5 2     
    9    5    6 1     
   10    5   22 1     
   11    6    7 1     
   12    6   23 1     
   13    6   24 1     
   14    7    8 1     
   15    7   25 1     
   16    7   26 1     
   17    8    9 1     
   18    8   27 1     
   19    8   28 1     
   20    9   29 1     
   21    9   30 1     
   22   10   11 1     
   23   11   12 2     
   24   11   13 2     
   25   11   14 1     
   26   14   15 1     
   27   14   31 1     
   28   14   32 1     
   29   15   19 2     
   30   15   16 1     
   31   16   17 2     
   32   16   33 1     
   33   17   18 1     
   34   17   34 1     
   35   18   19 1     
   36    1   35 1     
   37    1   36 1     
   38   10   37 1     
   39   18   38 1     
   40   18   39 1     
   41   19   40 1     
@<TRIPOS>SUBSTRUCTURE
      1 S1             1
@<TRIPOS>SET
LONE_PAIRS      STATIC     ATOMS    <user>   **** ""
8 35 36 37 12 13 38 39 40
ATOM$BLUE        STATIC     ATOMS    COLORGROUP SYSTEM
8 35 36 37 12 13 38 39 40
