AV-unprocessed.smi:2855|AV-procd|sdf|10979|dock6
  -GOLD-   2272015433D 1   1.00000     0.00000
 Structure written by MMmdl.
 47 48  0  0  0  0  0  0  0  0  1 V2000
  152.2939  145.1795  158.2015 C   0  0  0  0  0  0  0  0  0  0  0  0
  151.5179  144.5181  159.3545 C   0  0  2  0  0  0  0  0  0  0  0  0
  152.4255  144.1321  160.5368 C   0  0  0  0  0  0  0  0  0  0  0  0
  153.3062  142.9101  160.2270 C   0  0  0  0  0  0  0  0  0  0  0  0
  152.4671  141.6866  159.7879 C   0  0  2  0  0  0  0  0  0  0  0  0
  153.3208  140.4033  159.5529 C   0  0  0  0  0  0  0  0  0  0  0  0
  152.5092  139.1120  159.7539 C   0  0  0  0  0  0  0  0  0  0  0  0
  154.6275  140.3579  160.3662 C   0  0  0  0  0  0  0  0  0  0  0  0
  151.5626  142.0668  158.5839 C   0  0  1  0  0  0  0  0  0  0  0  0
  150.6965  140.9477  158.2211 N   0  0  0  0  0  0  0  0  0  0  0  0
  150.9063  140.0914  157.2101 C   0  0  0  0  0  0  0  0  0  0  0  0
  151.8435  140.1938  156.4177 O   0  0  0  0  0  0  0  0  0  0  0  0
  149.8872  138.9529  157.0688 C   0  0  0  0  0  0  0  0  0  0  0  0
  148.9199  139.1905  155.9880 N   0  0  0  0  0  0  0  0  0  0  0  0
  147.5566  139.1643  156.2462 C   0  0  0  0  0  0  0  0  0  0  0  0
  146.6141  139.3808  155.2982 C   0  0  0  0  0  0  0  0  0  0  0  0
  147.0032  139.6611  153.9202 C   0  0  0  0  0  0  0  0  0  0  0  0
  146.2250  139.8686  152.9918 O   0  0  0  0  0  0  0  0  0  0  0  0
  148.3829  139.6819  153.7010 N   0  0  0  0  0  0  0  0  0  0  0  0
  149.3596  139.4604  154.6732 C   0  0  0  0  0  0  0  0  0  0  0  0
  150.5525  139.5048  154.3732 O   0  0  0  0  0  0  0  0  0  0  0  0
  150.6914  143.3020  158.8952 C   0  0  0  0  0  0  0  0  0  0  0  0
  148.6999  139.8754  152.7622 H   0  0  0  0  0  0  0  0  0  0  0  0
  153.0332  144.5094  157.7636 H   0  0  0  0  0  0  0  0  0  0  0  0
  152.8211  146.0691  158.5466 H   0  0  0  0  0  0  0  0  0  0  0  0
  151.6185  145.4895  157.4038 H   0  0  0  0  0  0  0  0  0  0  0  0
  150.8147  145.2687  159.7175 H   0  0  0  0  0  0  0  0  0  0  0  0
  153.0501  144.9787  160.8239 H   0  0  0  0  0  0  0  0  0  0  0  0
  151.8046  143.9081  161.4053 H   0  0  0  0  0  0  0  0  0  0  0  0
  154.0271  143.1718  159.4531 H   0  0  0  0  0  0  0  0  0  0  0  0
  153.8884  142.6740  161.1170 H   0  0  0  0  0  0  0  0  0  0  0  0
  151.7953  141.4579  160.6173 H   0  0  0  0  0  0  0  0  0  0  0  0
  153.6132  140.3909  158.5028 H   0  0  0  0  0  0  0  0  0  0  0  0
  152.2485  138.9530  160.8000 H   0  0  0  0  0  0  0  0  0  0  0  0
  153.0784  138.2414  159.4270 H   0  0  0  0  0  0  0  0  0  0  0  0
  151.5851  139.1316  159.1759 H   0  0  0  0  0  0  0  0  0  0  0  0
  154.4372  140.3340  161.4389 H   0  0  0  0  0  0  0  0  0  0  0  0
  155.2660  141.2154  160.1556 H   0  0  0  0  0  0  0  0  0  0  0  0
  155.2041  139.4661  160.1192 H   0  0  0  0  0  0  0  0  0  0  0  0
  152.2062  142.3126  157.7388 H   0  0  0  0  0  0  0  0  0  0  0  0
  149.8933  140.7891  158.8119 H   0  0  0  0  0  0  0  0  0  0  0  0
  150.4022  138.0043  156.9012 H   0  0  0  0  0  0  0  0  0  0  0  0
  149.3748  138.8391  158.0251 H   0  0  0  0  0  0  0  0  0  0  0  0
  147.2214  138.9648  157.2542 H   0  0  0  0  0  0  0  0  0  0  0  0
  145.5666  139.3476  155.5611 H   0  0  0  0  0  0  0  0  0  0  0  0
  149.9780  143.0464  159.6802 H   0  0  0  0  0  0  0  0  0  0  0  0
  150.0938  143.5699  158.0228 H   0  0  0  0  0  0  0  0  0  0  0  0
  1  2  1  0  0  0  0
  1 24  1  0  0  0  0
  1 25  1  0  0  0  0
  1 26  1  0  0  0  0
  2 22  1  0  0  0  0
  2  3  1  0  0  0  0
  2 27  1  0  0  0  0
  3  4  1  0  0  0  0
  3 28  1  0  0  0  0
  3 29  1  0  0  0  0
  4  5  1  0  0  0  0
  4 30  1  0  0  0  0
  4 31  1  0  0  0  0
  5  6  1  0  0  0  0
  5  9  1  0  0  0  0
  5 32  1  0  0  0  0
  6  7  1  0  0  0  0
  6  8  1  0  0  0  0
  6 33  1  0  0  0  0
  7 34  1  0  0  0  0
  7 35  1  0  0  0  0
  7 36  1  0  0  0  0
  8 37  1  0  0  0  0
  8 38  1  0  0  0  0
  8 39  1  0  0  0  0
  9 10  1  0  0  0  0
  9 22  1  0  0  0  0
  9 40  1  0  0  0  0
 10 11  1  0  0  0  0
 10 41  1  0  0  0  0
 11 12  2  0  0  0  0
 11 13  1  0  0  0  0
 13 14  1  0  0  0  0
 13 42  1  0  0  0  0
 13 43  1  0  0  0  0
 14 20  1  0  0  0  0
 14 15  1  0  0  0  0
 15 16  2  0  0  0  0
 15 44  1  0  0  0  0
 16 17  1  0  0  0  0
 16 45  1  0  0  0  0
 17 18  2  0  0  0  0
 17 19  1  0  0  0  0
 19 23  1  0  0  0  0
 19 20  1  0  0  0  0
 20 21  2  0  0  0  0
 22 46  1  0  0  0  0
 22 47  1  0  0  0  0
M  END
> <s_m_source_file>
AV-unprocessed.smi

> <i_m_source_file_index>
2855

> <i_lp_mmshare_version>
43012

> <i_f3d_flags>
0

> <s_epik_input>
W0NIM11bQ0BASF0xW0NIMl1bQ0gyXVtDQEBIXShbQ0hdKFtDSDNdKVtDSDNdKVtDQEhdKFtDSDJdMSlbTkhdQyg9TylbQ0gyXW4yW2NIXVtjSF1jKD1PKVtuSF1jMj1P

> <s_epik_cmdline>
J2VwaWtfcHl0aG9uJywgJy1waCcsICc3LjAnLCAnLXRuJywgJzgnLCAnLW1hJywgJzIwMCcsICctbWV0YWxfYmluZGluZycsICctaW1hZScsICc8aW5maWxlLm1hZT4nLCAnLW9tYWUnLCAnPG91dGZpbGUubWFlPic=

> <r_lp_tautomer_probability>
0.999537

> <r_epik_Ionization_Penalty>
0.00306256

> <r_epik_Ionization_Penalty_Charging>
0.00306254

> <r_epik_Ionization_Penalty_Neutral>
2.0223e-08

> <r_epik_State_Penalty>
0.0021533

> <r_epik_Charging_Adjusted_Penalty>
0.00521583

> <i_epik_Tot_Q>
0

> <i_epik_Tot_abs_Q>
0

> <r_epik_Metal_State_Penalty>
0.362116

> <b_epik_Metal_Only>
0

> <s_lp_Force_Field>
OPLS_2005

> <r_lp_Energy>
15.7359

> <b_lp_Chiralities_Consistent>
1

> <s_lp_Variant>
AV-unprocessed.smi:2855-3

> <Gold.Version>
5.8.1

> <Gold.Id.Protein>
6NUR|6NUR_protein|mol2

> <Gold.PLP.Fitness>
45.3419

> <Gold.PLP.PLP>
-38.5332

> <Gold.PLP.part.hbond>
-3.1528

> <Gold.PLP.part.metal>
0.0000

> <Gold.PLP.part.buried>
-5.5567

> <Gold.PLP.part.nonpolar>
-30.3208

> <Gold.PLP.part.repulsive>
1.3376

> <Gold.PLP.ligand.clash>
0.0000

> <Gold.PLP.ligand.torsion>
1.1274

> <Gold.PLP.Chemscore.Hbond>
3.0000

> <Gold.PLP.Chemscore.CHOScore>
0.0000

> <Gold.PLP.Chemscore.Metal>
0.0000

> <Gold.Chemscore.Hbonds>
donor molecule, donor type, donor heavy atom, donor atom, acceptor molecule, acceptor atom, score
      L1  H    19    23       P1  7957  1.00
      P1  H  7989  7998       L1    21  1.00

> <Gold.PLP.Chemscore.Internal.Correction>
0.0634

> <Gold.Rescore>
     Score         DG    S(hbond)    S(metal)    S(lipo)     H(rot)  DE(clash)    DE(int)     intcor
     19.11     -22.61       2.89        0.00     104.38       1.85       0.02       3.47       ----

> <Gold.Chemscore.Fitness>
19.1122

> <Gold.Chemscore.DG>
-22.6063

> <Gold.Chemscore.ZeroCoef>
-5.4800

> <Gold.Chemscore.Hbond>
2.8921

> <Gold.Chemscore.Metal>
0.0000

> <Gold.Chemscore.Lipo>
104.3821

> <Gold.Chemscore.Internal_Hbond>
0.0000

> <Gold.Chemscore.DEClash>
0.0221

> <Gold.Chemscore.DEInternal>
3.4721

> <Gold.Chemscore.Rot>
1.8539

> <Gold.Chemscore.Internal.Correction>
   9.000000E+99

> <Gold.Chemscore.Hbonds>
donor molecule, donor type, donor heavy atom, donor atom, acceptor molecule, acceptor atom, score
      L1  H    19    23       P1  7957  1.00
      P1  H  7989  7998       L1    21  0.99
      P1  H  7997  8008       L1    12  0.01

> <Gold.Chemscore.Hbond.Weighted>
-9.6596

> <Gold.Chemscore.Metal.Weighted>
-0.0000

> <Gold.Chemscore.Lipo.Weighted>
-12.2127

> <Gold.Chemscore.Internal_Hbond.Weighted>
0.0000

> <Gold.Chemscore.DEClash.Weighted>
0.0221

> <Gold.Chemscore.DEInternal.Weighted>
3.4721

> <Gold.Chemscore.Rot.Weighted>
4.7460

> <Gold.Chemscore.Internal.Correction.Weighted>
   9.000000E+99

> <Gold.Protein.RotatedTorsions>
[ 6907 6896 6895 6894 ] final  -10.71 input  -60.11 | X-H torsion
[ 7974 7965 7964 7962 ] final  -88.71 input  175.53 | X-H torsion
[ 8008 7997 7996 7995 ] final  -36.09 input   59.86 | X-H torsion
[ 10167 10162 10161 10158 ] final -172.27 input  -65.29 | X-H torsion
[ 10718 10713 10712 10709 ] final  -80.17 input   66.30 | X-H torsion
[ 10763 10752 10751 10750 ] final  159.95 input  -60.55 | X-H torsion
[ 11005 11000 10999 10996 ] final  -26.68 input  -57.11 | X-H torsion

> <Gold.Protein.ActiveResidues>
 VAL166  LYS551  ARG553  GLY616  TRP617  ASP618  TYR619  PRO620  LYS621  CYS622 
 ASP623  PHE694  ASN695  SER759  ASP760  ASP761  ALA762  ILE779  LEU786  VAL792 
 PHE793  MET794  SER795  GLU796  ALA797  LYS798  CYS799  TRP800  GLU811  SER814 

> <Gold.Protein.RotatedAtoms>
  151.3977  135.0966  159.9545 H   0  0  0  0  0  0  0  0  0  0  0  0  # atno 6907 bound_to 6896
  152.5060  133.8918  159.7408 H   0  0  0  0  0  0  0  0  0  0  0  0  # atno 6908 bound_to 6896
  150.9386  133.6627  159.2824 H   0  0  0  0  0  0  0  0  0  0  0  0  # atno 6909 bound_to 6896
  145.4495  140.9560  143.2030 H   0  0  0  0  0  0  0  0  0  0  0  0  # atno 7974 bound_to 7965
  154.4080  140.1640  156.2318 H   0  0  0  0  0  0  0  0  0  0  0  0  # atno 8008 bound_to 7997
  155.9276  140.3417  155.6200 H   0  0  0  0  0  0  0  0  0  0  0  0  # atno 8009 bound_to 7997
  155.7146  140.0761  157.2347 H   0  0  0  0  0  0  0  0  0  0  0  0  # atno 8010 bound_to 7997
  139.5754  144.1544  152.1443 H   0  0  0  0  0  0  0  0  0  0  0  0  # atno 10167 bound_to 10162
  156.0076  130.4566  150.3759 H   0  0  0  0  0  0  0  0  0  0  0  0  # atno 10718 bound_to 10713
  154.2398  135.2775  155.2858 H   0  0  0  0  0  0  0  0  0  0  0  0  # atno 10763 bound_to 10752
  154.5555  135.5662  153.6963 H   0  0  0  0  0  0  0  0  0  0  0  0  # atno 10764 bound_to 10752
  153.0002  135.6285  154.2542 H   0  0  0  0  0  0  0  0  0  0  0  0  # atno 10765 bound_to 10752
  140.9051  133.7498  156.0595 H   0  0  0  0  0  0  0  0  0  0  0  0  # atno 11005 bound_to 11000
  144.8070  139.6032  143.7046 LP  0  0  0  0  0  0  0  0  0  0  0  0  # atno 17320 bound_to 7965
  146.2512  139.6204  142.9426 LP  0  0  0  0  0  0  0  0  0  0  0  0  # atno 17321 bound_to 7965
  140.1086  144.5477  150.6940 LP  0  0  0  0  0  0  0  0  0  0  0  0  # atno 17342 bound_to 10162
  140.7037  143.2452  151.4790 LP  0  0  0  0  0  0  0  0  0  0  0  0  # atno 17343 bound_to 10162
  157.1842  131.0399  151.2733 LP  0  0  0  0  0  0  0  0  0  0  0  0  # atno 17370 bound_to 10713
  157.4119  130.7390  149.6846 LP  0  0  0  0  0  0  0  0  0  0  0  0  # atno 17371 bound_to 10713
  140.8181  134.3321  157.5390 LP  0  0  0  0  0  0  0  0  0  0  0  0  # atno 17394 bound_to 11000
  139.8748  134.9293  156.3474 LP  0  0  0  0  0  0  0  0  0  0  0  0  # atno 17395 bound_to 11000

$$$$
