#       Name:                AV-unprocessed.smi:2358
#       Creating user name   scv26
#       Creation time:       Fri Mar 27 13:03:51 2020


#       File generated by GOLD software.
#

@<TRIPOS>MOLECULE
AV-unprocessed.smi:2358
    53    55     1
SMALL
NO_CHARGES


@<TRIPOS>ATOM
      1 ****        -5.9616  -0.6315   0.0511 C.3            1 S1                 0.0000
      2 ****        -4.9379   0.4770   0.1855 C.ar           1 S1                 0.0000
      3 ****        -5.3159   1.8204  -0.0088 C.ar           1 S1                 0.0000
      4 ****        -4.3613   2.8479   0.1193 C.ar           1 S1                 0.0000
      5 ****        -4.7749   4.2905  -0.0850 C.3            1 S1                 0.0000
      6 ****        -3.0269   2.5269   0.4416 C.ar           1 S1                 0.0000
      7 ****        -2.6311   1.1878   0.6359 C.ar           1 S1                 0.0000
      8 ****        -1.3060   0.9679   0.9458 O.3            1 S1                 0.0000
      9 ****        -0.8699  -0.3721   1.1336 C.3            1 S1                 0.0000
     10 ****         0.6349  -0.3642   1.4554 C.3            1 S1                 0.0000
     11 ****         0.7586  -0.0599   2.8310 O.3            1 S1                 0.0000
     12 ****         1.2881  -1.7429   1.2088 C.3            1 S1                 0.0000
     13 ****         2.7264  -1.6253   0.9385 N.am           1 S1                 0.0000
     14 ****         3.0340  -1.4182  -0.3958 N.2            1 S1                 0.0000
     15 ****         4.2630  -1.2849  -0.7780 C.2            1 S1                 0.0000
     16 ****         4.6540  -1.0637  -2.1557 N.pl3          1 S1                 0.0000
     17 ****         3.6749  -0.9836  -3.1438 C.2            1 S1                 0.0000
     18 ****         4.3483  -0.7720  -4.3264 C.2            1 S1                 0.0000
     19 ****         5.7217  -0.7198  -4.0894 N.2            1 S1                 0.0000
     20 ****         5.8300  -0.9003  -2.7789 C.2            1 S1                 0.0000
     21 ****         5.3390  -1.3537   0.1959 C.2            1 S1                 0.0000
     22 ****         5.0287  -1.5512   1.4955 C.2            1 S1                 0.0000
     23 ****         3.6452  -1.6969   1.9465 C.2            1 S1                 0.0000
     24 ****         3.3358  -1.8632   3.1258 O.2            1 S1                 0.0000
     25 ****        -3.6010   0.1621   0.5041 C.ar           1 S1                 0.0000
     26 ****        -6.9773  -0.2348   0.0445 H              1 S1                 0.0000
     27 ****        -5.8775  -1.3305   0.8838 H              1 S1                 0.0000
     28 ****        -5.8020  -1.1810  -0.8766 H              1 S1                 0.0000
     29 ****        -6.3389   2.0657  -0.2553 H              1 S1                 0.0000
     30 ****        -3.9076   4.9498  -0.1296 H              1 S1                 0.0000
     31 ****        -5.4122   4.6183   0.7365 H              1 S1                 0.0000
     32 ****        -5.3312   4.3985  -1.0164 H              1 S1                 0.0000
     33 ****        -2.2940   3.3143   0.5420 H              1 S1                 0.0000
     34 ****        -1.4343  -0.8761   1.9205 H              1 S1                 0.0000
     35 ****        -1.0408  -0.9136   0.2020 H              1 S1                 0.0000
     36 ****         1.1310   0.4003   0.8555 H              1 S1                 0.0000
     37 ****         1.6755  -0.0719   3.0604 H              1 S1                 0.0000
     38 ****         1.0795  -2.4326   2.0292 H              1 S1                 0.0000
     39 ****         0.8304  -2.2112   0.3356 H              1 S1                 0.0000
     40 ****         2.6158  -1.0775  -2.9504 H              1 S1                 0.0000
     41 ****         3.9520  -0.6539  -5.3242 H              1 S1                 0.0000
     42 ****         6.7850  -0.9119  -2.2749 H              1 S1                 0.0000
     43 ****         6.3703  -1.2493  -0.1047 H              1 S1                 0.0000
     44 ****         5.8239  -1.6026   2.2248 H              1 S1                 0.0000
     45 ****        -3.3423  -0.8764   0.6442 H              1 S1                 0.0000
     46 ****        -1.1143   1.4629   1.7933 LP             1 S1                 0.0000
     47 ****        -0.7602   1.3552   0.2028 LP             1 S1                 0.0000
     48 ****         0.2666  -0.7416   3.3726 LP             1 S1                 0.0000
     49 ****         0.3778   0.8470   3.0112 LP             1 S1                 0.0000
     50 ****         2.2982  -1.3712  -1.0713 LP             1 S1                 0.0000
     51 ****         6.4557  -0.5789  -4.7537 LP             1 S1                 0.0000
     52 ****         2.3734  -1.9528   3.3824 LP             1 S1                 0.0000
     53 ****         4.0467  -1.9088   3.8276 LP             1 S1                 0.0000
@<TRIPOS>BOND
    1    1    2 1     
    2    1   26 1     
    3    1   27 1     
    4    1   28 1     
    5    2   25 ar    
    6    2    3 ar    
    7    3    4 ar    
    8    3   29 1     
    9    4    5 1     
   10    4    6 ar    
   11    5   30 1     
   12    5   31 1     
   13    5   32 1     
   14    6    7 ar    
   15    6   33 1     
   16    7    8 1     
   17    7   25 ar    
   18    8    9 1     
   19    9   10 1     
   20    9   34 1     
   21    9   35 1     
   22   10   11 1     
   23   10   12 1     
   24   10   36 1     
   25   11   37 1     
   26   12   13 1     
   27   12   38 1     
   28   12   39 1     
   29   13   23 am    
   30   13   14 1     
   31   14   15 2     
   32   15   16 1     
   33   15   21 1     
   34   16   20 1     
   35   16   17 1     
   36   17   18 2     
   37   17   40 1     
   38   18   19 1     
   39   18   41 1     
   40   19   20 2     
   41   20   42 1     
   42   21   22 2     
   43   21   43 1     
   44   22   23 1     
   45   22   44 1     
   46   23   24 2     
   47   25   45 1     
   48    8   46 1     
   49    8   47 1     
   50   11   48 1     
   51   11   49 1     
   52   14   50 1     
   53   19   51 1     
   54   24   52 1     
   55   24   53 1     
@<TRIPOS>SUBSTRUCTURE
      1 S1             1
@<TRIPOS>SET
LONE_PAIRS      STATIC     ATOMS    <user>   **** ""
8 46 47 48 49 50 51 52 53
DONOR_HYDROGENS      STATIC     ATOMS    <user>   **** ""
1 37
ATOM$BLUE        STATIC     ATOMS    COLORGROUP SYSTEM
8 46 47 48 49 50 51 52 53
ATOM$RED        STATIC     ATOMS    COLORGROUP SYSTEM
1 37
