AV-unprocessed.smi:2749|AV-procd|sdf|10588|dock1
  -GOLD-   2272015 33D 1   1.00000     0.00000
 Structure written by MMmdl.
 32 34  0  0  0  0  0  0  0  0  1 V2000
  150.4059  140.6327  156.8723 O   0  0  0  0  0  0  0  0  0  0  0  0
  150.0350  141.7643  156.5648 C   0  0  0  0  0  0  0  0  0  0  0  0
  150.3140  142.8234  157.3554 N   0  0  0  0  0  0  0  0  0  0  0  0
  151.0128  142.9237  158.5950 C   0  0  0  0  0  0  0  0  0  0  0  0
  150.7717  144.1218  159.3060 C   0  0  0  0  0  0  0  0  0  0  0  0
  151.4093  144.3386  160.5432 C   0  0  0  0  0  0  0  0  0  0  0  0
  152.2760  143.3490  161.0390 C   0  0  0  0  0  0  0  0  0  0  0  0
  152.9119  143.5119  162.2232 F   0  0  0  0  0  0  0  0  0  0  0  0
  152.4656  142.1855  160.2718 C   0  0  0  0  0  0  0  0  0  0  0  0
  151.8541  141.9777  159.0861 N   0  0  0  0  0  0  0  0  0  0  0  0
  149.3440  142.0255  155.4436 N   0  0  0  0  0  0  0  0  0  0  0  0
  148.9255  141.0511  154.4402 C   0  0  1  0  0  0  0  0  0  0  0  0
  148.5401  139.7103  155.0737 C   0  0  0  0  0  0  0  0  0  0  0  0
  147.0792  139.5594  154.6283 C   0  0  2  0  0  0  0  0  0  0  0  0
  146.9584  139.2917  153.1208 C   0  0  0  0  0  0  0  0  0  0  0  0
  147.3035  140.6589  152.5295 C   0  0  0  0  0  0  0  0  0  0  0  0
  147.5970  141.4781  153.7933 C   0  0  1  0  0  0  0  0  0  0  0  0
  146.6551  140.9091  154.6883 O   0  0  0  0  0  0  0  0  0  0  0  0
  149.9819  143.7062  156.9954 H   0  0  0  0  0  0  0  0  0  0  0  0
  150.1033  144.8729  158.9104 H   0  0  0  0  0  0  0  0  0  0  0  0
  151.2362  145.2477  161.0998 H   0  0  0  0  0  0  0  0  0  0  0  0
  153.1243  141.4018  160.6162 H   0  0  0  0  0  0  0  0  0  0  0  0
  149.0826  142.9866  155.2727 H   0  0  0  0  0  0  0  0  0  0  0  0
  149.6921  140.9171  153.6750 H   0  0  0  0  0  0  0  0  0  0  0  0
  149.1659  138.8865  154.7292 H   0  0  0  0  0  0  0  0  0  0  0  0
  148.6020  139.7472  156.1625 H   0  0  0  0  0  0  0  0  0  0  0  0
  146.4961  138.8771  155.2474 H   0  0  0  0  0  0  0  0  0  0  0  0
  147.6317  138.5022  152.7852 H   0  0  0  0  0  0  0  0  0  0  0  0
  145.9393  139.0076  152.8563 H   0  0  0  0  0  0  0  0  0  0  0  0
  148.1518  140.6252  151.8450 H   0  0  0  0  0  0  0  0  0  0  0  0
  146.4475  141.0695  151.9928 H   0  0  0  0  0  0  0  0  0  0  0  0
  147.4908  142.5541  153.6497 H   0  0  0  0  0  0  0  0  0  0  0  0
  1  2  2  0  0  0  0
  2  3  1  0  0  0  0
  2 11  1  0  0  0  0
  3  4  1  0  0  0  0
  3 19  1  0  0  0  0
  4 10  1  0  0  0  0
  4  5  2  0  0  0  0
  5  6  1  0  0  0  0
  5 20  1  0  0  0  0
  6  7  2  0  0  0  0
  6 21  1  0  0  0  0
  7  8  1  0  0  0  0
  7  9  1  0  0  0  0
  9 10  2  0  0  0  0
  9 22  1  0  0  0  0
 11 12  1  0  0  0  0
 11 23  1  0  0  0  0
 12 17  1  0  0  0  0
 12 13  1  0  0  0  0
 12 24  1  0  0  0  0
 13 14  1  0  0  0  0
 13 25  1  0  0  0  0
 13 26  1  0  0  0  0
 14 18  1  0  0  0  0
 14 15  1  0  0  0  0
 14 27  1  0  0  0  0
 15 16  1  0  0  0  0
 15 28  1  0  0  0  0
 15 29  1  0  0  0  0
 16 17  1  0  0  0  0
 16 30  1  0  0  0  0
 16 31  1  0  0  0  0
 17 18  1  0  0  0  0
 17 32  1  0  0  0  0
M  END
> <s_m_source_file>
AV-unprocessed.smi

> <i_m_source_file_index>
2749

> <i_lp_mmshare_version>
43012

> <i_f3d_flags>
0

> <s_epik_input>
W0NIMl0xW0NIMl1bQ0BIXShPMilbQ0BASF0oW0NIMl1bQ0BASF0xMilbTkhdQyg9TylbTkhdYzNbY0hdW2NIXWMoRilbY0hdbjM=

> <s_epik_cmdline>
J2VwaWtfcHl0aG9uJywgJy1waCcsICc3LjAnLCAnLXRuJywgJzgnLCAnLW1hJywgJzIwMCcsICctbWV0YWxfYmluZGluZycsICctaW1hZScsICc8aW5maWxlLm1hZT4nLCAnLW9tYWUnLCAnPG91dGZpbGUubWFlPic=

> <r_lp_tautomer_probability>
1

> <r_epik_Ionization_Penalty>
3.37159e-05

> <r_epik_Ionization_Penalty_Charging>
0

> <r_epik_Ionization_Penalty_Neutral>
3.37159e-05

> <r_epik_State_Penalty>
-0

> <r_epik_Charging_Adjusted_Penalty>
0

> <i_epik_Tot_Q>
0

> <i_epik_Tot_abs_Q>
0

> <r_epik_Metal_State_Penalty>
-0

> <b_epik_Metal_Only>
0

> <s_lp_Force_Field>
OPLS_2005

> <r_lp_Energy>
42.1361

> <b_lp_Chiralities_Consistent>
1

> <s_lp_Variant>
AV-unprocessed.smi:2749-4

> <Gold.Version>
5.8.1

> <Gold.Id.Protein>
6NUR|6NUR_protein|mol2

> <Gold.PLP.Fitness>
38.4434

> <Gold.PLP.PLP>
-33.2636

> <Gold.PLP.part.hbond>
-2.0000

> <Gold.PLP.part.metal>
0.0000

> <Gold.PLP.part.buried>
-4.3164

> <Gold.PLP.part.nonpolar>
-27.2265

> <Gold.PLP.part.repulsive>
0.3039

> <Gold.PLP.ligand.clash>
0.0000

> <Gold.PLP.ligand.torsion>
0.4251

> <Gold.PLP.Chemscore.Hbond>
2.0000

> <Gold.PLP.Chemscore.CHOScore>
0.0000

> <Gold.PLP.Chemscore.Metal>
0.0000

> <Gold.Chemscore.Hbonds>
donor molecule, donor type, donor heavy atom, donor atom, acceptor molecule, acceptor atom, score
      L1  H     3    19       P1  8028  1.00
      L1  H    11    23       P1  8028  1.00

> <Gold.PLP.Chemscore.Internal.Correction>
0.0299

> <Gold.Rescore>
     Score         DG    S(hbond)    S(metal)    S(lipo)     H(rot)  DE(clash)    DE(int)     intcor
     14.70     -18.52       1.90        0.00      79.07       1.00       0.88       2.95       ----

> <Gold.Chemscore.Fitness>
14.7009

> <Gold.Chemscore.DG>
-18.5226

> <Gold.Chemscore.ZeroCoef>
-5.4800

> <Gold.Chemscore.Hbond>
1.9016

> <Gold.Chemscore.Metal>
0.0000

> <Gold.Chemscore.Lipo>
79.0713

> <Gold.Chemscore.Internal_Hbond>
0.0000

> <Gold.Chemscore.DEClash>
0.8750

> <Gold.Chemscore.DEInternal>
2.9466

> <Gold.Chemscore.Rot>
1.0000

> <Gold.Chemscore.Internal.Correction>
   9.000000E+99

> <Gold.Chemscore.Hbonds>
donor molecule, donor type, donor heavy atom, donor atom, acceptor molecule, acceptor atom, score
      L1  H     3    19       P1  8028  0.90
      L1  H    11    23       P1  8028  0.99

> <Gold.Chemscore.Hbond.Weighted>
-6.3513

> <Gold.Chemscore.Metal.Weighted>
-0.0000

> <Gold.Chemscore.Lipo.Weighted>
-9.2513

> <Gold.Chemscore.Internal_Hbond.Weighted>
0.0000

> <Gold.Chemscore.DEClash.Weighted>
0.8750

> <Gold.Chemscore.DEInternal.Weighted>
2.9466

> <Gold.Chemscore.Rot.Weighted>
2.5600

> <Gold.Chemscore.Internal.Correction.Weighted>
   9.000000E+99

> <Gold.Protein.RotatedTorsions>
[ 6907 6896 6895 6894 ] final -118.16 input  -60.11 | X-H torsion
[ 7974 7965 7964 7962 ] final   54.89 input  175.53 | X-H torsion
[ 8008 7997 7996 7995 ] final -137.44 input   59.86 | X-H torsion
[ 10167 10162 10161 10158 ] final -146.45 input  -65.29 | X-H torsion
[ 10718 10713 10712 10709 ] final -132.47 input   66.30 | X-H torsion
[ 10763 10752 10751 10750 ] final -137.81 input  -60.55 | X-H torsion
[ 11005 11000 10999 10996 ] final -101.92 input  -57.11 | X-H torsion

> <Gold.Protein.ActiveResidues>
 VAL166  LYS551  ARG553  GLY616  TRP617  ASP618  TYR619  PRO620  LYS621  CYS622 
 ASP623  PHE694  ASN695  SER759  ASP760  ASP761  ALA762  ILE779  LEU786  VAL792 
 PHE793  MET794  SER795  GLU796  ALA797  LYS798  CYS799  TRP800  GLU811  SER814 

> <Gold.Protein.RotatedAtoms>
  150.8197  133.8275  159.3144 H   0  0  0  0  0  0  0  0  0  0  0  0  # atno 6907 bound_to 6896
  151.6037  135.1044  160.0075 H   0  0  0  0  0  0  0  0  0  0  0  0  # atno 6908 bound_to 6896
  152.4286  133.7198  159.6583 H   0  0  0  0  0  0  0  0  0  0  0  0  # atno 6909 bound_to 6896
  145.9561  139.4016  143.0276 H   0  0  0  0  0  0  0  0  0  0  0  0  # atno 7974 bound_to 7965
  155.4118  140.0512  157.3031 H   0  0  0  0  0  0  0  0  0  0  0  0  # atno 8008 bound_to 7997
  154.4943  140.2132  155.9441 H   0  0  0  0  0  0  0  0  0  0  0  0  # atno 8009 bound_to 7997
  156.1384  140.3159  155.8462 H   0  0  0  0  0  0  0  0  0  0  0  0  # atno 8010 bound_to 7997
  139.7713  143.8234  152.2625 H   0  0  0  0  0  0  0  0  0  0  0  0  # atno 10167 bound_to 10162
  156.2349  130.7060  151.0897 H   0  0  0  0  0  0  0  0  0  0  0  0  # atno 10718 bound_to 10713
  154.8653  135.3631  154.5283 H   0  0  0  0  0  0  0  0  0  0  0  0  # atno 10763 bound_to 10752
  153.5909  135.7015  153.5428 H   0  0  0  0  0  0  0  0  0  0  0  0  # atno 10764 bound_to 10752
  153.3374  135.4107  155.1506 H   0  0  0  0  0  0  0  0  0  0  0  0  # atno 10765 bound_to 10752
  141.1211  133.8516  157.1293 H   0  0  0  0  0  0  0  0  0  0  0  0  # atno 11005 bound_to 11000
  145.8104  140.9728  143.0952 LP  0  0  0  0  0  0  0  0  0  0  0  0  # atno 17320 bound_to 7965
  144.6805  139.9914  143.7484 LP  0  0  0  0  0  0  0  0  0  0  0  0  # atno 17321 bound_to 7965
  139.8269  144.7271  150.9500 LP  0  0  0  0  0  0  0  0  0  0  0  0  # atno 17342 bound_to 10162
  140.7814  143.4106  151.0999 LP  0  0  0  0  0  0  0  0  0  0  0  0  # atno 17343 bound_to 10162
  157.7150  131.0714  150.6362 LP  0  0  0  0  0  0  0  0  0  0  0  0  # atno 17370 bound_to 10713
  156.6431  130.4464  149.5745 LP  0  0  0  0  0  0  0  0  0  0  0  0  # atno 17371 bound_to 10713
  140.0169  134.9963  157.0512 LP  0  0  0  0  0  0  0  0  0  0  0  0  # atno 17394 bound_to 11000
  140.4504  134.1588  155.7181 LP  0  0  0  0  0  0  0  0  0  0  0  0  # atno 17395 bound_to 11000

$$$$
