AV-unprocessed.smi:2264|AV-procd|sdf|9142|dock1
  -GOLD-   2272012343D 1   1.00000     0.00000
 Structure written by MMmdl.
 44 45  0  0  0  0  0  0  0  0  1 V2000
  150.8369  144.5486  159.9248 C   0  0  0  0  0  0  0  0  0  0  0  0
  151.8513  143.5284  160.3988 C   0  0  0  0  0  0  0  0  0  0  0  0
  152.2485  142.4708  159.5579 C   0  0  0  0  0  0  0  0  0  0  0  0
  153.1918  141.5261  160.0047 C   0  0  0  0  0  0  0  0  0  0  0  0
  153.7526  141.6267  161.3028 C   0  0  0  0  0  0  0  0  0  0  0  0
  154.6791  140.7393  161.8076 O   0  0  0  0  0  0  0  0  0  0  0  0
  155.3207  139.8406  160.9129 C   0  0  0  0  0  0  0  0  0  0  0  0
  155.4836  138.4909  161.6276 C   0  0  1  0  0  0  0  0  0  0  0  0
  156.4319  138.6726  162.6593 O   0  0  0  0  0  0  0  0  0  0  0  0
  154.1556  137.9914  162.2437 C   0  0  0  0  0  0  0  0  0  0  0  0
  154.3498  136.7813  163.0580 N   0  0  0  0  0  0  0  0  0  0  0  0
  154.1593  136.9253  164.4429 C   0  0  0  0  0  0  0  0  0  0  0  0
  154.3000  135.9292  165.2547 N   0  0  0  0  0  0  0  0  0  0  0  0
  154.6482  134.6697  164.7582 C   0  0  0  0  0  0  0  0  0  0  0  0
  154.7950  133.5727  165.7980 C   0  0  0  0  0  0  0  0  0  0  0  0
  154.8382  134.4622  163.4265 C   0  0  0  0  0  0  0  0  0  0  0  0
  155.2204  133.1136  162.8295 C   0  0  0  0  0  0  0  0  0  0  0  0
  154.6734  135.5850  162.4888 C   0  0  0  0  0  0  0  0  0  0  0  0
  154.8180  135.4650  161.2708 O   0  0  0  0  0  0  0  0  0  0  0  0
  153.3472  142.6894  162.1426 C   0  0  0  0  0  0  0  0  0  0  0  0
  153.9330  142.8214  163.5362 C   0  0  0  0  0  0  0  0  0  0  0  0
  152.4020  143.6338  161.6904 C   0  0  0  0  0  0  0  0  0  0  0  0
  150.5878  144.4038  158.8731 H   0  0  0  0  0  0  0  0  0  0  0  0
  151.2304  145.5583  160.0446 H   0  0  0  0  0  0  0  0  0  0  0  0
  149.9187  144.4665  160.5071 H   0  0  0  0  0  0  0  0  0  0  0  0
  151.8311  142.3782  158.5658 H   0  0  0  0  0  0  0  0  0  0  0  0
  153.4673  140.7291  159.3311 H   0  0  0  0  0  0  0  0  0  0  0  0
  154.7054  139.7169  160.0201 H   0  0  0  0  0  0  0  0  0  0  0  0
  156.2955  140.2247  160.6063 H   0  0  0  0  0  0  0  0  0  0  0  0
  155.8840  137.7660  160.9172 H   0  0  0  0  0  0  0  0  0  0  0  0
  156.9551  137.8888  162.7292 H   0  0  0  0  0  0  0  0  0  0  0  0
  153.6635  138.7868  162.8070 H   0  0  0  0  0  0  0  0  0  0  0  0
  153.4424  137.7628  161.4491 H   0  0  0  0  0  0  0  0  0  0  0  0
  153.8818  137.9269  164.7766 H   0  0  0  0  0  0  0  0  0  0  0  0
  155.8141  133.1854  165.8027 H   0  0  0  0  0  0  0  0  0  0  0  0
  154.1099  132.7510  165.5876 H   0  0  0  0  0  0  0  0  0  0  0  0
  154.5734  133.9431  166.7997 H   0  0  0  0  0  0  0  0  0  0  0  0
  154.4496  132.7781  162.1350 H   0  0  0  0  0  0  0  0  0  0  0  0
  155.3503  132.3336  163.5780 H   0  0  0  0  0  0  0  0  0  0  0  0
  156.1583  133.1984  162.2797 H   0  0  0  0  0  0  0  0  0  0  0  0
  153.5533  143.7062  164.0477 H   0  0  0  0  0  0  0  0  0  0  0  0
  155.0193  142.9008  163.4849 H   0  0  0  0  0  0  0  0  0  0  0  0
  153.6807  141.9472  164.1369 H   0  0  0  0  0  0  0  0  0  0  0  0
  152.0965  144.4448  162.3356 H   0  0  0  0  0  0  0  0  0  0  0  0
  1  2  1  0  0  0  0
  1 23  1  0  0  0  0
  1 24  1  0  0  0  0
  1 25  1  0  0  0  0
  2 22  1  0  0  0  0
  2  3  2  0  0  0  0
  3  4  1  0  0  0  0
  3 26  1  0  0  0  0
  4  5  2  0  0  0  0
  4 27  1  0  0  0  0
  5  6  1  0  0  0  0
  5 20  1  0  0  0  0
  6  7  1  0  0  0  0
  7  8  1  0  0  0  0
  7 28  1  0  0  0  0
  7 29  1  0  0  0  0
  8  9  1  0  0  0  0
  8 10  1  0  0  0  0
  8 30  1  0  0  0  0
  9 31  1  0  0  0  0
 10 11  1  0  0  0  0
 10 32  1  0  0  0  0
 10 33  1  0  0  0  0
 11 18  1  0  0  0  0
 11 12  1  0  0  0  0
 12 13  2  0  0  0  0
 12 34  1  0  0  0  0
 13 14  1  0  0  0  0
 14 15  1  0  0  0  0
 14 16  2  0  0  0  0
 15 35  1  0  0  0  0
 15 36  1  0  0  0  0
 15 37  1  0  0  0  0
 16 17  1  0  0  0  0
 16 18  1  0  0  0  0
 17 38  1  0  0  0  0
 17 39  1  0  0  0  0
 17 40  1  0  0  0  0
 18 19  2  0  0  0  0
 20 21  1  0  0  0  0
 20 22  2  0  0  0  0
 21 41  1  0  0  0  0
 21 42  1  0  0  0  0
 21 43  1  0  0  0  0
 22 44  1  0  0  0  0
M  END
> <s_m_source_file>
AV-unprocessed.smi

> <i_m_source_file_index>
2264

> <i_lp_mmshare_version>
43012

> <i_f3d_flags>
0

> <s_epik_input>
W0NIM11jMVtjSF1bY0hdYyhjKFtDSDNdKVtjSF0xKU9bQ0gyXVtDQEhdKFtPSF0pW0NIMl1uMltjSF1uYyhbQ0gzXSljKFtDSDNdKWMyPU8=

> <s_epik_cmdline>
J2VwaWtfcHl0aG9uJywgJy1waCcsICc3LjAnLCAnLXRuJywgJzgnLCAnLW1hJywgJzIwMCcsICctbWV0YWxfYmluZGluZycsICctaW1hZScsICc8aW5maWxlLm1hZT4nLCAnLW9tYWUnLCAnPG91dGZpbGUubWFlPic=

> <r_lp_tautomer_probability>
1

> <r_epik_Ionization_Penalty>
3.7476e-05

> <r_epik_Ionization_Penalty_Charging>
8.44705e-08

> <r_epik_Ionization_Penalty_Neutral>
3.73915e-05

> <r_epik_State_Penalty>
-0

> <r_epik_Charging_Adjusted_Penalty>
8.44705e-08

> <i_epik_Tot_Q>
0

> <i_epik_Tot_abs_Q>
0

> <r_epik_Metal_State_Penalty>
-0

> <b_epik_Metal_Only>
0

> <s_lp_Force_Field>
OPLS_2005

> <r_lp_Energy>
22.0846

> <b_lp_Chiralities_Consistent>
1

> <s_lp_Variant>
AV-unprocessed.smi:2264-2

> <Gold.Version>
5.8.1

> <Gold.Id.Protein>
6NUR|6NUR_protein|mol2

> <Gold.PLP.Fitness>
52.1231

> <Gold.PLP.PLP>
-53.1898

> <Gold.PLP.part.hbond>
-0.7105

> <Gold.PLP.part.metal>
0.0000

> <Gold.PLP.part.buried>
-6.5947

> <Gold.PLP.part.nonpolar>
-46.3252

> <Gold.PLP.part.repulsive>
0.8546

> <Gold.PLP.ligand.clash>
0.0000

> <Gold.PLP.ligand.torsion>
0.5498

> <Gold.PLP.Chemscore.Hbond>
0.0000

> <Gold.PLP.Chemscore.CHOScore>
0.0000

> <Gold.PLP.Chemscore.Metal>
0.0000

> <Gold.PLP.Chemscore.Internal.Correction>
0.0330

> <Gold.Rescore>
     Score         DG    S(hbond)    S(metal)    S(lipo)     H(rot)  DE(clash)    DE(int)     intcor
     14.83     -15.57       0.00        0.00     137.07       2.32       0.07       0.67       ----

> <Gold.Chemscore.Fitness>
14.8290

> <Gold.Chemscore.DG>
-15.5693

> <Gold.Chemscore.ZeroCoef>
-5.4800

> <Gold.Chemscore.Hbond>
0.0000

> <Gold.Chemscore.Metal>
0.0000

> <Gold.Chemscore.Lipo>
137.0742

> <Gold.Chemscore.Internal_Hbond>
0.0000

> <Gold.Chemscore.DEClash>
0.0732

> <Gold.Chemscore.DEInternal>
0.6671

> <Gold.Chemscore.Rot>
2.3236

> <Gold.Chemscore.Internal.Correction>
   9.000000E+99

> <Gold.Chemscore.Hbond.Weighted>
-0.0000

> <Gold.Chemscore.Metal.Weighted>
-0.0000

> <Gold.Chemscore.Lipo.Weighted>
-16.0377

> <Gold.Chemscore.Internal_Hbond.Weighted>
0.0000

> <Gold.Chemscore.DEClash.Weighted>
0.0732

> <Gold.Chemscore.DEInternal.Weighted>
0.6671

> <Gold.Chemscore.Rot.Weighted>
5.9484

> <Gold.Chemscore.Internal.Correction.Weighted>
   9.000000E+99

> <Gold.Protein.RotatedTorsions>
[ 6907 6896 6895 6894 ] final   37.00 input  -60.11 | X-H torsion
[ 7974 7965 7964 7962 ] final    1.37 input  175.53 | X-H torsion
[ 8008 7997 7996 7995 ] final   47.97 input   59.86 | X-H torsion
[ 10167 10162 10161 10158 ] final   36.53 input  -65.29 | X-H torsion
[ 10718 10713 10712 10709 ] final -176.76 input   66.30 | X-H torsion
[ 10763 10752 10751 10750 ] final  -70.97 input  -60.55 | X-H torsion
[ 11005 11000 10999 10996 ] final    5.98 input  -57.11 | X-H torsion

> <Gold.Protein.ActiveResidues>
 VAL166  LYS551  ARG553  GLY616  TRP617  ASP618  TYR619  PRO620  LYS621  CYS622 
 ASP623  PHE694  ASN695  SER759  ASP760  ASP761  ALA762  ILE779  LEU786  VAL792 
 PHE793  MET794  SER795  GLU796  ALA797  LYS798  CYS799  TRP800  GLU811  SER814 

> <Gold.Protein.RotatedAtoms>
  152.1373  134.9089  160.0555 H   0  0  0  0  0  0  0  0  0  0  0  0  # atno 6907 bound_to 6896
  152.0171  133.3879  159.4251 H   0  0  0  0  0  0  0  0  0  0  0  0  # atno 6908 bound_to 6896
  150.6862  134.3589  159.4985 H   0  0  0  0  0  0  0  0  0  0  0  0  # atno 6909 bound_to 6896
  146.2440  140.0998  142.8348 H   0  0  0  0  0  0  0  0  0  0  0  0  # atno 7974 bound_to 7965
  155.3778  140.3427  155.4245 H   0  0  0  0  0  0  0  0  0  0  0  0  # atno 8008 bound_to 7997
  156.1627  140.1606  156.8618 H   0  0  0  0  0  0  0  0  0  0  0  0  # atno 8009 bound_to 7997
  154.5155  140.0779  156.8055 H   0  0  0  0  0  0  0  0  0  0  0  0  # atno 8010 bound_to 7997
  140.4119  144.1581  150.6140 H   0  0  0  0  0  0  0  0  0  0  0  0  # atno 10167 bound_to 10162
  156.8194  130.9614  151.3112 H   0  0  0  0  0  0  0  0  0  0  0  0  # atno 10718 bound_to 10713
  154.4252  135.5977  153.6034 H   0  0  0  0  0  0  0  0  0  0  0  0  # atno 10763 bound_to 10752
  152.9796  135.5962  154.3906 H   0  0  0  0  0  0  0  0  0  0  0  0  # atno 10764 bound_to 10752
  154.3737  135.2841  155.2230 H   0  0  0  0  0  0  0  0  0  0  0  0  # atno 10765 bound_to 10752
  140.5646  134.0159  155.7985 H   0  0  0  0  0  0  0  0  0  0  0  0  # atno 11005 bound_to 11000
  145.0578  140.9066  143.4956 LP  0  0  0  0  0  0  0  0  0  0  0  0  # atno 17320 bound_to 7965
  145.1107  139.2759  143.5638 LP  0  0  0  0  0  0  0  0  0  0  0  0  # atno 17321 bound_to 7965
  140.4628  143.2442  151.9196 LP  0  0  0  0  0  0  0  0  0  0  0  0  # atno 17342 bound_to 10162
  139.4782  144.5449  151.8472 LP  0  0  0  0  0  0  0  0  0  0  0  0  # atno 17343 bound_to 10162
  157.6464  130.8848  149.9548 LP  0  0  0  0  0  0  0  0  0  0  0  0  # atno 17370 bound_to 10713
  156.0997  130.3656  150.0240 LP  0  0  0  0  0  0  0  0  0  0  0  0  # atno 17371 bound_to 10713
  141.1093  133.9642  157.2939 LP  0  0  0  0  0  0  0  0  0  0  0  0  # atno 17394 bound_to 11000
  139.9391  135.0193  156.8650 LP  0  0  0  0  0  0  0  0  0  0  0  0  # atno 17395 bound_to 11000

$$$$
