AV-unprocessed.smi:1166|AV-procd|sdf|4934|dock1
  -GOLD-   22720 3513D 1   1.00000     0.00000
 Structure written by MMmdl.
 47 48  0  0  0  0  0  0  0  0  2 V2000
  145.9362  131.8736  153.4124 C   0  0  0  0  0  0  0  0  0  0  0  0
  145.6524  132.5692  152.1621 N   0  0  0  0  0  0  0  0  0  0  0  0
  146.1876  132.0677  150.9033 C   0  0  0  0  0  0  0  0  0  0  0  0
  144.8273  133.7148  152.1674 C   0  0  0  0  0  0  0  0  0  0  0  0
  144.9493  134.7631  151.2225 C   0  0  0  0  0  0  0  0  0  0  0  0
  144.0869  135.8762  151.2943 C   0  0  0  0  0  0  0  0  0  0  0  0
  143.1115  135.9456  152.3106 C   0  0  0  0  0  0  0  0  0  0  0  0
  142.2573  137.0817  152.3316 N   0  0  0  0  0  0  0  0  0  0  0  0
  141.2643  137.3695  153.1908 C   0  0  0  0  0  0  0  0  0  0  0  0
  140.9335  136.6783  154.1537 O   0  0  0  0  0  0  0  0  0  0  0  0
  140.6751  138.5323  152.8777 N   0  0  0  0  0  0  0  0  0  0  0  0
  139.5796  139.1486  153.6195 C   0  0  2  0  0  0  0  0  0  0  0  0
  138.4163  138.1593  153.7998 C   0  0  0  0  0  0  0  0  0  0  0  0
  137.2589  138.8485  154.5308 C   0  0  0  0  0  0  0  0  0  0  0  0
  136.8126  140.1235  153.7940 C   0  0  0  0  0  0  0  0  0  0  0  0
  137.9471  141.0373  153.5486 N   0  0  0  0  0  0  0  0  0  0  0  0
  138.1776  142.4330  154.5625 S   0  0  0  0  0  0  0  0  0  0  0  0
  136.7498  143.5224  154.1640 C   0  0  0  0  0  0  0  0  0  0  0  0
  138.0454  141.9987  155.9616 O   0  0  0  0  0  0  0  0  0  0  0  0
  139.4073  143.1093  154.1222 O   0  0  0  0  0  0  0  0  0  0  0  0
  139.1061  140.4146  152.8786 C   0  0  0  0  0  0  0  0  0  0  0  0
  143.0217  134.8688  153.2246 C   0  0  0  0  0  0  0  0  0  0  0  0
  143.8675  133.8213  153.1185 N   0  3  0  0  0  0  0  0  0  0  0  0
  146.3956  132.5504  154.1336 H   0  0  0  0  0  0  0  0  0  0  0  0
  146.6213  131.0401  153.2560 H   0  0  0  0  0  0  0  0  0  0  0  0
  145.0176  131.4755  153.8452 H   0  0  0  0  0  0  0  0  0  0  0  0
  145.3804  131.8346  150.2083 H   0  0  0  0  0  0  0  0  0  0  0  0
  146.7689  131.1575  151.0535 H   0  0  0  0  0  0  0  0  0  0  0  0
  146.8415  132.8090  150.4429 H   0  0  0  0  0  0  0  0  0  0  0  0
  145.6928  134.7333  150.4400 H   0  0  0  0  0  0  0  0  0  0  0  0
  144.1810  136.6739  150.5719 H   0  0  0  0  0  0  0  0  0  0  0  0
  142.4540  137.7837  151.6332 H   0  0  0  0  0  0  0  0  0  0  0  0
  141.0131  139.0356  152.0703 H   0  0  0  0  0  0  0  0  0  0  0  0
  139.9477  139.4396  154.6035 H   0  0  0  0  0  0  0  0  0  0  0  0
  138.0755  137.7985  152.8284 H   0  0  0  0  0  0  0  0  0  0  0  0
  138.7404  137.2842  154.3643 H   0  0  0  0  0  0  0  0  0  0  0  0
  136.4171  138.1614  154.6195 H   0  0  0  0  0  0  0  0  0  0  0  0
  137.5613  139.0894  155.5491 H   0  0  0  0  0  0  0  0  0  0  0  0
  136.3759  139.8537  152.8319 H   0  0  0  0  0  0  0  0  0  0  0  0
  136.0285  140.6317  154.3543 H   0  0  0  0  0  0  0  0  0  0  0  0
  136.8318  144.4410  154.7443 H   0  0  0  0  0  0  0  0  0  0  0  0
  135.8176  143.0245  154.4249 H   0  0  0  0  0  0  0  0  0  0  0  0
  136.7570  143.7728  153.1046 H   0  0  0  0  0  0  0  0  0  0  0  0
  139.9209  141.1333  152.7925 H   0  0  0  0  0  0  0  0  0  0  0  0
  138.8134  140.1596  151.8592 H   0  0  0  0  0  0  0  0  0  0  0  0
  142.3059  134.7902  154.0287 H   0  0  0  0  0  0  0  0  0  0  0  0
  143.7752  133.0631  153.7947 H   0  0  0  0  0  0  0  0  0  0  0  0
  1  2  1  0  0  0  0
  1 24  1  0  0  0  0
  1 25  1  0  0  0  0
  1 26  1  0  0  0  0
  2  3  1  0  0  0  0
  2  4  1  0  0  0  0
  3 27  1  0  0  0  0
  3 28  1  0  0  0  0
  3 29  1  0  0  0  0
  4 23  1  0  0  0  0
  4  5  2  0  0  0  0
  5  6  1  0  0  0  0
  5 30  1  0  0  0  0
  6  7  2  0  0  0  0
  6 31  1  0  0  0  0
  7  8  1  0  0  0  0
  7 22  1  0  0  0  0
  8  9  1  0  0  0  0
  8 32  1  0  0  0  0
  9 10  2  0  0  0  0
  9 11  1  0  0  0  0
 11 12  1  0  0  0  0
 11 33  1  0  0  0  0
 12 21  1  0  0  0  0
 12 13  1  0  0  0  0
 12 34  1  0  0  0  0
 13 14  1  0  0  0  0
 13 35  1  0  0  0  0
 13 36  1  0  0  0  0
 14 15  1  0  0  0  0
 14 37  1  0  0  0  0
 14 38  1  0  0  0  0
 15 16  1  0  0  0  0
 15 39  1  0  0  0  0
 15 40  1  0  0  0  0
 16 17  1  0  0  0  0
 16 21  1  0  0  0  0
 17 18  1  0  0  0  0
 17 19  2  0  0  0  0
 17 20  2  0  0  0  0
 18 41  1  0  0  0  0
 18 42  1  0  0  0  0
 18 43  1  0  0  0  0
 21 44  1  0  0  0  0
 21 45  1  0  0  0  0
 22 23  2  0  0  0  0
 22 46  1  0  0  0  0
 23 47  1  0  0  0  0
M  CHG  1  23   1
M  END
> <s_m_source_file>
AV-unprocessed.smi

> <i_m_source_file_index>
1166

> <i_lp_mmshare_version>
43012

> <i_f3d_flags>
0

> <s_epik_input>
W0NIM11OKFtDSDNdKWMxW2NIXVtjSF1jKFtjSF1uMSlbTkhdQyg9TylbTkhdW0NAQEhdMltDSDJdW0NIMl1bQ0gyXU4oW0NIMl0yKVMoPU8pKD1PKVtDSDNd

> <s_epik_cmdline>
J2VwaWtfcHl0aG9uJywgJy1waCcsICc3LjAnLCAnLXRuJywgJzgnLCAnLW1hJywgJzIwMCcsICctbWV0YWxfYmluZGluZycsICctaW1hZScsICc8aW5maWxlLm1hZT4nLCAnLW9tYWUnLCAnPG91dGZpbGUubWFlPic=

> <r_lp_tautomer_probability>
0.999994

> <r_epik_Ionization_Penalty>
0.276583

> <r_epik_Ionization_Penalty_Charging>
0.276565

> <r_epik_Ionization_Penalty_Neutral>
1.87575e-05

> <r_epik_State_Penalty>
0.268949

> <r_epik_Charging_Adjusted_Penalty>
0.545513

> <i_epik_Tot_Q>
1

> <i_epik_Tot_abs_Q>
1

> <r_epik_Metal_State_Penalty>
0.551815

> <b_epik_Metal_Only>
0

> <s_lp_Force_Field>
OPLS_2005

> <r_lp_Energy>
7.52153

> <b_lp_Chiralities_Consistent>
1

> <s_lp_Variant>
AV-unprocessed.smi:1166-1

> <Gold.Version>
5.8.1

> <Gold.Id.Protein>
6NUR|6NUR_protein|mol2

> <Gold.PLP.Fitness>
36.3945

> <Gold.PLP.PLP>
-25.8495

> <Gold.PLP.part.hbond>
-3.0532

> <Gold.PLP.part.metal>
0.0000

> <Gold.PLP.part.buried>
4.7822

> <Gold.PLP.part.nonpolar>
-26.4274

> <Gold.PLP.part.repulsive>
0.2473

> <Gold.PLP.ligand.clash>
0.0000

> <Gold.PLP.ligand.torsion>
1.4956

> <Gold.PLP.Chemscore.Hbond>
3.8249

> <Gold.PLP.Chemscore.CHOScore>
0.0000

> <Gold.PLP.Chemscore.Metal>
0.0000

> <Gold.Chemscore.Hbonds>
donor molecule, donor type, donor heavy atom, donor atom, acceptor molecule, acceptor atom, score
      L1  H     8    32       P1 10171  0.04
      L1  H    11    33       P1 10160  0.82
      L1  H    23    47       P1 10957  2.00
      P1  H 10162 10167       L1    20  1.00

> <Gold.PLP.Chemscore.Internal.Correction>
2.0616

> <Gold.Rescore>
     Score         DG    S(hbond)    S(metal)    S(lipo)     H(rot)  DE(clash)    DE(int)     intcor
     13.08     -20.45       2.68        0.00      73.24       1.00       3.46       3.91       ----

> <Gold.Chemscore.Fitness>
13.0847

> <Gold.Chemscore.DG>
-20.4518

> <Gold.Chemscore.ZeroCoef>
-5.4800

> <Gold.Chemscore.Hbond>
2.6836

> <Gold.Chemscore.Metal>
0.0000

> <Gold.Chemscore.Lipo>
73.2353

> <Gold.Chemscore.Internal_Hbond>
0.0000

> <Gold.Chemscore.DEClash>
3.4573

> <Gold.Chemscore.DEInternal>
3.9097

> <Gold.Chemscore.Rot>
1.0000

> <Gold.Chemscore.Internal.Correction>
   9.000000E+99

> <Gold.Chemscore.Hbonds>
donor molecule, donor type, donor heavy atom, donor atom, acceptor molecule, acceptor atom, score
      L1  H     8    32       P1 10171  0.01
      L1  H    11    33       P1 10160  0.80
      L1  H    23    47       P1 10957  0.91
      P1  H 10162 10167       L1    20  0.97

> <Gold.Chemscore.Hbond.Weighted>
-8.9633

> <Gold.Chemscore.Metal.Weighted>
-0.0000

> <Gold.Chemscore.Lipo.Weighted>
-8.5685

> <Gold.Chemscore.Internal_Hbond.Weighted>
0.0000

> <Gold.Chemscore.DEClash.Weighted>
3.4573

> <Gold.Chemscore.DEInternal.Weighted>
3.9097

> <Gold.Chemscore.Rot.Weighted>
2.5600

> <Gold.Chemscore.Internal.Correction.Weighted>
   9.000000E+99

> <Gold.Protein.RotatedTorsions>
[ 6907 6896 6895 6894 ] final  105.57 input  -60.11 | X-H torsion
[ 7974 7965 7964 7962 ] final  -90.30 input  175.53 | X-H torsion
[ 8008 7997 7996 7995 ] final -170.82 input   59.86 | X-H torsion
[ 10167 10162 10161 10158 ] final -124.79 input  -65.29 | X-H torsion
[ 10718 10713 10712 10709 ] final  131.18 input   66.30 | X-H torsion
[ 10763 10752 10751 10750 ] final   65.30 input  -60.55 | X-H torsion
[ 11005 11000 10999 10996 ] final   46.32 input  -57.11 | X-H torsion

> <Gold.Protein.ActiveResidues>
 VAL166  LYS551  ARG553  GLY616  TRP617  ASP618  TYR619  PRO620  LYS621  CYS622 
 ASP623  PHE694  ASN695  SER759  ASP760  ASP761  ALA762  ILE779  LEU786  VAL792 
 PHE793  MET794  SER795  GLU796  ALA797  LYS798  CYS799  TRP800  GLU811  SER814 

> <Gold.Protein.RotatedAtoms>
  152.5225  133.9508  159.7670 H   0  0  0  0  0  0  0  0  0  0  0  0  # atno 6907 bound_to 6896
  150.9819  133.6229  159.2728 H   0  0  0  0  0  0  0  0  0  0  0  0  # atno 6908 bound_to 6896
  151.3403  135.0868  159.9422 H   0  0  0  0  0  0  0  0  0  0  0  0  # atno 6909 bound_to 6896
  145.4284  140.9554  143.2142 H   0  0  0  0  0  0  0  0  0  0  0  0  # atno 7974 bound_to 7965
  155.9234  140.1078  157.1189 H   0  0  0  0  0  0  0  0  0  0  0  0  # atno 8008 bound_to 7997
  154.4058  140.1251  156.4774 H   0  0  0  0  0  0  0  0  0  0  0  0  # atno 8009 bound_to 7997
  155.7168  140.3470  155.5000 H   0  0  0  0  0  0  0  0  0  0  0  0  # atno 8010 bound_to 7997
  139.9890  143.5661  152.2349 H   0  0  0  0  0  0  0  0  0  0  0  0  # atno 10167 bound_to 10162
  157.4992  131.1093  150.9450 H   0  0  0  0  0  0  0  0  0  0  0  0  # atno 10718 bound_to 10713
  153.0091  135.5362  154.6645 H   0  0  0  0  0  0  0  0  0  0  0  0  # atno 10763 bound_to 10752
  154.5846  135.2853  155.0700 H   0  0  0  0  0  0  0  0  0  0  0  0  # atno 10764 bound_to 10752
  154.1817  135.6515  153.5088 H   0  0  0  0  0  0  0  0  0  0  0  0  # atno 10765 bound_to 10752
  140.1380  134.4620  155.8471 H   0  0  0  0  0  0  0  0  0  0  0  0  # atno 11005 bound_to 11000
  144.8199  139.5810  143.6991 LP  0  0  0  0  0  0  0  0  0  0  0  0  # atno 17320 bound_to 7965
  146.2620  139.6432  142.9355 LP  0  0  0  0  0  0  0  0  0  0  0  0  # atno 17321 bound_to 7965
  139.6354  144.7649  151.2450 LP  0  0  0  0  0  0  0  0  0  0  0  0  # atno 17342 bound_to 10162
  140.7461  143.6408  150.8336 LP  0  0  0  0  0  0  0  0  0  0  0  0  # atno 17343 bound_to 10162
  157.0126  130.5643  149.5322 LP  0  0  0  0  0  0  0  0  0  0  0  0  # atno 17370 bound_to 10713
  156.0219  130.5313  150.8299 LP  0  0  0  0  0  0  0  0  0  0  0  0  # atno 17371 bound_to 10713
  141.2181  133.6822  156.7193 LP  0  0  0  0  0  0  0  0  0  0  0  0  # atno 17394 bound_to 11000
  140.2758  134.8356  157.3889 LP  0  0  0  0  0  0  0  0  0  0  0  0  # atno 17395 bound_to 11000

$$$$
