#       Name:                AV-unprocessed.smi:2216
#       Creating user name   scv26
#       Creation time:       Fri Mar 27 12:18:18 2020


#       File generated by GOLD software.
#

@<TRIPOS>MOLECULE
AV-unprocessed.smi:2216
    47    48     1
SMALL
NO_CHARGES


@<TRIPOS>ATOM
      1 ****        -4.7757   4.1341   0.7156 C.3            1 S1                 0.0000
      2 ****        -4.7882   2.6165   0.7656 C.2            1 S1                 0.0000
      3 ****        -3.6430   1.8955   0.7737 C.2            1 S1                 0.0000
      4 ****        -3.6542   0.4366   0.8200 C.2            1 S1                 0.0000
      5 ****        -2.5207  -0.3886   0.8353 N.am           1 S1                 0.0000
      6 ****        -1.2193  -0.0476   0.8642 C.2            1 S1                 0.0000
      7 ****        -0.7712   1.0978   0.8926 O.2            1 S1                 0.0000
      8 ****        -0.4400  -1.1385   0.8605 N.am           1 S1                 0.0000
      9 ****         1.0183  -1.1274   0.8842 C.3            1 S1                 0.0000
     10 ****         1.6059  -0.8818  -0.5163 C.3            1 S1                 0.0000
     11 ****         3.1424  -0.8800  -0.5256 C.3            1 S1                 0.0000
     12 ****         3.7113  -0.4867  -1.9029 C.3            1 S1                 0.0000
     13 ****         5.2422  -0.5638  -1.8943 C.3            1 S1                 0.0000
     14 ****         5.6867  -1.9458  -1.4036 C.3            1 S1                 0.0000
     15 ****         5.0157  -2.2779  -0.0612 C.3            1 S1                 0.0000
     16 ****         3.6000  -2.1893  -0.1912 O.3            1 S1                 0.0000
     17 ****        -4.8603  -0.1568   0.8463 C.2            1 S1                 0.0000
     18 ****        -6.0435   0.5855   0.8374 N.am           1 S1                 0.0000
     19 ****        -6.0931   1.9365   0.8030 C.2            1 S1                 0.0000
     20 ****        -7.1753   2.5205   0.8029 O.2            1 S1                 0.0000
     21 ****        -6.9105   0.0685   0.8622 H              1 S1                 0.0000
     22 ****        -3.7578   4.5240   0.6839 H              1 S1                 0.0000
     23 ****        -5.2672   4.5484   1.5963 H              1 S1                 0.0000
     24 ****        -5.3003   4.4911  -0.1713 H              1 S1                 0.0000
     25 ****        -2.7152   2.4421   0.7397 H              1 S1                 0.0000
     26 ****        -2.7201  -1.3780   0.8252 H              1 S1                 0.0000
     27 ****        -0.8868  -2.0435   0.8387 H              1 S1                 0.0000
     28 ****         1.3763  -0.3736   1.5876 H              1 S1                 0.0000
     29 ****         1.3545  -2.0914   1.2668 H              1 S1                 0.0000
     30 ****         1.2361  -1.6376  -1.2106 H              1 S1                 0.0000
     31 ****         1.2490   0.0789  -0.8902 H              1 S1                 0.0000
     32 ****         3.4965  -0.1719   0.2259 H              1 S1                 0.0000
     33 ****         3.3169  -1.1548  -2.6698 H              1 S1                 0.0000
     34 ****         3.3916   0.5207  -2.1716 H              1 S1                 0.0000
     35 ****         5.6394  -0.3667  -2.8903 H              1 S1                 0.0000
     36 ****         5.6453   0.2072  -1.2364 H              1 S1                 0.0000
     37 ****         5.4158  -2.7012  -2.1423 H              1 S1                 0.0000
     38 ****         6.7719  -1.9804  -1.3034 H              1 S1                 0.0000
     39 ****         5.2781  -3.2896   0.2481 H              1 S1                 0.0000
     40 ****         5.3614  -1.6052   0.7252 H              1 S1                 0.0000
     41 ****        -5.0139  -1.2258   0.8797 H              1 S1                 0.0000
     42 ****        -1.3955   1.8790   0.8957 LP             1 S1                 0.0000
     43 ****         0.2173   1.2476   0.9126 LP             1 S1                 0.0000
     44 ****         3.3076  -2.8204  -0.9097 LP             1 S1                 0.0000
     45 ****         3.1845  -2.4580   0.6778 LP             1 S1                 0.0000
     46 ****        -7.2042   3.5197   0.7762 LP             1 S1                 0.0000
     47 ****        -8.0264   1.9962   0.8295 LP             1 S1                 0.0000
@<TRIPOS>BOND
    1    1    2 1     
    2    1   22 1     
    3    1   23 1     
    4    1   24 1     
    5    2   19 1     
    6    2    3 2     
    7    3    4 1     
    8    3   25 1     
    9    4    5 1     
   10    4   17 2     
   11    5    6 am    
   12    5   26 1     
   13    6    7 2     
   14    6    8 am    
   15    8    9 1     
   16    8   27 1     
   17    9   10 1     
   18    9   28 1     
   19    9   29 1     
   20   10   11 1     
   21   10   30 1     
   22   10   31 1     
   23   11   16 1     
   24   11   12 1     
   25   11   32 1     
   26   12   13 1     
   27   12   33 1     
   28   12   34 1     
   29   13   14 1     
   30   13   35 1     
   31   13   36 1     
   32   14   15 1     
   33   14   37 1     
   34   14   38 1     
   35   15   16 1     
   36   15   39 1     
   37   15   40 1     
   38   17   18 1     
   39   17   41 1     
   40   18   21 1     
   41   18   19 am    
   42   19   20 2     
   43    7   42 1     
   44    7   43 1     
   45   16   44 1     
   46   16   45 1     
   47   20   46 1     
   48   20   47 1     
@<TRIPOS>SUBSTRUCTURE
      1 S1             1
@<TRIPOS>SET
LONE_PAIRS      STATIC     ATOMS    <user>   **** ""
6 42 43 44 45 46 47
DONOR_HYDROGENS      STATIC     ATOMS    <user>   **** ""
3 26 27 21
ATOM$BLUE        STATIC     ATOMS    COLORGROUP SYSTEM
6 42 43 44 45 46 47
ATOM$RED        STATIC     ATOMS    COLORGROUP SYSTEM
3 26 27 21
