AV-unprocessed.smi:102|AV-procd|sdf|962|dock3
  -GOLD-   2262017503D 1   1.00000     0.00000
 Structure written by MMmdl.
 43 44  0  0  0  0  0  0  0  0  2 V2000
  152.3296  142.9582  159.4816 C   0  0  0  0  0  0  0  0  0  0  0  0
  151.1975  142.3300  158.6799 C   0  0  0  0  0  0  0  0  0  0  0  0
  150.0192  142.6069  158.9057 O   0  0  0  0  0  0  0  0  0  0  0  0
  151.6457  141.4817  157.7379 O   0  0  0  0  0  0  0  0  0  0  0  0
  150.7403  140.8581  156.8368 C   0  0  0  0  0  0  0  0  0  0  0  0
  151.4952  140.2277  155.6454 C   0  0  1  0  0  0  0  0  0  0  0  0
  152.7179  139.6555  156.1084 O   0  0  0  0  0  0  0  0  0  0  0  0
  152.5961  138.2722  156.3063 C   0  0  1  0  0  0  0  0  0  0  0  0
  152.9135  137.9301  157.7494 N   0  0  0  0  0  0  0  0  0  0  0  0
  153.1963  138.9121  158.6849 C   0  0  0  0  0  0  0  0  0  0  0  0
  153.4738  138.5974  159.9664 C   0  0  0  0  0  0  0  0  0  0  0  0
  153.7426  139.5729  160.8513 F   0  0  0  0  0  0  0  0  0  0  0  0
  153.4821  137.1964  160.3821 C   0  0  0  0  0  0  0  0  0  0  0  0
  153.7291  136.9167  161.5540 O   0  0  0  0  0  0  0  0  0  0  0  0
  153.2130  136.2493  159.4375 N   0  5  0  0  0  0  0  0  0  0  0  0
  152.9331  136.5631  158.1388 C   0  0  0  0  0  0  0  0  0  0  0  0
  152.6885  135.7174  157.2781 O   0  0  0  0  0  0  0  0  0  0  0  0
  151.1669  137.8662  155.8852 C   0  0  1  0  0  0  0  0  0  0  0  0
  150.3086  137.7547  157.0217 O   0  0  0  0  0  0  0  0  0  0  0  0
  149.0265  137.3767  156.8831 C   0  0  0  0  0  0  0  0  0  0  0  0
  148.2783  137.3797  158.2089 C   0  0  0  0  0  0  0  0  0  0  0  0
  148.4696  137.0620  155.8316 O   0  0  0  0  0  0  0  0  0  0  0  0
  150.7850  139.0399  154.9940 C   0  0  1  0  0  0  0  0  0  0  0  0
  149.3822  139.2309  154.8403 O   0  0  0  0  0  0  0  0  0  0  0  0
  148.9102  140.3249  154.2181 C   0  0  0  0  0  0  0  0  0  0  0  0
  147.4445  140.1837  153.8306 C   0  0  0  0  0  0  0  0  0  0  0  0
  149.5495  141.3440  153.9573 O   0  0  0  0  0  0  0  0  0  0  0  0
  153.0757  142.2071  159.7417 H   0  0  0  0  0  0  0  0  0  0  0  0
  151.9482  143.3989  160.4029 H   0  0  0  0  0  0  0  0  0  0  0  0
  152.8141  143.7411  158.8981 H   0  0  0  0  0  0  0  0  0  0  0  0
  150.1774  140.1025  157.3827 H   0  0  0  0  0  0  0  0  0  0  0  0
  150.0090  141.5883  156.4876 H   0  0  0  0  0  0  0  0  0  0  0  0
  151.7012  140.9890  154.8926 H   0  0  0  0  0  0  0  0  0  0  0  0
  153.3702  137.7801  155.7152 H   0  0  0  0  0  0  0  0  0  0  0  0
  153.2012  139.9535  158.4033 H   0  0  0  0  0  0  0  0  0  0  0  0
  151.2150  136.9308  155.3259 H   0  0  0  0  0  0  0  0  0  0  0  0
  148.5118  138.2808  158.7763 H   0  0  0  0  0  0  0  0  0  0  0  0
  148.5635  136.5115  158.8031 H   0  0  0  0  0  0  0  0  0  0  0  0
  147.2018  137.3467  158.0407 H   0  0  0  0  0  0  0  0  0  0  0  0
  151.2472  138.8902  154.0165 H   0  0  0  0  0  0  0  0  0  0  0  0
  146.8602  139.8193  154.6756 H   0  0  0  0  0  0  0  0  0  0  0  0
  147.3400  139.4788  153.0056 H   0  0  0  0  0  0  0  0  0  0  0  0
  147.0369  141.1453  153.5179 H   0  0  0  0  0  0  0  0  0  0  0  0
  1  2  1  0  0  0  0
  1 28  1  0  0  0  0
  1 29  1  0  0  0  0
  1 30  1  0  0  0  0
  2  3  2  0  0  0  0
  2  4  1  0  0  0  0
  4  5  1  0  0  0  0
  5  6  1  0  0  0  0
  5 31  1  0  0  0  0
  5 32  1  0  0  0  0
  6 23  1  0  0  0  0
  6  7  1  0  0  0  0
  6 33  1  0  0  0  0
  7  8  1  0  0  0  0
  8  9  1  0  0  0  0
  8 18  1  0  0  0  0
  8 34  1  0  0  0  0
  9 16  1  0  0  0  0
  9 10  1  0  0  0  0
 10 11  2  0  0  0  0
 10 35  1  0  0  0  0
 11 12  1  0  0  0  0
 11 13  1  0  0  0  0
 13 14  2  0  0  0  0
 13 15  1  0  0  0  0
 15 16  1  0  0  0  0
 16 17  2  0  0  0  0
 18 19  1  0  0  0  0
 18 23  1  0  0  0  0
 18 36  1  0  0  0  0
 19 20  1  0  0  0  0
 20 21  1  0  0  0  0
 20 22  2  0  0  0  0
 21 37  1  0  0  0  0
 21 38  1  0  0  0  0
 21 39  1  0  0  0  0
 23 24  1  0  0  0  0
 23 40  1  0  0  0  0
 24 25  1  0  0  0  0
 25 26  1  0  0  0  0
 25 27  2  0  0  0  0
 26 41  1  0  0  0  0
 26 42  1  0  0  0  0
 26 43  1  0  0  0  0
M  CHG  1  15  -1
M  END
> <s_m_source_file>
AV-unprocessed.smi

> <i_m_source_file_index>
102

> <i_lp_mmshare_version>
43012

> <i_f3d_flags>
0

> <s_epik_input>
W0NIM11DKD1PKU9bQ0gyXVtDQEBIXTFPW0NASF0oW0NAQEhdKE9DKD1PKVtDSDNdKVtDQEhdMU9DKD1PKVtDSDNdKW4yW2NIXWMoRiljKD1PKVtuSF1jMj1P

> <s_epik_cmdline>
J2VwaWtfcHl0aG9uJywgJy1waCcsICc3LjAnLCAnLXRuJywgJzgnLCAnLW1hJywgJzIwMCcsICctbWV0YWxfYmluZGluZycsICctaW1hZScsICc8aW5maWxlLm1hZT4nLCAnLW9tYWUnLCAnPG91dGZpbGUubWFlPic=

> <r_epik_Ionization_Penalty>
1.40304

> <r_epik_Ionization_Penalty_Charging>
1.43915e-08

> <r_epik_Ionization_Penalty_Neutral>
1.40304

> <r_epik_State_Penalty>
1.48536

> <r_epik_Charging_Adjusted_Penalty>
1.48536

> <i_epik_Tot_Q>
-1

> <i_epik_Tot_abs_Q>
1

> <r_epik_Metal_State_Penalty>
0.00663881

> <b_epik_Metal_Only>
0

> <s_epik_Chemistry_Notes>
This compound has an ester and may undergo hydrolysis at high or low pH. This compound contains an acetal/aminal-like group ( X-CH(R)-Y where X, Y are N, S, or O) that may be acid/base labile, releasing an aldehyde.

> <s_lp_Force_Field>
OPLS_2005

> <r_lp_Energy>
25.6088

> <b_lp_Chiralities_Consistent>
1

> <s_lp_Variant>
AV-unprocessed.smi:102-18

> <Gold.Version>
5.8.1

> <Gold.Id.Protein>
6NUR|6NUR_protein|mol2

> <Gold.PLP.Fitness>
48.0741

> <Gold.PLP.PLP>
-34.1474

> <Gold.PLP.part.hbond>
-5.7676

> <Gold.PLP.part.metal>
0.0000

> <Gold.PLP.part.buried>
-3.0331

> <Gold.PLP.part.nonpolar>
-24.7740

> <Gold.PLP.part.repulsive>
0.6933

> <Gold.PLP.ligand.clash>
0.0000

> <Gold.PLP.ligand.torsion>
0.5978

> <Gold.PLP.Chemscore.Hbond>
4.9695

> <Gold.PLP.Chemscore.CHOScore>
0.0000

> <Gold.PLP.Chemscore.Metal>
0.0000

> <Gold.Chemscore.Hbonds>
donor molecule, donor type, donor heavy atom, donor atom, acceptor molecule, acceptor atom, score
      P1  H  6896  6907       L1    15  2.00
      P1  H  7989  7998       L1    27  0.19
      P1  H  7997  8009       L1     7  1.00
      P1  H  8011  8017       L1    27  0.75
      P1  H 10752 10765       L1    17  0.71

> <Gold.PLP.Chemscore.Internal.Correction>
0.2136

> <Gold.Rescore>
     Score         DG    S(hbond)    S(metal)    S(lipo)     H(rot)  DE(clash)    DE(int)     intcor
      8.80     -13.63       3.58        0.00      54.92       4.00       0.62       4.21       ----

> <Gold.Chemscore.Fitness>
8.8008

> <Gold.Chemscore.DG>
-13.6327

> <Gold.Chemscore.ZeroCoef>
-5.4800

> <Gold.Chemscore.Hbond>
3.5790

> <Gold.Chemscore.Metal>
0.0000

> <Gold.Chemscore.Lipo>
54.9249

> <Gold.Chemscore.Internal_Hbond>
0.0000

> <Gold.Chemscore.DEClash>
0.6175

> <Gold.Chemscore.DEInternal>
4.2144

> <Gold.Chemscore.Rot>
3.9951

> <Gold.Chemscore.Internal.Correction>
   9.000000E+99

> <Gold.Chemscore.Hbonds>
donor molecule, donor type, donor heavy atom, donor atom, acceptor molecule, acceptor atom, score
      P1  H  6896  6907       L1    15  0.69
      P1  H  7989  7998       L1    27  0.16
      P1  H  7997  8009       L1     7  0.81
      P1  H  8011  8017       L1    27  0.75
      P1  H 10752 10765       L1    17  0.71

> <Gold.Chemscore.Hbond.Weighted>
-11.9539

> <Gold.Chemscore.Metal.Weighted>
-0.0000

> <Gold.Chemscore.Lipo.Weighted>
-6.4262

> <Gold.Chemscore.Internal_Hbond.Weighted>
0.0000

> <Gold.Chemscore.DEClash.Weighted>
0.6175

> <Gold.Chemscore.DEInternal.Weighted>
4.2144

> <Gold.Chemscore.Rot.Weighted>
10.2274

> <Gold.Chemscore.Internal.Correction.Weighted>
   9.000000E+99

> <Gold.Protein.RotatedTorsions>
[ 6907 6896 6895 6894 ] final   39.51 input  -60.11 | X-H torsion
[ 7974 7965 7964 7962 ] final -167.99 input  175.53 | X-H torsion
[ 8008 7997 7996 7995 ] final -144.27 input   59.86 | X-H torsion
[ 10167 10162 10161 10158 ] final -146.18 input  -65.29 | X-H torsion
[ 10718 10713 10712 10709 ] final  175.61 input   66.30 | X-H torsion
[ 10763 10752 10751 10750 ] final -129.37 input  -60.55 | X-H torsion
[ 11005 11000 10999 10996 ] final  -17.49 input  -57.11 | X-H torsion

> <Gold.Protein.ActiveResidues>
 VAL166  LYS551  ARG553  GLY616  TRP617  ASP618  TYR619  PRO620  LYS621  CYS622 
 ASP623  PHE694  ASN695  SER759  ASP760  ASP761  ALA762  ILE779  LEU786  VAL792 
 PHE793  MET794  SER795  GLU796  ALA797  LYS798  CYS799  TRP800  GLU811  SER814 

> <Gold.Protein.RotatedAtoms>
  152.1704  134.8838  160.0534 H   0  0  0  0  0  0  0  0  0  0  0  0  # atno 6907 bound_to 6896
  151.9800  133.3749  159.4112 H   0  0  0  0  0  0  0  0  0  0  0  0  # atno 6908 bound_to 6896
  150.6901  134.3971  159.5146 H   0  0  0  0  0  0  0  0  0  0  0  0  # atno 6909 bound_to 6896
  144.7212  140.2437  143.6288 H   0  0  0  0  0  0  0  0  0  0  0  0  # atno 7974 bound_to 7965
  155.5242  140.0594  157.2901 H   0  0  0  0  0  0  0  0  0  0  0  0  # atno 8008 bound_to 7997
  154.4507  140.1947  156.0474 H   0  0  0  0  0  0  0  0  0  0  0  0  # atno 8009 bound_to 7997
  156.0698  140.3261  155.7565 H   0  0  0  0  0  0  0  0  0  0  0  0  # atno 8010 bound_to 7997
  139.7737  143.8201  152.2628 H   0  0  0  0  0  0  0  0  0  0  0  0  # atno 10167 bound_to 10162
  156.9324  130.9975  151.2984 H   0  0  0  0  0  0  0  0  0  0  0  0  # atno 10718 bound_to 10713
  154.8757  135.3897  154.3909 H   0  0  0  0  0  0  0  0  0  0  0  0  # atno 10763 bound_to 10752
  153.4645  135.7029  153.6036 H   0  0  0  0  0  0  0  0  0  0  0  0  # atno 10764 bound_to 10752
  153.4520  135.3831  155.2257 H   0  0  0  0  0  0  0  0  0  0  0  0  # atno 10765 bound_to 10752
  140.8173  133.8095  155.9624 H   0  0  0  0  0  0  0  0  0  0  0  0  # atno 11005 bound_to 11000
  145.8295  139.2079  143.1891 LP  0  0  0  0  0  0  0  0  0  0  0  0  # atno 17320 bound_to 7965
  146.0443  140.8133  142.9813 LP  0  0  0  0  0  0  0  0  0  0  0  0  # atno 17321 bound_to 7965
  139.8243  144.7282  150.9532 LP  0  0  0  0  0  0  0  0  0  0  0  0  # atno 17342 bound_to 10162
  140.7815  143.4130  151.0963 LP  0  0  0  0  0  0  0  0  0  0  0  0  # atno 17343 bound_to 10162
  157.5838  130.8395  149.8560 LP  0  0  0  0  0  0  0  0  0  0  0  0  # atno 17370 bound_to 10713
  156.0441  130.3732  150.1361 LP  0  0  0  0  0  0  0  0  0  0  0  0  # atno 17371 bound_to 10713
  140.9135  134.2230  157.4971 LP  0  0  0  0  0  0  0  0  0  0  0  0  # atno 17394 bound_to 11000
  139.8710  134.9761  156.4908 LP  0  0  0  0  0  0  0  0  0  0  0  0  # atno 17395 bound_to 11000

$$$$
