AV-unprocessed.smi:378|AV-procd|sdf|2457|dock8
  -GOLD-   2262022393D 1   1.00000     0.00000
 Structure written by MMmdl.
 34 35  0  0  0  0  0  0  0  0  1 V2000
  146.5815  142.5727  159.4709 N   0  0  0  0  0  0  0  0  0  0  0  0
  146.4119  142.7754  158.3446 C   0  0  0  0  0  0  0  0  0  0  0  0
  146.1976  143.0333  156.9121 C   0  0  0  0  0  0  0  0  0  0  0  0
  146.9331  142.0369  156.0026 C   0  0  0  0  0  0  0  0  0  0  0  0
  148.3815  142.1636  156.1161 N   0  0  0  0  0  0  0  0  0  0  0  0
  149.2188  141.1601  156.4170 C   0  0  0  0  0  0  0  0  0  0  0  0
  148.8361  140.0130  156.6526 O   0  0  0  0  0  0  0  0  0  0  0  0
  150.7114  141.5214  156.4618 C   0  0  0  0  0  0  0  0  0  0  0  0
  151.3830  141.0845  157.7056 N   0  0  0  0  0  0  0  0  0  0  0  0
  151.5480  139.6958  157.9429 C   0  0  0  0  0  0  0  0  0  0  0  0
  151.1180  138.8595  157.1466 O   0  0  0  0  0  0  0  0  0  0  0  0
  152.2649  139.3480  159.1677 C   0  0  0  0  0  0  0  0  0  0  0  0
  152.4803  137.9627  159.4253 C   0  0  0  0  0  0  0  0  0  0  0  0
  152.6316  136.8360  159.6431 N   0  0  0  0  0  0  0  0  0  0  0  0
  152.7071  140.3046  160.0099 C   0  0  0  0  0  0  0  0  0  0  0  0
  152.5020  141.6475  159.7799 N   0  0  0  0  0  0  0  0  0  0  0  0
  153.1163  142.6503  160.6036 C   0  0  0  0  0  0  0  0  0  0  0  0
  152.7857  142.6912  162.0796 C   0  0  0  0  0  0  0  0  0  0  0  0
  152.2895  143.7885  161.1696 C   0  0  0  0  0  0  0  0  0  0  0  0
  151.8770  142.0757  158.5882 C   0  0  0  0  0  0  0  0  0  0  0  0
  151.7736  143.2747  158.3159 O   0  0  0  0  0  0  0  0  0  0  0  0
  145.1244  142.9797  156.7292 H   0  0  0  0  0  0  0  0  0  0  0  0
  146.5046  144.0580  156.7007 H   0  0  0  0  0  0  0  0  0  0  0  0
  146.6528  141.0169  156.2672 H   0  0  0  0  0  0  0  0  0  0  0  0
  146.6316  142.1821  154.9639 H   0  0  0  0  0  0  0  0  0  0  0  0
  148.7767  143.0764  155.9403 H   0  0  0  0  0  0  0  0  0  0  0  0
  151.2069  141.0904  155.5899 H   0  0  0  0  0  0  0  0  0  0  0  0
  150.8066  142.5980  156.3136 H   0  0  0  0  0  0  0  0  0  0  0  0
  153.2392  140.0090  160.9029 H   0  0  0  0  0  0  0  0  0  0  0  0
  154.1441  142.8972  160.3431 H   0  0  0  0  0  0  0  0  0  0  0  0
  152.0471  141.9880  162.4597 H   0  0  0  0  0  0  0  0  0  0  0  0
  153.5927  142.9352  162.7674 H   0  0  0  0  0  0  0  0  0  0  0  0
  152.7671  144.7630  161.2474 H   0  0  0  0  0  0  0  0  0  0  0  0
  151.2230  143.8089  160.9532 H   0  0  0  0  0  0  0  0  0  0  0  0
  1  2  3  0  0  0  0
  2  3  1  0  0  0  0
  3  4  1  0  0  0  0
  3 22  1  0  0  0  0
  3 23  1  0  0  0  0
  4  5  1  0  0  0  0
  4 24  1  0  0  0  0
  4 25  1  0  0  0  0
  5  6  1  0  0  0  0
  5 26  1  0  0  0  0
  6  7  2  0  0  0  0
  6  8  1  0  0  0  0
  8  9  1  0  0  0  0
  8 27  1  0  0  0  0
  8 28  1  0  0  0  0
  9 20  1  0  0  0  0
  9 10  1  0  0  0  0
 10 11  2  0  0  0  0
 10 12  1  0  0  0  0
 12 13  1  0  0  0  0
 12 15  2  0  0  0  0
 13 14  3  0  0  0  0
 15 16  1  0  0  0  0
 15 29  1  0  0  0  0
 16 17  1  0  0  0  0
 16 20  1  0  0  0  0
 17 19  1  0  0  0  0
 17 18  1  0  0  0  0
 17 30  1  0  0  0  0
 18 19  1  0  0  0  0
 18 31  1  0  0  0  0
 18 32  1  0  0  0  0
 19 33  1  0  0  0  0
 19 34  1  0  0  0  0
 20 21  2  0  0  0  0
M  END
> <s_m_source_file>
AV-unprocessed.smi

> <i_m_source_file_index>
378

> <i_lp_mmshare_version>
43012

> <i_f3d_flags>
0

> <s_epik_input>
TiNDW0NIMl1bQ0gyXVtOSF1DKD1PKVtDSDJdbjFjKD1PKWMoQyNOKVtjSF1uKGMxPU8pW0NIXTJbQ0gyXVtDSDJdMg==

> <s_epik_cmdline>
J2VwaWtfcHl0aG9uJywgJy1waCcsICc3LjAnLCAnLXRuJywgJzgnLCAnLW1hJywgJzIwMCcsICctbWV0YWxfYmluZGluZycsICctaW1hZScsICc8aW5maWxlLm1hZT4nLCAnLW9tYWUnLCAnPG91dGZpbGUubWFlPic=

> <r_lp_tautomer_probability>
1

> <r_epik_Ionization_Penalty>
1.80062e-07

> <r_epik_Ionization_Penalty_Charging>
6.75485e-11

> <r_epik_Ionization_Penalty_Neutral>
1.79994e-07

> <r_epik_State_Penalty>
-0

> <r_epik_Charging_Adjusted_Penalty>
6.75485e-11

> <i_epik_Tot_Q>
0

> <i_epik_Tot_abs_Q>
0

> <r_epik_Metal_State_Penalty>
-0

> <b_epik_Metal_Only>
0

> <s_lp_Force_Field>
OPLS_2005

> <r_lp_Energy>
28.3727

> <b_lp_Chiralities_Consistent>
1

> <s_lp_Variant>
AV-unprocessed.smi:378-1

> <Gold.Version>
5.8.1

> <Gold.Id.Protein>
6NUR|6NUR_protein|mol2

> <Gold.PLP.Fitness>
46.0571

> <Gold.PLP.PLP>
-37.3589

> <Gold.PLP.part.hbond>
-3.0000

> <Gold.PLP.part.metal>
0.0000

> <Gold.PLP.part.buried>
-6.5013

> <Gold.PLP.part.nonpolar>
-28.9878

> <Gold.PLP.part.repulsive>
0.1209

> <Gold.PLP.ligand.clash>
0.0000

> <Gold.PLP.ligand.torsion>
0.2527

> <Gold.PLP.Chemscore.Hbond>
2.9913

> <Gold.PLP.Chemscore.CHOScore>
0.0000

> <Gold.PLP.Chemscore.Metal>
0.0000

> <Gold.Chemscore.Hbonds>
donor molecule, donor type, donor heavy atom, donor atom, acceptor molecule, acceptor atom, score
      L1  H     5    26       P1  8028  1.00
      P1  H  6896  6908       L1    14  1.00
      P1  H  6934  6946       L1     1  0.73

> <Gold.PLP.Chemscore.Internal.Correction>
0.2297

> <Gold.Rescore>
     Score         DG    S(hbond)    S(metal)    S(lipo)     H(rot)  DE(clash)    DE(int)     intcor
     15.74     -17.57       3.50        0.00      57.95       2.50       0.13       1.69       ----

> <Gold.Chemscore.Fitness>
15.7409

> <Gold.Chemscore.DG>
-17.5671

> <Gold.Chemscore.ZeroCoef>
-5.4800

> <Gold.Chemscore.Hbond>
3.5045

> <Gold.Chemscore.Metal>
0.0000

> <Gold.Chemscore.Lipo>
57.9540

> <Gold.Chemscore.Internal_Hbond>
0.0000

> <Gold.Chemscore.DEClash>
0.1334

> <Gold.Chemscore.DEInternal>
1.6928

> <Gold.Chemscore.Rot>
2.4994

> <Gold.Chemscore.Internal.Correction>
   9.000000E+99

> <Gold.Chemscore.Hbonds>
donor molecule, donor type, donor heavy atom, donor atom, acceptor molecule, acceptor atom, score
      L1  H     5    26       P1  8028  0.99
      P1  H  6896  6908       L1    14  0.99
      P1  H  6934  6946       L1     1  0.70

> <Gold.Chemscore.Hbond.Weighted>
-11.7049

> <Gold.Chemscore.Metal.Weighted>
-0.0000

> <Gold.Chemscore.Lipo.Weighted>
-6.7806

> <Gold.Chemscore.Internal_Hbond.Weighted>
0.0000

> <Gold.Chemscore.DEClash.Weighted>
0.1334

> <Gold.Chemscore.DEInternal.Weighted>
1.6928

> <Gold.Chemscore.Rot.Weighted>
6.3984

> <Gold.Chemscore.Internal.Correction.Weighted>
   9.000000E+99

> <Gold.Protein.RotatedTorsions>
[ 6907 6896 6895 6894 ] final  -92.92 input  -60.11 | X-H torsion
[ 7974 7965 7964 7962 ] final -125.74 input  175.53 | X-H torsion
[ 8008 7997 7996 7995 ] final -139.68 input   59.86 | X-H torsion
[ 10167 10162 10161 10158 ] final   -3.61 input  -65.29 | X-H torsion
[ 10718 10713 10712 10709 ] final -126.22 input   66.30 | X-H torsion
[ 10763 10752 10751 10750 ] final   48.26 input  -60.55 | X-H torsion
[ 11005 11000 10999 10996 ] final  168.66 input  -57.11 | X-H torsion

> <Gold.Protein.ActiveResidues>
 VAL166  LYS551  ARG553  GLY616  TRP617  ASP618  TYR619  PRO620  LYS621  CYS622 
 ASP623  PHE694  ASN695  SER759  ASP760  ASP761  ALA762  ILE779  LEU786  VAL792 
 PHE793  MET794  SER795  GLU796  ALA797  LYS798  CYS799  TRP800  GLU811  SER814 

> <Gold.Protein.RotatedAtoms>
  150.6914  134.2047  159.4335 H   0  0  0  0  0  0  0  0  0  0  0  0  # atno 6907 bound_to 6896
  152.0012  134.9925  160.0574 H   0  0  0  0  0  0  0  0  0  0  0  0  # atno 6908 bound_to 6896
  152.1577  133.4527  159.4882 H   0  0  0  0  0  0  0  0  0  0  0  0  # atno 6909 bound_to 6896
  144.9945  140.7763  143.4534 H   0  0  0  0  0  0  0  0  0  0  0  0  # atno 7974 bound_to 7965
  155.4488  140.0537  157.3003 H   0  0  0  0  0  0  0  0  0  0  0  0  # atno 8008 bound_to 7997
  154.4786  140.2072  155.9774 H   0  0  0  0  0  0  0  0  0  0  0  0  # atno 8009 bound_to 7997
  156.1171  140.3194  155.8159 H   0  0  0  0  0  0  0  0  0  0  0  0  # atno 8010 bound_to 7997
  140.6896  143.6520  150.8342 H   0  0  0  0  0  0  0  0  0  0  0  0  # atno 10167 bound_to 10162
  156.1746  130.6690  151.0224 H   0  0  0  0  0  0  0  0  0  0  0  0  # atno 10718 bound_to 10713
  152.9793  135.5950  154.3896 H   0  0  0  0  0  0  0  0  0  0  0  0  # atno 10763 bound_to 10752
  154.3553  135.2767  155.2351 H   0  0  0  0  0  0  0  0  0  0  0  0  # atno 10764 bound_to 10752
  154.4373  135.6022  153.6161 H   0  0  0  0  0  0  0  0  0  0  0  0  # atno 10765 bound_to 10752
  140.2896  134.7684  157.3827 H   0  0  0  0  0  0  0  0  0  0  0  0  # atno 11005 bound_to 11000
  145.2239  139.2146  143.5078 LP  0  0  0  0  0  0  0  0  0  0  0  0  # atno 17320 bound_to 7965
  146.3439  140.2103  142.8590 LP  0  0  0  0  0  0  0  0  0  0  0  0  # atno 17321 bound_to 7965
  140.0231  143.5521  152.2792 LP  0  0  0  0  0  0  0  0  0  0  0  0  # atno 17342 bound_to 10162
  139.6287  144.7641  151.2583 LP  0  0  0  0  0  0  0  0  0  0  0  0  # atno 17343 bound_to 10162
  157.6826  131.0834  150.7328 LP  0  0  0  0  0  0  0  0  0  0  0  0  # atno 17370 bound_to 10713
  156.7386  130.4732  149.5482 LP  0  0  0  0  0  0  0  0  0  0  0  0  # atno 17371 bound_to 10713
  140.1208  134.5222  155.8185 LP  0  0  0  0  0  0  0  0  0  0  0  0  # atno 17394 bound_to 11000
  141.2148  133.6755  156.6862 LP  0  0  0  0  0  0  0  0  0  0  0  0  # atno 17395 bound_to 11000

$$$$
