AV-unprocessed.smi:672|AV-procd|sdf|3291|dock2
  -GOLD-   22720 0253D 1   1.00000     0.00000
 Structure written by MMmdl.
 36 37  0  0  0  0  0  0  0  0  1 V2000
  150.0358  141.8800  157.6189 C   0  0  0  0  0  0  0  0  0  0  0  0
  150.6304  141.9603  156.2088 C   0  0  0  0  0  0  0  0  0  0  0  0
  150.2418  140.7992  155.3554 C   0  0  0  0  0  0  0  0  0  0  0  0
  151.1389  139.9566  154.8285 N   0  0  0  0  0  0  0  0  0  0  0  0
  150.5406  138.9405  154.0966 N   0  0  0  0  0  0  0  0  0  0  0  0
  149.2041  139.0380  154.1062 C   0  0  0  0  0  0  0  0  0  0  0  0
  148.3416  138.1295  153.4375 N   0  0  0  0  0  0  0  0  0  0  0  0
  147.0002  138.1636  153.3517 C   0  0  0  0  0  0  0  0  0  0  0  0
  146.2756  139.0271  153.8473 O   0  0  0  0  0  0  0  0  0  0  0  0
  146.5328  137.1222  152.6483 N   0  0  0  0  0  0  0  0  0  0  0  0
  145.1228  136.8641  152.3664 C   0  0  2  0  0  0  0  0  0  0  0  0
  144.4165  136.2031  153.5669 C   0  0  0  0  0  0  0  0  0  0  0  0
  144.1824  134.7476  153.1643 C   0  0  0  0  0  0  0  0  0  0  0  0
  143.9778  134.8106  151.6530 C   0  0  2  0  0  0  0  0  0  0  0  0
  144.2298  133.2014  150.8501 S   0  0  0  0  0  0  0  0  0  0  0  0
  145.9841  132.9330  151.2157 C   0  0  0  0  0  0  0  0  0  0  0  0
  144.9712  135.8818  151.1887 C   0  0  0  0  0  0  0  0  0  0  0  0
  148.5627  140.3933  155.0187 S   0  0  0  0  0  0  0  0  0  0  0  0
  150.3363  142.7407  158.2165 H   0  0  0  0  0  0  0  0  0  0  0  0
  150.3721  140.9811  158.1365 H   0  0  0  0  0  0  0  0  0  0  0  0
  148.9461  141.8600  157.5862 H   0  0  0  0  0  0  0  0  0  0  0  0
  150.3034  142.8784  155.7199 H   0  0  0  0  0  0  0  0  0  0  0  0
  151.7186  142.0085  156.2661 H   0  0  0  0  0  0  0  0  0  0  0  0
  148.8007  137.3607  152.9717 H   0  0  0  0  0  0  0  0  0  0  0  0
  147.1981  136.4588  152.2792 H   0  0  0  0  0  0  0  0  0  0  0  0
  144.6235  137.8040  152.1229 H   0  0  0  0  0  0  0  0  0  0  0  0
  144.9731  136.2844  154.5017 H   0  0  0  0  0  0  0  0  0  0  0  0
  143.4534  136.6896  153.7266 H   0  0  0  0  0  0  0  0  0  0  0  0
  145.0699  134.1578  153.3992 H   0  0  0  0  0  0  0  0  0  0  0  0
  143.3357  134.2997  153.6851 H   0  0  0  0  0  0  0  0  0  0  0  0
  142.9603  135.1498  151.4521 H   0  0  0  0  0  0  0  0  0  0  0  0
  146.3205  131.9976  150.7685 H   0  0  0  0  0  0  0  0  0  0  0  0
  146.1482  132.8782  152.2917 H   0  0  0  0  0  0  0  0  0  0  0  0
  146.5870  133.7460  150.8110 H   0  0  0  0  0  0  0  0  0  0  0  0
  144.6310  136.3834  150.2821 H   0  0  0  0  0  0  0  0  0  0  0  0
  145.9297  135.4145  150.9556 H   0  0  0  0  0  0  0  0  0  0  0  0
  1  2  1  0  0  0  0
  1 19  1  0  0  0  0
  1 20  1  0  0  0  0
  1 21  1  0  0  0  0
  2  3  1  0  0  0  0
  2 22  1  0  0  0  0
  2 23  1  0  0  0  0
  3 18  1  0  0  0  0
  3  4  2  0  0  0  0
  4  5  1  0  0  0  0
  5  6  2  0  0  0  0
  6  7  1  0  0  0  0
  6 18  1  0  0  0  0
  7  8  1  0  0  0  0
  7 24  1  0  0  0  0
  8  9  2  0  0  0  0
  8 10  1  0  0  0  0
 10 11  1  0  0  0  0
 10 25  1  0  0  0  0
 11 17  1  0  0  0  0
 11 12  1  0  0  0  0
 11 26  1  0  0  0  0
 12 13  1  0  0  0  0
 12 27  1  0  0  0  0
 12 28  1  0  0  0  0
 13 14  1  0  0  0  0
 13 29  1  0  0  0  0
 13 30  1  0  0  0  0
 14 15  1  0  0  0  0
 14 17  1  0  0  0  0
 14 31  1  0  0  0  0
 15 16  1  0  0  0  0
 16 32  1  0  0  0  0
 16 33  1  0  0  0  0
 16 34  1  0  0  0  0
 17 35  1  0  0  0  0
 17 36  1  0  0  0  0
M  END
> <s_m_source_file>
AV-unprocessed.smi

> <i_m_source_file_index>
672

> <i_lp_mmshare_version>
43012

> <i_f3d_flags>
0

> <s_epik_input>
W0NIM11bQ0gyXWMxbm5jKHMxKVtOSF1DKD1PKVtOSF1bQ0BASF0yW0NIMl1bQ0gyXVtDQEhdKFtDSDJdMilTW0NIM10=

> <s_epik_cmdline>
J2VwaWtfcHl0aG9uJywgJy1waCcsICc3LjAnLCAnLXRuJywgJzgnLCAnLW1hJywgJzIwMCcsICctbWV0YWxfYmluZGluZycsICctaW1hZScsICc8aW5maWxlLm1hZT4nLCAnLW9tYWUnLCAnPG91dGZpbGUubWFlPic=

> <r_lp_tautomer_probability>
1

> <r_epik_Ionization_Penalty>
0.000422169

> <r_epik_Ionization_Penalty_Charging>
0

> <r_epik_Ionization_Penalty_Neutral>
0.000422169

> <r_epik_State_Penalty>
-0

> <r_epik_Charging_Adjusted_Penalty>
0

> <i_epik_Tot_Q>
0

> <i_epik_Tot_abs_Q>
0

> <r_epik_Metal_State_Penalty>
0.200061

> <b_epik_Metal_Only>
0

> <s_lp_Force_Field>
OPLS_2005

> <r_lp_Energy>
11.3394

> <b_lp_Chiralities_Consistent>
1

> <s_lp_Variant>
AV-unprocessed.smi:672-3

> <Gold.Version>
5.8.1

> <Gold.Id.Protein>
6NUR|6NUR_protein|mol2

> <Gold.PLP.Fitness>
35.8263

> <Gold.PLP.PLP>
-28.1855

> <Gold.PLP.part.hbond>
-3.6326

> <Gold.PLP.part.metal>
0.0000

> <Gold.PLP.part.buried>
-3.2902

> <Gold.PLP.part.nonpolar>
-21.8056

> <Gold.PLP.part.repulsive>
0.5034

> <Gold.PLP.ligand.clash>
0.0000

> <Gold.PLP.ligand.torsion>
0.2859

> <Gold.PLP.Chemscore.Hbond>
2.7300

> <Gold.PLP.Chemscore.CHOScore>
0.0000

> <Gold.PLP.Chemscore.Metal>
0.0000

> <Gold.Chemscore.Hbonds>
donor molecule, donor type, donor heavy atom, donor atom, acceptor molecule, acceptor atom, score
      L1  H     7    24       P1  7948  1.00
      L1  H    10    25       P1  7948  0.88
      P1  H  7989  7998       L1     4  0.80

> <Gold.PLP.Chemscore.Internal.Correction>
0.0225

> <Gold.Rescore>
     Score         DG    S(hbond)    S(metal)    S(lipo)     H(rot)  DE(clash)    DE(int)     intcor
     13.86     -15.53       1.89        0.00      61.94       1.37       0.09       1.58       ----

> <Gold.Chemscore.Fitness>
13.8575

> <Gold.Chemscore.DG>
-15.5255

> <Gold.Chemscore.ZeroCoef>
-5.4800

> <Gold.Chemscore.Hbond>
1.8854

> <Gold.Chemscore.Metal>
0.0000

> <Gold.Chemscore.Lipo>
61.9432

> <Gold.Chemscore.Internal_Hbond>
0.0000

> <Gold.Chemscore.DEClash>
0.0897

> <Gold.Chemscore.DEInternal>
1.5783

> <Gold.Chemscore.Rot>
1.3669

> <Gold.Chemscore.Internal.Correction>
   9.000000E+99

> <Gold.Chemscore.Hbonds>
donor molecule, donor type, donor heavy atom, donor atom, acceptor molecule, acceptor atom, score
      L1  H     7    24       P1  7948  0.96
      L1  H    10    25       P1  7948  0.87
      P1  H  7989  7998       L1     4  0.03

> <Gold.Chemscore.Hbond.Weighted>
-6.2974

> <Gold.Chemscore.Metal.Weighted>
-0.0000

> <Gold.Chemscore.Lipo.Weighted>
-7.2474

> <Gold.Chemscore.Internal_Hbond.Weighted>
0.0000

> <Gold.Chemscore.DEClash.Weighted>
0.0897

> <Gold.Chemscore.DEInternal.Weighted>
1.5783

> <Gold.Chemscore.Rot.Weighted>
3.4992

> <Gold.Chemscore.Internal.Correction.Weighted>
   9.000000E+99

> <Gold.Protein.RotatedTorsions>
[ 6907 6896 6895 6894 ] final  131.04 input  -60.11 | X-H torsion
[ 7974 7965 7964 7962 ] final   95.61 input  175.53 | X-H torsion
[ 8008 7997 7996 7995 ] final  -52.43 input   59.86 | X-H torsion
[ 10167 10162 10161 10158 ] final -151.17 input  -65.29 | X-H torsion
[ 10718 10713 10712 10709 ] final   63.19 input   66.30 | X-H torsion
[ 10763 10752 10751 10750 ] final   79.84 input  -60.55 | X-H torsion
[ 11005 11000 10999 10996 ] final   64.93 input  -57.11 | X-H torsion

> <Gold.Protein.ActiveResidues>
 VAL166  LYS551  ARG553  GLY616  TRP617  ASP618  TYR619  PRO620  LYS621  CYS622 
 ASP623  PHE694  ASN695  SER759  ASP760  ASP761  ALA762  ILE779  LEU786  VAL792 
 PHE793  MET794  SER795  GLU796  ALA797  LYS798  CYS799  TRP800  GLU811  SER814 

> <Gold.Protein.RotatedAtoms>
  152.3466  133.6129  159.5914 H   0  0  0  0  0  0  0  0  0  0  0  0  # atno 6907 bound_to 6896
  150.7511  133.9640  159.3533 H   0  0  0  0  0  0  0  0  0  0  0  0  # atno 6908 bound_to 6896
  151.7497  135.0836  160.0380 H   0  0  0  0  0  0  0  0  0  0  0  0  # atno 6909 bound_to 6896
  145.4499  139.2294  143.3045 H   0  0  0  0  0  0  0  0  0  0  0  0  # atno 7974 bound_to 7965
  154.4106  140.1224  156.4990 H   0  0  0  0  0  0  0  0  0  0  0  0  # atno 8008 bound_to 7997
  155.6914  140.3495  155.4876 H   0  0  0  0  0  0  0  0  0  0  0  0  # atno 8009 bound_to 7997
  155.9465  140.1097  157.1002 H   0  0  0  0  0  0  0  0  0  0  0  0  # atno 8010 bound_to 7997
  139.7291  143.8837  152.2529 H   0  0  0  0  0  0  0  0  0  0  0  0  # atno 10167 bound_to 10162
  157.5954  130.9091  149.9684 H   0  0  0  0  0  0  0  0  0  0  0  0  # atno 10718 bound_to 10713
  153.0985  135.4825  154.8823 H   0  0  0  0  0  0  0  0  0  0  0  0  # atno 10763 bound_to 10752
  154.7352  135.3069  154.8826 H   0  0  0  0  0  0  0  0  0  0  0  0  # atno 10764 bound_to 10752
  153.9450  135.6830  153.4797 H   0  0  0  0  0  0  0  0  0  0  0  0  # atno 10765 bound_to 10752
  139.9927  134.6566  156.0063 H   0  0  0  0  0  0  0  0  0  0  0  0  # atno 11005 bound_to 11000
  146.2510  140.5257  142.8893 LP  0  0  0  0  0  0  0  0  0  0  0  0  # atno 17320 bound_to 7965
  144.8068  140.6314  143.6442 LP  0  0  0  0  0  0  0  0  0  0  0  0  # atno 17321 bound_to 7965
  139.8755  144.7046  150.8938 LP  0  0  0  0  0  0  0  0  0  0  0  0  # atno 17342 bound_to 10162
  140.7768  143.3703  151.1661 LP  0  0  0  0  0  0  0  0  0  0  0  0  # atno 17343 bound_to 10162
  156.1015  130.3655  150.0209 LP  0  0  0  0  0  0  0  0  0  0  0  0  # atno 17370 bound_to 10713
  156.8324  130.9397  151.3636 LP  0  0  0  0  0  0  0  0  0  0  0  0  # atno 17371 bound_to 10713
  141.1579  133.6541  156.4222 LP  0  0  0  0  0  0  0  0  0  0  0  0  # atno 17394 bound_to 11000
  140.4877  134.6605  157.5198 LP  0  0  0  0  0  0  0  0  0  0  0  0  # atno 17395 bound_to 11000

$$$$
