#       Name:                AV-unprocessed.smi:40
#       Creating user name   scv26
#       Creation time:       Thu Mar 26 16:22:15 2020


#       File generated by GOLD software.
#

@<TRIPOS>MOLECULE
AV-unprocessed.smi:40
    58    59     1
SMALL
NO_CHARGES


@<TRIPOS>ATOM
      1 ****        -5.8735   0.2084   2.3074 C.3            1 S1                 0.0000
      2 ****        -4.3690   0.2688   2.0120 C.3            1 S1                 0.0000
      3 ****        -3.7420  -1.0994   1.6983 C.3            1 S1                 0.0000
      4 ****        -4.1993  -1.6987   0.3565 C.3            1 S1                 0.0000
      5 ****        -3.5119  -3.0315   0.0311 C.3            1 S1                 0.0000
      6 ****        -2.1284  -2.8057  -0.1806 O.3            1 S1                 0.0000
      7 ****        -1.3007  -3.8324  -0.4445 C.2            1 S1                 0.0000
      8 ****        -1.6708  -4.9993  -0.5721 O.2            1 S1                 0.0000
      9 ****         0.0754  -3.3857  -0.5937 N.am           1 S1                 0.0000
     10 ****         1.1892  -4.1118  -0.8607 C.2            1 S1                 0.0000
     11 ****         1.1546  -5.2613  -1.5178 N.2            1 S1                 0.0000
     12 ****         2.2610  -6.0105  -1.8146 C.2            1 S1                 0.0000
     13 ****         2.1518  -7.0825  -2.4078 O.2            1 S1                 0.0000
     14 ****         3.5148  -5.5029  -1.4006 N.am           1 S1                 0.0000
     15 ****         4.7805  -6.2701  -1.7132 C.3            1 S1                 0.0000
     16 ****         5.7247  -5.3572  -2.1814 O.3            1 S1                 0.0000
     17 ****         6.9989  -5.6948  -1.6571 C.3            1 S1                 0.0000
     18 ****         7.9084  -4.4609  -1.6514 C.3            1 S1                 0.0000
     19 ****         6.6895  -6.2531  -0.2663 C.3            1 S1                 0.0000
     20 ****         7.7113  -7.1383   0.1464 O.3            1 S1                 0.0000
     21 ****         5.3765  -6.9968  -0.4842 C.3            1 S1                 0.0000
     22 ****         4.5687  -6.9513   0.6789 O.3            1 S1                 0.0000
     23 ****         3.5777  -4.2926  -0.7276 C.2            1 S1                 0.0000
     24 ****         2.4682  -3.5774  -0.4439 C.2            1 S1                 0.0000
     25 ****         2.5553  -2.4058   0.2097 F              1 S1                 0.0000
     26 ****         4.5515  -6.9588  -2.5270 H              1 S1                 0.0000
     27 ****         7.4239  -6.4744  -2.2924 H              1 S1                 0.0000
     28 ****         6.5661  -5.4406   0.4520 H              1 S1                 0.0000
     29 ****         5.5535  -8.0353  -0.7679 H              1 S1                 0.0000
     30 ****        -6.2507   1.1920   2.5876 H              1 S1                 0.0000
     31 ****        -6.0864  -0.4750   3.1298 H              1 S1                 0.0000
     32 ****        -6.4406  -0.1228   1.4379 H              1 S1                 0.0000
     33 ****        -4.1817   0.9593   1.1889 H              1 S1                 0.0000
     34 ****        -3.8634   0.6917   2.8806 H              1 S1                 0.0000
     35 ****        -2.6581  -0.9800   1.6839 H              1 S1                 0.0000
     36 ****        -3.9567  -1.7972   2.5083 H              1 S1                 0.0000
     37 ****        -5.2761  -1.8641   0.3797 H              1 S1                 0.0000
     38 ****        -4.0145  -0.9884  -0.4503 H              1 S1                 0.0000
     39 ****        -3.6583  -3.7429   0.8450 H              1 S1                 0.0000
     40 ****        -3.9495  -3.4655  -0.8687 H              1 S1                 0.0000
     41 ****         0.2032  -2.3944  -0.4510 H              1 S1                 0.0000
     42 ****         8.8870  -4.6983  -1.2341 H              1 S1                 0.0000
     43 ****         7.4770  -3.6542  -1.0580 H              1 S1                 0.0000
     44 ****         8.0596  -4.0852  -2.6634 H              1 S1                 0.0000
     45 ****         7.7894  -7.8277  -0.4951 H              1 S1                 0.0000
     46 ****         4.3834  -6.0467   0.8791 H              1 S1                 0.0000
     47 ****         4.5361  -3.9037  -0.4149 H              1 S1                 0.0000
     48 ****        -2.6396  -5.2296  -0.4795 LP             1 S1                 0.0000
     49 ****        -1.0028  -5.7171  -0.7683 LP             1 S1                 0.0000
     50 ****         0.2636  -5.6035  -1.8160 LP             1 S1                 0.0000
     51 ****         1.2481  -7.4145  -2.6781 LP             1 S1                 0.0000
     52 ****         2.9667  -7.6220  -2.6197 LP             1 S1                 0.0000
     53 ****         5.4745  -4.4355  -1.8851 LP             1 S1                 0.0000
     54 ****         5.7547  -5.3896  -3.1804 LP             1 S1                 0.0000
     55 ****         7.4782  -7.5307   1.0362 LP             1 S1                 0.0000
     56 ****         8.5776  -6.6437   0.2168 LP             1 S1                 0.0000
     57 ****         5.0546  -7.3736   1.4441 LP             1 S1                 0.0000
     58 ****         3.7134  -7.4428   0.5152 LP             1 S1                 0.0000
@<TRIPOS>BOND
    1    1    2 1     
    2    1   30 1     
    3    1   31 1     
    4    1   32 1     
    5    2    3 1     
    6    2   33 1     
    7    2   34 1     
    8    3    4 1     
    9    3   35 1     
   10    3   36 1     
   11    4    5 1     
   12    4   37 1     
   13    4   38 1     
   14    5    6 1     
   15    5   39 1     
   16    5   40 1     
   17    6    7 1     
   18    7    8 2     
   19    7    9 am    
   20    9   10 1     
   21    9   41 1     
   22   10   24 1     
   23   10   11 2     
   24   11   12 1     
   25   12   13 2     
   26   12   14 am    
   27   14   15 1     
   28   14   23 1     
   29   15   26 1     
   30   15   21 1     
   31   15   16 1     
   32   16   17 1     
   33   17   27 1     
   34   17   18 1     
   35   17   19 1     
   36   18   42 1     
   37   18   43 1     
   38   18   44 1     
   39   19   28 1     
   40   19   20 1     
   41   19   21 1     
   42   20   45 1     
   43   21   29 1     
   44   21   22 1     
   45   22   46 1     
   46   23   24 2     
   47   23   47 1     
   48   24   25 1     
   49    8   48 1     
   50    8   49 1     
   51   11   50 1     
   52   13   51 1     
   53   13   52 1     
   54   16   53 1     
   55   16   54 1     
   56   20   55 1     
   57   20   56 1     
   58   22   57 1     
   59   22   58 1     
@<TRIPOS>SUBSTRUCTURE
      1 S1             1
@<TRIPOS>SET
LONE_PAIRS      STATIC     ATOMS    <user>   **** ""
11 48 49 50 51 52 53 54 55 56 57 58
DONOR_HYDROGENS      STATIC     ATOMS    <user>   **** ""
3 41 45 46
ATOM$BLUE        STATIC     ATOMS    COLORGROUP SYSTEM
11 48 49 50 51 52 53 54 55 56 57 58
ATOM$RED        STATIC     ATOMS    COLORGROUP SYSTEM
3 41 45 46
