AV-unprocessed.smi:3145|AV-procd|sdf|11980|dock5
  -GOLD-   2272017383D 1   1.00000     0.00000
 Structure written by MMmdl.
 35 35  0  0  0  0  0  0  0  0  2 V2000
  146.5103  138.5018  151.9686 C   0  0  0  0  0  0  0  0  0  0  0  0
  145.8474  137.1540  152.2841 C   0  0  1  0  0  0  0  0  0  0  0  0
  145.5840  136.3608  150.9863 C   0  0  0  0  0  0  0  0  0  0  0  0
  144.9341  135.0843  151.2229 N   0  0  0  0  0  0  0  0  0  0  0  0
  145.1109  133.8941  150.5493 C   0  0  0  0  0  0  0  0  0  0  0  0
  144.2763  132.9770  151.1209 C   0  0  0  0  0  0  0  0  0  0  0  0
  143.6236  133.7085  152.1522 C   0  0  0  0  0  0  0  0  0  0  0  0
  144.0186  134.9704  152.2098 N   0  0  0  0  0  0  0  0  0  0  0  0
  146.7091  136.3899  153.2147 N   0  3  0  0  0  0  0  0  0  0  0  0
  146.6950  136.8620  154.6161 C   0  0  0  0  0  0  0  0  0  0  0  0
  147.8593  137.8088  154.9068 C   0  0  0  0  0  0  0  0  0  0  0  0
  147.9006  138.4424  155.9619 O   0  0  0  0  0  0  0  0  0  0  0  0
  148.8108  137.8859  153.9656 N   0  0  0  0  0  0  0  0  0  0  0  0
  149.9979  138.7243  154.0631 C   0  0  0  0  0  0  0  0  0  0  0  0
  151.2351  137.8735  154.3685 C   0  0  0  0  0  0  0  0  0  0  0  0
  152.4369  138.6871  154.6070 C   0  0  0  0  0  0  0  0  0  0  0  0
  153.3821  139.3271  154.7944 N   0  0  0  0  0  0  0  0  0  0  0  0
  145.8859  139.1010  151.3052 H   0  0  0  0  0  0  0  0  0  0  0  0
  147.4764  138.3657  151.4810 H   0  0  0  0  0  0  0  0  0  0  0  0
  146.6739  139.0829  152.8769 H   0  0  0  0  0  0  0  0  0  0  0  0
  144.8940  137.3678  152.7708 H   0  0  0  0  0  0  0  0  0  0  0  0
  144.9427  136.9393  150.3200 H   0  0  0  0  0  0  0  0  0  0  0  0
  146.5162  136.1907  150.4445 H   0  0  0  0  0  0  0  0  0  0  0  0
  145.8056  133.8002  149.7274 H   0  0  0  0  0  0  0  0  0  0  0  0
  144.1528  131.9398  150.8461 H   0  0  0  0  0  0  0  0  0  0  0  0
  142.8794  133.3627  152.8547 H   0  0  0  0  0  0  0  0  0  0  0  0
  146.4271  135.4202  153.1924 H   0  0  0  0  0  0  0  0  0  0  0  0
  145.7581  137.3849  154.8116 H   0  0  0  0  0  0  0  0  0  0  0  0
  146.7393  136.0139  155.2995 H   0  0  0  0  0  0  0  0  0  0  0  0
  148.7065  137.3310  153.1281 H   0  0  0  0  0  0  0  0  0  0  0  0
  150.1436  139.2670  153.1276 H   0  0  0  0  0  0  0  0  0  0  0  0
  149.8521  139.4669  154.8489 H   0  0  0  0  0  0  0  0  0  0  0  0
  151.0679  137.2589  155.2532 H   0  0  0  0  0  0  0  0  0  0  0  0
  151.4494  137.1993  153.5389 H   0  0  0  0  0  0  0  0  0  0  0  0
  147.6632  136.4501  152.8885 H   0  0  0  0  0  0  0  0  0  0  0  0
  1  2  1  0  0  0  0
  1 18  1  0  0  0  0
  1 19  1  0  0  0  0
  1 20  1  0  0  0  0
  2  3  1  0  0  0  0
  2  9  1  0  0  0  0
  2 21  1  0  0  0  0
  3  4  1  0  0  0  0
  3 22  1  0  0  0  0
  3 23  1  0  0  0  0
  4  8  1  0  0  0  0
  4  5  1  0  0  0  0
  5  6  2  0  0  0  0
  5 24  1  0  0  0  0
  6  7  1  0  0  0  0
  6 25  1  0  0  0  0
  7  8  2  0  0  0  0
  7 26  1  0  0  0  0
  9 10  1  0  0  0  0
  9 27  1  0  0  0  0
  9 35  1  0  0  0  0
 10 11  1  0  0  0  0
 10 28  1  0  0  0  0
 10 29  1  0  0  0  0
 11 12  2  0  0  0  0
 11 13  1  0  0  0  0
 13 14  1  0  0  0  0
 13 30  1  0  0  0  0
 14 15  1  0  0  0  0
 14 31  1  0  0  0  0
 14 32  1  0  0  0  0
 15 16  1  0  0  0  0
 15 33  1  0  0  0  0
 15 34  1  0  0  0  0
 16 17  3  0  0  0  0
M  CHG  1   9   1
M  END
> <s_m_source_file>
AV-unprocessed.smi

> <i_m_source_file_index>
3145

> <i_lp_mmshare_version>
43012

> <i_f3d_flags>
0

> <s_epik_input>
bjFbY0hdW2NIXVtjSF1uMVtDSDJdW0NAQEhdKFtDSDNdKVtOSF1bQ0gyXUMoPU8pW05IXVtDSDJdW0NIMl1DI04=

> <s_epik_cmdline>
J2VwaWtfcHl0aG9uJywgJy1waCcsICc3LjAnLCAnLXRuJywgJzgnLCAnLW1hJywgJzIwMCcsICctbWV0YWxfYmluZGluZycsICctaW1hZScsICc8aW5maWxlLm1hZT4nLCAnLW9tYWUnLCAnPG91dGZpbGUubWFlPic=

> <r_lp_tautomer_probability>
1

> <r_epik_Ionization_Penalty>
0.190162

> <r_epik_Ionization_Penalty_Charging>
0.190142

> <r_epik_Ionization_Penalty_Neutral>
2.0165e-05

> <r_epik_State_Penalty>
0.179787

> <r_epik_Charging_Adjusted_Penalty>
0.369929

> <i_epik_Tot_Q>
1

> <i_epik_Tot_abs_Q>
1

> <r_epik_Metal_State_Penalty>
0.191786

> <b_epik_Metal_Only>
0

> <s_lp_Force_Field>
OPLS_2005

> <r_lp_Energy>
4.60732

> <b_lp_Chiralities_Consistent>
1

> <s_lp_Variant>
AV-unprocessed.smi:3145-2

> <Gold.Version>
5.8.1

> <Gold.Id.Protein>
6NUR|6NUR_protein|mol2

> <Gold.PLP.Fitness>
48.3417

> <Gold.PLP.PLP>
-32.0713

> <Gold.PLP.part.hbond>
-3.3569

> <Gold.PLP.part.metal>
0.0000

> <Gold.PLP.part.buried>
-2.6344

> <Gold.PLP.part.nonpolar>
-26.8399

> <Gold.PLP.part.repulsive>
0.1433

> <Gold.PLP.ligand.clash>
0.0000

> <Gold.PLP.ligand.torsion>
0.9215

> <Gold.PLP.Chemscore.Hbond>
4.0000

> <Gold.PLP.Chemscore.CHOScore>
1.9997

> <Gold.PLP.Chemscore.Metal>
0.0000

> <Gold.Chemscore.Hbonds>
donor molecule, donor type, donor heavy atom, donor atom, acceptor molecule, acceptor atom, score
      L1  H     9    35       P1  7948  2.00
      L1  H    13    30       P1  7948  1.00
      P1  H  7997  8010       L1    17  1.00
      L1  C     5    24       P1  7921  1.00
      L1  C     7    26       P1 10957  1.00

> <Gold.PLP.Chemscore.Internal.Correction>
0.1142

> <Gold.Rescore>
     Score         DG    S(hbond)    S(metal)    S(lipo)     H(rot)  DE(clash)    DE(int)     intcor
     14.48     -15.14       2.97        0.00      61.05       2.89       0.05       0.61       ----

> <Gold.Chemscore.Fitness>
14.4786

> <Gold.Chemscore.DG>
-15.1450

> <Gold.Chemscore.ZeroCoef>
-5.4800

> <Gold.Chemscore.Hbond>
2.9697

> <Gold.Chemscore.Metal>
0.0000

> <Gold.Chemscore.Lipo>
61.0498

> <Gold.Chemscore.Internal_Hbond>
0.0000

> <Gold.Chemscore.DEClash>
0.0541

> <Gold.Chemscore.DEInternal>
0.6123

> <Gold.Chemscore.Rot>
2.8894

> <Gold.Chemscore.Internal.Correction>
   9.000000E+99

> <Gold.Chemscore.Hbonds>
donor molecule, donor type, donor heavy atom, donor atom, acceptor molecule, acceptor atom, score
      L1  H     9    35       P1  7948  0.99
      L1  H    13    30       P1  7948  1.00
      P1  H  7997  8010       L1    17  1.00

> <Gold.Chemscore.Hbond.Weighted>
-9.9189

> <Gold.Chemscore.Metal.Weighted>
-0.0000

> <Gold.Chemscore.Lipo.Weighted>
-7.1428

> <Gold.Chemscore.Internal_Hbond.Weighted>
0.0000

> <Gold.Chemscore.DEClash.Weighted>
0.0541

> <Gold.Chemscore.DEInternal.Weighted>
0.6123

> <Gold.Chemscore.Rot.Weighted>
7.3968

> <Gold.Chemscore.Internal.Correction.Weighted>
   9.000000E+99

> <Gold.Protein.RotatedTorsions>
[ 6907 6896 6895 6894 ] final   48.09 input  -60.11 | X-H torsion
[ 7974 7965 7964 7962 ] final  105.10 input  175.53 | X-H torsion
[ 8008 7997 7996 7995 ] final  113.30 input   59.86 | X-H torsion
[ 10167 10162 10161 10158 ] final  -99.12 input  -65.29 | X-H torsion
[ 10718 10713 10712 10709 ] final -131.34 input   66.30 | X-H torsion
[ 10763 10752 10751 10750 ] final  -54.75 input  -60.55 | X-H torsion
[ 11005 11000 10999 10996 ] final  -52.50 input  -57.11 | X-H torsion

> <Gold.Protein.ActiveResidues>
 VAL166  LYS551  ARG553  GLY616  TRP617  ASP618  TYR619  PRO620  LYS621  CYS622 
 ASP623  PHE694  ASN695  SER759  ASP760  ASP761  ALA762  ILE779  LEU786  VAL792 
 PHE793  MET794  SER795  GLU796  ALA797  LYS798  CYS799  TRP800  GLU811  SER814 

> <Gold.Protein.RotatedAtoms>
  152.2755  134.7886  160.0406 H   0  0  0  0  0  0  0  0  0  0  0  0  # atno 6907 bound_to 6896
  151.8484  133.3430  159.3673 H   0  0  0  0  0  0  0  0  0  0  0  0  # atno 6908 bound_to 6896
  150.7168  134.5251  159.5717 H   0  0  0  0  0  0  0  0  0  0  0  0  # atno 6909 bound_to 6896
  145.3240  139.2505  143.3696 H   0  0  0  0  0  0  0  0  0  0  0  0  # atno 7974 bound_to 7965
  156.2249  140.2982  156.0042 H   0  0  0  0  0  0  0  0  0  0  0  0  # atno 8008 bound_to 7997
  155.2384  140.0421  157.2989 H   0  0  0  0  0  0  0  0  0  0  0  0  # atno 8009 bound_to 7997
  154.5899  140.2398  155.7943 H   0  0  0  0  0  0  0  0  0  0  0  0  # atno 8010 bound_to 7997
  140.2658  143.3377  152.0582 H   0  0  0  0  0  0  0  0  0  0  0  0  # atno 10167 bound_to 10162
  156.2235  130.6993  151.0781 H   0  0  0  0  0  0  0  0  0  0  0  0  # atno 10718 bound_to 10713
  154.1799  135.6445  153.5031 H   0  0  0  0  0  0  0  0  0  0  0  0  # atno 10763 bound_to 10752
  153.0062  135.5403  154.6525 H   0  0  0  0  0  0  0  0  0  0  0  0  # atno 10764 bound_to 10752
  154.5887  135.2932  155.0631 H   0  0  0  0  0  0  0  0  0  0  0  0  # atno 10765 bound_to 10752
  141.0927  133.6630  156.4034 H   0  0  0  0  0  0  0  0  0  0  0  0  # atno 11005 bound_to 11000
  146.3071  140.3804  142.8683 LP  0  0  0  0  0  0  0  0  0  0  0  0  # atno 17320 bound_to 7965
  144.8916  140.7531  143.5923 LP  0  0  0  0  0  0  0  0  0  0  0  0  # atno 17321 bound_to 7965
  139.5003  144.6689  151.6290 LP  0  0  0  0  0  0  0  0  0  0  0  0  # atno 17342 bound_to 10162
  140.5929  143.9747  150.6336 LP  0  0  0  0  0  0  0  0  0  0  0  0  # atno 17343 bound_to 10162
  157.7099  131.0739  150.6538 LP  0  0  0  0  0  0  0  0  0  0  0  0  # atno 17370 bound_to 10713
  156.6602  130.4510  149.5690 LP  0  0  0  0  0  0  0  0  0  0  0  0  # atno 17371 bound_to 10713
  140.5213  134.6302  157.5319 LP  0  0  0  0  0  0  0  0  0  0  0  0  # atno 17394 bound_to 11000
  139.9757  134.7219  155.9955 LP  0  0  0  0  0  0  0  0  0  0  0  0  # atno 17395 bound_to 11000

$$$$
