AV-unprocessed.smi:1807|AV-procd|sdf|7303|dock7
  -GOLD-   22720 8563D 1   1.00000     0.00000
 Structure written by MMmdl.
 44 45  0  0  0  0  0  0  0  0  1 V2000
  153.0854  142.4575  162.4805 C   0  0  0  0  0  0  0  0  0  0  0  0
  152.8196  143.4280  161.3169 C   0  0  2  0  0  0  0  0  0  0  0  0
  151.3873  143.9987  161.3720 C   0  0  0  0  0  0  0  0  0  0  0  0
  151.1432  145.0203  160.2500 C   0  0  0  0  0  0  0  0  0  0  0  0
  151.4343  144.4146  158.8689 C   0  0  0  0  0  0  0  0  0  0  0  0
  152.8596  143.8380  158.8022 C   0  0  0  0  0  0  0  0  0  0  0  0
  153.1301  142.8167  159.9257 C   0  0  2  0  0  0  0  0  0  0  0  0
  152.3576  141.5972  159.6797 N   0  0  0  0  0  0  0  0  0  0  0  0
  152.8466  140.4095  159.2915 C   0  0  0  0  0  0  0  0  0  0  0  0
  154.0440  140.2018  159.0873 O   0  0  0  0  0  0  0  0  0  0  0  0
  151.8082  139.3001  159.1061 C   0  0  0  0  0  0  0  0  0  0  0  0
  151.8811  138.6950  157.7834 N   0  0  0  0  0  0  0  0  0  0  0  0
  151.0603  139.1738  156.7572 C   0  0  0  0  0  0  0  0  0  0  0  0
  151.0846  138.6205  155.4483 C   0  0  0  0  0  0  0  0  0  0  0  0
  150.1472  139.3571  154.7812 C   0  0  0  0  0  0  0  0  0  0  0  0
  149.6279  140.2759  155.6728 N   0  0  0  0  0  0  0  0  0  0  0  0
  148.5995  141.2746  155.4423 C   0  0  0  0  0  0  0  0  0  0  0  0
  147.5214  141.2162  156.5260 C   0  0  0  0  0  0  0  0  0  0  0  0
  147.3145  142.3247  157.2419 N   0  0  0  0  0  0  0  0  0  0  0  0
  146.8826  140.1835  156.7150 O   0  0  0  0  0  0  0  0  0  0  0  0
  150.1936  140.1655  156.8952 N   0  0  0  0  0  0  0  0  0  0  0  0
  152.3967  141.6123  162.4681 H   0  0  0  0  0  0  0  0  0  0  0  0
  152.9694  142.9599  163.4409 H   0  0  0  0  0  0  0  0  0  0  0  0
  154.1005  142.0617  162.4374 H   0  0  0  0  0  0  0  0  0  0  0  0
  153.5034  144.2673  161.4532 H   0  0  0  0  0  0  0  0  0  0  0  0
  150.6603  143.1893  161.2939 H   0  0  0  0  0  0  0  0  0  0  0  0
  151.2128  144.4734  162.3382 H   0  0  0  0  0  0  0  0  0  0  0  0
  150.1134  145.3768  160.2893 H   0  0  0  0  0  0  0  0  0  0  0  0
  151.7786  145.8928  160.4071 H   0  0  0  0  0  0  0  0  0  0  0  0
  150.7069  143.6314  158.6524 H   0  0  0  0  0  0  0  0  0  0  0  0
  151.3056  145.1733  158.0968 H   0  0  0  0  0  0  0  0  0  0  0  0
  153.0322  143.3811  157.8268 H   0  0  0  0  0  0  0  0  0  0  0  0
  153.5770  144.6554  158.8833 H   0  0  0  0  0  0  0  0  0  0  0  0
  154.1946  142.5779  159.8917 H   0  0  0  0  0  0  0  0  0  0  0  0
  151.3598  141.6642  159.8197 H   0  0  0  0  0  0  0  0  0  0  0  0
  151.9650  138.5330  159.8664 H   0  0  0  0  0  0  0  0  0  0  0  0
  150.8129  139.7188  159.2604 H   0  0  0  0  0  0  0  0  0  0  0  0
  152.4644  137.8822  157.6441 H   0  0  0  0  0  0  0  0  0  0  0  0
  151.6877  137.8126  155.0612 H   0  0  0  0  0  0  0  0  0  0  0  0
  149.8076  139.3033  153.7575 H   0  0  0  0  0  0  0  0  0  0  0  0
  149.0540  142.2667  155.4262 H   0  0  0  0  0  0  0  0  0  0  0  0
  148.1601  141.1086  154.4576 H   0  0  0  0  0  0  0  0  0  0  0  0
  146.6113  142.3362  157.9662 H   0  0  0  0  0  0  0  0  0  0  0  0
  147.8629  143.1513  157.0521 H   0  0  0  0  0  0  0  0  0  0  0  0
  1  2  1  0  0  0  0
  1 22  1  0  0  0  0
  1 23  1  0  0  0  0
  1 24  1  0  0  0  0
  2  7  1  0  0  0  0
  2  3  1  0  0  0  0
  2 25  1  0  0  0  0
  3  4  1  0  0  0  0
  3 26  1  0  0  0  0
  3 27  1  0  0  0  0
  4  5  1  0  0  0  0
  4 28  1  0  0  0  0
  4 29  1  0  0  0  0
  5  6  1  0  0  0  0
  5 30  1  0  0  0  0
  5 31  1  0  0  0  0
  6  7  1  0  0  0  0
  6 32  1  0  0  0  0
  6 33  1  0  0  0  0
  7  8  1  0  0  0  0
  7 34  1  0  0  0  0
  8  9  1  0  0  0  0
  8 35  1  0  0  0  0
  9 10  2  0  0  0  0
  9 11  1  0  0  0  0
 11 12  1  0  0  0  0
 11 36  1  0  0  0  0
 11 37  1  0  0  0  0
 12 13  1  0  0  0  0
 12 38  1  0  0  0  0
 13 21  2  0  0  0  0
 13 14  1  0  0  0  0
 14 15  2  0  0  0  0
 14 39  1  0  0  0  0
 15 16  1  0  0  0  0
 15 40  1  0  0  0  0
 16 17  1  0  0  0  0
 16 21  1  0  0  0  0
 17 18  1  0  0  0  0
 17 41  1  0  0  0  0
 17 42  1  0  0  0  0
 18 19  1  0  0  0  0
 18 20  2  0  0  0  0
 19 43  1  0  0  0  0
 19 44  1  0  0  0  0
M  END
> <s_m_source_file>
AV-unprocessed.smi

> <i_m_source_file_index>
1807

> <i_lp_mmshare_version>
43012

> <i_f3d_flags>
0

> <s_epik_input>
W0NIM11bQ0BASF0xW0NIMl1bQ0gyXVtDSDJdW0NIMl1bQ0BIXTFbTkhdQyg9TylbQ0gyXVtOSF1jMltjSF1bY0hdbihuMilbQ0gyXUMoPU8pW05IMl0=

> <s_epik_cmdline>
J2VwaWtfcHl0aG9uJywgJy1waCcsICc3LjAnLCAnLXRuJywgJzgnLCAnLW1hJywgJzIwMCcsICctbWV0YWxfYmluZGluZycsICctaW1hZScsICc8aW5maWxlLm1hZT4nLCAnLW9tYWUnLCAnPG91dGZpbGUubWFlPic=

> <r_lp_tautomer_probability>
1

> <r_epik_Ionization_Penalty>
0.000167642

> <r_epik_Ionization_Penalty_Charging>
0

> <r_epik_Ionization_Penalty_Neutral>
0.000167642

> <r_epik_State_Penalty>
-0

> <r_epik_Charging_Adjusted_Penalty>
0

> <i_epik_Tot_Q>
0

> <i_epik_Tot_abs_Q>
0

> <r_epik_Metal_State_Penalty>
-0

> <b_epik_Metal_Only>
0

> <s_lp_Force_Field>
OPLS_2005

> <r_lp_Energy>
5.83979

> <b_lp_Chiralities_Consistent>
1

> <s_lp_Variant>
AV-unprocessed.smi:1807-3

> <Gold.Version>
5.8.1

> <Gold.Id.Protein>
6NUR|6NUR_protein|mol2

> <Gold.PLP.Fitness>
52.2629

> <Gold.PLP.PLP>
-44.4010

> <Gold.PLP.part.hbond>
-2.0000

> <Gold.PLP.part.metal>
0.0000

> <Gold.PLP.part.buried>
-2.9026

> <Gold.PLP.part.nonpolar>
-39.0070

> <Gold.PLP.part.repulsive>
0.2019

> <Gold.PLP.ligand.clash>
0.0000

> <Gold.PLP.ligand.torsion>
0.4057

> <Gold.PLP.Chemscore.Hbond>
1.8800

> <Gold.PLP.Chemscore.CHOScore>
1.0000

> <Gold.PLP.Chemscore.Metal>
0.0000

> <Gold.Chemscore.Hbonds>
donor molecule, donor type, donor heavy atom, donor atom, acceptor molecule, acceptor atom, score
      L1  H    19    44       P1  8028  0.19
      P1  H  7997  8010       L1    10  0.78
      L1  C    15    40       P1  7957  0.57

> <Gold.PLP.Chemscore.Internal.Correction>
0.0332

> <Gold.Rescore>
     Score         DG    S(hbond)    S(metal)    S(lipo)     H(rot)  DE(clash)    DE(int)     intcor
     16.79     -17.35       1.69        0.00     110.93       2.64       0.06       0.51       ----

> <Gold.Chemscore.Fitness>
16.7876

> <Gold.Chemscore.DG>
-17.3507

> <Gold.Chemscore.ZeroCoef>
-5.4800

> <Gold.Chemscore.Hbond>
1.6892

> <Gold.Chemscore.Metal>
0.0000

> <Gold.Chemscore.Lipo>
110.9322

> <Gold.Chemscore.Internal_Hbond>
0.0000

> <Gold.Chemscore.DEClash>
0.0559

> <Gold.Chemscore.DEInternal>
0.5073

> <Gold.Chemscore.Rot>
2.6369

> <Gold.Chemscore.Internal.Correction>
   9.000000E+99

> <Gold.Chemscore.Hbonds>
donor molecule, donor type, donor heavy atom, donor atom, acceptor molecule, acceptor atom, score
      L1  H    19    44       P1  8028  0.01
      P1  H  7997  8010       L1    10  0.75

> <Gold.Chemscore.Hbond.Weighted>
-5.6420

> <Gold.Chemscore.Metal.Weighted>
-0.0000

> <Gold.Chemscore.Lipo.Weighted>
-12.9791

> <Gold.Chemscore.Internal_Hbond.Weighted>
0.0000

> <Gold.Chemscore.DEClash.Weighted>
0.0559

> <Gold.Chemscore.DEInternal.Weighted>
0.5073

> <Gold.Chemscore.Rot.Weighted>
6.7504

> <Gold.Chemscore.Internal.Correction.Weighted>
   9.000000E+99

> <Gold.Protein.RotatedTorsions>
[ 6907 6896 6895 6894 ] final  131.62 input  -60.11 | X-H torsion
[ 7974 7965 7964 7962 ] final   59.06 input  175.53 | X-H torsion
[ 8008 7997 7996 7995 ] final   -1.60 input   59.86 | X-H torsion
[ 10167 10162 10161 10158 ] final   91.95 input  -65.29 | X-H torsion
[ 10718 10713 10712 10709 ] final -127.58 input   66.30 | X-H torsion
[ 10763 10752 10751 10750 ] final -179.76 input  -60.55 | X-H torsion
[ 11005 11000 10999 10996 ] final  123.05 input  -57.11 | X-H torsion

> <Gold.Protein.ActiveResidues>
 VAL166  LYS551  ARG553  GLY616  TRP617  ASP618  TYR619  PRO620  LYS621  CYS622 
 ASP623  PHE694  ASN695  SER759  ASP760  ASP761  ALA762  ILE779  LEU786  VAL792 
 PHE793  MET794  SER795  GLU796  ALA797  LYS798  CYS799  TRP800  GLU811  SER814 

> <Gold.Protein.RotatedAtoms>
  152.3408  133.6065  159.5874 H   0  0  0  0  0  0  0  0  0  0  0  0  # atno 6907 bound_to 6896
  150.7477  133.9725  159.3559 H   0  0  0  0  0  0  0  0  0  0  0  0  # atno 6908 bound_to 6896
  151.7589  135.0815  160.0393 H   0  0  0  0  0  0  0  0  0  0  0  0  # atno 6909 bound_to 6896
  145.9113  139.3656  143.0534 H   0  0  0  0  0  0  0  0  0  0  0  0  # atno 7974 bound_to 7965
  154.6450  140.2555  155.7278 H   0  0  0  0  0  0  0  0  0  0  0  0  # atno 8008 bound_to 7997
  156.2548  140.2879  156.0781 H   0  0  0  0  0  0  0  0  0  0  0  0  # atno 8009 bound_to 7997
  155.1537  140.0383  157.2817 H   0  0  0  0  0  0  0  0  0  0  0  0  # atno 8010 bound_to 7997
  139.8324  144.6680  150.9383 H   0  0  0  0  0  0  0  0  0  0  0  0  # atno 10167 bound_to 10162
  156.1870  130.6770  151.0377 H   0  0  0  0  0  0  0  0  0  0  0  0  # atno 10718 bound_to 10713
  154.5309  135.2800  155.1180 H   0  0  0  0  0  0  0  0  0  0  0  0  # atno 10763 bound_to 10752
  154.2701  135.6305  153.5310 H   0  0  0  0  0  0  0  0  0  0  0  0  # atno 10764 bound_to 10752
  152.9957  135.5626  154.5823 H   0  0  0  0  0  0  0  0  0  0  0  0  # atno 10765 bound_to 10752
  139.9295  134.9641  156.8202 H   0  0  0  0  0  0  0  0  0  0  0  0  # atno 11005 bound_to 11000
  145.8668  140.9443  143.0671 LP  0  0  0  0  0  0  0  0  0  0  0  0  # atno 17320 bound_to 7965
  144.6743  140.0602  143.7476 LP  0  0  0  0  0  0  0  0  0  0  0  0  # atno 17321 bound_to 7965
  140.7805  143.3988  151.1184 LP  0  0  0  0  0  0  0  0  0  0  0  0  # atno 17342 bound_to 10162
  139.7641  143.8592  152.3107 LP  0  0  0  0  0  0  0  0  0  0  0  0  # atno 17343 bound_to 10162
  157.6905  131.0811  150.7120 LP  0  0  0  0  0  0  0  0  0  0  0  0  # atno 17370 bound_to 10713
  156.7177  130.4671  149.5531 LP  0  0  0  0  0  0  0  0  0  0  0  0  # atno 17371 bound_to 10713
  140.6241  133.9967  155.7631 LP  0  0  0  0  0  0  0  0  0  0  0  0  # atno 17394 bound_to 11000
  141.0875  133.9968  157.3290 LP  0  0  0  0  0  0  0  0  0  0  0  0  # atno 17395 bound_to 11000

$$$$
