AV-unprocessed.smi:333|AV-procd|sdf|2360|dock5
  -GOLD-   2262022273D 1   1.00000     0.00000
 Structure written by MMmdl.
 25 25  0  0  0  0  0  0  0  0  2 V2000
  147.3591  129.0977  151.2916 N   0  0  0  0  0  0  0  0  0  0  0  0
  146.3134  129.3414  152.0916 C   0  0  0  0  0  0  0  0  0  0  0  0
  145.8856  128.4308  152.8014 O   0  0  0  0  0  0  0  0  0  0  0  0
  145.7968  130.7269  152.0046 C   0  0  0  0  0  0  0  0  0  0  0  0
  144.8669  131.1189  151.0971 C   0  0  0  0  0  0  0  0  0  0  0  0
  144.3679  132.4844  151.0230 C   0  0  0  0  0  0  0  0  0  0  0  0
  143.3310  132.8602  149.9713 C   0  0  0  0  0  0  0  0  0  0  0  0
  143.8620  132.7351  148.5339 C   0  0  0  0  0  0  0  0  0  0  0  0
  143.4448  133.8295  147.7456 O   0  0  0  0  0  0  0  0  0  0  0  0
  144.9331  133.3708  151.9461 C   0  0  0  0  0  0  0  0  0  0  0  0
  144.5256  134.8539  151.9798 C   0  0  0  0  0  0  0  0  0  0  0  0
  144.7839  135.4362  150.8080 F   0  0  0  0  0  0  0  0  0  0  0  0
  143.2245  134.9849  152.2392 F   0  0  0  0  0  0  0  0  0  0  0  0
  145.1874  135.5381  152.9173 F   0  0  0  0  0  0  0  0  0  0  0  0
  145.8635  132.9988  152.8687 N   0  5  0  0  0  0  0  0  0  0  0  0
  146.3350  131.7245  152.9586 C   0  0  0  0  0  0  0  0  0  0  0  0
  147.1769  131.4377  153.8106 O   0  0  0  0  0  0  0  0  0  0  0  0
  147.7775  128.1794  151.2799 H   0  0  0  0  0  0  0  0  0  0  0  0
  147.7211  129.8327  150.7022 H   0  0  0  0  0  0  0  0  0  0  0  0
  144.4584  130.4193  150.3836 H   0  0  0  0  0  0  0  0  0  0  0  0
  142.4158  132.2814  150.0768 H   0  0  0  0  0  0  0  0  0  0  0  0
  143.0417  133.8957  150.1531 H   0  0  0  0  0  0  0  0  0  0  0  0
  144.9517  132.7068  148.5392 H   0  0  0  0  0  0  0  0  0  0  0  0
  143.5212  131.8087  148.0708 H   0  0  0  0  0  0  0  0  0  0  0  0
  144.2098  134.2474  147.3817 H   0  0  0  0  0  0  0  0  0  0  0  0
  1  2  1  0  0  0  0
  1 18  1  0  0  0  0
  1 19  1  0  0  0  0
  2  3  2  0  0  0  0
  2  4  1  0  0  0  0
  4 16  1  0  0  0  0
  4  5  2  0  0  0  0
  5  6  1  0  0  0  0
  5 20  1  0  0  0  0
  6  7  1  0  0  0  0
  6 10  2  0  0  0  0
  7  8  1  0  0  0  0
  7 21  1  0  0  0  0
  7 22  1  0  0  0  0
  8  9  1  0  0  0  0
  8 23  1  0  0  0  0
  8 24  1  0  0  0  0
  9 25  1  0  0  0  0
 10 11  1  0  0  0  0
 10 15  1  0  0  0  0
 11 12  1  0  0  0  0
 11 13  1  0  0  0  0
 11 14  1  0  0  0  0
 15 16  1  0  0  0  0
 16 17  2  0  0  0  0
M  CHG  1  15  -1
M  END
> <s_m_source_file>
AV-unprocessed.smi

> <i_m_source_file_index>
333

> <i_lp_mmshare_version>
43012

> <i_f3d_flags>
0

> <s_epik_input>
W05IMl1DKD1PKWMxW2NIXWMoW0NIMl1bQ0gyXVtPSF0pYyhDKEYpKEYpRilbbkhdYzE9Tw==

> <s_epik_cmdline>
J2VwaWtfcHl0aG9uJywgJy1waCcsICc3LjAnLCAnLXRuJywgJzgnLCAnLW1hJywgJzIwMCcsICctbWV0YWxfYmluZGluZycsICctaW1hZScsICc8aW5maWxlLm1hZT4nLCAnLW9tYWUnLCAnPG91dGZpbGUubWFlPic=

> <r_epik_Ionization_Penalty>
0.0673264

> <r_epik_Ionization_Penalty_Charging>
0.00196754

> <r_epik_Ionization_Penalty_Neutral>
0.0653589

> <r_epik_State_Penalty>
0.0569931

> <r_epik_Charging_Adjusted_Penalty>
0.0589607

> <i_epik_Tot_Q>
-1

> <i_epik_Tot_abs_Q>
1

> <r_epik_Metal_State_Penalty>
0.0511714

> <b_epik_Metal_Only>
0

> <s_lp_Force_Field>
OPLS_2005

> <r_lp_Energy>
33.2875

> <b_lp_Chiralities_Consistent>
1

> <s_lp_Variant>
AV-unprocessed.smi:333-1

> <Gold.Version>
5.8.1

> <Gold.Id.Protein>
6NUR|6NUR_protein|mol2

> <Gold.PLP.Fitness>
38.9441

> <Gold.PLP.PLP>
-33.6972

> <Gold.PLP.part.hbond>
-4.7960

> <Gold.PLP.part.metal>
0.0000

> <Gold.PLP.part.buried>
-4.5056

> <Gold.PLP.part.nonpolar>
-24.9682

> <Gold.PLP.part.repulsive>
0.4138

> <Gold.PLP.ligand.clash>
4.3316

> <Gold.PLP.ligand.torsion>
1.8267

> <Gold.PLP.Chemscore.Hbond>
2.9590

> <Gold.PLP.Chemscore.CHOScore>
0.0000

> <Gold.PLP.Chemscore.Metal>
0.0000

> <Gold.Chemscore.Hbonds>
donor molecule, donor type, donor heavy atom, donor atom, acceptor molecule, acceptor atom, score
      L1  H     1    19       P1 10747  0.98
      L1  H     9    25       P1  7921  0.99
      P1  H 10192 10197       L1     9  0.93

> <Gold.PLP.Chemscore.Internal.Correction>
4.3550

> <Gold.Rescore>
     Score         DG    S(hbond)    S(metal)    S(lipo)     H(rot)  DE(clash)    DE(int)     intcor
     11.38     -13.97       2.22        0.00      55.26       2.11       0.14       2.46       ----

> <Gold.Chemscore.Fitness>
11.3784

> <Gold.Chemscore.DG>
-13.9737

> <Gold.Chemscore.ZeroCoef>
-5.4800

> <Gold.Chemscore.Hbond>
2.2234

> <Gold.Chemscore.Metal>
0.0000

> <Gold.Chemscore.Lipo>
55.2579

> <Gold.Chemscore.Internal_Hbond>
0.0000

> <Gold.Chemscore.DEClash>
0.1390

> <Gold.Chemscore.DEInternal>
2.4563

> <Gold.Chemscore.Rot>
2.1084

> <Gold.Chemscore.Internal.Correction>
   9.000000E+99

> <Gold.Chemscore.Hbonds>
donor molecule, donor type, donor heavy atom, donor atom, acceptor molecule, acceptor atom, score
      L1  H     1    19       P1 10747  0.92
      L1  H     9    25       P1  7921  0.91
      P1  H 10192 10197       L1     9  0.20

> <Gold.Chemscore.Hbond.Weighted>
-7.4261

> <Gold.Chemscore.Metal.Weighted>
-0.0000

> <Gold.Chemscore.Lipo.Weighted>
-6.4652

> <Gold.Chemscore.Internal_Hbond.Weighted>
0.0000

> <Gold.Chemscore.DEClash.Weighted>
0.1390

> <Gold.Chemscore.DEInternal.Weighted>
2.4563

> <Gold.Chemscore.Rot.Weighted>
5.3976

> <Gold.Chemscore.Internal.Correction.Weighted>
   9.000000E+99

> <Gold.Protein.RotatedTorsions>
[ 6907 6896 6895 6894 ] final -139.75 input  -60.11 | X-H torsion
[ 7974 7965 7964 7962 ] final   30.13 input  175.53 | X-H torsion
[ 8008 7997 7996 7995 ] final   66.40 input   59.86 | X-H torsion
[ 10167 10162 10161 10158 ] final  -58.86 input  -65.29 | X-H torsion
[ 10718 10713 10712 10709 ] final  120.33 input   66.30 | X-H torsion
[ 10763 10752 10751 10750 ] final -118.45 input  -60.55 | X-H torsion
[ 11005 11000 10999 10996 ] final  106.75 input  -57.11 | X-H torsion

> <Gold.Protein.ActiveResidues>
 VAL166  LYS551  ARG553  GLY616  TRP617  ASP618  TYR619  PRO620  LYS621  CYS622 
 ASP623  PHE694  ASN695  SER759  ASP760  ASP761  ALA762  ILE779  LEU786  VAL792 
 PHE793  MET794  SER795  GLU796  ALA797  LYS798  CYS799  TRP800  GLU811  SER814 

> <Gold.Protein.RotatedAtoms>
  151.0518  133.5618  159.2641 H   0  0  0  0  0  0  0  0  0  0  0  0  # atno 6907 bound_to 6896
  151.2626  135.0658  159.9114 H   0  0  0  0  0  0  0  0  0  0  0  0  # atno 6908 bound_to 6896
  152.5383  134.0261  159.8057 H   0  0  0  0  0  0  0  0  0  0  0  0  # atno 6909 bound_to 6896
  146.1630  139.6830  142.9020 H   0  0  0  0  0  0  0  0  0  0  0  0  # atno 7974 bound_to 7965
  155.6768  140.3497  155.4839 H   0  0  0  0  0  0  0  0  0  0  0  0  # atno 8008 bound_to 7997
  155.9641  140.1143  157.0892 H   0  0  0  0  0  0  0  0  0  0  0  0  # atno 8009 bound_to 7997
  154.4150  140.1170  156.5205 H   0  0  0  0  0  0  0  0  0  0  0  0  # atno 8010 bound_to 7997
  140.6171  143.2406  151.5571 H   0  0  0  0  0  0  0  0  0  0  0  0  # atno 10167 bound_to 10162
  157.5898  131.1065  150.8020 H   0  0  0  0  0  0  0  0  0  0  0  0  # atno 10718 bound_to 10713
  154.8587  135.4273  154.2140 H   0  0  0  0  0  0  0  0  0  0  0  0  # atno 10763 bound_to 10752
  153.3159  135.6979  153.7079 H   0  0  0  0  0  0  0  0  0  0  0  0  # atno 10764 bound_to 10752
  153.6153  135.3512  155.2966 H   0  0  0  0  0  0  0  0  0  0  0  0  # atno 10765 bound_to 10752
  139.8818  134.9379  156.5714 H   0  0  0  0  0  0  0  0  0  0  0  0  # atno 11005 bound_to 11000
  145.4539  141.0429  143.2789 LP  0  0  0  0  0  0  0  0  0  0  0  0  # atno 17320 bound_to 7965
  144.8054  139.6062  143.7053 LP  0  0  0  0  0  0  0  0  0  0  0  0  # atno 17321 bound_to 7965
  139.5407  144.2654  152.1345 LP  0  0  0  0  0  0  0  0  0  0  0  0  # atno 17342 bound_to 10162
  140.1866  144.4792  150.6500 LP  0  0  0  0  0  0  0  0  0  0  0  0  # atno 17343 bound_to 10162
  156.8445  130.5059  149.5318 LP  0  0  0  0  0  0  0  0  0  0  0  0  # atno 17370 bound_to 10713
  156.0952  130.5926  150.9801 LP  0  0  0  0  0  0  0  0  0  0  0  0  # atno 17371 bound_to 10713
  140.8095  133.8440  155.8798 LP  0  0  0  0  0  0  0  0  0  0  0  0  # atno 17394 bound_to 11000
  140.9519  134.1768  157.4721 LP  0  0  0  0  0  0  0  0  0  0  0  0  # atno 17395 bound_to 11000

$$$$
