AV-unprocessed.smi:148|AV-procd|sdf|1206|dock2
  -GOLD-   2262018373D 1   1.00000     0.00000
 Structure written by MMmdl.
 63 67  0  0  0  0  0  0  0  0  1 V2000
  147.9018  132.0715  161.1672 O   0  0  0  0  0  0  0  0  0  0  0  0
  148.3058  132.6000  159.9213 C   0  0  0  0  0  0  0  0  0  0  0  0
  147.6160  133.9543  159.6343 C   0  0  2  0  0  0  0  0  0  0  0  0
  147.8071  134.3879  158.1570 C   0  0  0  0  0  0  0  0  0  0  0  0
  147.5413  133.3125  157.2181 N   0  0  0  0  0  0  0  0  0  0  0  0
  146.6484  132.2757  157.3775 C   0  0  0  0  0  0  0  0  0  0  0  0
  146.5813  131.4397  156.3772 N   0  0  0  0  0  0  0  0  0  0  0  0
  147.5051  131.9346  155.4662 C   0  0  0  0  0  0  0  0  0  0  0  0
  147.9209  131.5374  154.1690 C   0  0  0  0  0  0  0  0  0  0  0  0
  147.3923  130.4591  153.5509 N   0  0  0  0  0  0  0  0  0  0  0  0
  148.2052  129.2733  153.8313 C   0  0  0  0  0  0  0  0  0  0  0  0
  147.4800  127.9883  153.4214 C   0  0  0  0  0  0  0  0  0  0  0  0
  147.0821  128.0657  151.9469 C   0  0  0  0  0  0  0  0  0  0  0  0
  146.2409  129.3243  151.6984 C   0  0  0  0  0  0  0  0  0  0  0  0
  146.9596  130.6274  152.1470 C   0  0  1  0  0  0  0  0  0  0  0  0
  146.0347  131.8724  151.9032 C   0  0  1  0  0  0  0  0  0  0  0  0
  146.6970  133.2672  151.9815 C   0  0  0  0  0  0  0  0  0  0  0  0
  145.8421  134.2245  151.1385 C   0  0  0  0  0  0  0  0  0  0  0  0
  144.7917  133.3563  150.4422 C   0  0  0  0  0  0  0  0  0  0  0  0
  145.3319  131.9288  150.5293 C   0  0  1  0  0  0  0  0  0  0  0  0
  146.2501  131.7321  149.4679 O   0  0  0  0  0  0  0  0  0  0  0  0
  148.8771  132.2782  153.5482 N   0  0  0  0  0  0  0  0  0  0  0  0
  149.3867  133.3520  154.1601 C   0  0  0  0  0  0  0  0  0  0  0  0
  149.0852  133.8510  155.3615 N   0  0  0  0  0  0  0  0  0  0  0  0
  148.1277  133.1039  155.9830 C   0  0  0  0  0  0  0  0  0  0  0  0
  148.0360  135.0471  160.6559 C   0  0  2  0  0  0  0  0  0  0  0  0
  147.4277  134.9202  162.0537 C   0  0  0  0  0  0  0  0  0  0  0  0
  146.9619  136.3380  162.3909 C   0  0  0  0  0  0  0  0  0  0  0  0
  147.6983  137.1705  161.5091 O   0  0  0  0  0  0  0  0  0  0  0  0
  147.7421  136.4997  160.2613 C   0  0  0  0  0  0  0  0  0  0  0  0
  147.0650  132.4462  161.3959 H   0  0  0  0  0  0  0  0  0  0  0  0
  149.3909  132.7048  159.9071 H   0  0  0  0  0  0  0  0  0  0  0  0
  148.0491  131.8593  159.1644 H   0  0  0  0  0  0  0  0  0  0  0  0
  146.5462  133.7970  159.7805 H   0  0  0  0  0  0  0  0  0  0  0  0
  147.1501  135.2167  157.8972 H   0  0  0  0  0  0  0  0  0  0  0  0
  148.8251  134.7375  157.9871 H   0  0  0  0  0  0  0  0  0  0  0  0
  146.0348  132.1651  158.2597 H   0  0  0  0  0  0  0  0  0  0  0  0
  149.1515  129.3447  153.2926 H   0  0  0  0  0  0  0  0  0  0  0  0
  148.4473  129.2279  154.8946 H   0  0  0  0  0  0  0  0  0  0  0  0
  148.1210  127.1235  153.5944 H   0  0  0  0  0  0  0  0  0  0  0  0
  146.5921  127.8509  154.0400 H   0  0  0  0  0  0  0  0  0  0  0  0
  147.9754  128.0892  151.3216 H   0  0  0  0  0  0  0  0  0  0  0  0
  146.5218  127.1750  151.6610 H   0  0  0  0  0  0  0  0  0  0  0  0
  145.9967  129.3521  150.6378 H   0  0  0  0  0  0  0  0  0  0  0  0
  145.2922  129.2311  152.2291 H   0  0  0  0  0  0  0  0  0  0  0  0
  147.8578  130.7404  151.5378 H   0  0  0  0  0  0  0  0  0  0  0  0
  145.2422  131.8447  152.6534 H   0  0  0  0  0  0  0  0  0  0  0  0
  146.7725  133.6412  153.0004 H   0  0  0  0  0  0  0  0  0  0  0  0
  147.7070  133.2275  151.5715 H   0  0  0  0  0  0  0  0  0  0  0  0
  145.3693  134.9906  151.7540 H   0  0  0  0  0  0  0  0  0  0  0  0
  146.4677  134.7348  150.4053 H   0  0  0  0  0  0  0  0  0  0  0  0
  143.8531  133.4181  150.9947 H   0  0  0  0  0  0  0  0  0  0  0  0
  144.5874  133.6779  149.4200 H   0  0  0  0  0  0  0  0  0  0  0  0
  144.5250  131.1998  150.4453 H   0  0  0  0  0  0  0  0  0  0  0  0
  147.0364  131.3435  149.8192 H   0  0  0  0  0  0  0  0  0  0  0  0
  150.1405  133.8915  153.6058 H   0  0  0  0  0  0  0  0  0  0  0  0
  149.1149  134.9786  160.8016 H   0  0  0  0  0  0  0  0  0  0  0  0
  146.6055  134.2081  162.1175 H   0  0  0  0  0  0  0  0  0  0  0  0
  148.1904  134.5904  162.7605 H   0  0  0  0  0  0  0  0  0  0  0  0
  145.8964  136.4509  162.1848 H   0  0  0  0  0  0  0  0  0  0  0  0
  147.1380  136.6026  163.4337 H   0  0  0  0  0  0  0  0  0  0  0  0
  148.5078  136.9200  159.6089 H   0  0  0  0  0  0  0  0  0  0  0  0
  146.7760  136.6154  159.7710 H   0  0  0  0  0  0  0  0  0  0  0  0
  1  2  1  0  0  0  0
  1 31  1  0  0  0  0
  2  3  1  0  0  0  0
  2 32  1  0  0  0  0
  2 33  1  0  0  0  0
  3  4  1  0  0  0  0
  3 26  1  0  0  0  0
  3 34  1  0  0  0  0
  4  5  1  0  0  0  0
  4 35  1  0  0  0  0
  4 36  1  0  0  0  0
  5 25  1  0  0  0  0
  5  6  1  0  0  0  0
  6  7  2  0  0  0  0
  6 37  1  0  0  0  0
  7  8  1  0  0  0  0
  8 25  2  0  0  0  0
  8  9  1  0  0  0  0
  9 10  1  0  0  0  0
  9 22  2  0  0  0  0
 10 15  1  0  0  0  0
 10 11  1  0  0  0  0
 11 12  1  0  0  0  0
 11 38  1  0  0  0  0
 11 39  1  0  0  0  0
 12 13  1  0  0  0  0
 12 40  1  0  0  0  0
 12 41  1  0  0  0  0
 13 14  1  0  0  0  0
 13 42  1  0  0  0  0
 13 43  1  0  0  0  0
 14 15  1  0  0  0  0
 14 44  1  0  0  0  0
 14 45  1  0  0  0  0
 15 16  1  0  0  0  0
 15 46  1  0  0  0  0
 16 20  1  0  0  0  0
 16 17  1  0  0  0  0
 16 47  1  0  0  0  0
 17 18  1  0  0  0  0
 17 48  1  0  0  0  0
 17 49  1  0  0  0  0
 18 19  1  0  0  0  0
 18 50  1  0  0  0  0
 18 51  1  0  0  0  0
 19 20  1  0  0  0  0
 19 52  1  0  0  0  0
 19 53  1  0  0  0  0
 20 21  1  0  0  0  0
 20 54  1  0  0  0  0
 21 55  1  0  0  0  0
 22 23  1  0  0  0  0
 23 24  2  0  0  0  0
 23 56  1  0  0  0  0
 24 25  1  0  0  0  0
 26 30  1  0  0  0  0
 26 27  1  0  0  0  0
 26 57  1  0  0  0  0
 27 28  1  0  0  0  0
 27 58  1  0  0  0  0
 27 59  1  0  0  0  0
 28 29  1  0  0  0  0
 28 60  1  0  0  0  0
 28 61  1  0  0  0  0
 29 30  1  0  0  0  0
 30 62  1  0  0  0  0
 30 63  1  0  0  0  0
M  END
> <s_m_source_file>
AV-unprocessed.smi

> <i_m_source_file_index>
148

> <i_lp_mmshare_version>
43012

> <i_f3d_flags>
0

> <s_epik_input>
W0NIMl0xT1tDSDJdW0NIMl1bQ0BIXTFbQ0BIXShbQ0gyXVtPSF0pW0NIMl1uKFtjSF1uMiljKGMyMyluW2NIXW5jM040W0NIMl1bQ0gyXVtDSDJdW0NIMl1bQ0BIXTRbQ0BASF01W0NIMl1bQ0gyXVtDSDJdW0NASF01W09IXQ==

> <s_epik_cmdline>
J2VwaWtfcHl0aG9uJywgJy1waCcsICc3LjAnLCAnLXRuJywgJzgnLCAnLW1hJywgJzIwMCcsICctbWV0YWxfYmluZGluZycsICctaW1hZScsICc8aW5maWxlLm1hZT4nLCAnLW9tYWUnLCAnPG91dGZpbGUubWFlPic=

> <r_lp_tautomer_probability>
1

> <r_epik_Ionization_Penalty>
0.00556303

> <r_epik_Ionization_Penalty_Charging>
0

> <r_epik_Ionization_Penalty_Neutral>
0.00556303

> <r_epik_State_Penalty>
0.00401767

> <r_epik_Charging_Adjusted_Penalty>
0.00401767

> <i_epik_Tot_Q>
0

> <i_epik_Tot_abs_Q>
0

> <r_epik_Metal_State_Penalty>
-0

> <b_epik_Metal_Only>
0

> <s_lp_Force_Field>
OPLS_2005

> <r_lp_Energy>
71.7906

> <b_lp_Chiralities_Consistent>
1

> <s_lp_Variant>
AV-unprocessed.smi:148-5

> <Gold.Version>
5.8.1

> <Gold.Id.Protein>
6NUR|6NUR_protein|mol2

> <Gold.PLP.Fitness>
49.7484

> <Gold.PLP.PLP>
-43.4335

> <Gold.PLP.part.hbond>
-3.0000

> <Gold.PLP.part.metal>
0.0000

> <Gold.PLP.part.buried>
-6.3944

> <Gold.PLP.part.nonpolar>
-34.6751

> <Gold.PLP.part.repulsive>
0.3528

> <Gold.PLP.ligand.clash>
0.0000

> <Gold.PLP.ligand.torsion>
1.4889

> <Gold.PLP.Chemscore.Hbond>
2.8001

> <Gold.PLP.Chemscore.CHOScore>
0.0000

> <Gold.PLP.Chemscore.Metal>
0.0000

> <Gold.Chemscore.Hbonds>
donor molecule, donor type, donor heavy atom, donor atom, acceptor molecule, acceptor atom, score
      L1  H    21    55       P1 10747  0.99
      P1  H  6931  6943       L1    29  1.00
      P1  H  6934  6947       L1    29  0.77

> <Gold.PLP.Chemscore.Internal.Correction>
0.8924

> <Gold.Rescore>
     Score         DG    S(hbond)    S(metal)    S(lipo)     H(rot)  DE(clash)    DE(int)     intcor
     14.34     -18.94       2.55        0.00     114.93       3.32       1.32       3.28       ----

> <Gold.Chemscore.Fitness>
14.3403

> <Gold.Chemscore.DG>
-18.9443

> <Gold.Chemscore.ZeroCoef>
-5.4800

> <Gold.Chemscore.Hbond>
2.5501

> <Gold.Chemscore.Metal>
0.0000

> <Gold.Chemscore.Lipo>
114.9309

> <Gold.Chemscore.Internal_Hbond>
0.0000

> <Gold.Chemscore.DEClash>
1.3197

> <Gold.Chemscore.DEInternal>
3.2843

> <Gold.Chemscore.Rot>
3.3203

> <Gold.Chemscore.Internal.Correction>
   9.000000E+99

> <Gold.Chemscore.Hbonds>
donor molecule, donor type, donor heavy atom, donor atom, acceptor molecule, acceptor atom, score
      L1  H    21    55       P1 10747  0.92
      P1  H  6931  6943       L1    29  0.91
      P1  H  6934  6947       L1    29  0.26

> <Gold.Chemscore.Hbond.Weighted>
-8.5174

> <Gold.Chemscore.Metal.Weighted>
-0.0000

> <Gold.Chemscore.Lipo.Weighted>
-13.4469

> <Gold.Chemscore.Internal_Hbond.Weighted>
0.0000

> <Gold.Chemscore.DEClash.Weighted>
1.3197

> <Gold.Chemscore.DEInternal.Weighted>
3.2843

> <Gold.Chemscore.Rot.Weighted>
8.5000

> <Gold.Chemscore.Internal.Correction.Weighted>
   9.000000E+99

> <Gold.Protein.RotatedTorsions>
[ 6907 6896 6895 6894 ] final -142.88 input  -60.11 | X-H torsion
[ 7974 7965 7964 7962 ] final  123.54 input  175.53 | X-H torsion
[ 8008 7997 7996 7995 ] final -103.50 input   59.86 | X-H torsion
[ 10167 10162 10161 10158 ] final  110.03 input  -65.29 | X-H torsion
[ 10718 10713 10712 10709 ] final -153.57 input   66.30 | X-H torsion
[ 10763 10752 10751 10750 ] final -157.46 input  -60.55 | X-H torsion
[ 11005 11000 10999 10996 ] final -121.03 input  -57.11 | X-H torsion

> <Gold.Protein.ActiveResidues>
 VAL166  LYS551  ARG553  GLY616  TRP617  ASP618  TYR619  PRO620  LYS621  CYS622 
 ASP623  PHE694  ASN695  SER759  ASP760  ASP761  ALA762  ILE779  LEU786  VAL792 
 PHE793  MET794  SER795  GLU796  ALA797  LYS798  CYS799  TRP800  GLU811  SER814 

> <Gold.Protein.RotatedAtoms>
  151.0929  133.5302  159.2613 H   0  0  0  0  0  0  0  0  0  0  0  0  # atno 6907 bound_to 6896
  151.2162  135.0500  159.8941 H   0  0  0  0  0  0  0  0  0  0  0  0  # atno 6908 bound_to 6896
  152.5436  134.0738  159.8259 H   0  0  0  0  0  0  0  0  0  0  0  0  # atno 6909 bound_to 6896
  145.0947  139.3561  143.4842 H   0  0  0  0  0  0  0  0  0  0  0  0  # atno 7974 bound_to 7965
  154.8718  140.0422  157.1729 H   0  0  0  0  0  0  0  0  0  0  0  0  # atno 8008 bound_to 7997
  154.8731  140.2961  155.5449 H   0  0  0  0  0  0  0  0  0  0  0  0  # atno 8009 bound_to 7997
  156.2999  140.2425  156.3722 H   0  0  0  0  0  0  0  0  0  0  0  0  # atno 8010 bound_to 7997
  139.6720  144.7124  151.1670 H   0  0  0  0  0  0  0  0  0  0  0  0  # atno 10167 bound_to 10162
  156.4876  130.8332  151.2557 H   0  0  0  0  0  0  0  0  0  0  0  0  # atno 10718 bound_to 10713
  154.7634  135.3124  154.8334 H   0  0  0  0  0  0  0  0  0  0  0  0  # atno 10763 bound_to 10752
  153.9089  135.6808  153.4756 H   0  0  0  0  0  0  0  0  0  0  0  0  # atno 10764 bound_to 10752
  153.1237  135.4811  154.9169 H   0  0  0  0  0  0  0  0  0  0  0  0  # atno 10765 bound_to 10752
  141.0100  134.0278  157.3426 H   0  0  0  0  0  0  0  0  0  0  0  0  # atno 11005 bound_to 11000
  146.3531  140.0797  142.8618 LP  0  0  0  0  0  0  0  0  0  0  0  0  # atno 17320 bound_to 7965
  145.1025  140.9354  143.4704 LP  0  0  0  0  0  0  0  0  0  0  0  0  # atno 17321 bound_to 7965
  140.7621  143.5829  150.8876 LP  0  0  0  0  0  0  0  0  0  0  0  0  # atno 17342 bound_to 10162
  139.9495  143.6288  152.3033 LP  0  0  0  0  0  0  0  0  0  0  0  0  # atno 17343 bound_to 10162
  157.7477  131.0024  150.3000 LP  0  0  0  0  0  0  0  0  0  0  0  0  # atno 17370 bound_to 10713
  156.3459  130.3823  149.7370 LP  0  0  0  0  0  0  0  0  0  0  0  0  # atno 17371 bound_to 10713
  139.9085  135.0185  156.7589 LP  0  0  0  0  0  0  0  0  0  0  0  0  # atno 17394 bound_to 11000
  140.6749  133.9526  155.7877 LP  0  0  0  0  0  0  0  0  0  0  0  0  # atno 17395 bound_to 11000

$$$$
