AV-unprocessed.smi:332|AV-procd|sdf|2358|dock9
  -GOLD-   2262022273D 1   1.00000     0.00000
 Structure written by MMmdl.
 42 44  0  0  0  0  0  0  0  0  1 V2000
  150.5132  137.7643  158.8569 C   0  0  0  0  0  0  0  0  0  0  0  0
  151.1211  138.9687  158.1159 C   0  0  2  0  0  0  0  0  0  0  0  0
  151.5953  139.9379  159.1019 N   0  0  0  0  0  0  0  0  0  0  0  0
  152.8730  140.3020  159.2893 C   0  0  0  0  0  0  0  0  0  0  0  0
  153.8149  139.8180  158.6605 O   0  0  0  0  0  0  0  0  0  0  0  0
  153.1171  141.3640  160.3702 C   0  0  0  0  0  0  0  0  0  0  0  0
  152.7581  142.7229  159.9321 N   0  0  0  0  0  0  0  0  0  0  0  0
  152.6360  142.9401  158.5450 C   0  0  0  0  0  0  0  0  0  0  0  0
  152.3126  144.1412  158.0402 C   0  0  0  0  0  0  0  0  0  0  0  0
  152.0869  145.2303  158.9610 C   0  0  0  0  0  0  0  0  0  0  0  0
  152.1980  145.0327  160.2899 C   0  0  0  0  0  0  0  0  0  0  0  0
  152.5501  143.7209  160.8461 C   0  0  0  0  0  0  0  0  0  0  0  0
  152.6524  143.5308  162.0587 O   0  0  0  0  0  0  0  0  0  0  0  0
  150.1172  139.6577  157.1583 C   0  0  1  0  0  0  0  0  0  0  0  0
  150.7433  140.7984  156.3153 C   0  0  0  0  0  0  0  0  0  0  0  0
  150.3741  140.4182  154.8710 C   0  0  2  0  0  0  0  0  0  0  0  0
  148.8579  140.5853  154.6639 C   0  0  0  0  0  0  0  0  0  0  0  0
  148.2765  139.4033  155.4617 C   0  0  0  0  0  0  0  0  0  0  0  0
  149.5351  138.7395  156.0534 C   0  0  1  0  0  0  0  0  0  0  0  0
  150.5283  138.9041  154.9072 C   0  0  0  0  0  0  0  0  0  0  0  0
  150.2165  136.9724  158.1705 H   0  0  0  0  0  0  0  0  0  0  0  0
  149.6330  138.0550  159.4314 H   0  0  0  0  0  0  0  0  0  0  0  0
  151.2323  137.3282  159.5513 H   0  0  0  0  0  0  0  0  0  0  0  0
  151.9684  138.6149  157.5259 H   0  0  0  0  0  0  0  0  0  0  0  0
  150.8907  140.3850  159.6704 H   0  0  0  0  0  0  0  0  0  0  0  0
  152.5599  141.1050  161.2728 H   0  0  0  0  0  0  0  0  0  0  0  0
  154.1678  141.3166  160.6597 H   0  0  0  0  0  0  0  0  0  0  0  0
  152.8138  142.0733  157.9251 H   0  0  0  0  0  0  0  0  0  0  0  0
  152.2204  144.2877  156.9738 H   0  0  0  0  0  0  0  0  0  0  0  0
  151.8261  146.2079  158.5825 H   0  0  0  0  0  0  0  0  0  0  0  0
  152.0247  145.8590  160.9637 H   0  0  0  0  0  0  0  0  0  0  0  0
  149.3020  140.0604  157.7619 H   0  0  0  0  0  0  0  0  0  0  0  0
  150.3615  141.7803  156.5978 H   0  0  0  0  0  0  0  0  0  0  0  0
  151.8290  140.8264  156.4190 H   0  0  0  0  0  0  0  0  0  0  0  0
  150.9779  140.9252  154.1179 H   0  0  0  0  0  0  0  0  0  0  0  0
  148.4969  141.5494  155.0241 H   0  0  0  0  0  0  0  0  0  0  0  0
  148.5960  140.5014  153.6084 H   0  0  0  0  0  0  0  0  0  0  0  0
  147.5701  139.7230  156.2286 H   0  0  0  0  0  0  0  0  0  0  0  0
  147.7540  138.7150  154.7961 H   0  0  0  0  0  0  0  0  0  0  0  0
  149.3617  137.7084  156.3586 H   0  0  0  0  0  0  0  0  0  0  0  0
  150.2100  138.4151  153.9847 H   0  0  0  0  0  0  0  0  0  0  0  0
  151.5396  138.5768  155.1533 H   0  0  0  0  0  0  0  0  0  0  0  0
  1  2  1  0  0  0  0
  1 21  1  0  0  0  0
  1 22  1  0  0  0  0
  1 23  1  0  0  0  0
  2  3  1  0  0  0  0
  2 14  1  0  0  0  0
  2 24  1  0  0  0  0
  3  4  1  0  0  0  0
  3 25  1  0  0  0  0
  4  5  2  0  0  0  0
  4  6  1  0  0  0  0
  6  7  1  0  0  0  0
  6 26  1  0  0  0  0
  6 27  1  0  0  0  0
  7 12  1  0  0  0  0
  7  8  1  0  0  0  0
  8  9  2  0  0  0  0
  8 28  1  0  0  0  0
  9 10  1  0  0  0  0
  9 29  1  0  0  0  0
 10 11  2  0  0  0  0
 10 30  1  0  0  0  0
 11 12  1  0  0  0  0
 11 31  1  0  0  0  0
 12 13  2  0  0  0  0
 14 19  1  0  0  0  0
 14 15  1  0  0  0  0
 14 32  1  0  0  0  0
 15 16  1  0  0  0  0
 15 33  1  0  0  0  0
 15 34  1  0  0  0  0
 16 20  1  0  0  0  0
 16 17  1  0  0  0  0
 16 35  1  0  0  0  0
 17 18  1  0  0  0  0
 17 36  1  0  0  0  0
 17 37  1  0  0  0  0
 18 19  1  0  0  0  0
 18 38  1  0  0  0  0
 18 39  1  0  0  0  0
 19 20  1  0  0  0  0
 19 40  1  0  0  0  0
 20 41  1  0  0  0  0
 20 42  1  0  0  0  0
M  END
> <s_m_source_file>
AV-unprocessed.smi

> <i_m_source_file_index>
332

> <i_lp_mmshare_version>
43012

> <i_f3d_flags>
0

> <s_epik_input>
W0NIMl0xW0NIMl1bQ0BIXShbQ0gyXTIpW0NAQEhdKFtDSDJdW0NAQEhdMTIpW0NASF0oW0NIM10pW05IXUMoPU8pW0NIMl1uM1tjSF1bY0hdW2NIXVtjSF1jMz1P

> <s_epik_cmdline>
J2VwaWtfcHl0aG9uJywgJy1waCcsICc3LjAnLCAnLXRuJywgJzgnLCAnLW1hJywgJzIwMCcsICctbWV0YWxfYmluZGluZycsICctaW1hZScsICc8aW5maWxlLm1hZT4nLCAnLW9tYWUnLCAnPG91dGZpbGUubWFlPic=

> <r_lp_tautomer_probability>
1

> <r_epik_Ionization_Penalty>
4.05802e-07

> <r_epik_Ionization_Penalty_Charging>
3.84175e-07

> <r_epik_Ionization_Penalty_Neutral>
2.16269e-08

> <r_epik_State_Penalty>
-0

> <r_epik_Charging_Adjusted_Penalty>
3.84175e-07

> <i_epik_Tot_Q>
0

> <i_epik_Tot_abs_Q>
0

> <r_epik_Metal_State_Penalty>
-0

> <b_epik_Metal_Only>
0

> <s_lp_Force_Field>
OPLS_2005

> <r_lp_Energy>
59.8508

> <b_lp_Chiralities_Consistent>
1

> <s_lp_Variant>
AV-unprocessed.smi:332-7

> <Gold.Version>
5.8.1

> <Gold.Id.Protein>
6NUR|6NUR_protein|mol2

> <Gold.PLP.Fitness>
46.1683

> <Gold.PLP.PLP>
-44.1031

> <Gold.PLP.part.hbond>
-1.0000

> <Gold.PLP.part.metal>
0.0000

> <Gold.PLP.part.buried>
-2.6969

> <Gold.PLP.part.nonpolar>
-40.1578

> <Gold.PLP.part.repulsive>
0.3250

> <Gold.PLP.ligand.clash>
0.0000

> <Gold.PLP.ligand.torsion>
0.4770

> <Gold.PLP.Chemscore.Hbond>
1.0000

> <Gold.PLP.Chemscore.CHOScore>
0.0000

> <Gold.PLP.Chemscore.Metal>
0.0000

> <Gold.Chemscore.Hbonds>
donor molecule, donor type, donor heavy atom, donor atom, acceptor molecule, acceptor atom, score
      P1  H  7997  8008       L1     5  1.00

> <Gold.PLP.Chemscore.Internal.Correction>
0.0193

> <Gold.Rescore>
     Score         DG    S(hbond)    S(metal)    S(lipo)     H(rot)  DE(clash)    DE(int)     intcor
     15.87     -16.40       0.99        0.00      98.82       1.54       0.10       0.43       ----

> <Gold.Chemscore.Fitness>
15.8731

> <Gold.Chemscore.DG>
-16.4015

> <Gold.Chemscore.ZeroCoef>
-5.4800

> <Gold.Chemscore.Hbond>
0.9886

> <Gold.Chemscore.Metal>
0.0000

> <Gold.Chemscore.Lipo>
98.8162

> <Gold.Chemscore.Internal_Hbond>
0.0000

> <Gold.Chemscore.DEClash>
0.0998

> <Gold.Chemscore.DEInternal>
0.4286

> <Gold.Chemscore.Rot>
1.5398

> <Gold.Chemscore.Internal.Correction>
   9.000000E+99

> <Gold.Chemscore.Hbonds>
donor molecule, donor type, donor heavy atom, donor atom, acceptor molecule, acceptor atom, score
      P1  H  7997  8008       L1     5  0.99

> <Gold.Chemscore.Hbond.Weighted>
-3.3019

> <Gold.Chemscore.Metal.Weighted>
-0.0000

> <Gold.Chemscore.Lipo.Weighted>
-11.5615

> <Gold.Chemscore.Internal_Hbond.Weighted>
0.0000

> <Gold.Chemscore.DEClash.Weighted>
0.0998

> <Gold.Chemscore.DEInternal.Weighted>
0.4286

> <Gold.Chemscore.Rot.Weighted>
3.9419

> <Gold.Chemscore.Internal.Correction.Weighted>
   9.000000E+99

> <Gold.Protein.RotatedTorsions>
[ 6907 6896 6895 6894 ] final    1.91 input  -60.11 | X-H torsion
[ 7974 7965 7964 7962 ] final -144.69 input  175.53 | X-H torsion
[ 8008 7997 7996 7995 ] final  -96.24 input   59.86 | X-H torsion
[ 10167 10162 10161 10158 ] final  113.32 input  -65.29 | X-H torsion
[ 10718 10713 10712 10709 ] final   79.35 input   66.30 | X-H torsion
[ 10763 10752 10751 10750 ] final  111.23 input  -60.55 | X-H torsion
[ 11005 11000 10999 10996 ] final  112.36 input  -57.11 | X-H torsion

> <Gold.Protein.ActiveResidues>
 VAL166  LYS551  ARG553  GLY616  TRP617  ASP618  TYR619  PRO620  LYS621  CYS622 
 ASP623  PHE694  ASN695  SER759  ASP760  ASP761  ALA762  ILE779  LEU786  VAL792 
 PHE793  MET794  SER795  GLU796  ALA797  LYS798  CYS799  TRP800  GLU811  SER814 

> <Gold.Protein.RotatedAtoms>
  151.6003  135.1048  160.0058 H   0  0  0  0  0  0  0  0  0  0  0  0  # atno 6907 bound_to 6896
  152.4261  133.7194  159.6535 H   0  0  0  0  0  0  0  0  0  0  0  0  # atno 6908 bound_to 6896
  150.8150  133.8281  159.3187 H   0  0  0  0  0  0  0  0  0  0  0  0  # atno 6909 bound_to 6896
  144.8279  140.5678  143.5534 H   0  0  0  0  0  0  0  0  0  0  0  0  # atno 7974 bound_to 7965
  154.7719  140.0473  157.1058 H   0  0  0  0  0  0  0  0  0  0  0  0  # atno 8008 bound_to 7997
  154.9810  140.3101  155.4927 H   0  0  0  0  0  0  0  0  0  0  0  0  # atno 8009 bound_to 7997
  156.2922  140.2236  156.4909 H   0  0  0  0  0  0  0  0  0  0  0  0  # atno 8010 bound_to 7997
  139.6470  144.7127  151.2123 H   0  0  0  0  0  0  0  0  0  0  0  0  # atno 10167 bound_to 10162
  157.6774  130.9910  150.1919 H   0  0  0  0  0  0  0  0  0  0  0  0  # atno 10718 bound_to 10713
  153.4603  135.3723  155.2334 H   0  0  0  0  0  0  0  0  0  0  0  0  # atno 10763 bound_to 10752
  154.8757  135.3907  154.3932 H   0  0  0  0  0  0  0  0  0  0  0  0  # atno 10764 bound_to 10752
  153.4505  135.7085  153.6176 H   0  0  0  0  0  0  0  0  0  0  0  0  # atno 10765 bound_to 10752
  139.8925  134.9528  156.6574 H   0  0  0  0  0  0  0  0  0  0  0  0  # atno 11005 bound_to 11000
  145.4959  139.1486  143.3684 LP  0  0  0  0  0  0  0  0  0  0  0  0  # atno 17320 bound_to 7965
  146.2584  140.5098  142.8864 LP  0  0  0  0  0  0  0  0  0  0  0  0  # atno 17321 bound_to 7965
  140.7519  143.6214  150.8510 LP  0  0  0  0  0  0  0  0  0  0  0  0  # atno 17342 bound_to 10162
  139.9858  143.5901  152.2927 LP  0  0  0  0  0  0  0  0  0  0  0  0  # atno 17343 bound_to 10162
  156.2628  130.3713  149.8112 LP  0  0  0  0  0  0  0  0  0  0  0  0  # atno 17370 bound_to 10713
  156.5852  130.8483  151.3393 LP  0  0  0  0  0  0  0  0  0  0  0  0  # atno 17371 bound_to 10713
  140.7473  133.8927  155.8321 LP  0  0  0  0  0  0  0  0  0  0  0  0  # atno 17394 bound_to 11000
  141.0029  134.1126  157.4299 LP  0  0  0  0  0  0  0  0  0  0  0  0  # atno 17395 bound_to 11000

$$$$
