#       Name:                AV-unprocessed.smi:1800
#       Creating user name   scv26
#       Creation time:       Fri Mar 27 08:52:04 2020


#       File generated by GOLD software.
#

@<TRIPOS>MOLECULE
AV-unprocessed.smi:1800
    37    38     1
SMALL
NO_CHARGES


@<TRIPOS>ATOM
      1 ****        -2.7931  -2.0082  -1.7949 C.3            1 S1                 0.0000
      2 ****        -2.1254  -1.1208  -0.7354 C.3            1 S1                 0.0000
      3 ****        -2.3057  -1.6937   0.6937 C.3            1 S1                 0.0000
      4 ****        -1.8014  -0.8301   1.7584 N.pl3          1 S1                 0.0000
      5 ****        -2.3660   0.3173   2.2836 C.2            1 S1                 0.0000
      6 ****        -1.5341   0.7714   3.2663 C.2            1 S1                 0.0000
      7 ****        -0.4779  -0.1810   3.2810 C.2            1 S1                 0.0000
      8 ****        -0.6472  -1.1452   2.3918 N.2            1 S1                 0.0000
      9 ****        -0.7088  -0.9942  -1.0497 N.pl3          1 S1                -1.0000
     10 ****        -0.0599   0.4774  -1.2611 S.o2           1 S1                 0.0000
     11 ****        -0.4413   1.0676  -2.5544 O.2            1 S1                 0.0000
     12 ****        -0.2000   1.3363  -0.0732 O.2            1 S1                 0.0000
     13 ****         1.7400   0.0327  -1.3901 C.3            1 S1                 0.0000
     14 ****         2.3868  -0.1032  -0.0052 C.3            1 S1                 0.0000
     15 ****         2.9085   1.2923   0.3704 C.3            1 S1                 0.0000
     16 ****         2.8495   2.1384  -0.9100 C.3            1 S1                 0.0000
     17 ****         2.5523   1.1552  -2.0441 C.3            1 S1                 0.0000
     18 ****        -3.8602  -2.1134  -1.5987 H              1 S1                 0.0000
     19 ****        -2.3586  -3.0087  -1.8099 H              1 S1                 0.0000
     20 ****        -2.6843  -1.5809  -2.7926 H              1 S1                 0.0000
     21 ****        -2.6307  -0.1544  -0.7693 H              1 S1                 0.0000
     22 ****        -3.3658  -1.8613   0.8871 H              1 S1                 0.0000
     23 ****        -1.8262  -2.6711   0.7730 H              1 S1                 0.0000
     24 ****        -3.2977   0.7147   1.9091 H              1 S1                 0.0000
     25 ****        -1.6598   1.6514   3.8786 H              1 S1                 0.0000
     26 ****         0.3986  -0.2039   3.9114 H              1 S1                 0.0000
     27 ****         1.8114  -0.8871  -1.9710 H              1 S1                 0.0000
     28 ****         1.7011  -0.5063   0.7405 H              1 S1                 0.0000
     29 ****         3.2283  -0.7936  -0.0704 H              1 S1                 0.0000
     30 ****         2.2939   1.7424   1.1510 H              1 S1                 0.0000
     31 ****         3.9264   1.2283   0.7557 H              1 S1                 0.0000
     32 ****         2.0383   2.8634  -0.8324 H              1 S1                 0.0000
     33 ****         3.7699   2.6968  -1.0815 H              1 S1                 0.0000
     34 ****         3.4908   0.7455  -2.4194 H              1 S1                 0.0000
     35 ****         2.0479   1.6270  -2.8871 H              1 S1                 0.0000
     36 ****        -0.0540  -1.9327   2.2244 LP             1 S1                 0.0000
     37 ****        -0.1385  -1.8113  -1.1349 LP             1 S1                 0.0000
@<TRIPOS>BOND
    1    1    2 1     
    2    1   18 1     
    3    1   19 1     
    4    1   20 1     
    5    2    3 1     
    6    2    9 1     
    7    2   21 1     
    8    3    4 1     
    9    3   22 1     
   10    3   23 1     
   11    4    8 1     
   12    4    5 1     
   13    5    6 2     
   14    5   24 1     
   15    6    7 1     
   16    6   25 1     
   17    7    8 2     
   18    7   26 1     
   19    9   10 1     
   20   10   11 2     
   21   10   12 2     
   22   10   13 1     
   23   13   17 1     
   24   13   14 1     
   25   13   27 1     
   26   14   15 1     
   27   14   28 1     
   28   14   29 1     
   29   15   16 1     
   30   15   30 1     
   31   15   31 1     
   32   16   17 1     
   33   16   32 1     
   34   16   33 1     
   35   17   34 1     
   36   17   35 1     
   37    8   36 1     
   38    9   37 1     
@<TRIPOS>SUBSTRUCTURE
      1 S1             1
@<TRIPOS>SET
LONE_PAIRS      STATIC     ATOMS    <user>   **** ""
4 36 37 11 12
ATOM$BLUE        STATIC     ATOMS    COLORGROUP SYSTEM
4 36 37 11 12
