#       Name:                AV-unprocessed.smi:850
#       Creating user name   scv26
#       Creation time:       Fri Mar 27 01:41:55 2020


#       File generated by GOLD software.
#

@<TRIPOS>MOLECULE
AV-unprocessed.smi:850
    46    48     1
SMALL
NO_CHARGES


@<TRIPOS>ATOM
      1 ****        -2.2054   4.8498   1.1837 C.3            1 S1                 0.0000
      2 ****        -1.7601   3.6018   0.5753 N.am           1 S1                 0.0000
      3 ****        -1.2857   2.5066   1.2143 C.2            1 S1                 0.0000
      4 ****        -1.1452   2.3815   2.4308 O.2            1 S1                 0.0000
      5 ****        -0.9875   1.5733   0.2798 N.am           1 S1                 0.0000
      6 ****        -0.4266   0.2464   0.5247 C.3            1 S1                 0.0000
      7 ****         1.1041   0.2322   0.3383 C.3            1 S1                 0.0000
      8 ****         1.7484   0.7500   1.4844 O.3            1 S1                 0.0000
      9 ****         1.6666  -1.1751   0.0777 C.3            1 S1                 0.0000
     10 ****         1.1135  -2.0963   1.0101 O.3            1 S1                 0.0000
     11 ****         1.4769  -3.4223   0.9149 C.ar           1 S1                 0.0000
     12 ****         0.9078  -4.3094   1.8522 C.ar           1 S1                 0.0000
     13 ****         1.2201  -5.6823   1.8279 C.ar           1 S1                 0.0000
     14 ****         2.1101  -6.1840   0.8605 C.ar           1 S1                 0.0000
     15 ****         2.6870  -5.3100  -0.0797 C.ar           1 S1                 0.0000
     16 ****         2.3742  -3.9367  -0.0554 C.ar           1 S1                 0.0000
     17 ****        -1.2656   2.0920  -0.9932 C.ar           1 S1                 0.0000
     18 ****        -1.1183   1.5320  -2.2742 C.ar           1 S1                 0.0000
     19 ****        -1.4923   2.3354  -3.3771 C.ar           1 S1                 0.0000
     20 ****        -1.9920   3.6497  -3.1837 C.ar           1 S1                 0.0000
     21 ****        -2.1287   4.1890  -1.8829 C.ar           1 S1                 0.0000
     22 ****        -1.7510   3.3688  -0.8059 C.ar           1 S1                 0.0000
     23 ****        -2.2545   4.7806   2.2712 H              1 S1                 0.0000
     24 ****        -3.1988   5.1140   0.8205 H              1 S1                 0.0000
     25 ****        -1.5206   5.6579   0.9262 H              1 S1                 0.0000
     26 ****        -0.7043  -0.1193   1.5149 H              1 S1                 0.0000
     27 ****        -0.8882  -0.4423  -0.1837 H              1 S1                 0.0000
     28 ****         1.3817   0.8653  -0.5054 H              1 S1                 0.0000
     29 ****         1.5382   0.1964   2.2212 H              1 S1                 0.0000
     30 ****         1.3869  -1.4802  -0.9320 H              1 S1                 0.0000
     31 ****         2.7569  -1.1661   0.1315 H              1 S1                 0.0000
     32 ****         0.2235  -3.9323   2.5981 H              1 S1                 0.0000
     33 ****         0.7762  -6.3497   2.5516 H              1 S1                 0.0000
     34 ****         2.3503  -7.2368   0.8401 H              1 S1                 0.0000
     35 ****         3.3715  -5.6934  -0.8221 H              1 S1                 0.0000
     36 ****         2.8364  -3.2984  -0.7929 H              1 S1                 0.0000
     37 ****        -0.7349   0.5322  -2.4153 H              1 S1                 0.0000
     38 ****        -1.3950   1.9439  -4.3791 H              1 S1                 0.0000
     39 ****        -2.2701   4.2459  -4.0403 H              1 S1                 0.0000
     40 ****        -2.5061   5.1889  -1.7271 H              1 S1                 0.0000
     41 ****        -1.3915   3.1333   3.0425 LP             1 S1                 0.0000
     42 ****        -0.7847   1.5281   2.8074 LP             1 S1                 0.0000
     43 ****         1.4287   1.6812   1.6597 LP             1 S1                 0.0000
     44 ****         2.7379   0.7590   1.3403 LP             1 S1                 0.0000
     45 ****         0.1191  -2.0544   0.9128 LP             1 S1                 0.0000
     46 ****         1.3725  -1.7835   1.9240 LP             1 S1                 0.0000
@<TRIPOS>BOND
    1    1    2 1     
    2    1   23 1     
    3    1   24 1     
    4    1   25 1     
    5    2   22 1     
    6    2    3 am    
    7    3    4 2     
    8    3    5 am    
    9    5    6 1     
   10    5   17 1     
   11    6    7 1     
   12    6   26 1     
   13    6   27 1     
   14    7    8 1     
   15    7    9 1     
   16    7   28 1     
   17    8   29 1     
   18    9   10 1     
   19    9   30 1     
   20    9   31 1     
   21   10   11 1     
   22   11   16 ar    
   23   11   12 ar    
   24   12   13 ar    
   25   12   32 1     
   26   13   14 ar    
   27   13   33 1     
   28   14   15 ar    
   29   14   34 1     
   30   15   16 ar    
   31   15   35 1     
   32   16   36 1     
   33   17   22 ar    
   34   17   18 ar    
   35   18   19 ar    
   36   18   37 1     
   37   19   20 ar    
   38   19   38 1     
   39   20   21 ar    
   40   20   39 1     
   41   21   22 ar    
   42   21   40 1     
   43    4   41 1     
   44    4   42 1     
   45    8   43 1     
   46    8   44 1     
   47   10   45 1     
   48   10   46 1     
@<TRIPOS>SUBSTRUCTURE
      1 S1             1
@<TRIPOS>SET
LONE_PAIRS      STATIC     ATOMS    <user>   **** ""
6 41 42 43 44 45 46
DONOR_HYDROGENS      STATIC     ATOMS    <user>   **** ""
1 29
ATOM$BLUE        STATIC     ATOMS    COLORGROUP SYSTEM
6 41 42 43 44 45 46
ATOM$RED        STATIC     ATOMS    COLORGROUP SYSTEM
1 29
