AV-unprocessed.smi:1437|AV-procd|sdf|5866|dock9
  -GOLD-   22720 5543D 1   1.00000     0.00000
 Structure written by MMmdl.
 35 36  0  0  0  0  0  0  0  0  3 V2000
  153.3302  140.2276  159.9964 C   0  0  0  0  0  0  0  0  0  0  0  0
  152.5343  140.5521  158.7786 C   0  0  0  0  0  0  0  0  0  0  0  0
  151.7251  141.6032  158.4521 C   0  0  0  0  0  0  0  0  0  0  0  0
  151.2809  141.2761  157.1416 C   0  0  0  0  0  0  0  0  0  0  0  0
  150.4632  142.0166  156.3777 N   0  5  0  0  0  0  0  0  0  0  0  0
  149.8379  141.4625  155.3142 C   0  0  0  0  0  0  0  0  0  0  0  0
  150.1559  140.4205  154.7371 O   0  0  0  0  0  0  0  0  0  0  0  0
  148.7707  142.1594  154.8992 N   0  0  0  0  0  0  0  0  0  0  0  0
  147.8832  141.8076  153.7913 C   0  0  2  0  0  0  0  0  0  0  0  0
  146.7160  142.8073  153.7093 C   0  0  0  0  0  0  0  0  0  0  0  0
  145.7377  142.6447  154.8876 C   0  0  0  0  0  0  0  0  0  0  0  0
  145.2383  141.2502  154.9820 N   0  3  2  0  0  0  0  0  0  0  0  0
  144.2126  141.0914  156.0350 C   0  0  0  0  0  0  0  0  0  0  0  0
  146.3422  140.2676  155.1180 C   0  0  0  0  0  0  0  0  0  0  0  0
  147.3269  140.3772  153.9408 C   0  0  0  0  0  0  0  0  0  0  0  0
  151.7894  140.1361  156.7051 N   0  0  0  0  0  0  0  0  0  0  0  0
  152.5899  139.6623  157.7513 O   0  0  0  0  0  0  0  0  0  0  0  0
  154.2138  140.8625  160.0592 H   0  0  0  0  0  0  0  0  0  0  0  0
  153.6603  139.1886  159.9850 H   0  0  0  0  0  0  0  0  0  0  0  0
  152.7368  140.3827  160.8975 H   0  0  0  0  0  0  0  0  0  0  0  0
  151.4859  142.4668  159.0545 H   0  0  0  0  0  0  0  0  0  0  0  0
  148.5606  143.0106  155.3994 H   0  0  0  0  0  0  0  0  0  0  0  0
  148.4550  141.8734  152.8640 H   0  0  0  0  0  0  0  0  0  0  0  0
  147.0954  143.8295  153.6750 H   0  0  0  0  0  0  0  0  0  0  0  0
  146.1769  142.6535  152.7736 H   0  0  0  0  0  0  0  0  0  0  0  0
  146.2224  142.9237  155.8247 H   0  0  0  0  0  0  0  0  0  0  0  0
  144.8953  143.3247  154.7549 H   0  0  0  0  0  0  0  0  0  0  0  0
  144.6317  141.2927  157.0218 H   0  0  0  0  0  0  0  0  0  0  0  0
  143.8128  140.0769  156.0332 H   0  0  0  0  0  0  0  0  0  0  0  0
  143.3806  141.7767  155.8694 H   0  0  0  0  0  0  0  0  0  0  0  0
  146.8625  140.4268  156.0641 H   0  0  0  0  0  0  0  0  0  0  0  0
  145.9300  139.2586  155.1516 H   0  0  0  0  0  0  0  0  0  0  0  0
  146.8146  140.0954  153.0200 H   0  0  0  0  0  0  0  0  0  0  0  0
  148.1376  139.6584  154.0645 H   0  0  0  0  0  0  0  0  0  0  0  0
  144.7822  141.0489  154.1036 H   0  0  0  0  0  0  0  0  0  0  0  0
  1  2  1  0  0  0  0
  1 18  1  0  0  0  0
  1 19  1  0  0  0  0
  1 20  1  0  0  0  0
  2 17  1  0  0  0  0
  2  3  2  0  0  0  0
  3  4  1  0  0  0  0
  3 21  1  0  0  0  0
  4  5  1  0  0  0  0
  4 16  2  0  0  0  0
  5  6  1  0  0  0  0
  6  7  2  0  0  0  0
  6  8  1  0  0  0  0
  8  9  1  0  0  0  0
  8 22  1  0  0  0  0
  9 15  1  0  0  0  0
  9 10  1  0  0  0  0
  9 23  1  0  0  0  0
 10 11  1  0  0  0  0
 10 24  1  0  0  0  0
 10 25  1  0  0  0  0
 11 12  1  0  0  0  0
 11 26  1  0  0  0  0
 11 27  1  0  0  0  0
 12 13  1  0  0  0  0
 12 14  1  0  0  0  0
 12 35  1  0  0  0  0
 13 28  1  0  0  0  0
 13 29  1  0  0  0  0
 13 30  1  0  0  0  0
 14 15  1  0  0  0  0
 14 31  1  0  0  0  0
 14 32  1  0  0  0  0
 15 33  1  0  0  0  0
 15 34  1  0  0  0  0
 16 17  1  0  0  0  0
M  CHG  1   5  -1
M  CHG  1  12   1
M  END
> <s_m_source_file>
AV-unprocessed.smi

> <i_m_source_file_index>
1437

> <i_lp_mmshare_version>
43012

> <i_f3d_flags>
0

> <s_epik_input>
W0NIM11jMVtjSF1jKG5vMSlbTkhdQyg9TylbTkhdW0NIXTJbQ0gyXVtDSDJdTihbQ0gzXSlbQ0gyXVtDSDJdMg==

> <s_epik_cmdline>
J2VwaWtfcHl0aG9uJywgJy1waCcsICc3LjAnLCAnLXRuJywgJzgnLCAnLW1hJywgJzIwMCcsICctbWV0YWxfYmluZGluZycsICctaW1hZScsICc8aW5maWxlLm1hZT4nLCAnLW9tYWUnLCAnPG91dGZpbGUubWFlPic=

> <r_epik_Ionization_Penalty>
6.28535

> <r_epik_Ionization_Penalty_Charging>
6.28525

> <r_epik_Ionization_Penalty_Neutral>
9.66055e-05

> <r_epik_State_Penalty>
6.28414

> <r_epik_Charging_Adjusted_Penalty>
12.5694

> <i_epik_Tot_Q>
0

> <i_epik_Tot_abs_Q>
2

> <r_epik_Metal_State_Penalty>
2.21724

> <b_epik_Metal_Only>
1

> <s_lp_Force_Field>
OPLS_2005

> <r_lp_Energy>
2.0091

> <b_lp_Chiralities_Consistent>
1

> <s_lp_Variant>
AV-unprocessed.smi:1437-4

> <Gold.Version>
5.8.1

> <Gold.Id.Protein>
6NUR|6NUR_protein|mol2

> <Gold.PLP.Fitness>
42.6026

> <Gold.PLP.PLP>
-28.4386

> <Gold.PLP.part.hbond>
-4.0000

> <Gold.PLP.part.metal>
0.0000

> <Gold.PLP.part.buried>
-5.8548

> <Gold.PLP.part.nonpolar>
-17.6134

> <Gold.PLP.part.repulsive>
0.3938

> <Gold.PLP.ligand.clash>
0.0000

> <Gold.PLP.ligand.torsion>
0.1822

> <Gold.PLP.Chemscore.Hbond>
4.8400

> <Gold.PLP.Chemscore.CHOScore>
0.0000

> <Gold.PLP.Chemscore.Metal>
0.0000

> <Gold.Chemscore.Hbonds>
donor molecule, donor type, donor heavy atom, donor atom, acceptor molecule, acceptor atom, score
      L1  H     8    22       P1  8028  0.98
      L1  H    12    35       P1 10175  2.00
      P1  H  7989  7998       L1     7  0.98
      P1  H  7997  8010       L1    17  0.76

> <Gold.PLP.Chemscore.Internal.Correction>
0.0083

> <Gold.Rescore>
     Score         DG    S(hbond)    S(metal)    S(lipo)     H(rot)  DE(clash)    DE(int)     intcor
     16.63     -19.59       3.09        0.00      54.41       1.00       1.11       1.85       ----

> <Gold.Chemscore.Fitness>
16.6309

> <Gold.Chemscore.DG>
-19.5945

> <Gold.Chemscore.ZeroCoef>
-5.4800

> <Gold.Chemscore.Hbond>
3.0865

> <Gold.Chemscore.Metal>
0.0000

> <Gold.Chemscore.Lipo>
54.4071

> <Gold.Chemscore.Internal_Hbond>
0.0000

> <Gold.Chemscore.DEClash>
1.1093

> <Gold.Chemscore.DEInternal>
1.8543

> <Gold.Chemscore.Rot>
1.0000

> <Gold.Chemscore.Internal.Correction>
   9.000000E+99

> <Gold.Chemscore.Hbonds>
donor molecule, donor type, donor heavy atom, donor atom, acceptor molecule, acceptor atom, score
      L1  H     8    22       P1  8028  0.93
      L1  H    12    35       P1 10175  0.80
      P1  H  7989  7998       L1     7  0.55
      P1  H  7997  8010       L1    17  0.07

> <Gold.Chemscore.Hbond.Weighted>
-10.3089

> <Gold.Chemscore.Metal.Weighted>
-0.0000

> <Gold.Chemscore.Lipo.Weighted>
-6.3656

> <Gold.Chemscore.Internal_Hbond.Weighted>
0.0000

> <Gold.Chemscore.DEClash.Weighted>
1.1093

> <Gold.Chemscore.DEInternal.Weighted>
1.8543

> <Gold.Chemscore.Rot.Weighted>
2.5600

> <Gold.Chemscore.Internal.Correction.Weighted>
   9.000000E+99

> <Gold.Protein.RotatedTorsions>
[ 6907 6896 6895 6894 ] final    0.80 input  -60.11 | X-H torsion
[ 7974 7965 7964 7962 ] final   93.09 input  175.53 | X-H torsion
[ 8008 7997 7996 7995 ] final   41.09 input   59.86 | X-H torsion
[ 10167 10162 10161 10158 ] final -152.17 input  -65.29 | X-H torsion
[ 10718 10713 10712 10709 ] final -158.18 input   66.30 | X-H torsion
[ 10763 10752 10751 10750 ] final  157.85 input  -60.55 | X-H torsion
[ 11005 11000 10999 10996 ] final   33.74 input  -57.11 | X-H torsion

> <Gold.Protein.ActiveResidues>
 VAL166  LYS551  ARG553  GLY616  TRP617  ASP618  TYR619  PRO620  LYS621  CYS622 
 ASP623  PHE694  ASN695  SER759  ASP760  ASP761  ALA762  ILE779  LEU786  VAL792 
 PHE793  MET794  SER795  GLU796  ALA797  LYS798  CYS799  TRP800  GLU811  SER814 

> <Gold.Protein.RotatedAtoms>
  151.5823  135.1058  160.0019 H   0  0  0  0  0  0  0  0  0  0  0  0  # atno 6907 bound_to 6896
  152.4348  133.7337  159.6612 H   0  0  0  0  0  0  0  0  0  0  0  0  # atno 6908 bound_to 6896
  150.8244  133.8126  159.3148 H   0  0  0  0  0  0  0  0  0  0  0  0  # atno 6909 bound_to 6896
  145.4836  139.2278  143.2869 H   0  0  0  0  0  0  0  0  0  0  0  0  # atno 7974 bound_to 7965
  155.2639  140.3361  155.4271 H   0  0  0  0  0  0  0  0  0  0  0  0  # atno 8008 bound_to 7997
  156.2162  140.1790  156.7625 H   0  0  0  0  0  0  0  0  0  0  0  0  # atno 8009 bound_to 7997
  154.5757  140.0662  156.9016 H   0  0  0  0  0  0  0  0  0  0  0  0  # atno 8010 bound_to 7997
  139.7204  143.8966  152.2501 H   0  0  0  0  0  0  0  0  0  0  0  0  # atno 10167 bound_to 10162
  156.5506  130.8603  151.2778 H   0  0  0  0  0  0  0  0  0  0  0  0  # atno 10718 bound_to 10713
  154.2068  135.2788  155.2972 H   0  0  0  0  0  0  0  0  0  0  0  0  # atno 10763 bound_to 10752
  154.5810  135.5589  153.7189 H   0  0  0  0  0  0  0  0  0  0  0  0  # atno 10764 bound_to 10752
  153.0074  135.6345  154.2207 H   0  0  0  0  0  0  0  0  0  0  0  0  # atno 10765 bound_to 10752
  140.2600  134.3203  155.7861 H   0  0  0  0  0  0  0  0  0  0  0  0  # atno 11005 bound_to 11000
  146.2326  140.5625  142.8969 LP  0  0  0  0  0  0  0  0  0  0  0  0  # atno 17320 bound_to 7965
  144.7874  140.5964  143.6564 LP  0  0  0  0  0  0  0  0  0  0  0  0  # atno 17321 bound_to 7965
  139.8861  144.6991  150.8823 LP  0  0  0  0  0  0  0  0  0  0  0  0  # atno 17342 bound_to 10162
  140.7752  143.3623  151.1805 LP  0  0  0  0  0  0  0  0  0  0  0  0  # atno 17343 bound_to 10162
  157.7388  130.9820  150.2276 LP  0  0  0  0  0  0  0  0  0  0  0  0  # atno 17370 bound_to 10713
  156.2888  130.3743  149.7862 LP  0  0  0  0  0  0  0  0  0  0  0  0  # atno 17371 bound_to 10713
  141.2191  133.7404  156.9172 LP  0  0  0  0  0  0  0  0  0  0  0  0  # atno 17394 bound_to 11000
  140.1474  134.9253  157.2547 LP  0  0  0  0  0  0  0  0  0  0  0  0  # atno 17395 bound_to 11000

$$$$
