AV-unprocessed.smi:3002|AV-procd|sdf|11433|dock10
  -GOLD-   2272016363D 1   1.00000     0.00000
 Structure written by MMmdl.
 34 35  0  0  0  0  0  0  0  0  1 V2000
  148.5345  138.8970  154.2007 C   0  0  0  0  0  0  0  0  0  0  0  0
  149.3596  138.9435  155.5060 C   0  0  2  0  0  0  0  0  0  0  0  0
  150.3887  140.0850  155.4605 C   0  0  0  0  0  0  0  0  0  0  0  0
  151.4215  139.9696  154.8001 O   0  0  0  0  0  0  0  0  0  0  0  0
  150.0991  141.1783  156.1813 N   0  0  0  0  0  0  0  0  0  0  0  0
  150.9618  142.3462  156.3004 C   0  0  0  0  0  0  0  0  0  0  0  0
  151.1653  142.7318  157.7751 C   0  0  2  0  0  0  0  0  0  0  0  0
  152.0433  143.9876  157.9381 C   0  0  0  0  0  0  0  0  0  0  0  0
  152.4132  144.1353  159.4170 C   0  0  0  0  0  0  0  0  0  0  0  0
  152.5981  142.4265  160.0485 S   0  0  0  0  0  0  0  0  0  0  0  0
  154.0226  142.0609  160.0629 O   0  0  0  0  0  0  0  0  0  0  0  0
  151.7624  142.2652  161.2478 O   0  0  0  0  0  0  0  0  0  0  0  0
  151.7901  141.6070  158.6206 C   0  0  0  0  0  0  0  0  0  0  0  0
  150.0111  137.6712  155.8290 N   0  0  0  0  0  0  0  0  0  0  0  0
  150.1316  136.5506  155.1074 C   0  0  0  0  0  0  0  0  0  0  0  0
  150.8563  135.6049  155.6876 N   0  0  0  0  0  0  0  0  0  0  0  0
  151.1990  136.2560  156.8373 C   0  0  0  0  0  0  0  0  0  0  0  0
  150.7391  137.5004  156.9622 N   0  0  0  0  0  0  0  0  0  0  0  0
  148.1252  139.8778  153.9557 H   0  0  0  0  0  0  0  0  0  0  0  0
  147.6901  138.2132  154.2925 H   0  0  0  0  0  0  0  0  0  0  0  0
  149.1374  138.5691  153.3527 H   0  0  0  0  0  0  0  0  0  0  0  0
  148.6653  139.1531  156.3216 H   0  0  0  0  0  0  0  0  0  0  0  0
  149.2290  141.1962  156.6937 H   0  0  0  0  0  0  0  0  0  0  0  0
  151.9276  142.1456  155.8328 H   0  0  0  0  0  0  0  0  0  0  0  0
  150.5087  143.1750  155.7548 H   0  0  0  0  0  0  0  0  0  0  0  0
  150.1912  142.9641  158.2087 H   0  0  0  0  0  0  0  0  0  0  0  0
  152.9586  143.8648  157.3573 H   0  0  0  0  0  0  0  0  0  0  0  0
  151.5448  144.8815  157.5619 H   0  0  0  0  0  0  0  0  0  0  0  0
  153.3314  144.7008  159.5764 H   0  0  0  0  0  0  0  0  0  0  0  0
  151.6056  144.6148  159.9707 H   0  0  0  0  0  0  0  0  0  0  0  0
  151.0577  140.8800  158.9720 H   0  0  0  0  0  0  0  0  0  0  0  0
  152.5622  141.0770  158.0616 H   0  0  0  0  0  0  0  0  0  0  0  0
  149.6836  136.4215  154.1329 H   0  0  0  0  0  0  0  0  0  0  0  0
  151.8164  135.8042  157.5998 H   0  0  0  0  0  0  0  0  0  0  0  0
  1  2  1  0  0  0  0
  1 19  1  0  0  0  0
  1 20  1  0  0  0  0
  1 21  1  0  0  0  0
  2  3  1  0  0  0  0
  2 14  1  0  0  0  0
  2 22  1  0  0  0  0
  3  4  2  0  0  0  0
  3  5  1  0  0  0  0
  5  6  1  0  0  0  0
  5 23  1  0  0  0  0
  6  7  1  0  0  0  0
  6 24  1  0  0  0  0
  6 25  1  0  0  0  0
  7 13  1  0  0  0  0
  7  8  1  0  0  0  0
  7 26  1  0  0  0  0
  8  9  1  0  0  0  0
  8 27  1  0  0  0  0
  8 28  1  0  0  0  0
  9 10  1  0  0  0  0
  9 29  1  0  0  0  0
  9 30  1  0  0  0  0
 10 11  2  0  0  0  0
 10 12  2  0  0  0  0
 10 13  1  0  0  0  0
 13 31  1  0  0  0  0
 13 32  1  0  0  0  0
 14 18  1  0  0  0  0
 14 15  1  0  0  0  0
 15 16  2  0  0  0  0
 15 33  1  0  0  0  0
 16 17  1  0  0  0  0
 17 18  2  0  0  0  0
 17 34  1  0  0  0  0
M  END
> <s_m_source_file>
AV-unprocessed.smi

> <i_m_source_file_index>
3002

> <i_lp_mmshare_version>
43012

> <i_f3d_flags>
0

> <s_epik_input>
bjFbY0hdbltjSF1uMVtDQEhdKFtDSDNdKUMoPU8pW05IXVtDSDJdW0NAQEhdKFtDSDJdMilbQ0gyXVtDSDJdUzIoPU8pPU8=

> <s_epik_cmdline>
J2VwaWtfcHl0aG9uJywgJy1waCcsICc3LjAnLCAnLXRuJywgJzgnLCAnLW1hJywgJzIwMCcsICctbWV0YWxfYmluZGluZycsICctaW1hZScsICc8aW5maWxlLm1hZT4nLCAnLW9tYWUnLCAnPG91dGZpbGUubWFlPic=

> <r_lp_tautomer_probability>
1

> <r_epik_Ionization_Penalty>
1.1748e-05

> <r_epik_Ionization_Penalty_Charging>
0

> <r_epik_Ionization_Penalty_Neutral>
1.1748e-05

> <r_epik_State_Penalty>
-0

> <r_epik_Charging_Adjusted_Penalty>
0

> <i_epik_Tot_Q>
0

> <i_epik_Tot_abs_Q>
0

> <r_epik_Metal_State_Penalty>
-0

> <b_epik_Metal_Only>
0

> <s_lp_Force_Field>
OPLS_2005

> <r_lp_Energy>
11.0715

> <b_lp_Chiralities_Consistent>
1

> <s_lp_Variant>
AV-unprocessed.smi:3002-1

> <Gold.Version>
5.8.1

> <Gold.Id.Protein>
6NUR|6NUR_protein|mol2

> <Gold.PLP.Fitness>
40.3073

> <Gold.PLP.PLP>
-30.6130

> <Gold.PLP.part.hbond>
-2.9690

> <Gold.PLP.part.metal>
0.0000

> <Gold.PLP.part.buried>
-4.5123

> <Gold.PLP.part.nonpolar>
-24.1176

> <Gold.PLP.part.repulsive>
0.2812

> <Gold.PLP.ligand.clash>
0.0000

> <Gold.PLP.ligand.torsion>
0.3863

> <Gold.PLP.Chemscore.Hbond>
2.4758

> <Gold.PLP.Chemscore.CHOScore>
0.9729

> <Gold.PLP.Chemscore.Metal>
0.0000

> <Gold.Chemscore.Hbonds>
donor molecule, donor type, donor heavy atom, donor atom, acceptor molecule, acceptor atom, score
      P1  H  6933  6945       L1    12  0.48
      P1  H  7989  7998       L1     4  1.00
      P1  H 10752 10765       L1    16  0.16
      L1  C    15    33       P1  7948  1.00

> <Gold.PLP.Chemscore.Internal.Correction>
0.1209

> <Gold.Rescore>
     Score         DG    S(hbond)    S(metal)    S(lipo)     H(rot)  DE(clash)    DE(int)     intcor
     13.68     -14.45       2.54        0.00      56.57       2.39       0.23       0.54       ----

> <Gold.Chemscore.Fitness>
13.6804

> <Gold.Chemscore.DG>
-14.4531

> <Gold.Chemscore.ZeroCoef>
-5.4800

> <Gold.Chemscore.Hbond>
2.5402

> <Gold.Chemscore.Metal>
0.0000

> <Gold.Chemscore.Lipo>
56.5714

> <Gold.Chemscore.Internal_Hbond>
0.0000

> <Gold.Chemscore.DEClash>
0.2285

> <Gold.Chemscore.DEInternal>
0.5442

> <Gold.Chemscore.Rot>
2.3946

> <Gold.Chemscore.Internal.Correction>
   9.000000E+99

> <Gold.Chemscore.Hbonds>
donor molecule, donor type, donor heavy atom, donor atom, acceptor molecule, acceptor atom, score
      P1  H  6933  6945       L1    12  0.44
      P1  H  7989  7998       L1     4  0.96
      P1  H 10752 10765       L1    16  0.01

> <Gold.Chemscore.Hbond.Weighted>
-8.4843

> <Gold.Chemscore.Metal.Weighted>
-0.0000

> <Gold.Chemscore.Lipo.Weighted>
-6.6189

> <Gold.Chemscore.Internal_Hbond.Weighted>
0.0000

> <Gold.Chemscore.DEClash.Weighted>
0.2285

> <Gold.Chemscore.DEInternal.Weighted>
0.5442

> <Gold.Chemscore.Rot.Weighted>
6.1301

> <Gold.Chemscore.Internal.Correction.Weighted>
   9.000000E+99

> <Gold.Protein.RotatedTorsions>
[ 6907 6896 6895 6894 ] final -169.27 input  -60.11 | X-H torsion
[ 7974 7965 7964 7962 ] final   60.36 input  175.53 | X-H torsion
[ 8008 7997 7996 7995 ] final   33.87 input   59.86 | X-H torsion
[ 10167 10162 10161 10158 ] final  -62.66 input  -65.29 | X-H torsion
[ 10718 10713 10712 10709 ] final  125.42 input   66.30 | X-H torsion
[ 10763 10752 10751 10750 ] final -155.82 input  -60.55 | X-H torsion
[ 11005 11000 10999 10996 ] final -112.43 input  -57.11 | X-H torsion

> <Gold.Protein.ActiveResidues>
 VAL166  LYS551  ARG553  GLY616  TRP617  ASP618  TYR619  PRO620  LYS621  CYS622 
 ASP623  PHE694  ASN695  SER759  ASP760  ASP761  ALA762  ILE779  LEU786  VAL792 
 PHE793  MET794  SER795  GLU796  ALA797  LYS798  CYS799  TRP800  GLU811  SER814 

> <Gold.Protein.RotatedAtoms>
  151.4889  133.3529  159.2849 H   0  0  0  0  0  0  0  0  0  0  0  0  # atno 6907 bound_to 6896
  150.8847  134.8246  159.7261 H   0  0  0  0  0  0  0  0  0  0  0  0  # atno 6908 bound_to 6896
  152.4785  134.4791  159.9712 H   0  0  0  0  0  0  0  0  0  0  0  0  # atno 6909 bound_to 6896
  145.8968  139.3552  143.0616 H   0  0  0  0  0  0  0  0  0  0  0  0  # atno 7974 bound_to 7965
  155.1455  140.3270  155.4442 H   0  0  0  0  0  0  0  0  0  0  0  0  # atno 8008 bound_to 7997
  156.2591  140.1986  156.6519 H   0  0  0  0  0  0  0  0  0  0  0  0  # atno 8009 bound_to 7997
  154.6511  140.0558  156.9943 H   0  0  0  0  0  0  0  0  0  0  0  0  # atno 8010 bound_to 7997
  140.5924  143.2344  151.6111 H   0  0  0  0  0  0  0  0  0  0  0  0  # atno 10167 bound_to 10162
  157.5504  131.1094  150.8711 H   0  0  0  0  0  0  0  0  0  0  0  0  # atno 10718 bound_to 10713
  154.7758  135.3159  154.8094 H   0  0  0  0  0  0  0  0  0  0  0  0  # atno 10763 bound_to 10752
  153.8817  135.6834  153.4771 H   0  0  0  0  0  0  0  0  0  0  0  0  # atno 10764 bound_to 10752
  153.1382  135.4750  154.9391 H   0  0  0  0  0  0  0  0  0  0  0  0  # atno 10765 bound_to 10752
  141.0675  133.9434  157.2550 H   0  0  0  0  0  0  0  0  0  0  0  0  # atno 11005 bound_to 11000
  145.8840  140.9345  143.0586 LP  0  0  0  0  0  0  0  0  0  0  0  0  # atno 17320 bound_to 7965
  144.6733  140.0817  143.7469 LP  0  0  0  0  0  0  0  0  0  0  0  0  # atno 17321 bound_to 7965
  139.5236  144.3129  152.0977 LP  0  0  0  0  0  0  0  0  0  0  0  0  # atno 17342 bound_to 10162
  140.2296  144.4383  150.6306 LP  0  0  0  0  0  0  0  0  0  0  0  0  # atno 17343 bound_to 10162
  156.9238  130.5324  149.5279 LP  0  0  0  0  0  0  0  0  0  0  0  0  # atno 17370 bound_to 10713
  156.0572  130.5631  150.9116 LP  0  0  0  0  0  0  0  0  0  0  0  0  # atno 17371 bound_to 10713
  139.9491  135.0179  156.8940 LP  0  0  0  0  0  0  0  0  0  0  0  0  # atno 17394 bound_to 11000
  140.5742  134.0414  155.7441 LP  0  0  0  0  0  0  0  0  0  0  0  0  # atno 17395 bound_to 11000

$$$$
