AV-unprocessed.smi:2707|AV-procd|sdf|10457|dock8
  -GOLD-   2272014493D 1   1.00000     0.00000
 Structure written by MMmdl.
 44 45  0  0  0  0  0  0  0  0  1 V2000
  142.6381  139.6958  157.0647 C   0  0  0  0  0  0  0  0  0  0  0  0
  141.8077  139.8954  155.7764 C   0  0  2  0  0  0  0  0  0  0  0  0
  142.4893  139.2711  154.6362 N   0  0  0  0  0  0  0  0  0  0  0  0
  142.7047  137.9617  154.4256 C   0  0  0  0  0  0  0  0  0  0  0  0
  142.3252  137.0735  155.1887 O   0  0  0  0  0  0  0  0  0  0  0  0
  143.3847  137.7626  153.2831 N   0  0  0  0  0  0  0  0  0  0  0  0
  143.8258  136.5310  152.7317 C   0  0  0  0  0  0  0  0  0  0  0  0
  144.5095  136.6288  151.5031 C   0  0  0  0  0  0  0  0  0  0  0  0
  144.9833  135.4494  150.9044 C   0  0  0  0  0  0  0  0  0  0  0  0
  144.7425  134.2285  151.5743 C   0  0  0  0  0  0  0  0  0  0  0  0
  145.2138  132.8650  151.0372 C   0  0  0  0  0  0  0  0  0  0  0  0
  144.0019  131.9268  150.8600 C   0  0  0  0  0  0  0  0  0  0  0  0
  146.2234  132.2397  152.0223 C   0  0  0  0  0  0  0  0  0  0  0  0
  145.9163  132.9811  149.6654 C   0  0  0  0  0  0  0  0  0  0  0  0
  144.0730  134.1985  152.7525 N   0  0  0  0  0  0  0  0  0  0  0  0
  143.6256  135.3237  153.3170 N   0  0  0  0  0  0  0  0  0  0  0  0
  141.6563  141.4082  155.4847 C   0  0  0  0  0  0  0  0  0  0  0  0
  140.5766  142.0169  156.3910 C   0  0  0  0  0  0  0  0  0  0  0  0
  139.3919  140.6681  156.7472 S   0  0  0  0  0  0  0  0  0  0  0  0
  139.3579  140.4361  158.1992 O   0  0  0  0  0  0  0  0  0  0  0  0
  138.1524  140.8834  155.9853 O   0  0  0  0  0  0  0  0  0  0  0  0
  140.3718  139.3470  155.9407 C   0  0  0  0  0  0  0  0  0  0  0  0
  142.1922  140.2092  157.9167 H   0  0  0  0  0  0  0  0  0  0  0  0
  143.6509  140.0821  156.9456 H   0  0  0  0  0  0  0  0  0  0  0  0
  142.7189  138.6433  157.3364 H   0  0  0  0  0  0  0  0  0  0  0  0
  142.8461  139.9090  153.9400 H   0  0  0  0  0  0  0  0  0  0  0  0
  143.6304  138.5871  152.7558 H   0  0  0  0  0  0  0  0  0  0  0  0
  144.6735  137.5854  151.0283 H   0  0  0  0  0  0  0  0  0  0  0  0
  145.5116  135.5072  149.9655 H   0  0  0  0  0  0  0  0  0  0  0  0
  144.3051  130.9572  150.4636 H   0  0  0  0  0  0  0  0  0  0  0  0
  143.2714  132.3507  150.1702 H   0  0  0  0  0  0  0  0  0  0  0  0
  143.4913  131.7412  151.8055 H   0  0  0  0  0  0  0  0  0  0  0  0
  145.7785  132.0638  153.0022 H   0  0  0  0  0  0  0  0  0  0  0  0
  147.0878  132.8888  152.1662 H   0  0  0  0  0  0  0  0  0  0  0  0
  146.5907  131.2790  151.6597 H   0  0  0  0  0  0  0  0  0  0  0  0
  146.2413  132.0044  149.3047 H   0  0  0  0  0  0  0  0  0  0  0  0
  146.8049  133.6114  149.7193 H   0  0  0  0  0  0  0  0  0  0  0  0
  145.2527  133.3962  148.9057 H   0  0  0  0  0  0  0  0  0  0  0  0
  142.6025  141.9424  155.5793 H   0  0  0  0  0  0  0  0  0  0  0  0
  141.3326  141.5387  154.4506 H   0  0  0  0  0  0  0  0  0  0  0  0
  141.0029  142.3501  157.3373 H   0  0  0  0  0  0  0  0  0  0  0  0
  140.0607  142.8583  155.9279 H   0  0  0  0  0  0  0  0  0  0  0  0
  139.9131  139.1509  154.9710 H   0  0  0  0  0  0  0  0  0  0  0  0
  140.3188  138.4320  156.5316 H   0  0  0  0  0  0  0  0  0  0  0  0
  1  2  1  0  0  0  0
  1 23  1  0  0  0  0
  1 24  1  0  0  0  0
  1 25  1  0  0  0  0
  2 22  1  0  0  0  0
  2  3  1  0  0  0  0
  2 17  1  0  0  0  0
  3  4  1  0  0  0  0
  3 26  1  0  0  0  0
  4  5  2  0  0  0  0
  4  6  1  0  0  0  0
  6  7  1  0  0  0  0
  6 27  1  0  0  0  0
  7 16  1  0  0  0  0
  7  8  2  0  0  0  0
  8  9  1  0  0  0  0
  8 28  1  0  0  0  0
  9 10  2  0  0  0  0
  9 29  1  0  0  0  0
 10 11  1  0  0  0  0
 10 15  1  0  0  0  0
 11 12  1  0  0  0  0
 11 13  1  0  0  0  0
 11 14  1  0  0  0  0
 12 30  1  0  0  0  0
 12 31  1  0  0  0  0
 12 32  1  0  0  0  0
 13 33  1  0  0  0  0
 13 34  1  0  0  0  0
 13 35  1  0  0  0  0
 14 36  1  0  0  0  0
 14 37  1  0  0  0  0
 14 38  1  0  0  0  0
 15 16  2  0  0  0  0
 17 18  1  0  0  0  0
 17 39  1  0  0  0  0
 17 40  1  0  0  0  0
 18 19  1  0  0  0  0
 18 41  1  0  0  0  0
 18 42  1  0  0  0  0
 19 20  2  0  0  0  0
 19 21  2  0  0  0  0
 19 22  1  0  0  0  0
 22 43  1  0  0  0  0
 22 44  1  0  0  0  0
M  END
> <s_m_source_file>
AV-unprocessed.smi

> <i_m_source_file_index>
2707

> <i_lp_mmshare_version>
43012

> <i_f3d_flags>
0

> <s_epik_input>
Tz1TKD1PKShbQ0gyXTEpW0NIMl1bQ0gyXVtDQEBdMShbQ0gzXSlbTkhdQyg9TylbTkhdYzJbY0hdW2NIXWMobm4yKUMoW0NIM10pKFtDSDNdKVtDSDNd

> <s_epik_cmdline>
J2VwaWtfcHl0aG9uJywgJy1waCcsICc3LjAnLCAnLXRuJywgJzgnLCAnLW1hJywgJzIwMCcsICctbWV0YWxfYmluZGluZycsICctaW1hZScsICc8aW5maWxlLm1hZT4nLCAnLW9tYWUnLCAnPG91dGZpbGUubWFlPic=

> <r_lp_tautomer_probability>
1

> <r_epik_Ionization_Penalty>
0.00910408

> <r_epik_Ionization_Penalty_Charging>
0

> <r_epik_Ionization_Penalty_Neutral>
0.00910408

> <r_epik_State_Penalty>
-0

> <r_epik_Charging_Adjusted_Penalty>
0

> <i_epik_Tot_Q>
0

> <i_epik_Tot_abs_Q>
0

> <r_epik_Metal_State_Penalty>
-0

> <b_epik_Metal_Only>
0

> <s_lp_Force_Field>
OPLS_2005

> <r_lp_Energy>
10.6556

> <b_lp_Chiralities_Consistent>
1

> <s_lp_Variant>
AV-unprocessed.smi:2707-2

> <Gold.Version>
5.8.1

> <Gold.Id.Protein>
6NUR|6NUR_protein|mol2

> <Gold.PLP.Fitness>
36.9945

> <Gold.PLP.PLP>
-31.1252

> <Gold.PLP.part.hbond>
-2.9667

> <Gold.PLP.part.metal>
0.0000

> <Gold.PLP.part.buried>
-0.4814

> <Gold.PLP.part.nonpolar>
-26.2467

> <Gold.PLP.part.repulsive>
0.5606

> <Gold.PLP.ligand.clash>
0.0000

> <Gold.PLP.ligand.torsion>
0.0715

> <Gold.PLP.Chemscore.Hbond>
2.0000

> <Gold.PLP.Chemscore.CHOScore>
0.0000

> <Gold.PLP.Chemscore.Metal>
0.0000

> <Gold.Chemscore.Hbonds>
donor molecule, donor type, donor heavy atom, donor atom, acceptor molecule, acceptor atom, score
      L1  H     3    26       P1 10175  1.00
      L1  H     6    27       P1 10175  1.00

> <Gold.PLP.Chemscore.Internal.Correction>
0.0123

> <Gold.Rescore>
     Score         DG    S(hbond)    S(metal)    S(lipo)     H(rot)  DE(clash)    DE(int)     intcor
     13.40     -16.09       1.88        0.00      63.94       1.22       1.37       1.32       ----

> <Gold.Chemscore.Fitness>
13.4006

> <Gold.Chemscore.DG>
-16.0914

> <Gold.Chemscore.ZeroCoef>
-5.4800

> <Gold.Chemscore.Hbond>
1.8756

> <Gold.Chemscore.Metal>
0.0000

> <Gold.Chemscore.Lipo>
63.9387

> <Gold.Chemscore.Internal_Hbond>
0.0000

> <Gold.Chemscore.DEClash>
1.3670

> <Gold.Chemscore.DEInternal>
1.3239

> <Gold.Chemscore.Rot>
1.2242

> <Gold.Chemscore.Internal.Correction>
   9.000000E+99

> <Gold.Chemscore.Hbonds>
donor molecule, donor type, donor heavy atom, donor atom, acceptor molecule, acceptor atom, score
      L1  H     3    26       P1 10175  1.00
      L1  H     6    27       P1 10175  0.97

> <Gold.Chemscore.Hbond.Weighted>
-6.2646

> <Gold.Chemscore.Metal.Weighted>
-0.0000

> <Gold.Chemscore.Lipo.Weighted>
-7.4808

> <Gold.Chemscore.Internal_Hbond.Weighted>
0.0000

> <Gold.Chemscore.DEClash.Weighted>
1.3670

> <Gold.Chemscore.DEInternal.Weighted>
1.3239

> <Gold.Chemscore.Rot.Weighted>
3.1340

> <Gold.Chemscore.Internal.Correction.Weighted>
   9.000000E+99

> <Gold.Protein.RotatedTorsions>
[ 6907 6896 6895 6894 ] final -115.99 input  -60.11 | X-H torsion
[ 7974 7965 7964 7962 ] final  163.65 input  175.53 | X-H torsion
[ 8008 7997 7996 7995 ] final  -19.30 input   59.86 | X-H torsion
[ 10167 10162 10161 10158 ] final   83.57 input  -65.29 | X-H torsion
[ 10718 10713 10712 10709 ] final   59.31 input   66.30 | X-H torsion
[ 10763 10752 10751 10750 ] final  -75.78 input  -60.55 | X-H torsion
[ 11005 11000 10999 10996 ] final  136.81 input  -57.11 | X-H torsion

> <Gold.Protein.ActiveResidues>
 VAL166  LYS551  ARG553  GLY616  TRP617  ASP618  TYR619  PRO620  LYS621  CYS622 
 ASP623  PHE694  ASN695  SER759  ASP760  ASP761  ALA762  ILE779  LEU786  VAL792 
 PHE793  MET794  SER795  GLU796  ALA797  LYS798  CYS799  TRP800  GLU811  SER814 

> <Gold.Protein.RotatedAtoms>
  150.8021  133.8579  159.3223 H   0  0  0  0  0  0  0  0  0  0  0  0  # atno 6907 bound_to 6896
  151.6389  135.1013  160.0146 H   0  0  0  0  0  0  0  0  0  0  0  0  # atno 6908 bound_to 6896
  152.4109  133.6922  159.6432 H   0  0  0  0  0  0  0  0  0  0  0  0  # atno 6909 bound_to 6896
  144.7580  139.8213  143.6343 H   0  0  0  0  0  0  0  0  0  0  0  0  # atno 7974 bound_to 7965
  154.4846  140.2092  155.9684 H   0  0  0  0  0  0  0  0  0  0  0  0  # atno 8008 bound_to 7997
  156.1217  140.3212  155.8187 H   0  0  0  0  0  0  0  0  0  0  0  0  # atno 8009 bound_to 7997
  155.4456  140.0513  157.2997 H   0  0  0  0  0  0  0  0  0  0  0  0  # atno 8010 bound_to 7997
  139.9171  144.6236  150.8478 H   0  0  0  0  0  0  0  0  0  0  0  0  # atno 10167 bound_to 10162
  157.5665  130.8875  149.9196 H   0  0  0  0  0  0  0  0  0  0  0  0  # atno 10718 bound_to 10713
  154.4911  135.5819  153.6460 H   0  0  0  0  0  0  0  0  0  0  0  0  # atno 10763 bound_to 10752
  152.9862  135.6113  154.3123 H   0  0  0  0  0  0  0  0  0  0  0  0  # atno 10764 bound_to 10752
  154.3023  135.2846  155.2584 H   0  0  0  0  0  0  0  0  0  0  0  0  # atno 10765 bound_to 10752
  140.0071  134.9454  157.0199 H   0  0  0  0  0  0  0  0  0  0  0  0  # atno 11005 bound_to 11000
  146.1612  139.4727  142.9987 LP  0  0  0  0  0  0  0  0  0  0  0  0  # atno 17320 bound_to 7965
  145.6714  141.0215  143.1656 LP  0  0  0  0  0  0  0  0  0  0  0  0  # atno 17321 bound_to 7965
  140.7671  143.3324  151.2382 LP  0  0  0  0  0  0  0  0  0  0  0  0  # atno 17342 bound_to 10162
  139.6893  143.9719  152.2851 LP  0  0  0  0  0  0  0  0  0  0  0  0  # atno 17343 bound_to 10162
  156.0713  130.3685  150.0769 LP  0  0  0  0  0  0  0  0  0  0  0  0  # atno 17370 bound_to 10713
  156.8927  130.9594  151.3586 LP  0  0  0  0  0  0  0  0  0  0  0  0  # atno 17371 bound_to 10713
  140.4621  134.1474  155.7192 LP  0  0  0  0  0  0  0  0  0  0  0  0  # atno 17394 bound_to 11000
  141.1685  133.8656  157.1643 LP  0  0  0  0  0  0  0  0  0  0  0  0  # atno 17395 bound_to 11000

$$$$
