AV-unprocessed.smi:923|AV-procd|sdf|4178|dock5
  -GOLD-   22720 2 83D 1   1.00000     0.00000
 Structure written by MMmdl.
 34 35  0  0  0  0  0  0  0  0  2 V2000
  154.6802  135.9301  164.1255 C   0  0  0  0  0  0  0  0  0  0  0  0
  154.3512  136.3317  162.7285 C   0  0  0  0  0  0  0  0  0  0  0  0
  154.2894  135.4573  161.7214 N   0  0  0  0  0  0  0  0  0  0  0  0
  153.9621  136.0673  160.5190 N   0  0  0  0  0  0  0  0  0  0  0  0
  153.7702  137.3892  160.6350 C   0  0  0  0  0  0  0  0  0  0  0  0
  153.4441  138.1657  159.5884 N   0  5  0  0  0  0  0  0  0  0  0  0
  153.8565  139.4536  159.5492 C   0  0  0  0  0  0  0  0  0  0  0  0
  154.9698  139.8523  159.1992 O   0  0  0  0  0  0  0  0  0  0  0  0
  152.9202  140.3320  159.9382 N   0  0  0  0  0  0  0  0  0  0  0  0
  153.0634  141.7862  159.9940 C   0  0  0  0  0  0  0  0  0  0  0  0
  152.5289  142.2956  161.3483 C   0  0  0  0  0  0  0  0  0  0  0  0
  152.5717  143.8215  161.5406 C   0  0  0  0  0  0  0  0  0  0  0  0
  151.4914  144.5546  160.7292 C   0  0  0  0  0  0  0  0  0  0  0  0
  151.8793  144.9074  159.2828 C   0  0  0  0  0  0  0  0  0  0  0  0
  152.7321  143.8731  158.5270 C   0  0  0  0  0  0  0  0  0  0  0  0
  152.3596  142.4000  158.7659 C   0  0  0  0  0  0  0  0  0  0  0  0
  154.0092  137.9927  162.2744 S   0  0  0  0  0  0  0  0  0  0  0  0
  153.8198  135.4432  164.5849 H   0  0  0  0  0  0  0  0  0  0  0  0
  154.9458  136.8054  164.7186 H   0  0  0  0  0  0  0  0  0  0  0  0
  155.5216  135.2368  164.1311 H   0  0  0  0  0  0  0  0  0  0  0  0
  152.0268  139.9552  160.2189 H   0  0  0  0  0  0  0  0  0  0  0  0
  154.1247  142.0316  159.9245 H   0  0  0  0  0  0  0  0  0  0  0  0
  151.5095  141.9385  161.5023 H   0  0  0  0  0  0  0  0  0  0  0  0
  153.1200  141.8397  162.1438 H   0  0  0  0  0  0  0  0  0  0  0  0
  152.3911  144.0235  162.5970 H   0  0  0  0  0  0  0  0  0  0  0  0
  153.5645  144.2194  161.3277 H   0  0  0  0  0  0  0  0  0  0  0  0
  150.5761  143.9614  160.7271 H   0  0  0  0  0  0  0  0  0  0  0  0
  151.2295  145.4810  161.2414 H   0  0  0  0  0  0  0  0  0  0  0  0
  150.9628  145.0938  158.7221 H   0  0  0  0  0  0  0  0  0  0  0  0
  152.4197  145.8548  159.2805 H   0  0  0  0  0  0  0  0  0  0  0  0
  152.6482  144.0887  157.4614 H   0  0  0  0  0  0  0  0  0  0  0  0
  153.7859  144.0236  158.7644 H   0  0  0  0  0  0  0  0  0  0  0  0
  152.6713  141.8393  157.8833 H   0  0  0  0  0  0  0  0  0  0  0  0
  151.2773  142.2769  158.8283 H   0  0  0  0  0  0  0  0  0  0  0  0
  1  2  1  0  0  0  0
  1 18  1  0  0  0  0
  1 19  1  0  0  0  0
  1 20  1  0  0  0  0
  2 17  1  0  0  0  0
  2  3  2  0  0  0  0
  3  4  1  0  0  0  0
  4  5  2  0  0  0  0
  5  6  1  0  0  0  0
  5 17  1  0  0  0  0
  6  7  1  0  0  0  0
  7  8  2  0  0  0  0
  7  9  1  0  0  0  0
  9 10  1  0  0  0  0
  9 21  1  0  0  0  0
 10 16  1  0  0  0  0
 10 11  1  0  0  0  0
 10 22  1  0  0  0  0
 11 12  1  0  0  0  0
 11 23  1  0  0  0  0
 11 24  1  0  0  0  0
 12 13  1  0  0  0  0
 12 25  1  0  0  0  0
 12 26  1  0  0  0  0
 13 14  1  0  0  0  0
 13 27  1  0  0  0  0
 13 28  1  0  0  0  0
 14 15  1  0  0  0  0
 14 29  1  0  0  0  0
 14 30  1  0  0  0  0
 15 16  1  0  0  0  0
 15 31  1  0  0  0  0
 15 32  1  0  0  0  0
 16 33  1  0  0  0  0
 16 34  1  0  0  0  0
M  CHG  1   6  -1
M  END
> <s_m_source_file>
AV-unprocessed.smi

> <i_m_source_file_index>
923

> <i_lp_mmshare_version>
43012

> <i_f3d_flags>
0

> <s_epik_input>
W0NIM11jMW5uYyhzMSlbTkhdQyg9TylbTkhdW0NIXTJbQ0gyXVtDSDJdW0NIMl1bQ0gyXVtDSDJdW0NIMl0y

> <s_epik_cmdline>
J2VwaWtfcHl0aG9uJywgJy1waCcsICc3LjAnLCAnLXRuJywgJzgnLCAnLW1hJywgJzIwMCcsICctbWV0YWxfYmluZGluZycsICctaW1hZScsICc8aW5maWxlLm1hZT4nLCAnLW9tYWUnLCAnPG91dGZpbGUubWFlPic=

> <r_lp_tautomer_probability>
1

> <r_epik_Ionization_Penalty>
4.57867

> <r_epik_Ionization_Penalty_Charging>
4.42407

> <r_epik_Ionization_Penalty_Neutral>
0.154599

> <r_epik_State_Penalty>
4.42373

> <r_epik_Charging_Adjusted_Penalty>
8.84779

> <i_epik_Tot_Q>
-1

> <i_epik_Tot_abs_Q>
1

> <r_epik_Metal_State_Penalty>
0.782603

> <b_epik_Metal_Only>
1

> <s_lp_Force_Field>
OPLS_2005

> <r_lp_Energy>
12.5708

> <b_lp_Chiralities_Consistent>
1

> <s_lp_Variant>
AV-unprocessed.smi:923-2

> <Gold.Version>
5.8.1

> <Gold.Id.Protein>
6NUR|6NUR_protein|mol2

> <Gold.PLP.Fitness>
40.8903

> <Gold.PLP.PLP>
-38.1533

> <Gold.PLP.part.hbond>
-1.6879

> <Gold.PLP.part.metal>
0.0000

> <Gold.PLP.part.buried>
-4.9685

> <Gold.PLP.part.nonpolar>
-32.4759

> <Gold.PLP.part.repulsive>
0.1168

> <Gold.PLP.ligand.clash>
0.0000

> <Gold.PLP.ligand.torsion>
1.1264

> <Gold.PLP.Chemscore.Hbond>
1.6581

> <Gold.PLP.Chemscore.CHOScore>
0.0000

> <Gold.PLP.Chemscore.Metal>
0.0000

> <Gold.Chemscore.Hbonds>
donor molecule, donor type, donor heavy atom, donor atom, acceptor molecule, acceptor atom, score
      P1  H  6896  6907       L1     4  0.68
      P1  H  7997  8009       L1     8  1.00

> <Gold.PLP.Chemscore.Internal.Correction>
0.0154

> <Gold.Rescore>
     Score         DG    S(hbond)    S(metal)    S(lipo)     H(rot)  DE(clash)    DE(int)     intcor
     19.94     -21.04       1.84        0.00     102.37       1.00       0.04       1.06       ----

> <Gold.Chemscore.Fitness>
19.9449

> <Gold.Chemscore.DG>
-21.0379

> <Gold.Chemscore.ZeroCoef>
-5.4800

> <Gold.Chemscore.Hbond>
1.8385

> <Gold.Chemscore.Metal>
0.0000

> <Gold.Chemscore.Lipo>
102.3715

> <Gold.Chemscore.Internal_Hbond>
0.0000

> <Gold.Chemscore.DEClash>
0.0361

> <Gold.Chemscore.DEInternal>
1.0569

> <Gold.Chemscore.Rot>
1.0000

> <Gold.Chemscore.Internal.Correction>
   9.000000E+99

> <Gold.Chemscore.Hbonds>
donor molecule, donor type, donor heavy atom, donor atom, acceptor molecule, acceptor atom, score
      P1  H  6896  6907       L1     4  0.11
      P1  H  7997  8009       L1     8  0.94

> <Gold.Chemscore.Hbond.Weighted>
-6.1405

> <Gold.Chemscore.Metal.Weighted>
-0.0000

> <Gold.Chemscore.Lipo.Weighted>
-11.9775

> <Gold.Chemscore.Internal_Hbond.Weighted>
0.0000

> <Gold.Chemscore.DEClash.Weighted>
0.0361

> <Gold.Chemscore.DEInternal.Weighted>
1.0569

> <Gold.Chemscore.Rot.Weighted>
2.5600

> <Gold.Chemscore.Internal.Correction.Weighted>
   9.000000E+99

> <Gold.Protein.RotatedTorsions>
[ 6907 6896 6895 6894 ] final   43.25 input  -60.11 | X-H torsion
[ 7974 7965 7964 7962 ] final -135.94 input  175.53 | X-H torsion
[ 8008 7997 7996 7995 ] final  103.67 input   59.86 | X-H torsion
[ 10167 10162 10161 10158 ] final  141.67 input  -65.29 | X-H torsion
[ 10718 10713 10712 10709 ] final -112.94 input   66.30 | X-H torsion
[ 10763 10752 10751 10750 ] final -161.89 input  -60.55 | X-H torsion
[ 11005 11000 10999 10996 ] final -106.14 input  -57.11 | X-H torsion

> <Gold.Protein.ActiveResidues>
 VAL166  LYS551  ARG553  GLY616  TRP617  ASP618  TYR619  PRO620  LYS621  CYS622 
 ASP623  PHE694  ASN695  SER759  ASP760  ASP761  ALA762  ILE779  LEU786  VAL792 
 PHE793  MET794  SER795  GLU796  ALA797  LYS798  CYS799  TRP800  GLU811  SER814 

> <Gold.Protein.RotatedAtoms>
  152.2180  134.8440  160.0489 H   0  0  0  0  0  0  0  0  0  0  0  0  # atno 6907 bound_to 6896
  151.9234  133.3586  159.3913 H   0  0  0  0  0  0  0  0  0  0  0  0  # atno 6908 bound_to 6896
  150.6992  134.4537  159.5392 H   0  0  0  0  0  0  0  0  0  0  0  0  # atno 6909 bound_to 6896
  144.8970  140.6720  143.5109 H   0  0  0  0  0  0  0  0  0  0  0  0  # atno 7974 bound_to 7965
  156.1505  140.3161  155.8640 H   0  0  0  0  0  0  0  0  0  0  0  0  # atno 8008 bound_to 7997
  155.3980  140.0498  157.3055 H   0  0  0  0  0  0  0  0  0  0  0  0  # atno 8009 bound_to 7997
  154.5054  140.2145  155.9273 H   0  0  0  0  0  0  0  0  0  0  0  0  # atno 8010 bound_to 7997
  139.5014  144.6157  151.6170 H   0  0  0  0  0  0  0  0  0  0  0  0  # atno 10167 bound_to 10162
  156.0736  130.5946  150.8576 H   0  0  0  0  0  0  0  0  0  0  0  0  # atno 10718 bound_to 10713
  154.7263  135.3036  154.8965 H   0  0  0  0  0  0  0  0  0  0  0  0  # atno 10763 bound_to 10752
  153.9821  135.6729  153.4754 H   0  0  0  0  0  0  0  0  0  0  0  0  # atno 10764 bound_to 10752
  153.0878  135.4975  154.8551 H   0  0  0  0  0  0  0  0  0  0  0  0  # atno 10765 bound_to 10752
  141.1019  133.8868  157.1820 H   0  0  0  0  0  0  0  0  0  0  0  0  # atno 11005 bound_to 11000
  145.3683  139.1665  143.4346 LP  0  0  0  0  0  0  0  0  0  0  0  0  # atno 17320 bound_to 7965
  146.3087  140.3752  142.8678 LP  0  0  0  0  0  0  0  0  0  0  0  0  # atno 17321 bound_to 7965
  140.5844  143.9890  150.6287 LP  0  0  0  0  0  0  0  0  0  0  0  0  # atno 17342 bound_to 10162
  140.3050  143.3235  152.0935 LP  0  0  0  0  0  0  0  0  0  0  0  0  # atno 17343 bound_to 10162
  157.5820  131.0946  150.9256 LP  0  0  0  0  0  0  0  0  0  0  0  0  # atno 17370 bound_to 10713
  156.9450  130.5398  149.5281 LP  0  0  0  0  0  0  0  0  0  0  0  0  # atno 17371 bound_to 10713
  139.9874  135.0077  156.9894 LP  0  0  0  0  0  0  0  0  0  0  0  0  # atno 17394 bound_to 11000
  140.5000  134.1106  155.7249 LP  0  0  0  0  0  0  0  0  0  0  0  0  # atno 17395 bound_to 11000

$$$$
