#       Name:                AV-unprocessed.smi:2119
#       Creating user name   scv26
#       Creation time:       Fri Mar 27 11:37:59 2020


#       File generated by GOLD software.
#

@<TRIPOS>MOLECULE
AV-unprocessed.smi:2119
    55    57     1
SMALL
NO_CHARGES


@<TRIPOS>ATOM
      1 ****        -2.9406   0.2974   0.1880 O.2            1 S1                 0.0000
      2 ****        -2.0738   1.0574  -0.2423 C.2            1 S1                 0.0000
      3 ****        -0.8849   0.6424  -0.7002 N.am           1 S1                 0.0000
      4 ****        -0.4200  -0.7400  -0.7109 C.3            1 S1                 0.0000
      5 ****         1.1058  -0.8519  -0.4361 C.3            1 S1                 0.0000
      6 ****         1.4730  -0.4579   1.0256 C.3            1 S1                 0.0000
      7 ****         2.9446  -0.6364   1.3664 C.3            1 S1                 0.0000
      8 ****         3.0892   0.2103   2.6231 C.3            1 S1                 0.0000
      9 ****         2.2371   1.3265   2.4094 O.3            1 S1                 0.0000
     10 ****         1.2865   1.0223   1.3925 C.3            1 S1                 0.0000
     11 ****         1.6740  -2.1613  -0.8041 N.3            1 S1                 0.0000
     12 ****         1.7234  -2.4074  -2.2428 C.3            1 S1                 0.0000
     13 ****         2.4614  -3.7182  -2.5640 C.3            1 S1                 0.0000
     14 ****         1.8369  -4.7981  -1.8762 O.3            1 S1                 0.0000
     15 ****         1.8143  -4.6138  -0.4638 C.3            1 S1                 0.0000
     16 ****         1.0757  -3.3083  -0.1222 C.3            1 S1                 0.0000
     17 ****        -2.1844   2.3938  -0.3309 N.am           1 S1                 0.0000
     18 ****        -3.2504   3.2270   0.1040 C.ar           1 S1                 0.0000
     19 ****        -3.3240   4.5327  -0.4235 C.ar           1 S1                 0.0000
     20 ****        -4.3560   5.3892   0.0044 C.ar           1 S1                 0.0000
     21 ****        -5.2752   4.9064   0.9556 C.ar           1 S1                 0.0000
     22 ****        -5.2124   3.6651   1.4813 N.ar           1 S1                 0.0000
     23 ****        -4.2205   2.8480   1.0655 C.ar           1 S1                 0.0000
     24 ****        -0.2416   1.3384  -1.0474 H              1 S1                 0.0000
     25 ****        -0.9686  -1.3371   0.0193 H              1 S1                 0.0000
     26 ****        -0.6776  -1.1403  -1.6901 H              1 S1                 0.0000
     27 ****         1.5948  -0.1158  -1.0760 H              1 S1                 0.0000
     28 ****         0.8873  -1.0545   1.7266 H              1 S1                 0.0000
     29 ****         3.2248  -1.6773   1.5321 H              1 S1                 0.0000
     30 ****         3.5734  -0.2360   0.5697 H              1 S1                 0.0000
     31 ****         2.7362  -0.3404   3.4961 H              1 S1                 0.0000
     32 ****         4.1180   0.5198   2.8072 H              1 S1                 0.0000
     33 ****         1.4909   1.6675   0.5373 H              1 S1                 0.0000
     34 ****         0.2766   1.2354   1.7433 H              1 S1                 0.0000
     35 ****         0.7169  -2.4668  -2.6554 H              1 S1                 0.0000
     36 ****         2.2230  -1.5789  -2.7460 H              1 S1                 0.0000
     37 ****         2.4352  -3.9147  -3.6358 H              1 S1                 0.0000
     38 ****         3.5115  -3.6524  -2.2749 H              1 S1                 0.0000
     39 ****         1.3152  -5.4644   0.0001 H              1 S1                 0.0000
     40 ****         2.8343  -4.5910  -0.0771 H              1 S1                 0.0000
     41 ****         1.0941  -3.1645   0.9575 H              1 S1                 0.0000
     42 ****         0.0284  -3.4104  -0.4085 H              1 S1                 0.0000
     43 ****        -1.4230   2.8724  -0.7894 H              1 S1                 0.0000
     44 ****        -2.6013   4.8763  -1.1492 H              1 S1                 0.0000
     45 ****        -4.4403   6.3927  -0.3858 H              1 S1                 0.0000
     46 ****        -6.0791   5.5359   1.3075 H              1 S1                 0.0000
     47 ****        -4.2080   1.8806   1.5422 H              1 S1                 0.0000
     48 ****        -2.7756  -0.6887   0.2087 LP             1 S1                 0.0000
     49 ****        -3.8101   0.6658   0.5169 LP             1 S1                 0.0000
     50 ****         2.7856   2.1132   2.1260 LP             1 S1                 0.0000
     51 ****         1.7561   1.5441   3.2587 LP             1 S1                 0.0000
     52 ****         2.6137  -2.0816  -0.4717 LP             1 S1                 0.0000
     53 ****         2.3375  -5.6393  -2.0807 LP             1 S1                 0.0000
     54 ****         0.8954  -4.8829  -2.2025 LP             1 S1                 0.0000
     55 ****        -5.8809   3.3591   2.1591 LP             1 S1                 0.0000
@<TRIPOS>BOND
    1    1    2 2     
    2    2    3 am    
    3    2   17 am    
    4    3    4 1     
    5    3   24 1     
    6    4    5 1     
    7    4   25 1     
    8    4   26 1     
    9    5    6 1     
   10    5   11 1     
   11    5   27 1     
   12    6   10 1     
   13    6    7 1     
   14    6   28 1     
   15    7    8 1     
   16    7   29 1     
   17    7   30 1     
   18    8    9 1     
   19    8   31 1     
   20    8   32 1     
   21    9   10 1     
   22   10   33 1     
   23   10   34 1     
   24   11   16 1     
   25   11   12 1     
   26   12   13 1     
   27   12   35 1     
   28   12   36 1     
   29   13   14 1     
   30   13   37 1     
   31   13   38 1     
   32   14   15 1     
   33   15   16 1     
   34   15   39 1     
   35   15   40 1     
   36   16   41 1     
   37   16   42 1     
   38   17   18 1     
   39   17   43 1     
   40   18   23 ar    
   41   18   19 ar    
   42   19   20 ar    
   43   19   44 1     
   44   20   21 ar    
   45   20   45 1     
   46   21   22 ar    
   47   21   46 1     
   48   22   23 ar    
   49   23   47 1     
   50    1   48 1     
   51    1   49 1     
   52    9   50 1     
   53    9   51 1     
   54   11   52 1     
   55   14   53 1     
   56   14   54 1     
   57   22   55 1     
@<TRIPOS>SUBSTRUCTURE
      1 S1             1
@<TRIPOS>SET
LONE_PAIRS      STATIC     ATOMS    <user>   **** ""
8 48 49 50 51 52 53 54 55
DONOR_HYDROGENS      STATIC     ATOMS    <user>   **** ""
2 24 43
ATOM$BLUE        STATIC     ATOMS    COLORGROUP SYSTEM
8 48 49 50 51 52 53 54 55
ATOM$RED        STATIC     ATOMS    COLORGROUP SYSTEM
2 24 43
