AV-unprocessed.smi:2489|AV-procd|sdf|9805|dock4
  -GOLD-   2272013433D 1   1.00000     0.00000
 Structure written by MMmdl.
 34 35  0  0  0  0  0  0  0  0  2 V2000
  151.0542  137.5176  155.0483 C   0  0  0  0  0  0  0  0  0  0  0  0
  150.1092  138.1931  154.2311 O   0  0  0  0  0  0  0  0  0  0  0  0
  149.8241  139.5097  154.5221 C   0  0  0  0  0  0  0  0  0  0  0  0
  148.8835  140.1643  153.7000 C   0  0  0  0  0  0  0  0  0  0  0  0
  148.5430  141.5049  153.9604 C   0  0  0  0  0  0  0  0  0  0  0  0
  149.1233  142.1572  154.9893 N   0  3  0  0  0  0  0  0  0  0  0  0
  150.0447  141.5945  155.8029 C   0  0  0  0  0  0  0  0  0  0  0  0
  150.5587  142.3951  156.8568 N   0  0  0  0  0  0  0  0  0  0  0  0
  151.3387  142.0152  157.8867 C   0  0  0  0  0  0  0  0  0  0  0  0
  151.7864  140.8770  158.0285 O   0  0  0  0  0  0  0  0  0  0  0  0
  151.7175  143.1101  158.8965 C   0  0  2  0  0  0  0  0  0  0  0  0
  153.2108  143.4910  158.8876 C   0  0  0  0  0  0  0  0  0  0  0  0
  153.7142  143.0041  160.2319 C   0  0  0  0  0  0  0  0  0  0  0  0
  152.4648  143.1133  161.0971 C   0  0  2  0  0  0  0  0  0  0  0  0
  152.5069  142.2604  162.3691 C   0  0  0  0  0  0  0  0  0  0  0  0
  151.4427  142.6578  160.2246 O   0  0  0  0  0  0  0  0  0  0  0  0
  150.4068  140.2402  155.5907 C   0  0  0  0  0  0  0  0  0  0  0  0
  151.1683  136.4930  154.6945 H   0  0  0  0  0  0  0  0  0  0  0  0
  150.7234  137.4722  156.0868 H   0  0  0  0  0  0  0  0  0  0  0  0
  152.0345  137.9936  155.0017 H   0  0  0  0  0  0  0  0  0  0  0  0
  148.4206  139.6376  152.8779 H   0  0  0  0  0  0  0  0  0  0  0  0
  147.8281  142.0707  153.3808 H   0  0  0  0  0  0  0  0  0  0  0  0
  150.3572  143.3829  156.7986 H   0  0  0  0  0  0  0  0  0  0  0  0
  151.1112  143.9939  158.6940 H   0  0  0  0  0  0  0  0  0  0  0  0
  153.7850  143.0606  158.0662 H   0  0  0  0  0  0  0  0  0  0  0  0
  153.3122  144.5750  158.8219 H   0  0  0  0  0  0  0  0  0  0  0  0
  154.0338  141.9641  160.1530 H   0  0  0  0  0  0  0  0  0  0  0  0
  154.5503  143.5909  160.6129 H   0  0  0  0  0  0  0  0  0  0  0  0
  152.2740  144.1582  161.3477 H   0  0  0  0  0  0  0  0  0  0  0  0
  153.3168  142.5782  163.0260 H   0  0  0  0  0  0  0  0  0  0  0  0
  152.6595  141.2068  162.1340 H   0  0  0  0  0  0  0  0  0  0  0  0
  151.5736  142.3459  162.9258 H   0  0  0  0  0  0  0  0  0  0  0  0
  151.1141  139.7669  156.2530 H   0  0  0  0  0  0  0  0  0  0  0  0
  148.8555  143.1280  155.1543 H   0  0  0  0  0  0  0  0  0  0  0  0
  1  2  1  0  0  0  0
  1 18  1  0  0  0  0
  1 19  1  0  0  0  0
  1 20  1  0  0  0  0
  2  3  1  0  0  0  0
  3 17  1  0  0  0  0
  3  4  2  0  0  0  0
  4  5  1  0  0  0  0
  4 21  1  0  0  0  0
  5  6  2  0  0  0  0
  5 22  1  0  0  0  0
  6  7  1  0  0  0  0
  6 34  1  0  0  0  0
  7  8  1  0  0  0  0
  7 17  2  0  0  0  0
  8  9  1  0  0  0  0
  8 23  1  0  0  0  0
  9 10  2  0  0  0  0
  9 11  1  0  0  0  0
 11 16  1  0  0  0  0
 11 12  1  0  0  0  0
 11 24  1  0  0  0  0
 12 13  1  0  0  0  0
 12 25  1  0  0  0  0
 12 26  1  0  0  0  0
 13 14  1  0  0  0  0
 13 27  1  0  0  0  0
 13 28  1  0  0  0  0
 14 15  1  0  0  0  0
 14 16  1  0  0  0  0
 14 29  1  0  0  0  0
 15 30  1  0  0  0  0
 15 31  1  0  0  0  0
 15 32  1  0  0  0  0
 17 33  1  0  0  0  0
M  CHG  1   6   1
M  END
> <s_m_source_file>
AV-unprocessed.smi

> <i_m_source_file_index>
2489

> <i_lp_mmshare_version>
43012

> <i_f3d_flags>
0

> <s_epik_input>
W0NIM11PYzFbY0hdW2NIXW5jKFtjSF0xKVtOSF1DKD1PKVtDQEBIXTJbQ0gyXVtDSDJdW0NASF0oTzIpW0NIM10=

> <s_epik_cmdline>
J2VwaWtfcHl0aG9uJywgJy1waCcsICc3LjAnLCAnLXRuJywgJzgnLCAnLW1hJywgJzIwMCcsICctbWV0YWxfYmluZGluZycsICctaW1hZScsICc8aW5maWxlLm1hZT4nLCAnLW9tYWUnLCAnPG91dGZpbGUubWFlPic=

> <r_epik_Ionization_Penalty>
1.58956

> <r_epik_Ionization_Penalty_Charging>
1.1784

> <r_epik_Ionization_Penalty_Neutral>
0.411158

> <r_epik_State_Penalty>
1.31089

> <r_epik_Charging_Adjusted_Penalty>
2.48928

> <i_epik_Tot_Q>
1

> <i_epik_Tot_abs_Q>
1

> <r_epik_Metal_State_Penalty>
5.00213

> <b_epik_Metal_Only>
0

> <s_lp_Force_Field>
OPLS_2005

> <r_lp_Energy>
31.9404

> <b_lp_Chiralities_Consistent>
1

> <s_lp_Variant>
AV-unprocessed.smi:2489-11

> <Gold.Version>
5.8.1

> <Gold.Id.Protein>
6NUR|6NUR_protein|mol2

> <Gold.PLP.Fitness>
43.1026

> <Gold.PLP.PLP>
-35.4852

> <Gold.PLP.part.hbond>
-3.0000

> <Gold.PLP.part.metal>
0.0000

> <Gold.PLP.part.buried>
-1.0901

> <Gold.PLP.part.nonpolar>
-32.0286

> <Gold.PLP.part.repulsive>
0.5319

> <Gold.PLP.ligand.clash>
0.0000

> <Gold.PLP.ligand.torsion>
0.1336

> <Gold.PLP.Chemscore.Hbond>
2.6240

> <Gold.PLP.Chemscore.CHOScore>
0.0000

> <Gold.PLP.Chemscore.Metal>
0.0000

> <Gold.Chemscore.Hbonds>
donor molecule, donor type, donor heavy atom, donor atom, acceptor molecule, acceptor atom, score
      L1  H     6    34       P1  8028  2.00
      L1  H     8    23       P1  8028  0.28

> <Gold.PLP.Chemscore.Internal.Correction>
0.0125

> <Gold.Rescore>
     Score         DG    S(hbond)    S(metal)    S(lipo)     H(rot)  DE(clash)    DE(int)     intcor
     17.10     -19.75       1.85        0.00      96.38       1.24       1.32       1.33       ----

> <Gold.Chemscore.Fitness>
17.1033

> <Gold.Chemscore.DG>
-19.7526

> <Gold.Chemscore.ZeroCoef>
-5.4800

> <Gold.Chemscore.Hbond>
1.8481

> <Gold.Chemscore.Metal>
0.0000

> <Gold.Chemscore.Lipo>
96.3826

> <Gold.Chemscore.Internal_Hbond>
0.0000

> <Gold.Chemscore.DEClash>
1.3160

> <Gold.Chemscore.DEInternal>
1.3334

> <Gold.Chemscore.Rot>
1.2409

> <Gold.Chemscore.Internal.Correction>
   9.000000E+99

> <Gold.Chemscore.Hbonds>
donor molecule, donor type, donor heavy atom, donor atom, acceptor molecule, acceptor atom, score
      L1  H     6    34       P1  8028  1.00
      L1  H     8    23       P1  8028  0.28

> <Gold.Chemscore.Hbond.Weighted>
-6.1726

> <Gold.Chemscore.Metal.Weighted>
-0.0000

> <Gold.Chemscore.Lipo.Weighted>
-11.2768

> <Gold.Chemscore.Internal_Hbond.Weighted>
0.0000

> <Gold.Chemscore.DEClash.Weighted>
1.3160

> <Gold.Chemscore.DEInternal.Weighted>
1.3334

> <Gold.Chemscore.Rot.Weighted>
3.1767

> <Gold.Chemscore.Internal.Correction.Weighted>
   9.000000E+99

> <Gold.Protein.RotatedTorsions>
[ 6907 6896 6895 6894 ] final  143.16 input  -60.11 | X-H torsion
[ 7974 7965 7964 7962 ] final   40.70 input  175.53 | X-H torsion
[ 8008 7997 7996 7995 ] final   80.32 input   59.86 | X-H torsion
[ 10167 10162 10161 10158 ] final  -62.66 input  -65.29 | X-H torsion
[ 10718 10713 10712 10709 ] final   81.93 input   66.30 | X-H torsion
[ 10763 10752 10751 10750 ] final   15.96 input  -60.55 | X-H torsion
[ 11005 11000 10999 10996 ] final  123.46 input  -57.11 | X-H torsion

> <Gold.Protein.ActiveResidues>
 VAL166  LYS551  ARG553  GLY616  TRP617  ASP618  TYR619  PRO620  LYS621  CYS622 
 ASP623  PHE694  ASN695  SER759  ASP760  ASP761  ALA762  ILE779  LEU786  VAL792 
 PHE793  MET794  SER795  GLU796  ALA797  LYS798  CYS799  TRP800  GLU811  SER814 

> <Gold.Protein.RotatedAtoms>
  152.2097  133.4902  159.5103 H   0  0  0  0  0  0  0  0  0  0  0  0  # atno 6907 bound_to 6896
  150.6987  134.1483  159.4140 H   0  0  0  0  0  0  0  0  0  0  0  0  # atno 6908 bound_to 6896
  151.9402  135.0217  160.0586 H   0  0  0  0  0  0  0  0  0  0  0  0  # atno 6909 bound_to 6896
  146.0883  139.5502  142.9492 H   0  0  0  0  0  0  0  0  0  0  0  0  # atno 7974 bound_to 7965
  155.8818  140.3443  155.5893 H   0  0  0  0  0  0  0  0  0  0  0  0  # atno 8008 bound_to 7997
  155.7711  140.0845  157.2126 H   0  0  0  0  0  0  0  0  0  0  0  0  # atno 8009 bound_to 7997
  154.4025  140.1518  156.2930 H   0  0  0  0  0  0  0  0  0  0  0  0  # atno 8010 bound_to 7997
  140.5924  143.2344  151.6110 H   0  0  0  0  0  0  0  0  0  0  0  0  # atno 10167 bound_to 10162
  157.6845  131.0026  150.2300 H   0  0  0  0  0  0  0  0  0  0  0  0  # atno 10718 bound_to 10713
  153.1476  135.6772  153.8931 H   0  0  0  0  0  0  0  0  0  0  0  0  # atno 10763 bound_to 10752
  153.8368  135.3110  155.3424 H   0  0  0  0  0  0  0  0  0  0  0  0  # atno 10764 bound_to 10752
  154.7837  135.4874  153.9985 H   0  0  0  0  0  0  0  0  0  0  0  0  # atno 10765 bound_to 10752
  139.9313  134.9641  156.8262 H   0  0  0  0  0  0  0  0  0  0  0  0  # atno 11005 bound_to 11000
  145.6087  141.0343  143.1978 LP  0  0  0  0  0  0  0  0  0  0  0  0  # atno 17320 bound_to 7965
  144.7342  139.7636  143.7336 LP  0  0  0  0  0  0  0  0  0  0  0  0  # atno 17321 bound_to 7965
  139.5236  144.3128  152.0978 LP  0  0  0  0  0  0  0  0  0  0  0  0  # atno 17342 bound_to 10162
  140.2295  144.4383  150.6306 LP  0  0  0  0  0  0  0  0  0  0  0  0  # atno 17343 bound_to 10162
  156.2934  130.3749  149.7819 LP  0  0  0  0  0  0  0  0  0  0  0  0  # atno 17370 bound_to 10713
  156.5471  130.8325  151.3288 LP  0  0  0  0  0  0  0  0  0  0  0  0  # atno 17371 bound_to 10713
  140.6194  134.0008  155.7611 LP  0  0  0  0  0  0  0  0  0  0  0  0  # atno 17394 bound_to 11000
  141.0904  133.9926  157.3247 LP  0  0  0  0  0  0  0  0  0  0  0  0  # atno 17395 bound_to 11000

$$$$
