AV-unprocessed.smi:1867|AV-procd|sdf|7560|dock2
  -GOLD-   22720 9273D 1   1.00000     0.00000
 Structure written by MMmdl.
 52 55  0  0  0  0  0  0  0  0  2 V2000
  146.4181  139.2147  153.4953 O   0  0  0  0  0  0  0  0  0  0  0  0
  147.2145  138.3149  153.2382 C   0  0  0  0  0  0  0  0  0  0  0  0
  148.5151  138.3170  153.5903 N   0  0  0  0  0  0  0  0  0  0  0  0
  149.2155  139.2694  154.3777 C   0  0  0  0  0  0  0  0  0  0  0  0
  148.9648  140.6606  154.3527 C   0  0  0  0  0  0  0  0  0  0  0  0
  149.7090  141.5033  155.2001 C   0  0  0  0  0  0  0  0  0  0  0  0
  150.6803  140.9363  156.0592 C   0  0  0  0  0  0  0  0  0  0  0  0
  151.4523  141.7435  156.9184 N   0  0  0  0  0  0  0  0  0  0  0  0
  151.1897  143.1620  157.0986 C   0  0  0  0  0  0  0  0  0  0  0  0
  152.1631  143.6030  158.1916 C   0  0  0  0  0  0  0  0  0  0  0  0
  152.3149  142.3486  159.0521 C   0  0  0  0  0  0  0  0  0  0  0  0
  152.1859  141.1949  158.0519 C   0  0  0  0  0  0  0  0  0  0  0  0
  150.9126  139.6022  156.0860 N   0  0  0  0  0  0  0  0  0  0  0  0
  150.1953  138.7985  155.2738 C   0  0  0  0  0  0  0  0  0  0  0  0
  146.8387  137.2405  152.5222 N   0  0  0  0  0  0  0  0  0  0  0  0
  145.5113  136.9337  151.9886 C   0  0  2  0  0  0  0  0  0  0  0  0
  144.3483  137.4033  152.8847 C   0  0  0  0  0  0  0  0  0  0  0  0
  143.2897  136.2853  152.8017 C   0  0  0  0  0  0  0  0  0  0  0  0
  143.8182  135.3199  151.8192 N   0  3  2  0  0  0  0  0  0  0  0  0
  143.3375  133.9243  151.9150 C   0  0  0  0  0  0  0  0  0  0  0  0
  143.9388  133.1001  150.7583 C   0  0  0  0  0  0  0  0  0  0  0  0
  145.4761  133.2205  150.7073 C   0  0  0  0  0  0  0  0  0  0  0  0
  145.9195  134.6966  150.7061 C   0  0  0  0  0  0  0  0  0  0  0  0
  145.2826  135.4251  151.9007 C   0  0  1  0  0  0  0  0  0  0  0  0
  149.0781  137.5672  153.2171 H   0  0  0  0  0  0  0  0  0  0  0  0
  148.2104  141.0960  153.7159 H   0  0  0  0  0  0  0  0  0  0  0  0
  149.5204  142.5660  155.1790 H   0  0  0  0  0  0  0  0  0  0  0  0
  151.3445  143.7225  156.1761 H   0  0  0  0  0  0  0  0  0  0  0  0
  150.1575  143.3017  157.4222 H   0  0  0  0  0  0  0  0  0  0  0  0
  153.1252  143.8617  157.7472 H   0  0  0  0  0  0  0  0  0  0  0  0
  151.8067  144.4667  158.7533 H   0  0  0  0  0  0  0  0  0  0  0  0
  153.2521  142.3239  159.6085 H   0  0  0  0  0  0  0  0  0  0  0  0
  151.4964  142.3005  159.7716 H   0  0  0  0  0  0  0  0  0  0  0  0
  151.6801  140.3409  158.5042 H   0  0  0  0  0  0  0  0  0  0  0  0
  153.1683  140.8694  157.7084 H   0  0  0  0  0  0  0  0  0  0  0  0
  150.4161  137.7431  155.3399 H   0  0  0  0  0  0  0  0  0  0  0  0
  147.5712  136.5883  152.2814 H   0  0  0  0  0  0  0  0  0  0  0  0
  145.3967  137.3613  150.9902 H   0  0  0  0  0  0  0  0  0  0  0  0
  144.6693  137.5313  153.9197 H   0  0  0  0  0  0  0  0  0  0  0  0
  143.9534  138.3614  152.5444 H   0  0  0  0  0  0  0  0  0  0  0  0
  143.1754  135.8059  153.7754 H   0  0  0  0  0  0  0  0  0  0  0  0
  142.3134  136.6581  152.4907 H   0  0  0  0  0  0  0  0  0  0  0  0
  143.6232  133.4972  152.8775 H   0  0  0  0  0  0  0  0  0  0  0  0
  142.2483  133.9071  151.8634 H   0  0  0  0  0  0  0  0  0  0  0  0
  143.6483  132.0536  150.8542 H   0  0  0  0  0  0  0  0  0  0  0  0
  143.5205  133.4489  149.8131 H   0  0  0  0  0  0  0  0  0  0  0  0
  145.9076  132.7131  151.5711 H   0  0  0  0  0  0  0  0  0  0  0  0
  145.8637  132.7108  149.8246 H   0  0  0  0  0  0  0  0  0  0  0  0
  147.0067  134.7623  150.7580 H   0  0  0  0  0  0  0  0  0  0  0  0
  145.6205  135.1724  149.7710 H   0  0  0  0  0  0  0  0  0  0  0  0
  145.6126  134.9564  152.8311 H   0  0  0  0  0  0  0  0  0  0  0  0
  143.5572  135.6658  150.9068 H   0  0  0  0  0  0  0  0  0  0  0  0
  1  2  2  0  0  0  0
  2  3  1  0  0  0  0
  2 15  1  0  0  0  0
  3  4  1  0  0  0  0
  3 25  1  0  0  0  0
  4 14  1  0  0  0  0
  4  5  2  0  0  0  0
  5  6  1  0  0  0  0
  5 26  1  0  0  0  0
  6  7  2  0  0  0  0
  6 27  1  0  0  0  0
  7  8  1  0  0  0  0
  7 13  1  0  0  0  0
  8 12  1  0  0  0  0
  8  9  1  0  0  0  0
  9 10  1  0  0  0  0
  9 28  1  0  0  0  0
  9 29  1  0  0  0  0
 10 11  1  0  0  0  0
 10 30  1  0  0  0  0
 10 31  1  0  0  0  0
 11 12  1  0  0  0  0
 11 32  1  0  0  0  0
 11 33  1  0  0  0  0
 12 34  1  0  0  0  0
 12 35  1  0  0  0  0
 13 14  2  0  0  0  0
 14 36  1  0  0  0  0
 15 16  1  0  0  0  0
 15 37  1  0  0  0  0
 16 24  1  0  0  0  0
 16 17  1  0  0  0  0
 16 38  1  0  0  0  0
 17 18  1  0  0  0  0
 17 39  1  0  0  0  0
 17 40  1  0  0  0  0
 18 19  1  0  0  0  0
 18 41  1  0  0  0  0
 18 42  1  0  0  0  0
 19 24  1  0  0  0  0
 19 20  1  0  0  0  0
 19 52  1  0  0  0  0
 20 21  1  0  0  0  0
 20 43  1  0  0  0  0
 20 44  1  0  0  0  0
 21 22  1  0  0  0  0
 21 45  1  0  0  0  0
 21 46  1  0  0  0  0
 22 23  1  0  0  0  0
 22 47  1  0  0  0  0
 22 48  1  0  0  0  0
 23 24  1  0  0  0  0
 23 49  1  0  0  0  0
 23 50  1  0  0  0  0
 24 51  1  0  0  0  0
M  CHG  1  19   1
M  END
> <s_m_source_file>
AV-unprocessed.smi

> <i_m_source_file_index>
1867

> <i_lp_mmshare_version>
43012

> <i_f3d_flags>
0

> <s_epik_input>
W0NIMl0xW0NIMl1bQ0gyXVtDSDJdW0NASF0oTjEyKVtDQEBIXShbQ0gyXVtDSDJdMilbTkhdQyg9TylbTkhdYzNbY0hdW2NIXWMobltjSF0zKU40W0NIMl1bQ0gyXVtDSDJdW0NIMl00

> <s_epik_cmdline>
J2VwaWtfcHl0aG9uJywgJy1waCcsICc3LjAnLCAnLXRuJywgJzgnLCAnLW1hJywgJzIwMCcsICctbWV0YWxfYmluZGluZycsICctaW1hZScsICc8aW5maWxlLm1hZT4nLCAnLW9tYWUnLCAnPG91dGZpbGUubWFlPic=

> <r_lp_tautomer_probability>
1

> <r_epik_Ionization_Penalty>
0.0751123

> <r_epik_Ionization_Penalty_Charging>
0.000974069

> <r_epik_Ionization_Penalty_Neutral>
0.0741382

> <r_epik_State_Penalty>
0.0647261

> <r_epik_Charging_Adjusted_Penalty>
0.0657002

> <i_epik_Tot_Q>
1

> <i_epik_Tot_abs_Q>
1

> <r_epik_Metal_State_Penalty>
0.0580571

> <b_epik_Metal_Only>
0

> <s_lp_Force_Field>
OPLS_2005

> <r_lp_Energy>
71.0604

> <b_lp_Chiralities_Consistent>
1

> <s_lp_Variant>
AV-unprocessed.smi:1867-1

> <Gold.Version>
5.8.1

> <Gold.Id.Protein>
6NUR|6NUR_protein|mol2

> <Gold.PLP.Fitness>
46.4565

> <Gold.PLP.PLP>
-42.3830

> <Gold.PLP.part.hbond>
-2.0533

> <Gold.PLP.part.metal>
0.0000

> <Gold.PLP.part.buried>
-3.5932

> <Gold.PLP.part.nonpolar>
-37.6609

> <Gold.PLP.part.repulsive>
0.2725

> <Gold.PLP.ligand.clash>
0.0000

> <Gold.PLP.ligand.torsion>
0.7165

> <Gold.PLP.Chemscore.Hbond>
1.7840

> <Gold.PLP.Chemscore.CHOScore>
0.0000

> <Gold.PLP.Chemscore.Metal>
0.0000

> <Gold.Chemscore.Hbonds>
donor molecule, donor type, donor heavy atom, donor atom, acceptor molecule, acceptor atom, score
      L1  H     3    25       P1  7948  0.78
      L1  H    15    37       P1  7948  0.86

> <Gold.PLP.Chemscore.Internal.Correction>
0.1545

> <Gold.Rescore>
     Score         DG    S(hbond)    S(metal)    S(lipo)     H(rot)  DE(clash)    DE(int)     intcor
     18.90     -22.16       1.90        0.00     110.15       1.00       0.40       2.86       ----

> <Gold.Chemscore.Fitness>
18.9005

> <Gold.Chemscore.DG>
-22.1611

> <Gold.Chemscore.ZeroCoef>
-5.4800

> <Gold.Chemscore.Hbond>
1.9022

> <Gold.Chemscore.Metal>
0.0000

> <Gold.Chemscore.Lipo>
110.1522

> <Gold.Chemscore.Internal_Hbond>
0.0000

> <Gold.Chemscore.DEClash>
0.4007

> <Gold.Chemscore.DEInternal>
2.8598

> <Gold.Chemscore.Rot>
1.0000

> <Gold.Chemscore.Internal.Correction>
   9.000000E+99

> <Gold.Chemscore.Hbonds>
donor molecule, donor type, donor heavy atom, donor atom, acceptor molecule, acceptor atom, score
      L1  H     3    25       P1  7948  0.78
      L1  H    15    37       P1  7948  0.82

> <Gold.Chemscore.Hbond.Weighted>
-6.3533

> <Gold.Chemscore.Metal.Weighted>
-0.0000

> <Gold.Chemscore.Lipo.Weighted>
-12.8878

> <Gold.Chemscore.Internal_Hbond.Weighted>
0.0000

> <Gold.Chemscore.DEClash.Weighted>
0.4007

> <Gold.Chemscore.DEInternal.Weighted>
2.8598

> <Gold.Chemscore.Rot.Weighted>
2.5600

> <Gold.Chemscore.Internal.Correction.Weighted>
   9.000000E+99

> <Gold.Protein.RotatedTorsions>
[ 6907 6896 6895 6894 ] final   53.33 input  -60.11 | X-H torsion
[ 7974 7965 7964 7962 ] final   -5.58 input  175.53 | X-H torsion
[ 8008 7997 7996 7995 ] final  -27.92 input   59.86 | X-H torsion
[ 10167 10162 10161 10158 ] final   94.51 input  -65.29 | X-H torsion
[ 10718 10713 10712 10709 ] final  121.46 input   66.30 | X-H torsion
[ 10763 10752 10751 10750 ] final   91.09 input  -60.55 | X-H torsion
[ 11005 11000 10999 10996 ] final -169.03 input  -57.11 | X-H torsion

> <Gold.Protein.ActiveResidues>
 VAL166  LYS551  ARG553  GLY616  TRP617  ASP618  TYR619  PRO620  LYS621  CYS622 
 ASP623  PHE694  ASN695  SER759  ASP760  ASP761  ALA762  ILE779  LEU786  VAL792 
 PHE793  MET794  SER795  GLU796  ALA797  LYS798  CYS799  TRP800  GLU811  SER814 

> <Gold.Protein.RotatedAtoms>
  152.3326  134.7239  160.0285 H   0  0  0  0  0  0  0  0  0  0  0  0  # atno 6907 bound_to 6896
  151.7651  133.3331  159.3437 H   0  0  0  0  0  0  0  0  0  0  0  0  # atno 6908 bound_to 6896
  150.7432  134.6002  159.6077 H   0  0  0  0  0  0  0  0  0  0  0  0  # atno 6909 bound_to 6896
  146.2350  140.2041  142.8334 H   0  0  0  0  0  0  0  0  0  0  0  0  # atno 7974 bound_to 7965
  154.4355  140.1859  156.1008 H   0  0  0  0  0  0  0  0  0  0  0  0  # atno 8008 bound_to 7997
  156.0293  140.3332  155.7097 H   0  0  0  0  0  0  0  0  0  0  0  0  # atno 8009 bound_to 7997
  155.5862  140.0626  157.2761 H   0  0  0  0  0  0  0  0  0  0  0  0  # atno 8010 bound_to 7997
  139.8077  144.6787  150.9682 H   0  0  0  0  0  0  0  0  0  0  0  0  # atno 10167 bound_to 10162
  157.5816  131.1074  150.8177 H   0  0  0  0  0  0  0  0  0  0  0  0  # atno 10718 bound_to 10713
  153.2045  135.4410  155.0306 H   0  0  0  0  0  0  0  0  0  0  0  0  # atno 10763 bound_to 10752
  154.8166  135.3318  154.7161 H   0  0  0  0  0  0  0  0  0  0  0  0  # atno 10764 bound_to 10752
  153.7604  135.6992  153.4982 H   0  0  0  0  0  0  0  0  0  0  0  0  # atno 10765 bound_to 10752
  140.5353  134.5576  157.5086 H   0  0  0  0  0  0  0  0  0  0  0  0  # atno 11005 bound_to 11000
  144.9758  140.8412  143.5427 LP  0  0  0  0  0  0  0  0  0  0  0  0  # atno 17320 bound_to 7965
  145.2029  139.2243  143.5183 LP  0  0  0  0  0  0  0  0  0  0  0  0  # atno 17321 bound_to 7965
  140.7819  143.4217  151.0831 LP  0  0  0  0  0  0  0  0  0  0  0  0  # atno 17342 bound_to 10162
  139.7885  143.8252  152.3148 LP  0  0  0  0  0  0  0  0  0  0  0  0  # atno 17343 bound_to 10162
  156.8621  130.5117  149.5303 LP  0  0  0  0  0  0  0  0  0  0  0  0  # atno 17370 bound_to 10713
  156.0862  130.5860  150.9652 LP  0  0  0  0  0  0  0  0  0  0  0  0  # atno 17371 bound_to 10713
  139.9532  134.7580  156.0400 LP  0  0  0  0  0  0  0  0  0  0  0  0  # atno 17394 bound_to 11000
  141.1258  133.6600  156.3333 LP  0  0  0  0  0  0  0  0  0  0  0  0  # atno 17395 bound_to 11000

$$$$
