AV-unprocessed.smi:927|AV-procd|sdf|4187|dock10
  -GOLD-   22720 2 93D 1   1.00000     0.00000
 Structure written by MMmdl.
 21 21  0  0  0  0  0  0  0  0  2 V2000
  148.0370  139.0049  152.7981 N   0  3  0  0  0  0  0  0  0  0  0  0
  148.4928  139.0322  154.1992 C   0  0  0  0  0  0  0  0  0  0  0  0
  149.1912  140.3588  154.5481 C   0  0  2  0  0  0  0  0  0  0  0  0
  149.5467  141.0155  153.3468 O   0  0  0  0  0  0  0  0  0  0  0  0
  150.3999  140.1262  155.4409 C   0  0  0  0  0  0  0  0  0  0  0  0
  151.3229  139.1015  155.1433 C   0  0  0  0  0  0  0  0  0  0  0  0
  152.4320  138.9247  155.9950 C   0  0  0  0  0  0  0  0  0  0  0  0
  152.6596  139.6894  157.0840 N   0  0  0  0  0  0  0  0  0  0  0  0
  151.7748  140.6699  157.3639 C   0  0  0  0  0  0  0  0  0  0  0  0
  150.6347  140.9303  156.5775 C   0  0  0  0  0  0  0  0  0  0  0  0
  148.5874  139.6505  152.2501 H   0  0  0  0  0  0  0  0  0  0  0  0
  147.0641  139.2749  152.7611 H   0  0  0  0  0  0  0  0  0  0  0  0
  147.6214  138.8890  154.8392 H   0  0  0  0  0  0  0  0  0  0  0  0
  149.1587  138.1860  154.3735 H   0  0  0  0  0  0  0  0  0  0  0  0
  148.4910  141.0069  155.0777 H   0  0  0  0  0  0  0  0  0  0  0  0
  149.3687  140.4334  152.6231 H   0  0  0  0  0  0  0  0  0  0  0  0
  151.1894  138.4617  154.2832 H   0  0  0  0  0  0  0  0  0  0  0  0
  153.1562  138.1490  155.7947 H   0  0  0  0  0  0  0  0  0  0  0  0
  151.9821  141.2665  158.2400 H   0  0  0  0  0  0  0  0  0  0  0  0
  149.9597  141.7303  156.8447 H   0  0  0  0  0  0  0  0  0  0  0  0
  148.1405  138.0716  152.4264 H   0  0  0  0  0  0  0  0  0  0  0  0
  1  2  1  0  0  0  0
  1 11  1  0  0  0  0
  1 12  1  0  0  0  0
  1 21  1  0  0  0  0
  2  3  1  0  0  0  0
  2 13  1  0  0  0  0
  2 14  1  0  0  0  0
  3  4  1  0  0  0  0
  3  5  1  0  0  0  0
  3 15  1  0  0  0  0
  4 16  1  0  0  0  0
  5 10  1  0  0  0  0
  5  6  2  0  0  0  0
  6  7  1  0  0  0  0
  6 17  1  0  0  0  0
  7  8  2  0  0  0  0
  7 18  1  0  0  0  0
  8  9  1  0  0  0  0
  9 10  2  0  0  0  0
  9 19  1  0  0  0  0
 10 20  1  0  0  0  0
M  CHG  1   1   1
M  END
> <s_m_source_file>
AV-unprocessed.smi

> <i_m_source_file_index>
927

> <i_lp_mmshare_version>
43012

> <i_f3d_flags>
0

> <s_epik_input>
W05IMl1bQ0gyXVtDQEhdKFtPSF0pYzFbY0hdW2NIXW5bY0hdW2NIXTE=

> <s_epik_cmdline>
J2VwaWtfcHl0aG9uJywgJy1waCcsICc3LjAnLCAnLXRuJywgJzgnLCAnLW1hJywgJzIwMCcsICctbWV0YWxfYmluZGluZycsICctaW1hZScsICc8aW5maWxlLm1hZT4nLCAnLW9tYWUnLCAnPG91dGZpbGUubWFlPic=

> <r_epik_Ionization_Penalty>
0.0159363

> <r_epik_Ionization_Penalty_Charging>
0.0140431

> <r_epik_Ionization_Penalty_Neutral>
0.00189321

> <r_epik_State_Penalty>
0.0109628

> <r_epik_Charging_Adjusted_Penalty>
0.0250059

> <i_epik_Tot_Q>
1

> <i_epik_Tot_abs_Q>
1

> <r_epik_Metal_State_Penalty>
0.0113463

> <b_epik_Metal_Only>
0

> <s_lp_Force_Field>
OPLS_2005

> <r_lp_Energy>
4.52457

> <b_lp_Chiralities_Consistent>
1

> <s_lp_Variant>
AV-unprocessed.smi:927-1

> <Gold.Version>
5.8.1

> <Gold.Id.Protein>
6NUR|6NUR_protein|mol2

> <Gold.PLP.Fitness>
38.5799

> <Gold.PLP.PLP>
-23.3567

> <Gold.PLP.part.hbond>
-5.0765

> <Gold.PLP.part.metal>
0.0000

> <Gold.PLP.part.buried>
-0.5362

> <Gold.PLP.part.nonpolar>
-16.1022

> <Gold.PLP.part.repulsive>
0.0683

> <Gold.PLP.ligand.clash>
0.0000

> <Gold.PLP.ligand.torsion>
0.9742

> <Gold.PLP.Chemscore.Hbond>
5.7217

> <Gold.PLP.Chemscore.CHOScore>
0.0000

> <Gold.PLP.Chemscore.Metal>
0.0000

> <Gold.Chemscore.Hbonds>
donor molecule, donor type, donor heavy atom, donor atom, acceptor molecule, acceptor atom, score
      L1  H     1    11       P1  7957  1.00
      L1  H     1    21       P1  7948  1.82
      L1  H     4    16       P1  7957  0.98
      P1  H  7989  7998       L1     4  0.20
      P1  H  7997  8009       L1     8  0.75
      P1  H  8011  8017       L1     4  0.70

> <Gold.PLP.Chemscore.Internal.Correction>
0.0066

> <Gold.Rescore>
     Score         DG    S(hbond)    S(metal)    S(lipo)     H(rot)  DE(clash)    DE(int)     intcor
     17.88     -19.23       3.89        0.00      48.14       1.90       0.23       1.12       ----

> <Gold.Chemscore.Fitness>
17.8803

> <Gold.Chemscore.DG>
-19.2336

> <Gold.Chemscore.ZeroCoef>
-5.4800

> <Gold.Chemscore.Hbond>
3.8863

> <Gold.Chemscore.Metal>
0.0000

> <Gold.Chemscore.Lipo>
48.1403

> <Gold.Chemscore.Internal_Hbond>
0.0000

> <Gold.Chemscore.DEClash>
0.2308

> <Gold.Chemscore.DEInternal>
1.1225

> <Gold.Chemscore.Rot>
1.8981

> <Gold.Chemscore.Internal.Correction>
   9.000000E+99

> <Gold.Chemscore.Hbonds>
donor molecule, donor type, donor heavy atom, donor atom, acceptor molecule, acceptor atom, score
      L1  H     1    11       P1  7957  0.91
      L1  H     1    21       P1  7948  0.88
      L1  H     4    16       P1  7957  0.87
      P1  H  7989  7998       L1     4  0.02
      P1  H  7997  8009       L1     8  0.09
      P1  H  8011  8017       L1     4  0.07

> <Gold.Chemscore.Hbond.Weighted>
-12.9803

> <Gold.Chemscore.Metal.Weighted>
-0.0000

> <Gold.Chemscore.Lipo.Weighted>
-5.6324

> <Gold.Chemscore.Internal_Hbond.Weighted>
0.0000

> <Gold.Chemscore.DEClash.Weighted>
0.2308

> <Gold.Chemscore.DEInternal.Weighted>
1.1225

> <Gold.Chemscore.Rot.Weighted>
4.8592

> <Gold.Chemscore.Internal.Correction.Weighted>
   9.000000E+99

> <Gold.Protein.RotatedTorsions>
[ 6907 6896 6895 6894 ] final  -45.16 input  -60.11 | X-H torsion
[ 7974 7965 7964 7962 ] final  -92.37 input  175.53 | X-H torsion
[ 8008 7997 7996 7995 ] final -179.04 input   59.86 | X-H torsion
[ 10167 10162 10161 10158 ] final   39.14 input  -65.29 | X-H torsion
[ 10718 10713 10712 10709 ] final   10.75 input   66.30 | X-H torsion
[ 10763 10752 10751 10750 ] final  -42.23 input  -60.55 | X-H torsion
[ 11005 11000 10999 10996 ] final  153.43 input  -57.11 | X-H torsion

> <Gold.Protein.ActiveResidues>
 VAL166  LYS551  ARG553  GLY616  TRP617  ASP618  TYR619  PRO620  LYS621  CYS622 
 ASP623  PHE694  ASN695  SER759  ASP760  ASP761  ALA762  ILE779  LEU786  VAL792 
 PHE793  MET794  SER795  GLU796  ALA797  LYS798  CYS799  TRP800  GLU811  SER814 

> <Gold.Protein.RotatedAtoms>
  150.9250  134.8666  159.7513 H   0  0  0  0  0  0  0  0  0  0  0  0  # atno 6907 bound_to 6896
  152.5011  134.4163  159.9475 H   0  0  0  0  0  0  0  0  0  0  0  0  # atno 6908 bound_to 6896
  151.4194  133.3663  159.2789 H   0  0  0  0  0  0  0  0  0  0  0  0  # atno 6909 bound_to 6896
  145.4007  140.9537  143.2289 H   0  0  0  0  0  0  0  0  0  0  0  0  # atno 7974 bound_to 7965
  156.0259  140.1271  157.0309 H   0  0  0  0  0  0  0  0  0  0  0  0  # atno 8008 bound_to 7997
  154.4330  140.1059  156.6100 H   0  0  0  0  0  0  0  0  0  0  0  0  # atno 8009 bound_to 7997
  155.5878  140.3469  155.4560 H   0  0  0  0  0  0  0  0  0  0  0  0  # atno 8010 bound_to 7997
  140.3869  144.1905  150.6130 H   0  0  0  0  0  0  0  0  0  0  0  0  # atno 10167 bound_to 10162
  156.9855  130.6022  149.5681 H   0  0  0  0  0  0  0  0  0  0  0  0  # atno 10718 bound_to 10713
  153.9756  135.6723  153.4748 H   0  0  0  0  0  0  0  0  0  0  0  0  # atno 10763 bound_to 10752
  153.0772  135.4942  154.8426 H   0  0  0  0  0  0  0  0  0  0  0  0  # atno 10764 bound_to 10752
  154.7194  135.3114  154.9032 H   0  0  0  0  0  0  0  0  0  0  0  0  # atno 10765 bound_to 10752
  140.1397  134.8747  157.2314 H   0  0  0  0  0  0  0  0  0  0  0  0  # atno 11005 bound_to 11000
  144.8376  139.5525  143.6915 LP  0  0  0  0  0  0  0  0  0  0  0  0  # atno 17320 bound_to 7965
  146.2753  139.6737  142.9267 LP  0  0  0  0  0  0  0  0  0  0  0  0  # atno 17321 bound_to 7965
  140.4880  143.2357  151.8860 LP  0  0  0  0  0  0  0  0  0  0  0  0  # atno 17342 bound_to 10162
  139.4791  144.5197  151.8818 LP  0  0  0  0  0  0  0  0  0  0  0  0  # atno 17343 bound_to 10162
  156.0227  130.5322  150.8322 LP  0  0  0  0  0  0  0  0  0  0  0  0  # atno 17370 bound_to 10713
  157.5496  131.0943  150.9714 LP  0  0  0  0  0  0  0  0  0  0  0  0  # atno 17371 bound_to 10713
  140.2738  134.3429  155.7365 LP  0  0  0  0  0  0  0  0  0  0  0  0  # atno 17394 bound_to 11000
  141.2184  133.7438  156.9262 LP  0  0  0  0  0  0  0  0  0  0  0  0  # atno 17395 bound_to 11000

$$$$
