AV-unprocessed.smi:37|AV-procd|sdf|325|dock7
  -GOLD-   2262016153D 1   1.00000     0.00000
 Structure written by MMmdl.
 43 44  0  0  0  0  0  0  0  0  2 V2000
  152.1410  142.5866  160.2232 C   0  0  0  0  0  0  0  0  0  0  0  0
  151.6256  142.3900  158.7909 C   0  0  0  0  0  0  0  0  0  0  0  0
  151.5145  140.9111  158.4342 C   0  0  0  0  0  0  0  0  0  0  0  0
  152.5131  140.2382  158.1777 O   0  0  0  0  0  0  0  0  0  0  0  0
  150.2384  140.4818  158.4130 O   0  0  0  0  0  0  0  0  0  0  0  0
  149.9349  139.1144  158.1692 C   0  0  0  0  0  0  0  0  0  0  0  0
  149.6090  138.9112  156.6807 C   0  0  2  0  0  0  0  0  0  0  0  0
  149.3094  137.5326  156.4752 O   0  0  0  0  0  0  0  0  0  0  0  0
  150.1166  137.0202  155.4634 C   0  0  2  0  0  0  0  0  0  0  0  0
  150.3947  135.5473  155.6875 N   0  0  0  0  0  0  0  0  0  0  0  0
  150.0358  134.6587  154.6901 C   0  0  0  0  0  0  0  0  0  0  0  0
  150.2382  133.3321  154.8217 C   0  0  0  0  0  0  0  0  0  0  0  0
  149.8835  132.4990  153.8283 F   0  0  0  0  0  0  0  0  0  0  0  0
  150.8432  132.8120  156.0456 C   0  0  0  0  0  0  0  0  0  0  0  0
  151.0394  131.6027  156.1552 O   0  0  0  0  0  0  0  0  0  0  0  0
  151.1657  133.7048  157.0250 N   0  5  0  0  0  0  0  0  0  0  0  0
  150.9548  135.0481  156.9008 C   0  0  0  0  0  0  0  0  0  0  0  0
  151.2249  135.8456  157.7980 O   0  0  0  0  0  0  0  0  0  0  0  0
  151.3521  137.9233  155.3256 C   0  0  2  0  0  0  0  0  0  0  0  0
  152.8800  137.4976  156.5378 Br  0  0  0  0  0  0  0  0  0  0  0  0
  150.7724  139.2650  155.7360 C   0  0  1  0  0  0  0  0  0  0  0  0
  150.2475  139.9515  154.6051 O   0  0  0  0  0  0  0  0  0  0  0  0
  149.5081  141.0653  154.7635 C   0  0  0  0  0  0  0  0  0  0  0  0
  149.5666  141.8458  155.7135 O   0  0  0  0  0  0  0  0  0  0  0  0
  148.5317  141.2902  153.6117 C   0  0  0  0  0  0  0  0  0  0  0  0
  147.0692  141.2405  154.0737 C   0  0  0  0  0  0  0  0  0  0  0  0
  152.2068  143.6469  160.4662 H   0  0  0  0  0  0  0  0  0  0  0  0
  153.1340  142.1548  160.3550 H   0  0  0  0  0  0  0  0  0  0  0  0
  151.4747  142.1212  160.9504 H   0  0  0  0  0  0  0  0  0  0  0  0
  150.6472  142.8578  158.6784 H   0  0  0  0  0  0  0  0  0  0  0  0
  152.2949  142.8772  158.0813 H   0  0  0  0  0  0  0  0  0  0  0  0
  150.7305  138.4421  158.4925 H   0  0  0  0  0  0  0  0  0  0  0  0
  149.0584  138.8620  158.7662 H   0  0  0  0  0  0  0  0  0  0  0  0
  148.7196  139.4930  156.4334 H   0  0  0  0  0  0  0  0  0  0  0  0
  149.5117  137.0580  154.5559 H   0  0  0  0  0  0  0  0  0  0  0  0
  149.5894  135.0312  153.7798 H   0  0  0  0  0  0  0  0  0  0  0  0
  151.7303  137.9041  154.3032 H   0  0  0  0  0  0  0  0  0  0  0  0
  151.5213  139.8794  156.2344 H   0  0  0  0  0  0  0  0  0  0  0  0
  148.7467  142.2541  153.1504 H   0  0  0  0  0  0  0  0  0  0  0  0
  148.7050  140.5297  152.8496 H   0  0  0  0  0  0  0  0  0  0  0  0
  146.3952  141.3650  153.2261 H   0  0  0  0  0  0  0  0  0  0  0  0
  146.8481  142.0331  154.7894 H   0  0  0  0  0  0  0  0  0  0  0  0
  146.8346  140.2855  154.5447 H   0  0  0  0  0  0  0  0  0  0  0  0
  1  2  1  0  0  0  0
  1 27  1  0  0  0  0
  1 28  1  0  0  0  0
  1 29  1  0  0  0  0
  2  3  1  0  0  0  0
  2 30  1  0  0  0  0
  2 31  1  0  0  0  0
  3  4  2  0  0  0  0
  3  5  1  0  0  0  0
  5  6  1  0  0  0  0
  6  7  1  0  0  0  0
  6 32  1  0  0  0  0
  6 33  1  0  0  0  0
  7 21  1  0  0  0  0
  7  8  1  0  0  0  0
  7 34  1  0  0  0  0
  8  9  1  0  0  0  0
  9 10  1  0  0  0  0
  9 19  1  0  0  0  0
  9 35  1  0  0  0  0
 10 17  1  0  0  0  0
 10 11  1  0  0  0  0
 11 12  2  0  0  0  0
 11 36  1  0  0  0  0
 12 13  1  0  0  0  0
 12 14  1  0  0  0  0
 14 15  2  0  0  0  0
 14 16  1  0  0  0  0
 16 17  1  0  0  0  0
 17 18  2  0  0  0  0
 19 20  1  0  0  0  0
 19 21  1  0  0  0  0
 19 37  1  0  0  0  0
 21 22  1  0  0  0  0
 21 38  1  0  0  0  0
 22 23  1  0  0  0  0
 23 24  2  0  0  0  0
 23 25  1  0  0  0  0
 25 26  1  0  0  0  0
 25 39  1  0  0  0  0
 25 40  1  0  0  0  0
 26 41  1  0  0  0  0
 26 42  1  0  0  0  0
 26 43  1  0  0  0  0
M  CHG  1  16  -1
M  END
> <s_m_source_file>
AV-unprocessed.smi

> <i_m_source_file_index>
37

> <i_lp_mmshare_version>
43012

> <i_f3d_flags>
0

> <s_epik_input>
W0NIM11bQ0gyXUMoPU8pT1tDSDJdW0NAQEhdMU9bQ0BASF0objJbY0hdYyhGKWMoPU8pW25IXWMyPU8pW0NAQEhdKEJyKVtDQEhdMU9DKD1PKVtDSDJdW0NIM10=

> <s_epik_cmdline>
J2VwaWtfcHl0aG9uJywgJy1waCcsICc3LjAnLCAnLXRuJywgJzgnLCAnLW1hJywgJzIwMCcsICctbWV0YWxfYmluZGluZycsICctaW1hZScsICc8aW5maWxlLm1hZT4nLCAnLW9tYWUnLCAnPG91dGZpbGUubWFlPic=

> <r_epik_Ionization_Penalty>
1.08158

> <r_epik_Ionization_Penalty_Charging>
9.05154e-09

> <r_epik_Ionization_Penalty_Neutral>
1.08158

> <r_epik_State_Penalty>
1.13706

> <r_epik_Charging_Adjusted_Penalty>
1.13706

> <i_epik_Tot_Q>
-1

> <i_epik_Tot_abs_Q>
1

> <r_epik_Metal_State_Penalty>
0.00343535

> <b_epik_Metal_Only>
0

> <s_epik_Chemistry_Notes>
This compound has an ester and may undergo hydrolysis at high or low pH. This compound contains an acetal/aminal-like group ( X-CH(R)-Y where X, Y are N, S, or O) that may be acid/base labile, releasing an aldehyde.

> <s_lp_Force_Field>
OPLS_2005

> <r_lp_Energy>
32.7064

> <b_lp_Chiralities_Consistent>
1

> <s_lp_Variant>
AV-unprocessed.smi:37-23

> <Gold.Version>
5.8.1

> <Gold.Id.Protein>
6NUR|6NUR_protein|mol2

> <Gold.PLP.Fitness>
45.1783

> <Gold.PLP.PLP>
-36.8154

> <Gold.PLP.part.hbond>
-4.0000

> <Gold.PLP.part.metal>
0.0000

> <Gold.PLP.part.buried>
-2.0247

> <Gold.PLP.part.nonpolar>
-32.4971

> <Gold.PLP.part.repulsive>
1.0990

> <Gold.PLP.ligand.clash>
0.0000

> <Gold.PLP.ligand.torsion>
0.9250

> <Gold.PLP.Chemscore.Hbond>
2.3401

> <Gold.PLP.Chemscore.CHOScore>
1.0000

> <Gold.PLP.Chemscore.Metal>
0.0000

> <Gold.Chemscore.Hbonds>
donor molecule, donor type, donor heavy atom, donor atom, acceptor molecule, acceptor atom, score
      P1  H  6896  6908       L1    16  0.73
      P1  H  6896  6909       L1    18  0.21
      P1  H  7997  8008       L1     4  0.16
      L1  C    11    36       P1  7948  0.66

> <Gold.PLP.Chemscore.Internal.Correction>
0.1927

> <Gold.Rescore>
     Score         DG    S(hbond)    S(metal)    S(lipo)     H(rot)  DE(clash)    DE(int)     intcor
      3.32      -8.50       1.03        0.00      67.91       3.27       0.89       4.29       ----

> <Gold.Chemscore.Fitness>
3.3225

> <Gold.Chemscore.DG>
-8.5045

> <Gold.Chemscore.ZeroCoef>
-5.4800

> <Gold.Chemscore.Hbond>
1.0307

> <Gold.Chemscore.Metal>
0.0000

> <Gold.Chemscore.Lipo>
67.9093

> <Gold.Chemscore.Internal_Hbond>
0.0000

> <Gold.Chemscore.DEClash>
0.8919

> <Gold.Chemscore.DEInternal>
4.2901

> <Gold.Chemscore.Rot>
3.2669

> <Gold.Chemscore.Internal.Correction>
   9.000000E+99

> <Gold.Chemscore.Hbonds>
donor molecule, donor type, donor heavy atom, donor atom, acceptor molecule, acceptor atom, score
      P1  H  6896  6908       L1    16  0.13
      P1  H  6896  6909       L1    18  0.18
      P1  H  7997  8008       L1     4  0.16

> <Gold.Chemscore.Hbond.Weighted>
-3.4424

> <Gold.Chemscore.Metal.Weighted>
-0.0000

> <Gold.Chemscore.Lipo.Weighted>
-7.9454

> <Gold.Chemscore.Internal_Hbond.Weighted>
0.0000

> <Gold.Chemscore.DEClash.Weighted>
0.8919

> <Gold.Chemscore.DEInternal.Weighted>
4.2901

> <Gold.Chemscore.Rot.Weighted>
8.3634

> <Gold.Chemscore.Internal.Correction.Weighted>
   9.000000E+99

> <Gold.Protein.RotatedTorsions>
[ 6907 6896 6895 6894 ] final   89.08 input  -60.11 | X-H torsion
[ 7974 7965 7964 7962 ] final  -41.55 input  175.53 | X-H torsion
[ 8008 7997 7996 7995 ] final  -81.96 input   59.86 | X-H torsion
[ 10167 10162 10161 10158 ] final  172.30 input  -65.29 | X-H torsion
[ 10718 10713 10712 10709 ] final   30.09 input   66.30 | X-H torsion
[ 10763 10752 10751 10750 ] final  -18.77 input  -60.55 | X-H torsion
[ 11005 11000 10999 10996 ] final    2.20 input  -57.11 | X-H torsion

> <Gold.Protein.ActiveResidues>
 VAL166  LYS551  ARG553  GLY616  TRP617  ASP618  TYR619  PRO620  LYS621  CYS622 
 ASP623  PHE694  ASN695  SER759  ASP760  ASP761  ALA762  ILE779  LEU786  VAL792 
 PHE793  MET794  SER795  GLU796  ALA797  LYS798  CYS799  TRP800  GLU811  SER814 

> <Gold.Protein.RotatedAtoms>
  152.5432  134.2022  159.8716 H   0  0  0  0  0  0  0  0  0  0  0  0  # atno 6907 bound_to 6896
  151.2010  133.4604  159.2604 H   0  0  0  0  0  0  0  0  0  0  0  0  # atno 6908 bound_to 6896
  151.0990  134.9973  159.8495 H   0  0  0  0  0  0  0  0  0  0  0  0  # atno 6909 bound_to 6896
  146.0200  140.6861  142.9183 H   0  0  0  0  0  0  0  0  0  0  0  0  # atno 7974 bound_to 7965
  154.6037  140.0640  156.9403 H   0  0  0  0  0  0  0  0  0  0  0  0  # atno 8008 bound_to 7997
  155.2089  140.3321  155.4313 H   0  0  0  0  0  0  0  0  0  0  0  0  # atno 8009 bound_to 7997
  156.2334  140.1851  156.7166 H   0  0  0  0  0  0  0  0  0  0  0  0  # atno 8010 bound_to 7997
  139.5072  144.3389  152.0038 H   0  0  0  0  0  0  0  0  0  0  0  0  # atno 10167 bound_to 10162
  157.2550  130.7133  149.6424 H   0  0  0  0  0  0  0  0  0  0  0  0  # atno 10718 bound_to 10713
  153.5945  135.7001  153.5410 H   0  0  0  0  0  0  0  0  0  0  0  0  # atno 10763 bound_to 10752
  153.3150  135.4090  155.1368 H   0  0  0  0  0  0  0  0  0  0  0  0  # atno 10764 bound_to 10752
  154.8594  135.3681  154.5478 H   0  0  0  0  0  0  0  0  0  0  0  0  # atno 10765 bound_to 10752
  140.6069  133.9784  155.8158 H   0  0  0  0  0  0  0  0  0  0  0  0  # atno 11005 bound_to 11000
  144.6986  140.3549  143.7175 LP  0  0  0  0  0  0  0  0  0  0  0  0  # atno 17320 bound_to 7965
  145.7208  139.1709  143.2485 LP  0  0  0  0  0  0  0  0  0  0  0  0  # atno 17321 bound_to 7965
  140.2827  144.3841  150.6113 LP  0  0  0  0  0  0  0  0  0  0  0  0  # atno 17342 bound_to 10162
  140.6006  143.2167  151.7080 LP  0  0  0  0  0  0  0  0  0  0  0  0  # atno 17343 bound_to 10162
  155.9665  130.4415  150.5345 LP  0  0  0  0  0  0  0  0  0  0  0  0  # atno 17370 bound_to 10713
  157.3237  131.0686  151.1913 LP  0  0  0  0  0  0  0  0  0  0  0  0  # atno 17371 bound_to 10713
  141.0834  134.0027  157.3350 LP  0  0  0  0  0  0  0  0  0  0  0  0  # atno 17394 bound_to 11000
  139.9208  135.0200  156.8058 LP  0  0  0  0  0  0  0  0  0  0  0  0  # atno 17395 bound_to 11000

$$$$
