#       Name:                AV-unprocessed.smi:2095
#       Creating user name   scv26
#       Creation time:       Fri Mar 27 11:28:33 2020


#       File generated by GOLD software.
#

@<TRIPOS>MOLECULE
AV-unprocessed.smi:2095
    47    48     1
SMALL
NO_CHARGES


@<TRIPOS>ATOM
      1 ****        -0.8664  -1.5111   3.7809 C.3            1 S1                 0.0000
      2 ****        -0.9780  -2.4695   2.5815 C.3            1 S1                 0.0000
      3 ****        -2.4109  -2.9843   2.3660 C.3            1 S1                 0.0000
      4 ****        -3.3012  -1.8906   1.7664 C.3            1 S1                 0.0000
      5 ****        -2.6745  -1.3237   0.4848 C.3            1 S1                 0.0000
      6 ****        -1.3055  -0.7870   0.7307 N.4            1 S1                 1.0000
      7 ****        -0.7841  -0.0273  -0.4539 C.3            1 S1                 0.0000
      8 ****        -1.3711   1.4015  -0.4415 C.3            1 S1                 0.0000
      9 ****         0.7655   0.0096  -0.5658 C.3            1 S1                 0.0000
     10 ****         1.2303   0.7214  -1.7548 N.am           1 S1                 0.0000
     11 ****         1.7571   1.9563  -1.7696 C.2            1 S1                 0.0000
     12 ****         1.8959   2.6440  -0.7581 O.2            1 S1                 0.0000
     13 ****         2.1799   2.5014  -3.1362 C.3            1 S1                 0.0000
     14 ****         3.5411   3.0045  -3.1097 N.pl3          1 S1                 0.0000
     15 ****         4.7129   2.3665  -3.1426 C.2            1 S1                 0.0000
     16 ****         5.7315   3.2114  -3.0964 N.2            1 S1                 0.0000
     17 ****         5.1114   4.4481  -3.0318 N.2            1 S1                 0.0000
     18 ****         3.8117   4.3317  -3.0404 N.2            1 S1                 0.0000
     19 ****        -0.4135  -1.8494   1.2847 C.3            1 S1                 0.0000
     20 ****        -1.4276  -0.5903   3.6216 H              1 S1                 0.0000
     21 ****         0.1720  -1.2340   3.9651 H              1 S1                 0.0000
     22 ****        -1.2454  -1.9774   4.6907 H              1 S1                 0.0000
     23 ****        -0.3586  -3.3338   2.8246 H              1 S1                 0.0000
     24 ****        -2.3886  -3.8381   1.6873 H              1 S1                 0.0000
     25 ****        -2.8344  -3.3488   3.3025 H              1 S1                 0.0000
     26 ****        -4.2881  -2.2988   1.5464 H              1 S1                 0.0000
     27 ****        -3.4562  -1.0897   2.4900 H              1 S1                 0.0000
     28 ****        -2.6259  -2.1014  -0.2792 H              1 S1                 0.0000
     29 ****        -3.3317  -0.5488   0.0931 H              1 S1                 0.0000
     30 ****        -1.1445  -0.5337  -1.3510 H              1 S1                 0.0000
     31 ****        -1.1307   1.9444  -1.3551 H              1 S1                 0.0000
     32 ****        -0.9806   1.9779   0.3980 H              1 S1                 0.0000
     33 ****        -2.4571   1.4074  -0.3632 H              1 S1                 0.0000
     34 ****         1.2050   0.4385   0.3365 H              1 S1                 0.0000
     35 ****         1.1650  -1.0005  -0.6575 H              1 S1                 0.0000
     36 ****         1.1524   0.2332  -2.6355 H              1 S1                 0.0000
     37 ****         2.1129   1.7260  -3.9009 H              1 S1                 0.0000
     38 ****         1.5020   3.3039  -3.4306 H              1 S1                 0.0000
     39 ****         4.8184   1.2931  -3.1984 H              1 S1                 0.0000
     40 ****         0.5735  -1.4530   1.5203 H              1 S1                 0.0000
     41 ****        -0.2736  -2.6264   0.5313 H              1 S1                 0.0000
     42 ****        -1.3915  -0.1050   1.4710 H              1 S1                 0.0000
     43 ****         1.6099   2.2882   0.1316 LP             1 S1                 0.0000
     44 ****         2.2947   3.5586  -0.8261 LP             1 S1                 0.0000
     45 ****         6.7102   3.0064  -3.1059 LP             1 S1                 0.0000
     46 ****         5.5983   5.3203  -2.9846 LP             1 S1                 0.0000
     47 ****         3.1451   5.0762  -3.0032 LP             1 S1                 0.0000
@<TRIPOS>BOND
    1    1    2 1     
    2    1   20 1     
    3    1   21 1     
    4    1   22 1     
    5    2   19 1     
    6    2    3 1     
    7    2   23 1     
    8    3    4 1     
    9    3   24 1     
   10    3   25 1     
   11    4    5 1     
   12    4   26 1     
   13    4   27 1     
   14    5    6 1     
   15    5   28 1     
   16    5   29 1     
   17    6    7 1     
   18    6   19 1     
   19    6   42 1     
   20    7    8 1     
   21    7    9 1     
   22    7   30 1     
   23    8   31 1     
   24    8   32 1     
   25    8   33 1     
   26    9   10 1     
   27    9   34 1     
   28    9   35 1     
   29   10   11 am    
   30   10   36 1     
   31   11   12 2     
   32   11   13 1     
   33   13   14 1     
   34   13   37 1     
   35   13   38 1     
   36   14   18 1     
   37   14   15 1     
   38   15   16 2     
   39   15   39 1     
   40   16   17 1     
   41   17   18 2     
   42   19   40 1     
   43   19   41 1     
   44   12   43 1     
   45   12   44 1     
   46   16   45 1     
   47   17   46 1     
   48   18   47 1     
@<TRIPOS>SUBSTRUCTURE
      1 S1             1
@<TRIPOS>SET
LONE_PAIRS      STATIC     ATOMS    <user>   **** ""
5 43 44 45 46 47
DONOR_HYDROGENS      STATIC     ATOMS    <user>   **** ""
2 42 36
ATOM$BLUE        STATIC     ATOMS    COLORGROUP SYSTEM
5 43 44 45 46 47
ATOM$RED        STATIC     ATOMS    COLORGROUP SYSTEM
2 42 36
