AV-unprocessed.smi:1254|AV-procd|sdf|5269|dock3
  -GOLD-   22720 4383D 1   1.00000     0.00000
 Structure written by MMmdl.
 46 47  0  0  0  0  0  0  0  0  2 V2000
  153.4220  141.7986  160.8279 C   0  0  0  0  0  0  0  0  0  0  0  0
  152.6365  141.4341  159.6146 C   0  0  0  0  0  0  0  0  0  0  0  0
  151.4667  141.9055  159.0882 C   0  0  0  0  0  0  0  0  0  0  0  0
  151.2931  141.1054  157.9275 C   0  0  0  0  0  0  0  0  0  0  0  0
  150.1663  141.2797  157.0838 N   0  0  0  0  0  0  0  0  0  0  0  0
  150.0066  140.8266  155.8287 C   0  0  0  0  0  0  0  0  0  0  0  0
  150.8439  140.1866  155.1921 O   0  0  0  0  0  0  0  0  0  0  0  0
  148.8059  141.1638  155.3365 N   0  0  0  0  0  0  0  0  0  0  0  0
  148.3166  140.8128  154.0063 C   0  0  0  0  0  0  0  0  0  0  0  0
  148.0397  139.3048  153.8449 C   0  0  2  0  0  0  0  0  0  0  0  0
  146.8541  138.9994  152.9044 C   0  0  0  0  0  0  0  0  0  0  0  0
  146.5973  137.5390  152.8496 N   0  3  2  0  0  0  0  0  0  0  0  0
  145.5016  137.1555  151.9228 C   0  0  0  0  0  0  0  0  0  0  0  0
  145.6884  135.7557  151.2967 C   0  0  0  0  0  0  0  0  0  0  0  0
  144.4872  135.4002  150.4080 C   0  0  0  0  0  0  0  0  0  0  0  0
  145.9056  134.6703  152.3646 C   0  0  0  0  0  0  0  0  0  0  0  0
  146.3941  137.0003  154.2151 C   0  0  0  0  0  0  0  0  0  0  0  0
  147.5822  137.3667  155.1188 C   0  0  0  0  0  0  0  0  0  0  0  0
  147.7490  138.7787  155.1352 O   0  0  0  0  0  0  0  0  0  0  0  0
  152.2707  140.2283  157.7579 N   0  0  0  0  0  0  0  0  0  0  0  0
  153.1357  140.4332  158.8393 O   0  0  0  0  0  0  0  0  0  0  0  0
  153.2421  142.8361  161.1100 H   0  0  0  0  0  0  0  0  0  0  0  0
  154.4912  141.6774  160.6514 H   0  0  0  0  0  0  0  0  0  0  0  0
  153.1439  141.1656  161.6707 H   0  0  0  0  0  0  0  0  0  0  0  0
  150.8379  142.6935  159.4757 H   0  0  0  0  0  0  0  0  0  0  0  0
  149.3957  141.7939  157.4841 H   0  0  0  0  0  0  0  0  0  0  0  0
  148.1772  141.6857  155.9295 H   0  0  0  0  0  0  0  0  0  0  0  0
  147.4132  141.3855  153.7895 H   0  0  0  0  0  0  0  0  0  0  0  0
  149.0637  141.1316  153.2789 H   0  0  0  0  0  0  0  0  0  0  0  0
  148.9394  138.8172  153.4653 H   0  0  0  0  0  0  0  0  0  0  0  0
  145.9572  139.5173  153.2480 H   0  0  0  0  0  0  0  0  0  0  0  0
  147.0775  139.3749  151.9071 H   0  0  0  0  0  0  0  0  0  0  0  0
  144.5555  137.1619  152.4667 H   0  0  0  0  0  0  0  0  0  0  0  0
  145.4095  137.9148  151.1445 H   0  0  0  0  0  0  0  0  0  0  0  0
  146.5626  135.7667  150.6464 H   0  0  0  0  0  0  0  0  0  0  0  0
  143.5642  135.3550  150.9873 H   0  0  0  0  0  0  0  0  0  0  0  0
  144.6253  134.4311  149.9276 H   0  0  0  0  0  0  0  0  0  0  0  0
  144.3483  136.1395  149.6183 H   0  0  0  0  0  0  0  0  0  0  0  0
  145.0609  134.6150  153.0522 H   0  0  0  0  0  0  0  0  0  0  0  0
  146.8030  134.8618  152.9534 H   0  0  0  0  0  0  0  0  0  0  0  0
  146.0244  133.6880  151.9061 H   0  0  0  0  0  0  0  0  0  0  0  0
  145.4683  137.3999  154.6321 H   0  0  0  0  0  0  0  0  0  0  0  0
  146.2869  135.9156  154.1757 H   0  0  0  0  0  0  0  0  0  0  0  0
  147.4006  137.0202  156.1364 H   0  0  0  0  0  0  0  0  0  0  0  0
  148.4979  136.8823  154.7762 H   0  0  0  0  0  0  0  0  0  0  0  0
  147.4378  137.1038  152.4965 H   0  0  0  0  0  0  0  0  0  0  0  0
  1  2  1  0  0  0  0
  1 22  1  0  0  0  0
  1 23  1  0  0  0  0
  1 24  1  0  0  0  0
  2 21  1  0  0  0  0
  2  3  2  0  0  0  0
  3  4  1  0  0  0  0
  3 25  1  0  0  0  0
  4  5  1  0  0  0  0
  4 20  2  0  0  0  0
  5  6  1  0  0  0  0
  5 26  1  0  0  0  0
  6  7  2  0  0  0  0
  6  8  1  0  0  0  0
  8  9  1  0  0  0  0
  8 27  1  0  0  0  0
  9 10  1  0  0  0  0
  9 28  1  0  0  0  0
  9 29  1  0  0  0  0
 10 19  1  0  0  0  0
 10 11  1  0  0  0  0
 10 30  1  0  0  0  0
 11 12  1  0  0  0  0
 11 31  1  0  0  0  0
 11 32  1  0  0  0  0
 12 13  1  0  0  0  0
 12 17  1  0  0  0  0
 12 46  1  0  0  0  0
 13 14  1  0  0  0  0
 13 33  1  0  0  0  0
 13 34  1  0  0  0  0
 14 15  1  0  0  0  0
 14 16  1  0  0  0  0
 14 35  1  0  0  0  0
 15 36  1  0  0  0  0
 15 37  1  0  0  0  0
 15 38  1  0  0  0  0
 16 39  1  0  0  0  0
 16 40  1  0  0  0  0
 16 41  1  0  0  0  0
 17 18  1  0  0  0  0
 17 42  1  0  0  0  0
 17 43  1  0  0  0  0
 18 19  1  0  0  0  0
 18 44  1  0  0  0  0
 18 45  1  0  0  0  0
 20 21  1  0  0  0  0
M  CHG  1  12   1
M  END
> <s_m_source_file>
AV-unprocessed.smi

> <i_m_source_file_index>
1254

> <i_lp_mmshare_version>
43012

> <i_f3d_flags>
0

> <s_epik_input>
W0NIM11jMVtjSF1jKG5vMSlbTkhdQyg9TylbTkhdW0NIMl1bQ0BASF0yW0NIMl1OKFtDSDJdW0NIMl1PMilbQ0gyXVtDSF0oW0NIM10pW0NIM10=

> <s_epik_cmdline>
J2VwaWtfcHl0aG9uJywgJy1waCcsICc3LjAnLCAnLXRuJywgJzgnLCAnLW1hJywgJzIwMCcsICctbWV0YWxfYmluZGluZycsICctaW1hZScsICc8aW5maWxlLm1hZT4nLCAnLW9tYWUnLCAnPG91dGZpbGUubWFlPic=

> <r_epik_Ionization_Penalty>
0.0986825

> <r_epik_Ionization_Penalty_Charging>
0.0986478

> <r_epik_Ionization_Penalty_Neutral>
3.46838e-05

> <r_epik_State_Penalty>
0.0887259

> <r_epik_Charging_Adjusted_Penalty>
0.187374

> <i_epik_Tot_Q>
1

> <i_epik_Tot_abs_Q>
1

> <r_epik_Metal_State_Penalty>
0.103424

> <b_epik_Metal_Only>
0

> <s_lp_Force_Field>
OPLS_2005

> <r_lp_Energy>
15.3676

> <b_lp_Chiralities_Consistent>
1

> <s_lp_Variant>
AV-unprocessed.smi:1254-1

> <Gold.Version>
5.8.1

> <Gold.Id.Protein>
6NUR|6NUR_protein|mol2

> <Gold.PLP.Fitness>
40.8210

> <Gold.PLP.PLP>
-33.2975

> <Gold.PLP.part.hbond>
-4.0000

> <Gold.PLP.part.metal>
0.0000

> <Gold.PLP.part.buried>
-1.5603

> <Gold.PLP.part.nonpolar>
-28.0661

> <Gold.PLP.part.repulsive>
0.2735

> <Gold.PLP.ligand.clash>
0.0000

> <Gold.PLP.ligand.torsion>
0.8696

> <Gold.PLP.Chemscore.Hbond>
3.0386

> <Gold.PLP.Chemscore.CHOScore>
0.0000

> <Gold.PLP.Chemscore.Metal>
0.0000

> <Gold.Chemscore.Hbonds>
donor molecule, donor type, donor heavy atom, donor atom, acceptor molecule, acceptor atom, score
      L1  H    12    46       P1  7948  2.00
      P1  H  7989  7998       L1     7  1.00

> <Gold.PLP.Chemscore.Internal.Correction>
0.1469

> <Gold.Rescore>
     Score         DG    S(hbond)    S(metal)    S(lipo)     H(rot)  DE(clash)    DE(int)     intcor
     14.23     -16.43       1.98        0.00      74.91       1.73       0.02       2.18       ----

> <Gold.Chemscore.Fitness>
14.2346

> <Gold.Chemscore.DG>
-16.4319

> <Gold.Chemscore.ZeroCoef>
-5.4800

> <Gold.Chemscore.Hbond>
1.9802

> <Gold.Chemscore.Metal>
0.0000

> <Gold.Chemscore.Lipo>
74.9116

> <Gold.Chemscore.Internal_Hbond>
0.0000

> <Gold.Chemscore.DEClash>
0.0215

> <Gold.Chemscore.DEInternal>
2.1758

> <Gold.Chemscore.Rot>
1.7291

> <Gold.Chemscore.Internal.Correction>
   9.000000E+99

> <Gold.Chemscore.Hbonds>
donor molecule, donor type, donor heavy atom, donor atom, acceptor molecule, acceptor atom, score
      L1  H    12    46       P1  7948  1.00
      P1  H  7989  7998       L1     7  0.95

> <Gold.Chemscore.Hbond.Weighted>
-6.6137

> <Gold.Chemscore.Metal.Weighted>
-0.0000

> <Gold.Chemscore.Lipo.Weighted>
-8.7647

> <Gold.Chemscore.Internal_Hbond.Weighted>
0.0000

> <Gold.Chemscore.DEClash.Weighted>
0.0215

> <Gold.Chemscore.DEInternal.Weighted>
2.1758

> <Gold.Chemscore.Rot.Weighted>
4.4265

> <Gold.Chemscore.Internal.Correction.Weighted>
   9.000000E+99

> <Gold.Protein.RotatedTorsions>
[ 6907 6896 6895 6894 ] final  -39.20 input  -60.11 | X-H torsion
[ 7974 7965 7964 7962 ] final   21.88 input  175.53 | X-H torsion
[ 8008 7997 7996 7995 ] final -162.02 input   59.86 | X-H torsion
[ 10167 10162 10161 10158 ] final  155.95 input  -65.29 | X-H torsion
[ 10718 10713 10712 10709 ] final -155.83 input   66.30 | X-H torsion
[ 10763 10752 10751 10750 ] final   29.29 input  -60.55 | X-H torsion
[ 11005 11000 10999 10996 ] final   18.58 input  -57.11 | X-H torsion

> <Gold.Protein.ActiveResidues>
 VAL166  LYS551  ARG553  GLY616  TRP617  ASP618  TYR619  PRO620  LYS621  CYS622 
 ASP623  PHE694  ASN695  SER759  ASP760  ASP761  ALA762  ILE779  LEU786  VAL792 
 PHE793  MET794  SER795  GLU796  ALA797  LYS798  CYS799  TRP800  GLU811  SER814 

> <Gold.Protein.RotatedAtoms>
  150.9932  134.9262  159.7911 H   0  0  0  0  0  0  0  0  0  0  0  0  # atno 6907 bound_to 6896
  152.5257  134.3253  159.9173 H   0  0  0  0  0  0  0  0  0  0  0  0  # atno 6908 bound_to 6896
  151.3259  133.3979  159.2693 H   0  0  0  0  0  0  0  0  0  0  0  0  # atno 6909 bound_to 6896
  146.2053  139.7965  142.8731 H   0  0  0  0  0  0  0  0  0  0  0  0  # atno 7974 bound_to 7965
  155.8007  140.0891  157.1959 H   0  0  0  0  0  0  0  0  0  0  0  0  # atno 8008 bound_to 7997
  154.3982  140.1473  156.3329 H   0  0  0  0  0  0  0  0  0  0  0  0  # atno 8009 bound_to 7997
  155.8466  140.3436  155.5668 H   0  0  0  0  0  0  0  0  0  0  0  0  # atno 8010 bound_to 7997
  139.4821  144.5053  151.8107 H   0  0  0  0  0  0  0  0  0  0  0  0  # atno 10167 bound_to 10162
  156.5182  130.8466  151.2672 H   0  0  0  0  0  0  0  0  0  0  0  0  # atno 10718 bound_to 10713
  153.0439  135.6492  154.0869 H   0  0  0  0  0  0  0  0  0  0  0  0  # atno 10763 bound_to 10752
  154.0570  135.2891  155.3332 H   0  0  0  0  0  0  0  0  0  0  0  0  # atno 10764 bound_to 10752
  154.6682  135.5366  153.8170 H   0  0  0  0  0  0  0  0  0  0  0  0  # atno 10765 bound_to 10752
  140.4232  134.1497  155.7674 H   0  0  0  0  0  0  0  0  0  0  0  0  # atno 11005 bound_to 11000
  145.3342  141.0273  143.3429 LP  0  0  0  0  0  0  0  0  0  0  0  0  # atno 17320 bound_to 7965
  144.8777  139.4947  143.6737 LP  0  0  0  0  0  0  0  0  0  0  0  0  # atno 17321 bound_to 7965
  140.4550  144.1802  150.5900 LP  0  0  0  0  0  0  0  0  0  0  0  0  # atno 17342 bound_to 10162
  140.4545  143.2473  151.9303 LP  0  0  0  0  0  0  0  0  0  0  0  0  # atno 17343 bound_to 10162
  157.7441  130.9926  150.2643 LP  0  0  0  0  0  0  0  0  0  0  0  0  # atno 17370 bound_to 10713
  156.3175  130.3781  149.7605 LP  0  0  0  0  0  0  0  0  0  0  0  0  # atno 17371 bound_to 10713
  141.1775  133.8483  157.1370 LP  0  0  0  0  0  0  0  0  0  0  0  0  # atno 17394 bound_to 11000
  140.0185  134.9956  157.0543 LP  0  0  0  0  0  0  0  0  0  0  0  0  # atno 17395 bound_to 11000

$$$$
