#       Name:                AV-unprocessed.smi:1056
#       Creating user name   scv26
#       Creation time:       Fri Mar 27 03:15:06 2020


#       File generated by GOLD software.
#

@<TRIPOS>MOLECULE
AV-unprocessed.smi:1056
    50    52     1
SMALL
NO_CHARGES


@<TRIPOS>ATOM
      1 ****        -4.1575   3.1168  -1.6227 C.3            1 S1                 0.0000
      2 ****        -3.4129   2.0694  -0.8129 C.ar           1 S1                 0.0000
      3 ****        -3.1482   2.3175   0.5527 C.ar           1 S1                 0.0000
      4 ****        -2.4626   1.3682   1.3416 C.ar           1 S1                 0.0000
      5 ****        -2.0995   1.4037   2.6769 N.2            1 S1                 0.0000
      6 ****        -1.4909   0.2305   2.8209 C.2            1 S1                 0.0000
      7 ****        -1.4121  -0.5609   1.7341 N.pl3          1 S1                 0.0000
      8 ****        -0.7971  -1.8734   1.6558 C.3            1 S1                 0.0000
      9 ****         0.7355  -1.8026   1.5111 C.3            1 S1                 0.0000
     10 ****         1.2190  -3.1309   1.4831 O.3            1 S1                 0.0000
     11 ****         1.1938  -1.0696   0.2300 C.3            1 S1                 0.0000
     12 ****         2.6697  -0.9354   0.1351 N.4            1 S1                 1.0000
     13 ****         3.1342  -0.7278  -1.2604 C.3            1 S1                 0.0000
     14 ****         4.6612  -0.9117  -1.3489 C.3            1 S1                 0.0000
     15 ****         5.3285  -0.1611  -0.2788 N.pl3          1 S1                -1.0000
     16 ****         4.7684   0.2406   0.9044 C.2            1 S1                 0.0000
     17 ****         5.3757   0.7502   1.8434 O.2            1 S1                 0.0000
     18 ****         3.2313   0.0889   1.0625 C.3            1 S1                 0.0000
     19 ****        -2.0471   0.1529   0.7229 C.ar           1 S1                 0.0000
     20 ****        -2.3023  -0.1045  -0.6357 C.ar           1 S1                 0.0000
     21 ****        -2.9865   0.8559  -1.4100 C.ar           1 S1                 0.0000
     22 ****        -3.2573   0.5689  -2.8761 C.3            1 S1                 0.0000
     23 ****        -4.4589   3.9606  -1.0015 H              1 S1                 0.0000
     24 ****        -5.0584   2.6909  -2.0645 H              1 S1                 0.0000
     25 ****        -3.5260   3.5000  -2.4245 H              1 S1                 0.0000
     26 ****        -3.4723   3.2420   1.0076 H              1 S1                 0.0000
     27 ****        -1.0754  -0.0714   3.7714 H              1 S1                 0.0000
     28 ****        -1.0655  -2.4266   2.5571 H              1 S1                 0.0000
     29 ****        -1.2367  -2.4158   0.8176 H              1 S1                 0.0000
     30 ****         1.1381  -1.3159   2.3987 H              1 S1                 0.0000
     31 ****         2.1610  -3.1165   1.5561 H              1 S1                 0.0000
     32 ****         0.8157  -1.6208  -0.6323 H              1 S1                 0.0000
     33 ****         0.7549  -0.0735   0.1680 H              1 S1                 0.0000
     34 ****         2.6549  -1.4396  -1.9334 H              1 S1                 0.0000
     35 ****         2.8458   0.2699  -1.5958 H              1 S1                 0.0000
     36 ****         4.8871  -1.9754  -1.2709 H              1 S1                 0.0000
     37 ****         5.0047  -0.6069  -2.3371 H              1 S1                 0.0000
     38 ****         2.7664   1.0576   0.8737 H              1 S1                 0.0000
     39 ****         3.0163  -0.1770   2.0968 H              1 S1                 0.0000
     40 ****        -1.9741  -1.0331  -1.0786 H              1 S1                 0.0000
     41 ****        -2.8177  -0.3803  -3.1837 H              1 S1                 0.0000
     42 ****        -2.8337   1.3523  -3.5049 H              1 S1                 0.0000
     43 ****        -4.3303   0.5175  -3.0616 H              1 S1                 0.0000
     44 ****         3.0625  -1.8229   0.4131 H              1 S1                 0.0000
     45 ****        -2.2543   2.1225   3.3547 LP             1 S1                 0.0000
     46 ****         0.9559  -3.5655   0.6217 LP             1 S1                 0.0000
     47 ****         0.8311  -3.6452   2.2480 LP             1 S1                 0.0000
     48 ****         6.2871   0.0809  -0.4286 LP             1 S1                 0.0000
     49 ****         6.3620   0.9012   1.7779 LP             1 S1                 0.0000
     50 ****         4.8835   1.0138   2.6730 LP             1 S1                 0.0000
@<TRIPOS>BOND
    1    1    2 1     
    2    1   23 1     
    3    1   24 1     
    4    1   25 1     
    5    2   21 ar    
    6    2    3 ar    
    7    3    4 ar    
    8    3   26 1     
    9    4   19 ar    
   10    4    5 1     
   11    5    6 2     
   12    6    7 1     
   13    6   27 1     
   14    7    8 1     
   15    7   19 1     
   16    8    9 1     
   17    8   28 1     
   18    8   29 1     
   19    9   10 1     
   20    9   11 1     
   21    9   30 1     
   22   10   31 1     
   23   11   12 1     
   24   11   32 1     
   25   11   33 1     
   26   12   18 1     
   27   12   13 1     
   28   12   44 1     
   29   13   14 1     
   30   13   34 1     
   31   13   35 1     
   32   14   15 1     
   33   14   36 1     
   34   14   37 1     
   35   15   16 1     
   36   16   17 2     
   37   16   18 1     
   38   18   38 1     
   39   18   39 1     
   40   19   20 ar    
   41   20   21 ar    
   42   20   40 1     
   43   21   22 1     
   44   22   41 1     
   45   22   42 1     
   46   22   43 1     
   47    5   45 1     
   48   10   46 1     
   49   10   47 1     
   50   15   48 1     
   51   17   49 1     
   52   17   50 1     
@<TRIPOS>SUBSTRUCTURE
      1 S1             1
@<TRIPOS>SET
LONE_PAIRS      STATIC     ATOMS    <user>   **** ""
6 45 46 47 48 49 50
DONOR_HYDROGENS      STATIC     ATOMS    <user>   **** ""
2 31 44
ATOM$BLUE        STATIC     ATOMS    COLORGROUP SYSTEM
6 45 46 47 48 49 50
ATOM$RED        STATIC     ATOMS    COLORGROUP SYSTEM
2 31 44
