AV-unprocessed.smi:45|AV-procd|sdf|409|dock9
  -GOLD-   2262016273D 1   1.00000     0.00000
 Structure written by MMmdl.
 61 64  0  0  0  0  0  0  0  0  2 V2000
  146.5736  127.3192  162.6276 C   0  0  0  0  0  0  0  0  0  0  0  0
  147.3520  128.4258  162.1960 O   0  0  0  0  0  0  0  0  0  0  0  0
  146.9941  129.0570  161.0228 C   0  0  0  0  0  0  0  0  0  0  0  0
  145.9786  128.5871  160.1524 C   0  0  0  0  0  0  0  0  0  0  0  0
  145.6817  129.2763  158.9613 C   0  0  0  0  0  0  0  0  0  0  0  0
  146.3871  130.4454  158.6169 C   0  0  0  0  0  0  0  0  0  0  0  0
  146.0476  131.1581  157.3140 C   0  0  0  0  0  0  0  0  0  0  0  0
  146.1855  132.6114  157.3093 N   0  0  0  0  0  0  0  0  0  0  0  0
  146.6807  133.3114  156.1937 C   0  0  0  0  0  0  0  0  0  0  0  0
  146.1411  133.0428  154.9826 N   0  0  0  0  0  0  0  0  0  0  0  0
  146.5667  133.6920  153.8906 C   0  0  0  0  0  0  0  0  0  0  0  0
  146.0041  133.3927  152.6527 N   0  0  0  0  0  0  0  0  0  0  0  0
  145.6072  132.0338  152.3054 C   0  0  0  0  0  0  0  0  0  0  0  0
  145.8141  131.9122  150.7966 C   0  0  0  0  0  0  0  0  0  0  0  0
  145.5988  133.3389  150.3069 C   0  0  0  0  0  0  0  0  0  0  0  0
  146.1701  134.1993  151.4437 C   0  0  1  0  0  0  0  0  0  0  0  0
  145.4876  135.5785  151.5456 C   0  0  0  0  0  0  0  0  0  0  0  0
  145.5149  136.2251  150.2913 O   0  0  0  0  0  0  0  0  0  0  0  0
  147.5191  134.6353  153.9502 N   0  3  0  0  0  0  0  0  0  0  0  0
  148.0947  134.9411  155.1368 C   0  0  0  0  0  0  0  0  0  0  0  0
  147.6965  134.2916  156.3247 C   0  0  0  0  0  0  0  0  0  0  0  0
  148.3748  134.6134  157.6298 C   0  0  0  0  0  0  0  0  0  0  0  0
  149.0167  133.7615  158.2445 O   0  0  0  0  0  0  0  0  0  0  0  0
  148.2054  135.8711  158.0676 N   0  0  0  0  0  0  0  0  0  0  0  0
  148.8048  136.4181  159.2793 C   0  0  0  0  0  0  0  0  0  0  0  0
  148.1196  135.9281  160.5437 C   0  0  0  0  0  0  0  0  0  0  0  0
  148.0111  134.6049  160.6974 N   0  0  0  0  0  0  0  0  0  0  0  0
  147.4116  134.1679  161.8260 C   0  0  0  0  0  0  0  0  0  0  0  0
  146.9218  135.0623  162.7989 C   0  0  0  0  0  0  0  0  0  0  0  0
  147.0931  136.4347  162.5275 C   0  0  0  0  0  0  0  0  0  0  0  0
  147.6935  136.8662  161.3969 N   0  0  0  0  0  0  0  0  0  0  0  0
  147.3818  130.9315  159.4925 C   0  0  0  0  0  0  0  0  0  0  0  0
  147.6874  130.2385  160.6794 C   0  0  0  0  0  0  0  0  0  0  0  0
  148.9299  130.8501  161.7112 Cl  0  0  0  0  0  0  0  0  0  0  0  0
  147.2413  134.3314  151.2835 H   0  0  0  0  0  0  0  0  0  0  0  0
  146.9880  126.9298  163.5575 H   0  0  0  0  0  0  0  0  0  0  0  0
  146.5897  126.5108  161.8953 H   0  0  0  0  0  0  0  0  0  0  0  0
  145.5408  127.6104  162.8240 H   0  0  0  0  0  0  0  0  0  0  0  0
  145.4159  127.6923  160.3707 H   0  0  0  0  0  0  0  0  0  0  0  0
  144.9111  128.8971  158.3060 H   0  0  0  0  0  0  0  0  0  0  0  0
  146.6604  130.7472  156.5108 H   0  0  0  0  0  0  0  0  0  0  0  0
  145.0143  130.9201  157.0607 H   0  0  0  0  0  0  0  0  0  0  0  0
  146.1816  133.0828  158.2032 H   0  0  0  0  0  0  0  0  0  0  0  0
  146.1880  131.2832  152.8431 H   0  0  0  0  0  0  0  0  0  0  0  0
  144.5562  131.8997  152.5628 H   0  0  0  0  0  0  0  0  0  0  0  0
  146.8385  131.6015  150.5859 H   0  0  0  0  0  0  0  0  0  0  0  0
  145.1395  131.1928  150.3315 H   0  0  0  0  0  0  0  0  0  0  0  0
  146.0777  133.5354  149.3471 H   0  0  0  0  0  0  0  0  0  0  0  0
  144.5292  133.5205  150.1895 H   0  0  0  0  0  0  0  0  0  0  0  0
  144.4534  135.4792  151.8768 H   0  0  0  0  0  0  0  0  0  0  0  0
  145.9896  136.2203  152.2678 H   0  0  0  0  0  0  0  0  0  0  0  0
  144.8993  136.9424  150.3089 H   0  0  0  0  0  0  0  0  0  0  0  0
  148.8674  135.6953  155.0915 H   0  0  0  0  0  0  0  0  0  0  0  0
  147.6516  136.5050  157.5106 H   0  0  0  0  0  0  0  0  0  0  0  0
  149.8528  136.1187  159.3107 H   0  0  0  0  0  0  0  0  0  0  0  0
  148.7990  137.5092  159.2373 H   0  0  0  0  0  0  0  0  0  0  0  0
  147.3211  133.0993  161.9529 H   0  0  0  0  0  0  0  0  0  0  0  0
  146.4422  134.7153  163.7021 H   0  0  0  0  0  0  0  0  0  0  0  0
  146.7478  137.1884  163.2195 H   0  0  0  0  0  0  0  0  0  0  0  0
  147.9257  131.8346  159.2574 H   0  0  0  0  0  0  0  0  0  0  0  0
  147.8279  135.1159  153.1049 H   0  0  0  0  0  0  0  0  0  0  0  0
  1  2  1  0  0  0  0
  1 36  1  0  0  0  0
  1 37  1  0  0  0  0
  1 38  1  0  0  0  0
  2  3  1  0  0  0  0
  3 33  1  0  0  0  0
  3  4  2  0  0  0  0
  4  5  1  0  0  0  0
  4 39  1  0  0  0  0
  5  6  2  0  0  0  0
  5 40  1  0  0  0  0
  6  7  1  0  0  0  0
  6 32  1  0  0  0  0
  7  8  1  0  0  0  0
  7 41  1  0  0  0  0
  7 42  1  0  0  0  0
  8  9  1  0  0  0  0
  8 43  1  0  0  0  0
  9 21  1  0  0  0  0
  9 10  2  0  0  0  0
 10 11  1  0  0  0  0
 11 12  1  0  0  0  0
 11 19  2  0  0  0  0
 12 16  1  0  0  0  0
 12 13  1  0  0  0  0
 13 14  1  0  0  0  0
 13 44  1  0  0  0  0
 13 45  1  0  0  0  0
 14 15  1  0  0  0  0
 14 46  1  0  0  0  0
 14 47  1  0  0  0  0
 15 16  1  0  0  0  0
 15 48  1  0  0  0  0
 15 49  1  0  0  0  0
 16 35  1  0  0  0  0
 16 17  1  0  0  0  0
 17 18  1  0  0  0  0
 17 50  1  0  0  0  0
 17 51  1  0  0  0  0
 18 52  1  0  0  0  0
 19 20  1  0  0  0  0
 19 61  1  0  0  0  0
 20 21  2  0  0  0  0
 20 53  1  0  0  0  0
 21 22  1  0  0  0  0
 22 23  2  0  0  0  0
 22 24  1  0  0  0  0
 24 25  1  0  0  0  0
 24 54  1  0  0  0  0
 25 26  1  0  0  0  0
 25 55  1  0  0  0  0
 25 56  1  0  0  0  0
 26 31  1  0  0  0  0
 26 27  2  0  0  0  0
 27 28  1  0  0  0  0
 28 29  2  0  0  0  0
 28 57  1  0  0  0  0
 29 30  1  0  0  0  0
 29 58  1  0  0  0  0
 30 31  2  0  0  0  0
 30 59  1  0  0  0  0
 32 33  2  0  0  0  0
 32 60  1  0  0  0  0
 33 34  1  0  0  0  0
M  CHG  1  19   1
M  END
> <s_m_source_file>
AV-unprocessed.smi

> <i_m_source_file_index>
45

> <i_lp_mmshare_version>
43012

> <i_f3d_flags>
0

> <s_epik_input>
W0NIM11PYzFbY0hdW2NIXWMoW2NIXWMxQ2wpW0NIMl1bTkhdYzJuYyhOM1tDSDJdW0NIMl1bQ0gyXVtDQEhdM1tDSDJdW09IXSluW2NIXWMyQyg9TylbTkhdW0NIMl1jNG5bY0hdW2NIXVtjSF1uNA==

> <s_epik_cmdline>
J2VwaWtfcHl0aG9uJywgJy1waCcsICc3LjAnLCAnLXRuJywgJzgnLCAnLW1hJywgJzIwMCcsICctbWV0YWxfYmluZGluZycsICctaW1hZScsICc8aW5maWxlLm1hZT4nLCAnLW9tYWUnLCAnPG91dGZpbGUubWFlPic=

> <r_lp_tautomer_probability>
0.575011

> <r_epik_Ionization_Penalty>
1.61454

> <r_epik_Ionization_Penalty_Charging>
1.61448

> <r_epik_Ionization_Penalty_Neutral>
6.30284e-05

> <r_epik_State_Penalty>
1.91123

> <r_epik_Charging_Adjusted_Penalty>
3.52572

> <i_epik_Tot_Q>
1

> <i_epik_Tot_abs_Q>
1

> <r_epik_Metal_State_Penalty>
1.95488

> <b_epik_Metal_Only>
0

> <s_epik_Chemistry_Notes>
This compound contains an electron-poor aromatic ring that is susceptible to covalent hydrolysis at low pH, typically resulting in measured values for nitrogen ring protonation that are around two units higher than predicted values.

> <s_lp_Force_Field>
OPLS_2005

> <r_lp_Energy>
32.8606

> <b_lp_Chiralities_Consistent>
1

> <s_lp_Variant>
AV-unprocessed.smi:45-3

> <Gold.Version>
5.8.1

> <Gold.Id.Protein>
6NUR|6NUR_protein|mol2

> <Gold.PLP.Fitness>
57.2980

> <Gold.PLP.PLP>
-44.6213

> <Gold.PLP.part.hbond>
-6.0000

> <Gold.PLP.part.metal>
0.0000

> <Gold.PLP.part.buried>
-6.5037

> <Gold.PLP.part.nonpolar>
-32.3703

> <Gold.PLP.part.repulsive>
0.1275

> <Gold.PLP.ligand.clash>
0.0000

> <Gold.PLP.ligand.torsion>
2.6411

> <Gold.PLP.Chemscore.Hbond>
5.8320

> <Gold.PLP.Chemscore.CHOScore>
0.0000

> <Gold.PLP.Chemscore.Metal>
0.0000

> <Gold.Chemscore.Hbonds>
donor molecule, donor type, donor heavy atom, donor atom, acceptor molecule, acceptor atom, score
      L1  H    18    52       P1 10171  1.00
      L1  H    19    61       P1  7948  2.00
      P1  H  6896  6908       L1    23  1.00
      P1  H  6931  6943       L1    31  1.00
      P1  H  6934  6947       L1    31  0.37

> <Gold.PLP.Chemscore.Internal.Correction>
0.4629

> <Gold.Rescore>
     Score         DG    S(hbond)    S(metal)    S(lipo)     H(rot)  DE(clash)    DE(int)     intcor
     18.63     -22.60       4.15        0.00      92.10       2.94       0.05       3.93       ----

> <Gold.Chemscore.Fitness>
18.6268

> <Gold.Chemscore.DG>
-22.6050

> <Gold.Chemscore.ZeroCoef>
-5.4800

> <Gold.Chemscore.Hbond>
4.1541

> <Gold.Chemscore.Metal>
0.0000

> <Gold.Chemscore.Lipo>
92.0968

> <Gold.Chemscore.Internal_Hbond>
0.0000

> <Gold.Chemscore.DEClash>
0.0460

> <Gold.Chemscore.DEInternal>
3.9321

> <Gold.Chemscore.Rot>
2.9395

> <Gold.Chemscore.Internal.Correction>
   9.000000E+99

> <Gold.Chemscore.Hbonds>
donor molecule, donor type, donor heavy atom, donor atom, acceptor molecule, acceptor atom, score
      L1  H    18    52       P1 10171  0.97
      L1  H    19    61       P1  7948  0.96
      P1  H  6896  6908       L1    23  0.96
      P1  H  6931  6943       L1    31  0.58
      P1  H  6934  6947       L1    31  0.30

> <Gold.Chemscore.Hbond.Weighted>
-13.8748

> <Gold.Chemscore.Metal.Weighted>
-0.0000

> <Gold.Chemscore.Lipo.Weighted>
-10.7753

> <Gold.Chemscore.Internal_Hbond.Weighted>
0.0000

> <Gold.Chemscore.DEClash.Weighted>
0.0460

> <Gold.Chemscore.DEInternal.Weighted>
3.9321

> <Gold.Chemscore.Rot.Weighted>
7.5251

> <Gold.Chemscore.Internal.Correction.Weighted>
   9.000000E+99

> <Gold.Protein.RotatedTorsions>
[ 6907 6896 6895 6894 ] final  139.25 input  -60.11 | X-H torsion
[ 7974 7965 7964 7962 ] final  162.77 input  175.53 | X-H torsion
[ 8008 7997 7996 7995 ] final  143.52 input   59.86 | X-H torsion
[ 10167 10162 10161 10158 ] final  146.31 input  -65.29 | X-H torsion
[ 10718 10713 10712 10709 ] final   81.31 input   66.30 | X-H torsion
[ 10763 10752 10751 10750 ] final  -98.00 input  -60.55 | X-H torsion
[ 11005 11000 10999 10996 ] final   19.08 input  -57.11 | X-H torsion

> <Gold.Protein.ActiveResidues>
 VAL166  LYS551  ARG553  GLY616  TRP617  ASP618  TYR619  PRO620  LYS621  CYS622 
 ASP623  PHE694  ASN695  SER759  ASP760  ASP761  ALA762  ILE779  LEU786  VAL792 
 PHE793  MET794  SER795  GLU796  ALA797  LYS798  CYS799  TRP800  GLU811  SER814 

> <Gold.Protein.RotatedAtoms>
  152.2571  133.5265  159.5359 H   0  0  0  0  0  0  0  0  0  0  0  0  # atno 6907 bound_to 6896
  150.7112  134.0880  159.3930 H   0  0  0  0  0  0  0  0  0  0  0  0  # atno 6908 bound_to 6896
  151.8799  135.0457  160.0538 H   0  0  0  0  0  0  0  0  0  0  0  0  # atno 6909 bound_to 6896
  144.7621  139.8087  143.6329 H   0  0  0  0  0  0  0  0  0  0  0  0  # atno 7974 bound_to 7965
  156.2928  140.2260  156.4903 H   0  0  0  0  0  0  0  0  0  0  0  0  # atno 8008 bound_to 7997
  154.7776  140.0462  157.1123 H   0  0  0  0  0  0  0  0  0  0  0  0  # atno 8009 bound_to 7997
  154.9797  140.3077  155.4955 H   0  0  0  0  0  0  0  0  0  0  0  0  # atno 8010 bound_to 7997
  139.4909  144.5839  151.6818 H   0  0  0  0  0  0  0  0  0  0  0  0  # atno 10167 bound_to 10162
  157.6829  130.9998  150.2207 H   0  0  0  0  0  0  0  0  0  0  0  0  # atno 10718 bound_to 10713
  154.7376  135.5026  153.9068 H   0  0  0  0  0  0  0  0  0  0  0  0  # atno 10763 bound_to 10752
  153.1011  135.6685  153.9679 H   0  0  0  0  0  0  0  0  0  0  0  0  # atno 10764 bound_to 10752
  153.9465  135.3062  155.3419 H   0  0  0  0  0  0  0  0  0  0  0  0  # atno 10765 bound_to 10752
  140.4177  134.1552  155.7671 H   0  0  0  0  0  0  0  0  0  0  0  0  # atno 11005 bound_to 11000
  146.1694  139.4838  142.9937 LP  0  0  0  0  0  0  0  0  0  0  0  0  # atno 17320 bound_to 7965
  145.6586  141.0246  143.1721 LP  0  0  0  0  0  0  0  0  0  0  0  0  # atno 17321 bound_to 7965
  140.5450  144.0517  150.6103 LP  0  0  0  0  0  0  0  0  0  0  0  0  # atno 17342 bound_to 10162
  140.3552  143.2940  152.0443 LP  0  0  0  0  0  0  0  0  0  0  0  0  # atno 17343 bound_to 10162
  156.2859  130.3739  149.7889 LP  0  0  0  0  0  0  0  0  0  0  0  0  # atno 17370 bound_to 10713
  156.5563  130.8364  151.3315 LP  0  0  0  0  0  0  0  0  0  0  0  0  # atno 17371 bound_to 10713
  141.1796  133.8441  157.1302 LP  0  0  0  0  0  0  0  0  0  0  0  0  # atno 17394 bound_to 11000
  140.0222  134.9940  157.0615 LP  0  0  0  0  0  0  0  0  0  0  0  0  # atno 17395 bound_to 11000

$$$$
