AV-unprocessed.smi:160|AV-procd|sdf|1365|dock2
  -GOLD-   2262019 73D 1   1.00000     0.00000
 Structure written by MMmdl.
 28 29  0  0  0  0  0  0  0  0  2 V2000
  153.9791  136.4565  157.0599 N   0  5  0  0  0  0  0  0  0  0  0  0
  152.9968  136.9816  157.8242 C   0  0  0  0  0  0  0  0  0  0  0  0
  152.7077  136.6430  158.9713 O   0  0  0  0  0  0  0  0  0  0  0  0
  152.2112  138.0880  157.1615 C   0  0  0  0  0  0  0  0  0  0  0  0
  152.8235  138.9630  156.3074 N   0  0  0  0  0  0  0  0  0  0  0  0
  151.7788  139.7164  155.9915 C   0  0  0  0  0  0  0  0  0  0  0  0
  150.6338  139.3421  156.5698 N   0  0  0  0  0  0  0  0  0  0  0  0
  149.2760  139.9784  156.4805 C   0  0  2  0  0  0  0  0  0  0  0  0
  148.4250  139.0932  155.8257 O   0  0  0  0  0  0  0  0  0  0  0  0
  148.5054  139.3123  154.4235 C   0  0  1  0  0  0  0  0  0  0  0  0
  147.2407  138.7716  153.7394 C   0  0  0  0  0  0  0  0  0  0  0  0
  147.5278  138.3962  152.4090 O   0  0  0  0  0  0  0  0  0  0  0  0
  148.6494  140.8403  154.3182 C   0  0  2  0  0  0  0  0  0  0  0  0
  149.4945  141.1696  153.2340 O   0  0  0  0  0  0  0  0  0  0  0  0
  149.2845  141.2712  155.6449 C   0  0  1  0  0  0  0  0  0  0  0  0
  148.5112  142.2806  156.2628 O   0  0  0  0  0  0  0  0  0  0  0  0
  150.9037  138.2759  157.3651 N   0  0  0  0  0  0  0  0  0  0  0  0
  148.9826  140.1210  157.5214 H   0  0  0  0  0  0  0  0  0  0  0  0
  149.3955  138.8181  154.0296 H   0  0  0  0  0  0  0  0  0  0  0  0
  147.6738  141.3106  154.1822 H   0  0  0  0  0  0  0  0  0  0  0  0
  150.2998  141.6545  155.5322 H   0  0  0  0  0  0  0  0  0  0  0  0
  154.8676  136.2059  157.5100 H   0  0  0  0  0  0  0  0  0  0  0  0
  151.8505  140.5630  155.3248 H   0  0  0  0  0  0  0  0  0  0  0  0
  146.8197  137.9302  154.2907 H   0  0  0  0  0  0  0  0  0  0  0  0
  146.4770  139.5489  153.7005 H   0  0  0  0  0  0  0  0  0  0  0  0
  147.9149  137.5346  152.4160 H   0  0  0  0  0  0  0  0  0  0  0  0
  149.3822  140.5195  152.5576 H   0  0  0  0  0  0  0  0  0  0  0  0
  148.8005  143.1193  155.9369 H   0  0  0  0  0  0  0  0  0  0  0  0
  1  2  1  0  0  0  0
  1 22  1  0  0  0  0
  2  3  2  0  0  0  0
  2  4  1  0  0  0  0
  4 17  2  0  0  0  0
  4  5  1  0  0  0  0
  5  6  2  0  0  0  0
  6  7  1  0  0  0  0
  6 23  1  0  0  0  0
  7  8  1  0  0  0  0
  7 17  1  0  0  0  0
  8 18  1  0  0  0  0
  8 15  1  0  0  0  0
  8  9  1  0  0  0  0
  9 10  1  0  0  0  0
 10 19  1  0  0  0  0
 10 11  1  0  0  0  0
 10 13  1  0  0  0  0
 11 12  1  0  0  0  0
 11 24  1  0  0  0  0
 11 25  1  0  0  0  0
 12 26  1  0  0  0  0
 13 20  1  0  0  0  0
 13 14  1  0  0  0  0
 13 15  1  0  0  0  0
 14 27  1  0  0  0  0
 15 21  1  0  0  0  0
 15 16  1  0  0  0  0
 16 28  1  0  0  0  0
M  CHG  1   1  -1
M  END
> <s_m_source_file>
AV-unprocessed.smi

> <i_m_source_file_index>
160

> <i_lp_mmshare_version>
43012

> <i_f3d_flags>
0

> <s_epik_input>
W05IMl1DKD1PKWMxbltjSF1uKG4xKVtDQEBIXTJPW0NASF0oW0NIMl1bT0hdKVtDQEBIXShbT0hdKVtDQEhdMltPSF0=

> <s_epik_cmdline>
J2VwaWtfcHl0aG9uJywgJy1waCcsICc3LjAnLCAnLXRuJywgJzgnLCAnLW1hJywgJzIwMCcsICctbWV0YWxfYmluZGluZycsICctaW1hZScsICc8aW5maWxlLm1hZT4nLCAnLW9tYWUnLCAnPG91dGZpbGUubWFlPic=

> <r_lp_tautomer_probability>
1

> <r_epik_Ionization_Penalty>
6.6993

> <r_epik_Ionization_Penalty_Charging>
6.6993

> <r_epik_Ionization_Penalty_Neutral>
6.01698e-06

> <r_epik_State_Penalty>
6.69929

> <r_epik_Charging_Adjusted_Penalty>
13.3986

> <i_epik_Tot_Q>
-1

> <i_epik_Tot_abs_Q>
1

> <r_epik_Metal_State_Penalty>
2.62798

> <b_epik_Metal_Only>
1

> <s_epik_Chemistry_Notes>
This compound contains an acetal/aminal-like group ( X-CH(R)-Y where X, Y are N, S, or O) that may be acid/base labile, releasing an aldehyde.

> <s_lp_Force_Field>
OPLS_2005

> <r_lp_Energy>
36.7288

> <b_lp_Chiralities_Consistent>
1

> <s_lp_Variant>
AV-unprocessed.smi:160-23

> <Gold.Version>
5.8.1

> <Gold.Id.Protein>
6NUR|6NUR_protein|mol2

> <Gold.PLP.Fitness>
43.3017

> <Gold.PLP.PLP>
-21.8071

> <Gold.PLP.part.hbond>
-8.4148

> <Gold.PLP.part.metal>
0.0000

> <Gold.PLP.part.buried>
-3.8663

> <Gold.PLP.part.nonpolar>
-10.5279

> <Gold.PLP.part.repulsive>
0.0029

> <Gold.PLP.ligand.clash>
0.0000

> <Gold.PLP.ligand.torsion>
0.9611

> <Gold.PLP.Chemscore.Hbond>
7.7939

> <Gold.PLP.Chemscore.CHOScore>
0.0000

> <Gold.PLP.Chemscore.Metal>
0.0000

> <Gold.Chemscore.Hbonds>
donor molecule, donor type, donor heavy atom, donor atom, acceptor molecule, acceptor atom, score
      L1  H    12    26       P1  7948  1.00
      L1  H    14    27       P1  7957  0.89
      L1  H    16    28       P1  8028  1.00
      P1  H  6896  6909       L1     3  0.86
      P1  H  7989  7998       L1    14  0.06
      P1  H  7997  8009       L1     5  1.00
      P1  H  8011  8017       L1    14  0.95
      P1  H 10752 10765       L1     1  2.00

> <Gold.PLP.Chemscore.Internal.Correction>
0.0352

> <Gold.Rescore>
     Score         DG    S(hbond)    S(metal)    S(lipo)     H(rot)  DE(clash)    DE(int)     intcor
     15.66     -16.35       5.53        0.00      23.53       4.04       0.00       0.70       ----

> <Gold.Chemscore.Fitness>
15.6555

> <Gold.Chemscore.DG>
-16.3545

> <Gold.Chemscore.ZeroCoef>
-5.4800

> <Gold.Chemscore.Hbond>
5.5284

> <Gold.Chemscore.Metal>
0.0000

> <Gold.Chemscore.Lipo>
23.5290

> <Gold.Chemscore.Internal_Hbond>
0.0000

> <Gold.Chemscore.DEClash>
0.0000

> <Gold.Chemscore.DEInternal>
0.6990

> <Gold.Chemscore.Rot>
4.0403

> <Gold.Chemscore.Internal.Correction>
   9.000000E+99

> <Gold.Chemscore.Hbonds>
donor molecule, donor type, donor heavy atom, donor atom, acceptor molecule, acceptor atom, score
      L1  H    12    26       P1  7948  0.98
      L1  H    14    27       P1  7957  0.82
      L1  H    16    28       P1  8028  0.99
      P1  H  6896  6909       L1     3  0.79
      P1  H  7989  7998       L1    14  0.01
      P1  H  7997  8009       L1     5  0.60
      P1  H  8011  8017       L1    14  0.21
      P1  H 10752 10765       L1     1  0.28

> <Gold.Chemscore.Hbond.Weighted>
-18.4647

> <Gold.Chemscore.Metal.Weighted>
-0.0000

> <Gold.Chemscore.Lipo.Weighted>
-2.7529

> <Gold.Chemscore.Internal_Hbond.Weighted>
0.0000

> <Gold.Chemscore.DEClash.Weighted>
0.0000

> <Gold.Chemscore.DEInternal.Weighted>
0.6990

> <Gold.Chemscore.Rot.Weighted>
10.3431

> <Gold.Chemscore.Internal.Correction.Weighted>
   9.000000E+99

> <Gold.Protein.RotatedTorsions>
[ 6907 6896 6895 6894 ] final  139.98 input  -60.11 | X-H torsion
[ 7974 7965 7964 7962 ] final -177.63 input  175.53 | X-H torsion
[ 8008 7997 7996 7995 ] final -161.89 input   59.86 | X-H torsion
[ 10167 10162 10161 10158 ] final  -80.68 input  -65.29 | X-H torsion
[ 10718 10713 10712 10709 ] final   72.24 input   66.30 | X-H torsion
[ 10763 10752 10751 10750 ] final  -91.77 input  -60.55 | X-H torsion
[ 11005 11000 10999 10996 ] final -153.00 input  -57.11 | X-H torsion

> <Gold.Protein.ActiveResidues>
 VAL166  LYS551  ARG553  GLY616  TRP617  ASP618  TYR619  PRO620  LYS621  CYS622 
 ASP623  PHE694  ASN695  SER759  ASP760  ASP761  ALA762  ILE779  LEU786  VAL792 
 PHE793  MET794  SER795  GLU796  ALA797  LYS798  CYS799  TRP800  GLU811  SER814 

> <Gold.Protein.RotatedAtoms>
  152.2485  133.5195  159.5311 H   0  0  0  0  0  0  0  0  0  0  0  0  # atno 6907 bound_to 6896
  150.7086  134.0992  159.3969 H   0  0  0  0  0  0  0  0  0  0  0  0  # atno 6908 bound_to 6896
  151.8912  135.0415  160.0549 H   0  0  0  0  0  0  0  0  0  0  0  0  # atno 6909 bound_to 6896
  144.7128  140.0990  143.6417 H   0  0  0  0  0  0  0  0  0  0  0  0  # atno 7974 bound_to 7965
  155.7988  140.0889  157.1968 H   0  0  0  0  0  0  0  0  0  0  0  0  # atno 8008 bound_to 7997
  154.3982  140.1476  156.3309 H   0  0  0  0  0  0  0  0  0  0  0  0  # atno 8009 bound_to 7997
  155.8484  140.3435  155.5679 H   0  0  0  0  0  0  0  0  0  0  0  0  # atno 8010 bound_to 7997
  140.4481  143.2492  151.8529 H   0  0  0  0  0  0  0  0  0  0  0  0  # atno 10167 bound_to 10162
  157.6491  130.9569  150.0902 H   0  0  0  0  0  0  0  0  0  0  0  0  # atno 10718 bound_to 10713
  154.6794  135.5255  153.8243 H   0  0  0  0  0  0  0  0  0  0  0  0  # atno 10763 bound_to 10752
  153.0554  135.6548  154.0599 H   0  0  0  0  0  0  0  0  0  0  0  0  # atno 10764 bound_to 10752
  154.0489  135.2971  155.3323 H   0  0  0  0  0  0  0  0  0  0  0  0  # atno 10765 bound_to 10752
  140.7128  134.3814  157.5195 H   0  0  0  0  0  0  0  0  0  0  0  0  # atno 11005 bound_to 11000
  145.9554  139.2763  143.1187 LP  0  0  0  0  0  0  0  0  0  0  0  0  # atno 17320 bound_to 7965
  145.9278  140.9070  143.0372 LP  0  0  0  0  0  0  0  0  0  0  0  0  # atno 17321 bound_to 7965
  139.4794  144.5152  151.8878 LP  0  0  0  0  0  0  0  0  0  0  0  0  # atno 17342 bound_to 10162
  140.4239  144.2206  150.5887 LP  0  0  0  0  0  0  0  0  0  0  0  0  # atno 17343 bound_to 10162
  156.1853  130.3652  149.8981 LP  0  0  0  0  0  0  0  0  0  0  0  0  # atno 17370 bound_to 10713
  156.6923  130.8900  151.3589 LP  0  0  0  0  0  0  0  0  0  0  0  0  # atno 17371 bound_to 10713
  139.8867  134.8902  156.2568 LP  0  0  0  0  0  0  0  0  0  0  0  0  # atno 17394 bound_to 11000
  141.0070  133.7118  156.1050 LP  0  0  0  0  0  0  0  0  0  0  0  0  # atno 17395 bound_to 11000

$$$$
