#       Name:                AV-unprocessed.smi:64
#       Creating user name   scv26
#       Creation time:       Thu Mar 26 16:50:23 2020


#       File generated by GOLD software.
#

@<TRIPOS>MOLECULE
AV-unprocessed.smi:64
    40    41     1
SMALL
NO_CHARGES


@<TRIPOS>ATOM
      1 ****        -2.7581   3.5661  -3.0395 C.3            1 S1                 0.0000
      2 ****        -3.0412   3.0249  -1.6437 C.2            1 S1                 0.0000
      3 ****        -3.5134   3.7423  -0.7618 O.2            1 S1                 0.0000
      4 ****        -2.7205   1.7285  -1.5181 O.3            1 S1                 0.0000
      5 ****        -2.9043   1.0772  -0.2717 C.3            1 S1                 0.0000
      6 ****        -2.3968  -0.3632  -0.3769 C.3            1 S1                 0.0000
      7 ****        -0.9791  -0.3431  -0.4102 O.3            1 S1                 0.0000
      8 ****        -0.4155  -1.6045  -0.5436 C.3            1 S1                 0.0000
      9 ****         1.0246  -1.4407  -0.5304 N.pl3          1 S1                 0.0000
     10 ****         1.8883  -1.3383  -1.5922 C.2            1 S1                 0.0000
     11 ****         3.1374  -1.1927  -1.2461 N.2            1 S1                 0.0000
     12 ****         3.1079  -1.1922   0.1459 C.2            1 S1                 0.0000
     13 ****         4.1771  -1.0627   1.0954 C.2            1 S1                 0.0000
     14 ****         5.3786  -0.9249   0.8758 O.2            1 S1                 0.0000
     15 ****         3.7166  -1.1082   2.4178 N.am           1 S1                 0.0000
     16 ****         2.3792  -1.2632   2.7757 C.2            1 S1                 0.0000
     17 ****         2.1042  -1.2876   4.0864 N.pl3          1 S1                 0.0000
     18 ****         1.3963  -1.3848   1.9011 N.2            1 S1                 0.0000
     19 ****         1.8109  -1.3432   0.5968 C.2            1 S1                 0.0000
     20 ****         4.4108  -1.0218   3.1454 H              1 S1                 0.0000
     21 ****        -2.2614   2.8166  -3.6564 H              1 S1                 0.0000
     22 ****        -2.1132   4.4428  -2.9785 H              1 S1                 0.0000
     23 ****        -3.6888   3.8547  -3.5280 H              1 S1                 0.0000
     24 ****        -2.3811   1.6093   0.5242 H              1 S1                 0.0000
     25 ****        -3.9668   1.0776  -0.0247 H              1 S1                 0.0000
     26 ****        -2.7288  -0.9303   0.4938 H              1 S1                 0.0000
     27 ****        -2.8071  -0.8502  -1.2631 H              1 S1                 0.0000
     28 ****        -0.7090  -2.2587   0.2796 H              1 S1                 0.0000
     29 ****        -0.7092  -2.0607  -1.4906 H              1 S1                 0.0000
     30 ****         1.5664  -1.3725  -2.6229 H              1 S1                 0.0000
     31 ****         2.8535  -1.1955   4.7573 H              1 S1                 0.0000
     32 ****         1.1523  -1.3959   4.4053 H              1 S1                 0.0000
     33 ****        -3.7193   4.7017  -0.9545 LP             1 S1                 0.0000
     34 ****        -3.6911   3.3656   0.1474 LP             1 S1                 0.0000
     35 ****        -0.6473   0.0645   0.4405 LP             1 S1                 0.0000
     36 ****        -0.6877   0.2183  -1.1847 LP             1 S1                 0.0000
     37 ****         3.9340  -1.1022  -1.8438 LP             1 S1                 0.0000
     38 ****         5.7142  -0.8917  -0.0656 LP             1 S1                 0.0000
     39 ****         6.0205  -0.8460   1.6385 LP             1 S1                 0.0000
     40 ****         0.4388  -1.4968   2.1670 LP             1 S1                 0.0000
@<TRIPOS>BOND
    1    1    2 1     
    2    1   21 1     
    3    1   22 1     
    4    1   23 1     
    5    2    3 2     
    6    2    4 1     
    7    4    5 1     
    8    5    6 1     
    9    5   24 1     
   10    5   25 1     
   11    6    7 1     
   12    6   26 1     
   13    6   27 1     
   14    7    8 1     
   15    8    9 1     
   16    8   28 1     
   17    8   29 1     
   18    9   19 1     
   19    9   10 1     
   20   10   11 2     
   21   10   30 1     
   22   11   12 1     
   23   12   19 2     
   24   12   13 1     
   25   13   14 2     
   26   13   15 am    
   27   15   20 1     
   28   15   16 1     
   29   16   17 1     
   30   16   18 2     
   31   17   31 1     
   32   17   32 1     
   33   18   19 1     
   34    3   33 1     
   35    3   34 1     
   36    7   35 1     
   37    7   36 1     
   38   11   37 1     
   39   14   38 1     
   40   14   39 1     
   41   18   40 1     
@<TRIPOS>SUBSTRUCTURE
      1 S1             1
@<TRIPOS>SET
LONE_PAIRS      STATIC     ATOMS    <user>   **** ""
8 33 34 35 36 37 38 39 40
DONOR_HYDROGENS      STATIC     ATOMS    <user>   **** ""
3 20 31 32
ATOM$BLUE        STATIC     ATOMS    COLORGROUP SYSTEM
8 33 34 35 36 37 38 39 40
ATOM$RED        STATIC     ATOMS    COLORGROUP SYSTEM
3 20 31 32
