AV-unprocessed.smi:3154|AV-procd|sdf|12021|dock3
  -GOLD-   2272017433D 1   1.00000     0.00000
 Structure written by MMmdl.
 35 36  0  0  0  0  0  0  0  0  2 V2000
  147.9807  140.7028  153.8371 C   0  0  0  0  0  0  0  0  0  0  0  0
  148.1382  139.1739  153.8889 C   0  0  2  0  0  0  0  0  0  0  0  0
  149.5172  138.7419  154.4404 C   0  0  0  0  0  0  0  0  0  0  0  0
  150.0425  139.6572  155.4373 N   0  0  0  0  0  0  0  0  0  0  0  0
  149.5721  139.9056  156.7098 C   0  0  0  0  0  0  0  0  0  0  0  0
  150.3825  140.8549  157.2634 C   0  0  0  0  0  0  0  0  0  0  0  0
  151.3282  141.1332  156.2373 C   0  0  0  0  0  0  0  0  0  0  0  0
  151.1192  140.4176  155.1440 N   0  0  0  0  0  0  0  0  0  0  0  0
  147.9054  138.6111  152.5405 N   0  3  0  0  0  0  0  0  0  0  0  0
  146.4945  138.5966  152.0949 C   0  0  0  0  0  0  0  0  0  0  0  0
  145.7580  137.3332  152.5436 C   0  0  0  0  0  0  0  0  0  0  0  0
  144.6838  137.4112  153.1413 O   0  0  0  0  0  0  0  0  0  0  0  0
  146.3510  136.1705  152.2366 N   0  0  0  0  0  0  0  0  0  0  0  0
  145.8405  134.8729  152.5418 C   0  0  0  0  0  0  0  0  0  0  0  0
  146.6920  133.6765  152.1761 C   0  0  0  0  0  0  0  0  0  0  0  0
  145.4527  133.9819  151.3813 C   0  0  0  0  0  0  0  0  0  0  0  0
  148.0530  141.1480  154.8299 H   0  0  0  0  0  0  0  0  0  0  0  0
  147.0085  140.9830  153.4303 H   0  0  0  0  0  0  0  0  0  0  0  0
  148.7476  141.1599  153.2109 H   0  0  0  0  0  0  0  0  0  0  0  0
  147.3565  138.7909  154.5469 H   0  0  0  0  0  0  0  0  0  0  0  0
  149.4651  137.7538  154.8979 H   0  0  0  0  0  0  0  0  0  0  0  0
  150.2401  138.6693  153.6266 H   0  0  0  0  0  0  0  0  0  0  0  0
  148.7110  139.3925  157.1122 H   0  0  0  0  0  0  0  0  0  0  0  0
  150.3099  141.2875  158.2502 H   0  0  0  0  0  0  0  0  0  0  0  0
  152.1531  141.8302  156.2541 H   0  0  0  0  0  0  0  0  0  0  0  0
  148.4183  139.1748  151.8777 H   0  0  0  0  0  0  0  0  0  0  0  0
  145.9640  139.4608  152.4938 H   0  0  0  0  0  0  0  0  0  0  0  0
  146.4579  138.6632  151.0068 H   0  0  0  0  0  0  0  0  0  0  0  0
  147.2310  136.2041  151.7423 H   0  0  0  0  0  0  0  0  0  0  0  0
  145.2348  134.7718  153.4415 H   0  0  0  0  0  0  0  0  0  0  0  0
  147.6525  133.8606  151.6984 H   0  0  0  0  0  0  0  0  0  0  0  0
  146.6618  132.8170  152.8429 H   0  0  0  0  0  0  0  0  0  0  0  0
  144.5954  133.3253  151.5165 H   0  0  0  0  0  0  0  0  0  0  0  0
  145.5869  134.3694  150.3732 H   0  0  0  0  0  0  0  0  0  0  0  0
  148.2730  137.6711  152.5058 H   0  0  0  0  0  0  0  0  0  0  0  0
  1  2  1  0  0  0  0
  1 17  1  0  0  0  0
  1 18  1  0  0  0  0
  1 19  1  0  0  0  0
  2  3  1  0  0  0  0
  2  9  1  0  0  0  0
  2 20  1  0  0  0  0
  3  4  1  0  0  0  0
  3 21  1  0  0  0  0
  3 22  1  0  0  0  0
  4  8  1  0  0  0  0
  4  5  1  0  0  0  0
  5  6  2  0  0  0  0
  5 23  1  0  0  0  0
  6  7  1  0  0  0  0
  6 24  1  0  0  0  0
  7  8  2  0  0  0  0
  7 25  1  0  0  0  0
  9 10  1  0  0  0  0
  9 26  1  0  0  0  0
  9 35  1  0  0  0  0
 10 11  1  0  0  0  0
 10 27  1  0  0  0  0
 10 28  1  0  0  0  0
 11 12  2  0  0  0  0
 11 13  1  0  0  0  0
 13 14  1  0  0  0  0
 13 29  1  0  0  0  0
 14 16  1  0  0  0  0
 14 15  1  0  0  0  0
 14 30  1  0  0  0  0
 15 16  1  0  0  0  0
 15 31  1  0  0  0  0
 15 32  1  0  0  0  0
 16 33  1  0  0  0  0
 16 34  1  0  0  0  0
M  CHG  1   9   1
M  END
> <s_m_source_file>
AV-unprocessed.smi

> <i_m_source_file_index>
3154

> <i_lp_mmshare_version>
43012

> <i_f3d_flags>
0

> <s_epik_input>
bjFbY0hdW2NIXVtjSF1uMVtDSDJdW0NAQEhdKFtDSDNdKVtOSF1bQ0gyXUMoPU8pW05IXVtDSF0yW0NIMl1bQ0gyXTI=

> <s_epik_cmdline>
J2VwaWtfcHl0aG9uJywgJy1waCcsICc3LjAnLCAnLXRuJywgJzgnLCAnLW1hJywgJzIwMCcsICctbWV0YWxfYmluZGluZycsICctaW1hZScsICc8aW5maWxlLm1hZT4nLCAnLW9tYWUnLCAnPG91dGZpbGUubWFlPic=

> <r_lp_tautomer_probability>
1

> <r_epik_Ionization_Penalty>
0.12065

> <r_epik_Ionization_Penalty_Charging>
0.120646

> <r_epik_Ionization_Penalty_Neutral>
4.1343e-06

> <r_epik_State_Penalty>
0.110186

> <r_epik_Charging_Adjusted_Penalty>
0.230832

> <i_epik_Tot_Q>
1

> <i_epik_Tot_abs_Q>
1

> <r_epik_Metal_State_Penalty>
0.110197

> <b_epik_Metal_Only>
0

> <s_lp_Force_Field>
OPLS_2005

> <r_lp_Energy>
15.3848

> <b_lp_Chiralities_Consistent>
1

> <s_lp_Variant>
AV-unprocessed.smi:3154-1

> <Gold.Version>
5.8.1

> <Gold.Id.Protein>
6NUR|6NUR_protein|mol2

> <Gold.PLP.Fitness>
42.0581

> <Gold.PLP.PLP>
-28.8633

> <Gold.PLP.part.hbond>
-3.9188

> <Gold.PLP.part.metal>
0.0000

> <Gold.PLP.part.buried>
-3.5057

> <Gold.PLP.part.nonpolar>
-21.9819

> <Gold.PLP.part.repulsive>
0.3671

> <Gold.PLP.ligand.clash>
0.0000

> <Gold.PLP.ligand.torsion>
0.7326

> <Gold.PLP.Chemscore.Hbond>
4.8480

> <Gold.PLP.Chemscore.CHOScore>
0.0000

> <Gold.PLP.Chemscore.Metal>
0.0000

> <Gold.Chemscore.Hbonds>
donor molecule, donor type, donor heavy atom, donor atom, acceptor molecule, acceptor atom, score
      L1  H     9    26       P1  7957  1.00
      L1  H     9    35       P1  7948  2.00
      L1  H    13    29       P1  7948  0.98
      P1  H  7989  7998       L1     8  1.00

> <Gold.PLP.Chemscore.Internal.Correction>
0.1160

> <Gold.Rescore>
     Score         DG    S(hbond)    S(metal)    S(lipo)     H(rot)  DE(clash)    DE(int)     intcor
     18.70     -19.30       3.89        0.00      55.17       2.20       0.01       0.59       ----

> <Gold.Chemscore.Fitness>
18.6965

> <Gold.Chemscore.DG>
-19.2960

> <Gold.Chemscore.ZeroCoef>
-5.4800

> <Gold.Chemscore.Hbond>
3.8934

> <Gold.Chemscore.Metal>
0.0000

> <Gold.Chemscore.Lipo>
55.1680

> <Gold.Chemscore.Internal_Hbond>
0.0000

> <Gold.Chemscore.DEClash>
0.0060

> <Gold.Chemscore.DEInternal>
0.5935

> <Gold.Chemscore.Rot>
2.2042

> <Gold.Chemscore.Internal.Correction>
   9.000000E+99

> <Gold.Chemscore.Hbonds>
donor molecule, donor type, donor heavy atom, donor atom, acceptor molecule, acceptor atom, score
      L1  H     9    26       P1  7957  0.97
      L1  H     9    35       P1  7948  0.99
      L1  H    13    29       P1  7948  0.92
      P1  H  7989  7998       L1     8  0.95

> <Gold.Chemscore.Hbond.Weighted>
-13.0041

> <Gold.Chemscore.Metal.Weighted>
-0.0000

> <Gold.Chemscore.Lipo.Weighted>
-6.4547

> <Gold.Chemscore.Internal_Hbond.Weighted>
0.0000

> <Gold.Chemscore.DEClash.Weighted>
0.0060

> <Gold.Chemscore.DEInternal.Weighted>
0.5935

> <Gold.Chemscore.Rot.Weighted>
5.6427

> <Gold.Chemscore.Internal.Correction.Weighted>
   9.000000E+99

> <Gold.Protein.RotatedTorsions>
[ 6907 6896 6895 6894 ] final   13.21 input  -60.11 | X-H torsion
[ 7974 7965 7964 7962 ] final   -2.95 input  175.53 | X-H torsion
[ 8008 7997 7996 7995 ] final  124.04 input   59.86 | X-H torsion
[ 10167 10162 10161 10158 ] final   87.26 input  -65.29 | X-H torsion
[ 10718 10713 10712 10709 ] final -129.60 input   66.30 | X-H torsion
[ 10763 10752 10751 10750 ] final  138.26 input  -60.55 | X-H torsion
[ 11005 11000 10999 10996 ] final  -68.56 input  -57.11 | X-H torsion

> <Gold.Protein.ActiveResidues>
 VAL166  LYS551  ARG553  GLY616  TRP617  ASP618  TYR619  PRO620  LYS621  CYS622 
 ASP623  PHE694  ASN695  SER759  ASP760  ASP761  ALA762  ILE779  LEU786  VAL792 
 PHE793  MET794  SER795  GLU796  ALA797  LYS798  CYS799  TRP800  GLU811  SER814 

> <Gold.Protein.RotatedAtoms>
  151.7827  135.0757  160.0375 H   0  0  0  0  0  0  0  0  0  0  0  0  # atno 6907 bound_to 6896
  152.3211  133.5851  159.5754 H   0  0  0  0  0  0  0  0  0  0  0  0  # atno 6908 bound_to 6896
  150.7370  133.9925  159.3653 H   0  0  0  0  0  0  0  0  0  0  0  0  # atno 6909 bound_to 6896
  146.2397  140.1648  142.8332 H   0  0  0  0  0  0  0  0  0  0  0  0  # atno 7974 bound_to 7965
  156.2787  140.2749  156.1724 H   0  0  0  0  0  0  0  0  0  0  0  0  # atno 8008 bound_to 7997
  155.0641  140.0387  157.2604 H   0  0  0  0  0  0  0  0  0  0  0  0  # atno 8009 bound_to 7997
  154.7093  140.2665  155.6650 H   0  0  0  0  0  0  0  0  0  0  0  0  # atno 8010 bound_to 7997
  139.8792  144.6449  150.8862 H   0  0  0  0  0  0  0  0  0  0  0  0  # atno 10167 bound_to 10162
  156.2062  130.6889  151.0597 H   0  0  0  0  0  0  0  0  0  0  0  0  # atno 10718 bound_to 10713
  153.8867  135.3038  155.3446 H   0  0  0  0  0  0  0  0  0  0  0  0  # atno 10763 bound_to 10752
  154.7736  135.4873  153.9701 H   0  0  0  0  0  0  0  0  0  0  0  0  # atno 10764 bound_to 10752
  153.1321  135.6806  153.9260 H   0  0  0  0  0  0  0  0  0  0  0  0  # atno 10765 bound_to 10752
  141.1535  133.6743  156.6465 H   0  0  0  0  0  0  0  0  0  0  0  0  # atno 11005 bound_to 11000
  145.0060  140.8673  143.5253 LP  0  0  0  0  0  0  0  0  0  0  0  0  # atno 17320 bound_to 7965
  145.1674  139.2423  143.5360 LP  0  0  0  0  0  0  0  0  0  0  0  0  # atno 17321 bound_to 7965
  140.7747  143.3600  151.1847 LP  0  0  0  0  0  0  0  0  0  0  0  0  # atno 17342 bound_to 10162
  139.7212  143.9221  152.2986 LP  0  0  0  0  0  0  0  0  0  0  0  0  # atno 17343 bound_to 10162
  157.7013  131.0774  150.6810 LP  0  0  0  0  0  0  0  0  0  0  0  0  # atno 17370 bound_to 10713
  156.6868  130.4583  149.5611 LP  0  0  0  0  0  0  0  0  0  0  0  0  # atno 17371 bound_to 10713
  140.3353  134.7894  157.4357 LP  0  0  0  0  0  0  0  0  0  0  0  0  # atno 17394 bound_to 11000
  140.0982  134.5508  155.8377 LP  0  0  0  0  0  0  0  0  0  0  0  0  # atno 17395 bound_to 11000

$$$$
