#       Name:                AV-unprocessed.smi:1876
#       Creating user name   scv26
#       Creation time:       Fri Mar 27 09:34:54 2020


#       File generated by GOLD software.
#

@<TRIPOS>MOLECULE
AV-unprocessed.smi:1876
    38    39     1
SMALL
NO_CHARGES


@<TRIPOS>ATOM
      1 ****        -6.2138  -2.0257   0.6139 C.3            1 S1                 0.0000
      2 ****        -4.9108  -1.3260   0.4298 C.2            1 S1                 0.0000
      3 ****        -3.6210  -1.7683   0.3360 C.2            1 S1                 0.0000
      4 ****        -2.8815  -0.5667   0.1720 C.2            1 S1                 0.0000
      5 ****        -1.4698  -0.5928   0.0342 N.am           1 S1                 0.0000
      6 ****        -0.6418   0.4562  -0.1101 C.2            1 S1                 0.0000
      7 ****        -0.9918   1.6366  -0.1350 O.2            1 S1                 0.0000
      8 ****         0.6351   0.0588  -0.2234 N.am           1 S1                 0.0000
      9 ****         1.7914   0.9458  -0.3608 C.3            1 S1                 0.0000
     10 ****         2.8338   0.2323  -1.2437 C.3            1 S1                 0.0000
     11 ****         4.1257   1.0509  -1.3130 C.3            1 S1                 0.0000
     12 ****         4.7315   1.2109   0.0890 C.3            1 S1                 0.0000
     13 ****         3.7305   1.4563   1.1275 N.am           1 S1                 0.0000
     14 ****         2.4014   1.2721   1.0242 C.2            1 S1                 0.0000
     15 ****         1.6724   1.4083   2.0057 O.2            1 S1                 0.0000
     16 ****        -3.6509   0.5113   0.1638 N.2            1 S1                 0.0000
     17 ****        -4.9551   0.0301   0.3290 O.3            1 S1                 0.0000
     18 ****        -6.0694  -3.1026   0.7024 H              1 S1                 0.0000
     19 ****        -6.8745  -1.8419  -0.2334 H              1 S1                 0.0000
     20 ****        -6.7151  -1.6766   1.5168 H              1 S1                 0.0000
     21 ****        -3.2671  -2.7877   0.3795 H              1 S1                 0.0000
     22 ****        -1.0453  -1.5081   0.0475 H              1 S1                 0.0000
     23 ****         0.8281  -0.9312  -0.1880 H              1 S1                 0.0000
     24 ****         1.5010   1.8848  -0.8352 H              1 S1                 0.0000
     25 ****         3.0508  -0.7648  -0.8559 H              1 S1                 0.0000
     26 ****         2.4345   0.0935  -2.2492 H              1 S1                 0.0000
     27 ****         4.8455   0.5790  -1.9823 H              1 S1                 0.0000
     28 ****         3.9082   2.0335  -1.7338 H              1 S1                 0.0000
     29 ****         5.2649   0.2991   0.3598 H              1 S1                 0.0000
     30 ****         5.4665   2.0162   0.0960 H              1 S1                 0.0000
     31 ****         4.0865   1.7163   2.0360 H              1 S1                 0.0000
     32 ****        -1.9591   1.8734  -0.0438 LP             1 S1                 0.0000
     33 ****        -0.3087   2.3584  -0.2464 LP             1 S1                 0.0000
     34 ****         0.6820   1.3083   1.9107 LP             1 S1                 0.0000
     35 ****         2.0702   1.6191   2.8986 LP             1 S1                 0.0000
     36 ****        -3.3625   1.4634   0.0617 LP             1 S1                 0.0000
     37 ****        -5.3534   0.4165   1.1610 LP             1 S1                 0.0000
     38 ****        -5.5122   0.2908  -0.4594 LP             1 S1                 0.0000
@<TRIPOS>BOND
    1    1    2 1     
    2    1   18 1     
    3    1   19 1     
    4    1   20 1     
    5    2   17 1     
    6    2    3 2     
    7    3    4 1     
    8    3   21 1     
    9    4    5 1     
   10    4   16 2     
   11    5    6 am    
   12    5   22 1     
   13    6    7 2     
   14    6    8 am    
   15    8    9 1     
   16    8   23 1     
   17    9   14 1     
   18    9   10 1     
   19    9   24 1     
   20   10   11 1     
   21   10   25 1     
   22   10   26 1     
   23   11   12 1     
   24   11   27 1     
   25   11   28 1     
   26   12   13 1     
   27   12   29 1     
   28   12   30 1     
   29   13   14 am    
   30   13   31 1     
   31   14   15 2     
   32   16   17 1     
   33    7   32 1     
   34    7   33 1     
   35   15   34 1     
   36   15   35 1     
   37   16   36 1     
   38   17   37 1     
   39   17   38 1     
@<TRIPOS>SUBSTRUCTURE
      1 S1             1
@<TRIPOS>SET
LONE_PAIRS      STATIC     ATOMS    <user>   **** ""
7 32 33 34 35 36 37 38
DONOR_HYDROGENS      STATIC     ATOMS    <user>   **** ""
3 22 23 31
ATOM$BLUE        STATIC     ATOMS    COLORGROUP SYSTEM
7 32 33 34 35 36 37 38
ATOM$RED        STATIC     ATOMS    COLORGROUP SYSTEM
3 22 23 31
