AV-unprocessed.smi:1605|AV-procd|sdf|6451|dock4
  -GOLD-   22720 7103D 1   1.00000     0.00000
 Structure written by MMmdl.
 51 53  0  0  0  0  0  0  0  0  2 V2000
  143.6950  145.5682  155.8895 C   0  0  0  0  0  0  0  0  0  0  0  0
  143.6165  144.1634  156.0776 O   0  0  0  0  0  0  0  0  0  0  0  0
  144.7972  143.4577  155.7199 C   0  0  2  0  0  0  0  0  0  0  0  0
  145.1256  143.6359  154.2263 C   0  0  0  0  0  0  0  0  0  0  0  0
  146.3124  142.7502  153.8131 C   0  0  0  0  0  0  0  0  0  0  0  0
  146.0497  141.3182  154.1186 N   0  3  1  0  0  0  0  0  0  0  0  0
  147.1203  140.4132  153.6289 C   0  0  0  0  0  0  0  0  0  0  0  0
  148.4799  140.6868  154.3098 C   0  0  2  0  0  0  0  0  0  0  0  0
  149.1338  141.7311  153.6176 O   0  0  0  0  0  0  0  0  0  0  0  0
  149.4194  139.4655  154.3213 C   0  0  0  0  0  0  0  0  0  0  0  0
  150.1730  139.3599  155.5574 N   0  0  0  0  0  0  0  0  0  0  0  0
  150.5346  138.2260  156.1882 C   0  0  0  0  0  0  0  0  0  0  0  0
  151.2357  138.3512  157.3108 N   0  0  0  0  0  0  0  0  0  0  0  0
  151.3341  139.7271  157.4273 C   0  0  0  0  0  0  0  0  0  0  0  0
  151.9617  140.5214  158.4115 C   0  0  0  0  0  0  0  0  0  0  0  0
  151.9408  141.9318  158.3263 C   0  0  0  0  0  0  0  0  0  0  0  0
  152.6254  142.7467  159.4096 C   0  0  0  0  0  0  0  0  0  0  0  0
  151.2871  142.5686  157.2409 C   0  0  0  0  0  0  0  0  0  0  0  0
  151.2544  144.0824  157.1277 C   0  0  0  0  0  0  0  0  0  0  0  0
  150.6540  141.7902  156.2493 C   0  0  0  0  0  0  0  0  0  0  0  0
  150.6793  140.3875  156.3466 C   0  0  0  0  0  0  0  0  0  0  0  0
  145.7552  141.1147  155.5604 C   0  0  0  0  0  0  0  0  0  0  0  0
  144.5576  141.9686  156.0090 C   0  0  0  0  0  0  0  0  0  0  0  0
  142.7666  146.0304  156.2245 H   0  0  0  0  0  0  0  0  0  0  0  0
  143.8339  145.8317  154.8412 H   0  0  0  0  0  0  0  0  0  0  0  0
  144.5103  146.0000  156.4710 H   0  0  0  0  0  0  0  0  0  0  0  0
  145.6352  143.7992  156.3306 H   0  0  0  0  0  0  0  0  0  0  0  0
  144.2526  143.3816  153.6234 H   0  0  0  0  0  0  0  0  0  0  0  0
  145.3624  144.6764  154.0052 H   0  0  0  0  0  0  0  0  0  0  0  0
  146.4990  142.8853  152.7484 H   0  0  0  0  0  0  0  0  0  0  0  0
  147.2160  143.0736  154.3324 H   0  0  0  0  0  0  0  0  0  0  0  0
  146.7970  139.3838  153.7857 H   0  0  0  0  0  0  0  0  0  0  0  0
  147.2455  140.5260  152.5507 H   0  0  0  0  0  0  0  0  0  0  0  0
  148.3328  141.0129  155.3391 H   0  0  0  0  0  0  0  0  0  0  0  0
  149.4372  141.4015  152.7850 H   0  0  0  0  0  0  0  0  0  0  0  0
  148.8549  138.5438  154.1751 H   0  0  0  0  0  0  0  0  0  0  0  0
  150.1312  139.5282  153.4966 H   0  0  0  0  0  0  0  0  0  0  0  0
  150.2729  137.2532  155.7978 H   0  0  0  0  0  0  0  0  0  0  0  0
  152.4609  140.0362  159.2374 H   0  0  0  0  0  0  0  0  0  0  0  0
  151.9213  143.4395  159.8711 H   0  0  0  0  0  0  0  0  0  0  0  0
  153.4531  143.3199  158.9911 H   0  0  0  0  0  0  0  0  0  0  0  0
  153.0250  142.1062  160.1963 H   0  0  0  0  0  0  0  0  0  0  0  0
  150.7536  144.4028  156.2140 H   0  0  0  0  0  0  0  0  0  0  0  0
  152.2662  144.4882  157.1131 H   0  0  0  0  0  0  0  0  0  0  0  0
  150.7196  144.5163  157.9726 H   0  0  0  0  0  0  0  0  0  0  0  0
  150.1519  142.2637  155.4188 H   0  0  0  0  0  0  0  0  0  0  0  0
  145.5311  140.0635  155.7458 H   0  0  0  0  0  0  0  0  0  0  0  0
  146.6383  141.3610  156.1523 H   0  0  0  0  0  0  0  0  0  0  0  0
  144.3761  141.8211  157.0741 H   0  0  0  0  0  0  0  0  0  0  0  0
  143.6571  141.6325  155.4926 H   0  0  0  0  0  0  0  0  0  0  0  0
  145.2102  141.0568  153.6202 H   0  0  0  0  0  0  0  0  0  0  0  0
  1  2  1  0  0  0  0
  1 24  1  0  0  0  0
  1 25  1  0  0  0  0
  1 26  1  0  0  0  0
  2  3  1  0  0  0  0
  3 23  1  0  0  0  0
  3  4  1  0  0  0  0
  3 27  1  0  0  0  0
  4  5  1  0  0  0  0
  4 28  1  0  0  0  0
  4 29  1  0  0  0  0
  5  6  1  0  0  0  0
  5 30  1  0  0  0  0
  5 31  1  0  0  0  0
  6  7  1  0  0  0  0
  6 22  1  0  0  0  0
  6 51  1  0  0  0  0
  7  8  1  0  0  0  0
  7 32  1  0  0  0  0
  7 33  1  0  0  0  0
  8  9  1  0  0  0  0
  8 10  1  0  0  0  0
  8 34  1  0  0  0  0
  9 35  1  0  0  0  0
 10 11  1  0  0  0  0
 10 36  1  0  0  0  0
 10 37  1  0  0  0  0
 11 21  1  0  0  0  0
 11 12  1  0  0  0  0
 12 13  2  0  0  0  0
 12 38  1  0  0  0  0
 13 14  1  0  0  0  0
 14 21  2  0  0  0  0
 14 15  1  0  0  0  0
 15 16  2  0  0  0  0
 15 39  1  0  0  0  0
 16 17  1  0  0  0  0
 16 18  1  0  0  0  0
 17 40  1  0  0  0  0
 17 41  1  0  0  0  0
 17 42  1  0  0  0  0
 18 19  1  0  0  0  0
 18 20  2  0  0  0  0
 19 43  1  0  0  0  0
 19 44  1  0  0  0  0
 19 45  1  0  0  0  0
 20 21  1  0  0  0  0
 20 46  1  0  0  0  0
 22 23  1  0  0  0  0
 22 47  1  0  0  0  0
 22 48  1  0  0  0  0
 23 49  1  0  0  0  0
 23 50  1  0  0  0  0
M  CHG  1   6   1
M  END
> <s_m_source_file>
AV-unprocessed.smi

> <i_m_source_file_index>
1605

> <i_lp_mmshare_version>
43012

> <i_f3d_flags>
0

> <s_epik_input>
W0NIM11PW0NIXTFbQ0gyXVtDSDJdTihbQ0gyXVtDSDJdMSlbQ0gyXVtDQEhdKFtPSF0pW0NIMl1uKFtjSF1uMiljKGMyMylbY0hdYyhbQ0gzXSljKFtjSF0zKVtDSDNd

> <s_epik_cmdline>
J2VwaWtfcHl0aG9uJywgJy1waCcsICc3LjAnLCAnLXRuJywgJzgnLCAnLW1hJywgJzIwMCcsICctbWV0YWxfYmluZGluZycsICctaW1hZScsICc8aW5maWxlLm1hZT4nLCAnLW9tYWUnLCAnPG91dGZpbGUubWFlPic=

> <r_epik_Ionization_Penalty>
0.110943

> <r_epik_Ionization_Penalty_Charging>
0.0229283

> <r_epik_Ionization_Penalty_Neutral>
0.0880146

> <r_epik_State_Penalty>
0.0947554

> <r_epik_Charging_Adjusted_Penalty>
0.117684

> <i_epik_Tot_Q>
1

> <i_epik_Tot_abs_Q>
1

> <r_epik_Metal_State_Penalty>
0.0192456

> <b_epik_Metal_Only>
0

> <s_lp_Force_Field>
OPLS_2005

> <r_lp_Energy>
22.9289

> <b_lp_Chiralities_Consistent>
1

> <s_lp_Variant>
AV-unprocessed.smi:1605-1

> <Gold.Version>
5.8.1

> <Gold.Id.Protein>
6NUR|6NUR_protein|mol2

> <Gold.PLP.Fitness>
48.3315

> <Gold.PLP.PLP>
-41.4887

> <Gold.PLP.part.hbond>
-3.5613

> <Gold.PLP.part.metal>
0.0000

> <Gold.PLP.part.buried>
-2.8335

> <Gold.PLP.part.nonpolar>
-34.3733

> <Gold.PLP.part.repulsive>
0.0680

> <Gold.PLP.ligand.clash>
0.0000

> <Gold.PLP.ligand.torsion>
1.1534

> <Gold.PLP.Chemscore.Hbond>
3.0000

> <Gold.PLP.Chemscore.CHOScore>
0.0000

> <Gold.PLP.Chemscore.Metal>
0.0000

> <Gold.Chemscore.Hbonds>
donor molecule, donor type, donor heavy atom, donor atom, acceptor molecule, acceptor atom, score
      L1  H     6    51       P1 10175  2.00
      L1  H     9    35       P1  7957  0.80

> <Gold.PLP.Chemscore.Internal.Correction>
0.1497

> <Gold.Rescore>
     Score         DG    S(hbond)    S(metal)    S(lipo)     H(rot)  DE(clash)    DE(int)     intcor
     16.44     -19.31       1.94        0.00     111.26       2.22       1.40       1.48       ----

> <Gold.Chemscore.Fitness>
16.4356

> <Gold.Chemscore.DG>
-19.3117

> <Gold.Chemscore.ZeroCoef>
-5.4800

> <Gold.Chemscore.Hbond>
1.9430

> <Gold.Chemscore.Metal>
0.0000

> <Gold.Chemscore.Lipo>
111.2604

> <Gold.Chemscore.Internal_Hbond>
0.0000

> <Gold.Chemscore.DEClash>
1.4004

> <Gold.Chemscore.DEInternal>
1.4757

> <Gold.Chemscore.Rot>
2.2169

> <Gold.Chemscore.Internal.Correction>
   9.000000E+99

> <Gold.Chemscore.Hbonds>
donor molecule, donor type, donor heavy atom, donor atom, acceptor molecule, acceptor atom, score
      L1  H     6    51       P1 10175  0.64
      L1  H     9    35       P1  7957  0.78

> <Gold.Chemscore.Hbond.Weighted>
-6.4896

> <Gold.Chemscore.Metal.Weighted>
-0.0000

> <Gold.Chemscore.Lipo.Weighted>
-13.0175

> <Gold.Chemscore.Internal_Hbond.Weighted>
0.0000

> <Gold.Chemscore.DEClash.Weighted>
1.4004

> <Gold.Chemscore.DEInternal.Weighted>
1.4757

> <Gold.Chemscore.Rot.Weighted>
5.6753

> <Gold.Chemscore.Internal.Correction.Weighted>
   9.000000E+99

> <Gold.Protein.RotatedTorsions>
[ 6907 6896 6895 6894 ] final   -1.86 input  -60.11 | X-H torsion
[ 7974 7965 7964 7962 ] final -115.79 input  175.53 | X-H torsion
[ 8008 7997 7996 7995 ] final   34.03 input   59.86 | X-H torsion
[ 10167 10162 10161 10158 ] final   73.94 input  -65.29 | X-H torsion
[ 10718 10713 10712 10709 ] final  175.55 input   66.30 | X-H torsion
[ 10763 10752 10751 10750 ] final  176.22 input  -60.55 | X-H torsion
[ 11005 11000 10999 10996 ] final -151.58 input  -57.11 | X-H torsion

> <Gold.Protein.ActiveResidues>
 VAL166  LYS551  ARG553  GLY616  TRP617  ASP618  TYR619  PRO620  LYS621  CYS622 
 ASP623  PHE694  ASN695  SER759  ASP760  ASP761  ALA762  ILE779  LEU786  VAL792 
 PHE793  MET794  SER795  GLU796  ALA797  LYS798  CYS799  TRP800  GLU811  SER814 

> <Gold.Protein.RotatedAtoms>
  151.5393  135.1068  159.9922 H   0  0  0  0  0  0  0  0  0  0  0  0  # atno 6907 bound_to 6896
  152.4543  133.7687  159.6797 H   0  0  0  0  0  0  0  0  0  0  0  0  # atno 6908 bound_to 6896
  150.8481  133.7764  159.3060 H   0  0  0  0  0  0  0  0  0  0  0  0  # atno 6909 bound_to 6896
  145.1043  140.8572  143.3907 H   0  0  0  0  0  0  0  0  0  0  0  0  # atno 7974 bound_to 7965
  155.1481  140.3272  155.4437 H   0  0  0  0  0  0  0  0  0  0  0  0  # atno 8008 bound_to 7997
  156.2583  140.1981  156.6544 H   0  0  0  0  0  0  0  0  0  0  0  0  # atno 8009 bound_to 7997
  154.6493  140.0560  156.9923 H   0  0  0  0  0  0  0  0  0  0  0  0  # atno 8010 bound_to 7997
  140.0191  144.5554  150.7596 H   0  0  0  0  0  0  0  0  0  0  0  0  # atno 10167 bound_to 10162
  156.9332  130.9977  151.2983 H   0  0  0  0  0  0  0  0  0  0  0  0  # atno 10718 bound_to 10713
  154.4781  135.2774  155.1591 H   0  0  0  0  0  0  0  0  0  0  0  0  # atno 10763 bound_to 10752
  154.3312  135.6189  153.5556 H   0  0  0  0  0  0  0  0  0  0  0  0  # atno 10764 bound_to 10752
  152.9872  135.5766  154.5177 H   0  0  0  0  0  0  0  0  0  0  0  0  # atno 10765 bound_to 10752
  140.7281  134.3652  157.5171 H   0  0  0  0  0  0  0  0  0  0  0  0  # atno 11005 bound_to 11000
  145.0919  139.2884  143.5730 LP  0  0  0  0  0  0  0  0  0  0  0  0  # atno 17320 bound_to 7965
  146.3529  140.0459  142.8639 LP  0  0  0  0  0  0  0  0  0  0  0  0  # atno 17321 bound_to 7965
  140.7350  143.2735  151.3813 LP  0  0  0  0  0  0  0  0  0  0  0  0  # atno 17342 bound_to 10162
  139.6152  144.1018  152.2338 LP  0  0  0  0  0  0  0  0  0  0  0  0  # atno 17343 bound_to 10162
  157.5833  130.8392  149.8554 LP  0  0  0  0  0  0  0  0  0  0  0  0  # atno 17370 bound_to 10713
  156.0438  130.3733  150.1369 LP  0  0  0  0  0  0  0  0  0  0  0  0  # atno 17371 bound_to 10713
  139.8832  134.9000  156.2779 LP  0  0  0  0  0  0  0  0  0  0  0  0  # atno 17394 bound_to 11000
  140.9945  133.7188  156.0865 LP  0  0  0  0  0  0  0  0  0  0  0  0  # atno 17395 bound_to 11000

$$$$
