AV-unprocessed.smi:199|AV-procd|sdf|1565|dock4
  -GOLD-   2262019443D 1   1.00000     0.00000
 Structure written by MMmdl.
 51 55  0  0  0  0  0  0  0  0  1 V2000
  143.5382  133.0230  148.7418 C   0  0  0  0  0  0  0  0  0  0  0  0
  143.8811  132.5101  150.1499 C   0  0  1  0  0  0  0  0  0  0  0  0
  144.6108  131.2936  150.0760 O   0  0  0  0  0  0  0  0  0  0  0  0
  145.2179  131.0980  151.3401 C   0  0  0  0  0  0  0  0  0  0  0  0
  145.7623  132.4829  151.6677 C   0  0  0  0  0  0  0  0  0  0  0  0
  144.7364  133.4396  151.0519 C   0  0  1  0  0  0  0  0  0  0  0  0
  145.4401  134.4090  150.2923 O   0  0  0  0  0  0  0  0  0  0  0  0
  143.9054  134.1781  152.1305 C   0  0  0  0  0  0  0  0  0  0  0  0
  144.7138  134.9677  153.0481 N   0  0  0  0  0  0  0  0  0  0  0  0
  145.0123  134.6623  154.3564 C   0  0  0  0  0  0  0  0  0  0  0  0
  145.7671  135.5300  154.9714 N   0  0  0  0  0  0  0  0  0  0  0  0
  145.9960  136.5209  154.0240 C   0  0  0  0  0  0  0  0  0  0  0  0
  146.7253  137.7455  154.0172 C   0  0  0  0  0  0  0  0  0  0  0  0
  147.4114  138.2220  155.0921 N   0  0  0  0  0  0  0  0  0  0  0  0
  148.8180  137.8955  155.2890 C   0  0  2  0  0  0  0  0  0  0  0  0
  149.0880  138.4589  156.6937 C   0  0  0  0  0  0  0  0  0  0  0  0
  148.1966  139.7099  156.6881 C   0  0  0  0  0  0  0  0  0  0  0  0
  147.5993  139.6548  155.2681 C   0  0  1  0  0  0  0  0  0  0  0  0
  148.6532  140.0074  154.1867 C   0  0  1  0  0  0  0  0  0  0  0  0
  149.3863  141.3547  154.3246 C   0  0  0  0  0  0  0  0  0  0  0  0
  148.5947  142.3988  153.7999 O   0  0  0  0  0  0  0  0  0  0  0  0
  149.5642  138.7683  154.2558 C   0  0  0  0  0  0  0  0  0  0  0  0
  146.7449  138.4504  152.8546 N   0  0  0  0  0  0  0  0  0  0  0  0
  146.0781  138.0122  151.7836 C   0  0  0  0  0  0  0  0  0  0  0  0
  145.3463  136.9053  151.6531 N   0  0  0  0  0  0  0  0  0  0  0  0
  145.3395  136.1788  152.8067 C   0  0  0  0  0  0  0  0  0  0  0  0
  142.9910  133.9649  148.7889 H   0  0  0  0  0  0  0  0  0  0  0  0
  142.9133  132.3043  148.2116 H   0  0  0  0  0  0  0  0  0  0  0  0
  144.4353  133.1816  148.1429 H   0  0  0  0  0  0  0  0  0  0  0  0
  142.9506  132.2658  150.6634 H   0  0  0  0  0  0  0  0  0  0  0  0
  144.4662  130.7888  152.0683 H   0  0  0  0  0  0  0  0  0  0  0  0
  145.9968  130.3363  151.3013 H   0  0  0  0  0  0  0  0  0  0  0  0
  145.9055  132.6277  152.7391 H   0  0  0  0  0  0  0  0  0  0  0  0
  146.7381  132.5950  151.1918 H   0  0  0  0  0  0  0  0  0  0  0  0
  145.4352  134.1419  149.3861 H   0  0  0  0  0  0  0  0  0  0  0  0
  143.1822  134.8416  151.6546 H   0  0  0  0  0  0  0  0  0  0  0  0
  143.3223  133.4661  152.7161 H   0  0  0  0  0  0  0  0  0  0  0  0
  144.6580  133.7647  154.8418 H   0  0  0  0  0  0  0  0  0  0  0  0
  149.0583  136.8342  155.2148 H   0  0  0  0  0  0  0  0  0  0  0  0
  148.7622  137.7600  157.4651 H   0  0  0  0  0  0  0  0  0  0  0  0
  150.1410  138.6863  156.8633 H   0  0  0  0  0  0  0  0  0  0  0  0
  147.4071  139.6103  157.4341 H   0  0  0  0  0  0  0  0  0  0  0  0
  148.7375  140.6288  156.9088 H   0  0  0  0  0  0  0  0  0  0  0  0
  146.6947  140.2550  155.1882 H   0  0  0  0  0  0  0  0  0  0  0  0
  148.1539  140.0058  153.2159 H   0  0  0  0  0  0  0  0  0  0  0  0
  149.6487  141.5771  155.3581 H   0  0  0  0  0  0  0  0  0  0  0  0
  150.3227  141.3226  153.7676 H   0  0  0  0  0  0  0  0  0  0  0  0
  148.8334  143.2038  154.2335 H   0  0  0  0  0  0  0  0  0  0  0  0
  150.5838  138.9977  154.5682 H   0  0  0  0  0  0  0  0  0  0  0  0
  149.6173  138.2774  153.2834 H   0  0  0  0  0  0  0  0  0  0  0  0
  146.1400  138.6380  150.9057 H   0  0  0  0  0  0  0  0  0  0  0  0
  1  2  1  0  0  0  0
  1 27  1  0  0  0  0
  1 28  1  0  0  0  0
  1 29  1  0  0  0  0
  2  6  1  0  0  0  0
  2  3  1  0  0  0  0
  2 30  1  0  0  0  0
  3  4  1  0  0  0  0
  4  5  1  0  0  0  0
  4 31  1  0  0  0  0
  4 32  1  0  0  0  0
  5  6  1  0  0  0  0
  5 33  1  0  0  0  0
  5 34  1  0  0  0  0
  6  7  1  0  0  0  0
  6  8  1  0  0  0  0
  7 35  1  0  0  0  0
  8  9  1  0  0  0  0
  8 36  1  0  0  0  0
  8 37  1  0  0  0  0
  9 26  1  0  0  0  0
  9 10  1  0  0  0  0
 10 11  2  0  0  0  0
 10 38  1  0  0  0  0
 11 12  1  0  0  0  0
 12 26  2  0  0  0  0
 12 13  1  0  0  0  0
 13 14  1  0  0  0  0
 13 23  2  0  0  0  0
 14 18  1  0  0  0  0
 14 15  1  0  0  0  0
 15 22  1  0  0  0  0
 15 16  1  0  0  0  0
 15 39  1  0  0  0  0
 16 17  1  0  0  0  0
 16 40  1  0  0  0  0
 16 41  1  0  0  0  0
 17 18  1  0  0  0  0
 17 42  1  0  0  0  0
 17 43  1  0  0  0  0
 18 19  1  0  0  0  0
 18 44  1  0  0  0  0
 19 20  1  0  0  0  0
 19 22  1  0  0  0  0
 19 45  1  0  0  0  0
 20 21  1  0  0  0  0
 20 46  1  0  0  0  0
 20 47  1  0  0  0  0
 21 48  1  0  0  0  0
 22 49  1  0  0  0  0
 22 50  1  0  0  0  0
 23 24  1  0  0  0  0
 24 25  2  0  0  0  0
 24 51  1  0  0  0  0
 25 26  1  0  0  0  0
M  END
> <s_m_source_file>
AV-unprocessed.smi

> <i_m_source_file_index>
199

> <i_lp_mmshare_version>
43012

> <i_f3d_flags>
0

> <s_epik_input>
W0NIMl0xW0NIMl1PW0NAQEhdKFtDSDNdKVtDQEBdMShbT0hdKVtDSDJdbihbY0hdbjIpYyhjMjMpbltjSF1uYzNOKFtDQEBIXTQ1KVtDQEhdKFtDSDJdW0NIMl00KVtDQEhdKFtDSDJdNSlbQ0gyXVtPSF0=

> <s_epik_cmdline>
J2VwaWtfcHl0aG9uJywgJy1waCcsICc3LjAnLCAnLXRuJywgJzgnLCAnLW1hJywgJzIwMCcsICctbWV0YWxfYmluZGluZycsICctaW1hZScsICc8aW5maWxlLm1hZT4nLCAnLW9tYWUnLCAnPG91dGZpbGUubWFlPic=

> <r_lp_tautomer_probability>
1

> <r_epik_Ionization_Penalty>
0.00583903

> <r_epik_Ionization_Penalty_Charging>
0

> <r_epik_Ionization_Penalty_Neutral>
0.00583903

> <r_epik_State_Penalty>
-0

> <r_epik_Charging_Adjusted_Penalty>
0

> <i_epik_Tot_Q>
0

> <i_epik_Tot_abs_Q>
0

> <r_epik_Metal_State_Penalty>
-0

> <b_epik_Metal_Only>
0

> <s_lp_Force_Field>
OPLS_2005

> <r_lp_Energy>
84.4473

> <b_lp_Chiralities_Consistent>
1

> <s_lp_Variant>
AV-unprocessed.smi:199-6

> <Gold.Version>
5.8.1

> <Gold.Id.Protein>
6NUR|6NUR_protein|mol2

> <Gold.PLP.Fitness>
40.4174

> <Gold.PLP.PLP>
-31.4647

> <Gold.PLP.part.hbond>
-4.0000

> <Gold.PLP.part.metal>
0.0000

> <Gold.PLP.part.buried>
-2.1218

> <Gold.PLP.part.nonpolar>
-28.5750

> <Gold.PLP.part.repulsive>
2.1628

> <Gold.PLP.ligand.clash>
0.0000

> <Gold.PLP.ligand.torsion>
1.1359

> <Gold.PLP.Chemscore.Hbond>
2.4764

> <Gold.PLP.Chemscore.CHOScore>
1.2490

> <Gold.PLP.Chemscore.Metal>
0.0000

> <Gold.Chemscore.Hbonds>
donor molecule, donor type, donor heavy atom, donor atom, acceptor molecule, acceptor atom, score
      L1  H     7    35       P1  7921  0.77
      L1  H    21    48       P1  8028  0.96
      P1  H  8011  8017       L1    21  0.08
      P1  H 10785 10796       L1     3  0.18
      L1  C    10    38       P1 10957  0.28
      L1  C    24    51       P1 10171  0.56

> <Gold.PLP.Chemscore.Internal.Correction>
0.0485

> <Gold.Rescore>
     Score         DG    S(hbond)    S(metal)    S(lipo)     H(rot)  DE(clash)    DE(int)     intcor
      7.91     -12.60       1.89        0.00      73.99       3.07       0.81       3.88       ----

> <Gold.Chemscore.Fitness>
7.9123

> <Gold.Chemscore.DG>
-12.5988

> <Gold.Chemscore.ZeroCoef>
-5.4800

> <Gold.Chemscore.Hbond>
1.8947

> <Gold.Chemscore.Metal>
0.0000

> <Gold.Chemscore.Lipo>
73.9945

> <Gold.Chemscore.Internal_Hbond>
0.0000

> <Gold.Chemscore.DEClash>
0.8094

> <Gold.Chemscore.DEInternal>
3.8771

> <Gold.Chemscore.Rot>
3.0729

> <Gold.Chemscore.Internal.Correction>
   9.000000E+99

> <Gold.Chemscore.Hbonds>
donor molecule, donor type, donor heavy atom, donor atom, acceptor molecule, acceptor atom, score
      L1  H     7    35       P1  7921  0.62
      L1  H    21    48       P1  8028  0.91
      P1  H 10785 10796       L1     3  0.05

> <Gold.Chemscore.Hbond.Weighted>
-6.3282

> <Gold.Chemscore.Metal.Weighted>
-0.0000

> <Gold.Chemscore.Lipo.Weighted>
-8.6574

> <Gold.Chemscore.Internal_Hbond.Weighted>
0.0000

> <Gold.Chemscore.DEClash.Weighted>
0.8094

> <Gold.Chemscore.DEInternal.Weighted>
3.8771

> <Gold.Chemscore.Rot.Weighted>
7.8667

> <Gold.Chemscore.Internal.Correction.Weighted>
   9.000000E+99

> <Gold.Protein.RotatedTorsions>
[ 6907 6896 6895 6894 ] final  -79.85 input  -60.11 | X-H torsion
[ 7974 7965 7964 7962 ] final -156.03 input  175.53 | X-H torsion
[ 8008 7997 7996 7995 ] final  161.36 input   59.86 | X-H torsion
[ 10167 10162 10161 10158 ] final  176.00 input  -65.29 | X-H torsion
[ 10718 10713 10712 10709 ] final   90.03 input   66.30 | X-H torsion
[ 10763 10752 10751 10750 ] final  171.32 input  -60.55 | X-H torsion
[ 11005 11000 10999 10996 ] final   75.62 input  -57.11 | X-H torsion

> <Gold.Protein.ActiveResidues>
 VAL166  LYS551  ARG553  GLY616  TRP617  ASP618  TYR619  PRO620  LYS621  CYS622 
 ASP623  PHE694  ASN695  SER759  ASP760  ASP761  ALA762  ILE779  LEU786  VAL792 
 PHE793  MET794  SER795  GLU796  ALA797  LYS798  CYS799  TRP800  GLU811  SER814 

> <Gold.Protein.RotatedAtoms>
  150.6941  134.4058  159.5139 H   0  0  0  0  0  0  0  0  0  0  0  0  # atno 6907 bound_to 6896
  152.1825  134.8739  160.0534 H   0  0  0  0  0  0  0  0  0  0  0  0  # atno 6908 bound_to 6896
  151.9725  133.3695  159.4113 H   0  0  0  0  0  0  0  0  0  0  0  0  # atno 6909 bound_to 6896
  144.7612  140.4166  143.5975 H   0  0  0  0  0  0  0  0  0  0  0  0  # atno 7974 bound_to 7965
  156.2108  140.1779  156.7698 H   0  0  0  0  0  0  0  0  0  0  0  0  # atno 8008 bound_to 7997
  154.5720  140.0681  156.9008 H   0  0  0  0  0  0  0  0  0  0  0  0  # atno 8009 bound_to 7997
  155.2655  140.3339  155.4272 H   0  0  0  0  0  0  0  0  0  0  0  0  # atno 8010 bound_to 7997
  139.5198  144.2966  152.0416 H   0  0  0  0  0  0  0  0  0  0  0  0  # atno 10167 bound_to 10162
  157.6958  131.0355  150.3516 H   0  0  0  0  0  0  0  0  0  0  0  0  # atno 10718 bound_to 10713
  154.4102  135.2756  155.2041 H   0  0  0  0  0  0  0  0  0  0  0  0  # atno 10763 bound_to 10752
  154.4030  135.6040  153.5912 H   0  0  0  0  0  0  0  0  0  0  0  0  # atno 10764 bound_to 10752
  152.9831  135.5931  154.4383 H   0  0  0  0  0  0  0  0  0  0  0  0  # atno 10765 bound_to 10752
  139.9335  134.7532  156.1293 H   0  0  0  0  0  0  0  0  0  0  0  0  # atno 11005 bound_to 11000
  145.6614  139.1582  143.2806 LP  0  0  0  0  0  0  0  0  0  0  0  0  # atno 17320 bound_to 7965
  146.1676  140.6694  142.9248 LP  0  0  0  0  0  0  0  0  0  0  0  0  # atno 17321 bound_to 7965
  140.2415  144.4264  150.6258 LP  0  0  0  0  0  0  0  0  0  0  0  0  # atno 17342 bound_to 10162
  140.6287  143.2184  151.6541 LP  0  0  0  0  0  0  0  0  0  0  0  0  # atno 17343 bound_to 10162
  156.3964  130.3907  149.6992 LP  0  0  0  0  0  0  0  0  0  0  0  0  # atno 17370 bound_to 10713
  156.4324  130.7821  151.2842 LP  0  0  0  0  0  0  0  0  0  0  0  0  # atno 17371 bound_to 10713
  141.0937  133.6704  156.2598 LP  0  0  0  0  0  0  0  0  0  0  0  0  # atno 17394 bound_to 11000
  140.6137  134.5432  157.5537 LP  0  0  0  0  0  0  0  0  0  0  0  0  # atno 17395 bound_to 11000

$$$$
