#       Name:                AV-unprocessed.smi:508
#       Creating user name   scv26
#       Creation time:       Thu Mar 26 23:22:29 2020


#       File generated by GOLD software.
#

@<TRIPOS>MOLECULE
AV-unprocessed.smi:508
    56    58     1
SMALL
NO_CHARGES


@<TRIPOS>ATOM
      1 ****        -3.7794   4.1397  -0.6512 C.3            1 S1                 0.0000
      2 ****        -3.4017   2.7043  -1.0242 C.3            1 S1                 0.0000
      3 ****        -2.0087   2.5300  -0.8292 O.3            1 S1                 0.0000
      4 ****        -1.5718   1.2178  -1.1412 C.3            1 S1                 0.0000
      5 ****        -0.0590   1.1356  -0.8919 C.3            1 S1                 0.0000
      6 ****         0.4819  -0.2020  -1.1131 N.pl3          1 S1                 0.0000
      7 ****         0.8246  -1.1369  -0.1850 C.2            1 S1                 0.0000
      8 ****         0.6285  -0.9349   1.1832 N.pl3          1 S1                 0.0000
      9 ****        -0.6848  -0.8279   1.8143 C.3            1 S1                 0.0000
     10 ****        -0.8797   0.4147   2.7057 C.3            1 S1                 0.0000
     11 ****        -0.1455   0.3105   4.0507 C.3            1 S1                 0.0000
     12 ****         1.3447   0.6940   4.0095 C.3            1 S1                 0.0000
     13 ****         2.1340   0.2393   2.7678 C.3            1 S1                 0.0000
     14 ****         1.6951  -1.1053   2.1663 C.3            1 S1                 0.0000
     15 ****         1.3785  -2.2429  -0.6876 N.2            1 S1                 0.0000
     16 ****         1.3594  -2.0047  -2.0530 C.2            1 S1                 0.0000
     17 ****         0.8259  -0.7871  -2.3355 C.2            1 S1                 0.0000
     18 ****         0.6912  -0.2475  -3.7055 C.2            1 S1                 0.0000
     19 ****         0.2151   0.8682  -3.9047 O.2            1 S1                 0.0000
     20 ****         1.1473  -1.1267  -4.6533 N.pl3          1 S1                -1.0000
     21 ****         1.6909  -2.3710  -4.4122 C.2            1 S1                 0.0000
     22 ****         2.0724  -3.0957  -5.3315 O.2            1 S1                 0.0000
     23 ****         1.8131  -2.8215  -3.1220 N.am           1 S1                 0.0000
     24 ****         2.3891  -4.1260  -2.7811 C.3            1 S1                 0.0000
     25 ****        -4.8473   4.3101  -0.7890 H              1 S1                 0.0000
     26 ****        -3.2427   4.8586  -1.2707 H              1 S1                 0.0000
     27 ****        -3.5387   4.3489   0.3911 H              1 S1                 0.0000
     28 ****        -3.9590   2.0009  -0.4039 H              1 S1                 0.0000
     29 ****        -3.6636   2.5087  -2.0651 H              1 S1                 0.0000
     30 ****        -2.1063   0.4978  -0.5235 H              1 S1                 0.0000
     31 ****        -1.8034   0.9837  -2.1806 H              1 S1                 0.0000
     32 ****         0.4679   1.8362  -1.5391 H              1 S1                 0.0000
     33 ****         0.1798   1.4559   0.1195 H              1 S1                 0.0000
     34 ****        -1.4417  -0.8319   1.0327 H              1 S1                 0.0000
     35 ****        -0.8726  -1.7330   2.3931 H              1 S1                 0.0000
     36 ****        -0.6142   1.3357   2.1889 H              1 S1                 0.0000
     37 ****        -1.9463   0.4954   2.9170 H              1 S1                 0.0000
     38 ****        -0.6406   0.9540   4.7787 H              1 S1                 0.0000
     39 ****        -0.2536  -0.7024   4.4405 H              1 S1                 0.0000
     40 ****         1.4395   1.7771   4.0941 H              1 S1                 0.0000
     41 ****         1.8209   0.2894   4.9032 H              1 S1                 0.0000
     42 ****         2.0899   1.0115   1.9977 H              1 S1                 0.0000
     43 ****         3.1860   0.1741   3.0468 H              1 S1                 0.0000
     44 ****         1.4057  -1.8123   2.9448 H              1 S1                 0.0000
     45 ****         2.5518  -1.5534   1.6618 H              1 S1                 0.0000
     46 ****         2.7826  -4.6812  -3.6328 H              1 S1                 0.0000
     47 ****         1.6336  -4.7507  -2.3041 H              1 S1                 0.0000
     48 ****         3.2105  -3.9963  -2.0757 H              1 S1                 0.0000
     49 ****        -1.7937   2.7193   0.1289 LP             1 S1                 0.0000
     50 ****        -1.5204   3.1773  -1.4145 LP             1 S1                 0.0000
     51 ****         1.7223  -3.0451  -0.1995 LP             1 S1                 0.0000
     52 ****        -0.0888   1.4271  -3.1332 LP             1 S1                 0.0000
     53 ****         0.1317   1.2168  -4.8383 LP             1 S1                 0.0000
     54 ****         1.0795  -0.8390  -5.6086 LP             1 S1                 0.0000
     55 ****         1.9915  -2.7860  -6.2789 LP             1 S1                 0.0000
     56 ****         2.4632  -3.9940  -5.1308 LP             1 S1                 0.0000
@<TRIPOS>BOND
    1    1    2 1     
    2    1   25 1     
    3    1   26 1     
    4    1   27 1     
    5    2    3 1     
    6    2   28 1     
    7    2   29 1     
    8    3    4 1     
    9    4    5 1     
   10    4   30 1     
   11    4   31 1     
   12    5    6 1     
   13    5   32 1     
   14    5   33 1     
   15    6   17 1     
   16    6    7 1     
   17    7    8 1     
   18    7   15 2     
   19    8   14 1     
   20    8    9 1     
   21    9   10 1     
   22    9   34 1     
   23    9   35 1     
   24   10   11 1     
   25   10   36 1     
   26   10   37 1     
   27   11   12 1     
   28   11   38 1     
   29   11   39 1     
   30   12   13 1     
   31   12   40 1     
   32   12   41 1     
   33   13   14 1     
   34   13   42 1     
   35   13   43 1     
   36   14   44 1     
   37   14   45 1     
   38   15   16 1     
   39   16   23 1     
   40   16   17 2     
   41   17   18 1     
   42   18   19 2     
   43   18   20 1     
   44   20   21 1     
   45   21   22 2     
   46   21   23 am    
   47   23   24 1     
   48   24   46 1     
   49   24   47 1     
   50   24   48 1     
   51    3   49 1     
   52    3   50 1     
   53   15   51 1     
   54   19   52 1     
   55   19   53 1     
   56   20   54 1     
   57   22   55 1     
   58   22   56 1     
@<TRIPOS>SUBSTRUCTURE
      1 S1             1
@<TRIPOS>SET
LONE_PAIRS      STATIC     ATOMS    <user>   **** ""
8 49 50 51 52 53 54 55 56
ATOM$BLUE        STATIC     ATOMS    COLORGROUP SYSTEM
8 49 50 51 52 53 54 55 56
