AV-unprocessed.smi:1681|AV-procd|sdf|6742|dock3
  -GOLD-   22720 7493D 1   1.00000     0.00000
 Structure written by MMmdl.
 40 41  0  0  0  0  0  0  0  0  1 V2000
  150.1950  142.0426  157.3722 C   0  0  0  0  0  0  0  0  0  0  0  0
  151.2760  141.6456  158.3799 C   0  0  0  0  0  0  0  0  0  0  0  0
  151.3902  140.4534  158.6655 O   0  0  0  0  0  0  0  0  0  0  0  0
  152.0608  142.6072  158.9231 N   0  0  0  0  0  0  0  0  0  0  0  0
  151.9210  144.0505  158.6896 C   0  0  0  0  0  0  0  0  0  0  0  0
  151.3722  144.7053  159.9700 C   0  0  0  0  0  0  0  0  0  0  0  0
  152.2758  144.3944  161.1788 C   0  0  0  0  0  0  0  0  0  0  0  0
  152.5613  142.8790  161.3066 C   0  0  2  0  0  0  0  0  0  0  0  0
  153.5689  142.5951  162.4286 C   0  0  0  0  0  0  0  0  0  0  0  0
  154.2496  141.5696  162.3947 O   0  0  0  0  0  0  0  0  0  0  0  0
  153.6364  143.5181  163.4047 N   0  0  0  0  0  0  0  0  0  0  0  0
  154.4760  143.5085  164.5468 C   0  0  0  0  0  0  0  0  0  0  0  0
  155.0387  144.6649  165.1468 C   0  0  0  0  0  0  0  0  0  0  0  0
  155.7855  144.3465  166.1929 N   0  0  0  0  0  0  0  0  0  0  0  0
  155.7158  142.9941  166.2775 N   0  0  0  0  0  0  0  0  0  0  0  0
  156.4458  142.2998  167.3233 C   0  0  0  0  0  0  0  0  0  0  0  0
  155.5172  141.4120  168.1549 C   0  0  0  0  0  0  0  0  0  0  0  0
  154.4577  141.9961  168.7218 N   0  0  0  0  0  0  0  0  0  0  0  0
  155.7561  140.2139  168.2889 O   0  0  0  0  0  0  0  0  0  0  0  0
  154.9196  142.4503  165.2883 C   0  0  0  0  0  0  0  0  0  0  0  0
  153.0643  142.3208  159.9560 C   0  0  0  0  0  0  0  0  0  0  0  0
  149.4942  142.7512  157.8147 H   0  0  0  0  0  0  0  0  0  0  0  0
  149.6262  141.1679  157.0546 H   0  0  0  0  0  0  0  0  0  0  0  0
  150.6410  142.4907  156.4839 H   0  0  0  0  0  0  0  0  0  0  0  0
  152.8985  144.4699  158.4472 H   0  0  0  0  0  0  0  0  0  0  0  0
  151.2826  144.2971  157.8425 H   0  0  0  0  0  0  0  0  0  0  0  0
  151.2889  145.7841  159.8347 H   0  0  0  0  0  0  0  0  0  0  0  0
  150.3634  144.3380  160.1628 H   0  0  0  0  0  0  0  0  0  0  0  0
  153.2130  144.9412  161.0622 H   0  0  0  0  0  0  0  0  0  0  0  0
  151.8124  144.7709  162.0917 H   0  0  0  0  0  0  0  0  0  0  0  0
  151.6225  142.3771  161.5505 H   0  0  0  0  0  0  0  0  0  0  0  0
  153.0200  144.3133  163.3186 H   0  0  0  0  0  0  0  0  0  0  0  0
  154.9348  145.7020  164.8639 H   0  0  0  0  0  0  0  0  0  0  0  0
  157.2367  141.6981  166.8724 H   0  0  0  0  0  0  0  0  0  0  0  0
  156.9310  143.0359  167.9659 H   0  0  0  0  0  0  0  0  0  0  0  0
  153.8205  141.4514  169.2845 H   0  0  0  0  0  0  0  0  0  0  0  0
  154.3020  142.9849  168.5893 H   0  0  0  0  0  0  0  0  0  0  0  0
  154.7551  141.3863  165.2060 H   0  0  0  0  0  0  0  0  0  0  0  0
  153.2796  141.2545  160.0439 H   0  0  0  0  0  0  0  0  0  0  0  0
  154.0089  142.7889  159.6731 H   0  0  0  0  0  0  0  0  0  0  0  0
  1  2  1  0  0  0  0
  1 22  1  0  0  0  0
  1 23  1  0  0  0  0
  1 24  1  0  0  0  0
  2  3  2  0  0  0  0
  2  4  1  0  0  0  0
  4 21  1  0  0  0  0
  4  5  1  0  0  0  0
  5  6  1  0  0  0  0
  5 25  1  0  0  0  0
  5 26  1  0  0  0  0
  6  7  1  0  0  0  0
  6 27  1  0  0  0  0
  6 28  1  0  0  0  0
  7  8  1  0  0  0  0
  7 29  1  0  0  0  0
  7 30  1  0  0  0  0
  8  9  1  0  0  0  0
  8 21  1  0  0  0  0
  8 31  1  0  0  0  0
  9 10  2  0  0  0  0
  9 11  1  0  0  0  0
 11 12  1  0  0  0  0
 11 32  1  0  0  0  0
 12 20  2  0  0  0  0
 12 13  1  0  0  0  0
 13 14  2  0  0  0  0
 13 33  1  0  0  0  0
 14 15  1  0  0  0  0
 15 16  1  0  0  0  0
 15 20  1  0  0  0  0
 16 17  1  0  0  0  0
 16 34  1  0  0  0  0
 16 35  1  0  0  0  0
 17 18  1  0  0  0  0
 17 19  2  0  0  0  0
 18 36  1  0  0  0  0
 18 37  1  0  0  0  0
 20 38  1  0  0  0  0
 21 39  1  0  0  0  0
 21 40  1  0  0  0  0
M  END
> <s_m_source_file>
AV-unprocessed.smi

> <i_m_source_file_index>
1681

> <i_lp_mmshare_version>
43012

> <i_f3d_flags>
0

> <s_epik_input>
W0NIM11DKD1PKU4xW0NIMl1bQ0gyXVtDSDJdW0NASF0oW0NIMl0xKUMoPU8pW05IXWMyW2NIXW5uKFtjSF0yKVtDSDJdQyg9TylbTkgyXQ==

> <s_epik_cmdline>
J2VwaWtfcHl0aG9uJywgJy1waCcsICc3LjAnLCAnLXRuJywgJzgnLCAnLW1hJywgJzIwMCcsICctbWV0YWxfYmluZGluZycsICctaW1hZScsICc8aW5maWxlLm1hZT4nLCAnLW9tYWUnLCAnPG91dGZpbGUubWFlPic=

> <r_lp_tautomer_probability>
1

> <r_epik_Ionization_Penalty>
6.05275e-06

> <r_epik_Ionization_Penalty_Charging>
0

> <r_epik_Ionization_Penalty_Neutral>
6.05275e-06

> <r_epik_State_Penalty>
-0

> <r_epik_Charging_Adjusted_Penalty>
0

> <i_epik_Tot_Q>
0

> <i_epik_Tot_abs_Q>
0

> <r_epik_Metal_State_Penalty>
-0

> <b_epik_Metal_Only>
0

> <s_lp_Force_Field>
OPLS_2005

> <r_lp_Energy>
29.5866

> <b_lp_Chiralities_Consistent>
1

> <s_lp_Variant>
AV-unprocessed.smi:1681-2

> <Gold.Version>
5.8.1

> <Gold.Id.Protein>
6NUR|6NUR_protein|mol2

> <Gold.PLP.Fitness>
50.3315

> <Gold.PLP.PLP>
-52.3072

> <Gold.PLP.part.hbond>
-5.0000

> <Gold.PLP.part.metal>
0.0000

> <Gold.PLP.part.buried>
-7.1973

> <Gold.PLP.part.nonpolar>
-39.5298

> <Gold.PLP.part.repulsive>
0.3953

> <Gold.PLP.ligand.clash>
0.0000

> <Gold.PLP.ligand.torsion>
1.0002

> <Gold.PLP.Chemscore.Hbond>
0.0000

> <Gold.PLP.Chemscore.CHOScore>
0.0000

> <Gold.PLP.Chemscore.Metal>
0.0000

> <Gold.PLP.Chemscore.Internal.Correction>
0.0248

> <Gold.Rescore>
     Score         DG    S(hbond)    S(metal)    S(lipo)     H(rot)  DE(clash)    DE(int)     intcor
     10.13     -11.70       0.00        0.00      96.05       1.96       0.32       1.25       ----

> <Gold.Chemscore.Fitness>
10.1292

> <Gold.Chemscore.DG>
-11.6963

> <Gold.Chemscore.ZeroCoef>
-5.4800

> <Gold.Chemscore.Hbond>
0.0000

> <Gold.Chemscore.Metal>
0.0000

> <Gold.Chemscore.Lipo>
96.0538

> <Gold.Chemscore.Internal_Hbond>
0.0000

> <Gold.Chemscore.DEClash>
0.3155

> <Gold.Chemscore.DEInternal>
1.2516

> <Gold.Chemscore.Rot>
1.9617

> <Gold.Chemscore.Internal.Correction>
   9.000000E+99

> <Gold.Chemscore.Hbond.Weighted>
-0.0000

> <Gold.Chemscore.Metal.Weighted>
-0.0000

> <Gold.Chemscore.Lipo.Weighted>
-11.2383

> <Gold.Chemscore.Internal_Hbond.Weighted>
0.0000

> <Gold.Chemscore.DEClash.Weighted>
0.3155

> <Gold.Chemscore.DEInternal.Weighted>
1.2516

> <Gold.Chemscore.Rot.Weighted>
5.0220

> <Gold.Chemscore.Internal.Correction.Weighted>
   9.000000E+99

> <Gold.Protein.RotatedTorsions>
[ 6907 6896 6895 6894 ] final  -94.74 input  -60.11 | X-H torsion
[ 7974 7965 7964 7962 ] final   87.82 input  175.53 | X-H torsion
[ 8008 7997 7996 7995 ] final -143.02 input   59.86 | X-H torsion
[ 10167 10162 10161 10158 ] final   67.07 input  -65.29 | X-H torsion
[ 10718 10713 10712 10709 ] final   71.20 input   66.30 | X-H torsion
[ 10763 10752 10751 10750 ] final   49.04 input  -60.55 | X-H torsion
[ 11005 11000 10999 10996 ] final -174.45 input  -57.11 | X-H torsion

> <Gold.Protein.ActiveResidues>
 VAL166  LYS551  ARG553  GLY616  TRP617  ASP618  TYR619  PRO620  LYS621  CYS622 
 ASP623  PHE694  ASN695  SER759  ASP760  ASP761  ALA762  ILE779  LEU786  VAL792 
 PHE793  MET794  SER795  GLU796  ALA797  LYS798  CYS799  TRP800  GLU811  SER814 

> <Gold.Protein.RotatedAtoms>
  150.6948  134.1765  159.4232 H   0  0  0  0  0  0  0  0  0  0  0  0  # atno 6907 bound_to 6896
  151.9741  135.0059  160.0563 H   0  0  0  0  0  0  0  0  0  0  0  0  # atno 6908 bound_to 6896
  152.1814  133.4675  159.4997 H   0  0  0  0  0  0  0  0  0  0  0  0  # atno 6909 bound_to 6896
  145.5539  139.2298  143.2497 H   0  0  0  0  0  0  0  0  0  0  0  0  # atno 7974 bound_to 7965
  155.5038  140.0577  157.2935 H   0  0  0  0  0  0  0  0  0  0  0  0  # atno 8008 bound_to 7997
  154.4577  140.1981  156.0281 H   0  0  0  0  0  0  0  0  0  0  0  0  # atno 8009 bound_to 7997
  156.0831  140.3244  155.7723 H   0  0  0  0  0  0  0  0  0  0  0  0  # atno 8010 bound_to 7997
  140.0935  144.4967  150.7083 H   0  0  0  0  0  0  0  0  0  0  0  0  # atno 10167 bound_to 10162
  157.6440  130.9516  150.0757 H   0  0  0  0  0  0  0  0  0  0  0  0  # atno 10718 bound_to 10713
  152.9788  135.5924  154.4025 H   0  0  0  0  0  0  0  0  0  0  0  0  # atno 10763 bound_to 10752
  154.3669  135.2767  155.2290 H   0  0  0  0  0  0  0  0  0  0  0  0  # atno 10764 bound_to 10752
  154.4263  135.6047  153.6095 H   0  0  0  0  0  0  0  0  0  0  0  0  # atno 10765 bound_to 10752
  140.4743  134.6135  157.4895 H   0  0  0  0  0  0  0  0  0  0  0  0  # atno 11005 bound_to 11000
  146.1898  140.6362  142.9151 LP  0  0  0  0  0  0  0  0  0  0  0  0  # atno 17320 bound_to 7965
  144.7516  140.5204  143.6798 LP  0  0  0  0  0  0  0  0  0  0  0  0  # atno 17321 bound_to 7965
  140.7016  143.2438  151.4848 LP  0  0  0  0  0  0  0  0  0  0  0  0  # atno 17342 bound_to 10162
  139.5711  144.1926  152.1838 LP  0  0  0  0  0  0  0  0  0  0  0  0  # atno 17343 bound_to 10162
  156.1748  130.3648  149.9115 LP  0  0  0  0  0  0  0  0  0  0  0  0  # atno 17370 bound_to 10713
  156.7082  130.8960  151.3606 LP  0  0  0  0  0  0  0  0  0  0  0  0  # atno 17371 bound_to 10713
  139.9865  134.7053  155.9764 LP  0  0  0  0  0  0  0  0  0  0  0  0  # atno 17394 bound_to 11000
  141.1562  133.6542  156.4168 LP  0  0  0  0  0  0  0  0  0  0  0  0  # atno 17395 bound_to 11000

$$$$
