AV-unprocessed.smi:54|AV-procd|sdf|530|dock6
  -GOLD-   2262016403D 1   1.00000     0.00000
 Structure written by MMmdl.
 44 46  0  0  0  0  0  0  0  0  1 V2000
  152.6681  142.1460  161.3948 C   0  0  0  0  0  0  0  0  0  0  0  0
  152.9435  142.3972  159.9037 C   0  0  0  0  0  0  0  0  0  0  0  0
  152.6017  143.8431  159.5085 C   0  0  0  0  0  0  0  0  0  0  0  0
  152.1663  141.3995  159.0372 C   0  0  0  0  0  0  0  0  0  0  0  0
  150.9369  141.4147  158.9659 O   0  0  0  0  0  0  0  0  0  0  0  0
  152.9793  140.4349  158.3188 N   0  0  0  0  0  0  0  0  0  0  0  0
  152.5502  139.4507  157.4952 C   0  0  0  0  0  0  0  0  0  0  0  0
  151.3678  139.4694  156.8958 N   0  0  0  0  0  0  0  0  0  0  0  0
  151.1199  138.3875  156.0976 C   0  0  0  0  0  0  0  0  0  0  0  0
  151.9634  137.3204  155.8704 C   0  0  0  0  0  0  0  0  0  0  0  0
  151.3627  136.4098  155.0083 N   0  0  0  0  0  0  0  0  0  0  0  0
  150.2007  136.9409  154.7460 C   0  0  0  0  0  0  0  0  0  0  0  0
  149.9746  138.1453  155.3709 N   0  0  0  0  0  0  0  0  0  0  0  0
  148.7744  139.0398  155.3094 C   0  0  1  0  0  0  0  0  0  0  0  0
  148.6605  139.7024  156.5354 O   0  0  0  0  0  0  0  0  0  0  0  0
  148.9887  141.0746  156.3653 C   0  0  2  0  0  0  0  0  0  0  0  0
  148.4103  141.9206  157.5136 C   0  0  0  0  0  0  0  0  0  0  0  0
  149.1990  143.0611  157.7835 O   0  0  0  0  0  0  0  0  0  0  0  0
  148.4973  141.3855  154.9508 C   0  0  1  0  0  0  0  0  0  0  0  0
  149.0685  142.5616  154.4089 O   0  0  0  0  0  0  0  0  0  0  0  0
  148.8951  140.1173  154.2009 C   0  0  1  0  0  0  0  0  0  0  0  0
  150.1963  140.2142  153.6378 O   0  0  0  0  0  0  0  0  0  0  0  0
  153.2499  137.2909  156.5039 C   0  0  0  0  0  0  0  0  0  0  0  0
  154.1244  136.4320  156.4138 O   0  0  0  0  0  0  0  0  0  0  0  0
  153.4666  138.4150  157.3113 N   0  0  0  0  0  0  0  0  0  0  0  0
  147.9294  138.3636  155.1733 H   0  0  0  0  0  0  0  0  0  0  0  0
  150.0777  141.1472  156.3933 H   0  0  0  0  0  0  0  0  0  0  0  0
  147.4109  141.4765  154.9357 H   0  0  0  0  0  0  0  0  0  0  0  0
  148.1918  139.8925  153.3982 H   0  0  0  0  0  0  0  0  0  0  0  0
  152.9122  141.1207  161.6763 H   0  0  0  0  0  0  0  0  0  0  0  0
  151.6206  142.3201  161.6447 H   0  0  0  0  0  0  0  0  0  0  0  0
  153.2699  142.8073  162.0189 H   0  0  0  0  0  0  0  0  0  0  0  0
  154.0090  142.2436  159.7264 H   0  0  0  0  0  0  0  0  0  0  0  0
  152.7854  144.0192  158.4478 H   0  0  0  0  0  0  0  0  0  0  0  0
  153.2111  144.5537  160.0675 H   0  0  0  0  0  0  0  0  0  0  0  0
  151.5555  144.0777  159.7093 H   0  0  0  0  0  0  0  0  0  0  0  0
  153.9742  140.4899  158.4797 H   0  0  0  0  0  0  0  0  0  0  0  0
  149.4834  136.4668  154.0922 H   0  0  0  0  0  0  0  0  0  0  0  0
  147.3892  142.2278  157.2866 H   0  0  0  0  0  0  0  0  0  0  0  0
  148.3685  141.3225  158.4239 H   0  0  0  0  0  0  0  0  0  0  0  0
  149.2424  143.5890  157.0008 H   0  0  0  0  0  0  0  0  0  0  0  0
  149.0996  143.2160  155.0905 H   0  0  0  0  0  0  0  0  0  0  0  0
  150.1323  140.0331  152.7124 H   0  0  0  0  0  0  0  0  0  0  0  0
  154.3538  138.4604  157.7906 H   0  0  0  0  0  0  0  0  0  0  0  0
  1  2  1  0  0  0  0
  1 30  1  0  0  0  0
  1 31  1  0  0  0  0
  1 32  1  0  0  0  0
  2  3  1  0  0  0  0
  2  4  1  0  0  0  0
  2 33  1  0  0  0  0
  3 34  1  0  0  0  0
  3 35  1  0  0  0  0
  3 36  1  0  0  0  0
  4  5  2  0  0  0  0
  4  6  1  0  0  0  0
  6 37  1  0  0  0  0
  6  7  1  0  0  0  0
  7 25  1  0  0  0  0
  7  8  2  0  0  0  0
  8  9  1  0  0  0  0
  9 13  1  0  0  0  0
  9 10  2  0  0  0  0
 10 11  1  0  0  0  0
 10 23  1  0  0  0  0
 11 12  2  0  0  0  0
 12 13  1  0  0  0  0
 12 38  1  0  0  0  0
 13 14  1  0  0  0  0
 14 26  1  0  0  0  0
 14 21  1  0  0  0  0
 14 15  1  0  0  0  0
 15 16  1  0  0  0  0
 16 27  1  0  0  0  0
 16 17  1  0  0  0  0
 16 19  1  0  0  0  0
 17 18  1  0  0  0  0
 17 39  1  0  0  0  0
 17 40  1  0  0  0  0
 18 41  1  0  0  0  0
 19 28  1  0  0  0  0
 19 20  1  0  0  0  0
 19 21  1  0  0  0  0
 20 42  1  0  0  0  0
 21 29  1  0  0  0  0
 21 22  1  0  0  0  0
 22 43  1  0  0  0  0
 23 24  2  0  0  0  0
 23 25  1  0  0  0  0
 25 44  1  0  0  0  0
M  END
> <s_m_source_file>
AV-unprocessed.smi

> <i_m_source_file_index>
54

> <i_lp_mmshare_version>
43012

> <i_f3d_flags>
0

> <s_epik_input>
W0NIM11bQ0hdKFtDSDNdKUMoPU8pW05IXWMobjEpW25IXWMoPU8pYyhjMTIpbltjSF1uMltDQEBIXTNPW0NASF0oW0NIMl1bT0hdKVtDQEBIXShbT0hdKVtDQEhdM1tPSF0=

> <s_epik_cmdline>
J2VwaWtfcHl0aG9uJywgJy1waCcsICc3LjAnLCAnLXRuJywgJzgnLCAnLW1hJywgJzIwMCcsICctbWV0YWxfYmluZGluZycsICctaW1hZScsICc8aW5maWxlLm1hZT4nLCAnLW9tYWUnLCAnPG91dGZpbGUubWFlPic=

> <r_lp_tautomer_probability>
0.85571

> <r_epik_Ionization_Penalty>
0.0316551

> <r_epik_Ionization_Penalty_Charging>
0.0316043

> <r_epik_Ionization_Penalty_Neutral>
5.07097e-05

> <r_epik_State_Penalty>
3.15494e-07

> <r_epik_Charging_Adjusted_Penalty>
0.0316047

> <i_epik_Tot_Q>
0

> <i_epik_Tot_abs_Q>
0

> <r_epik_Metal_State_Penalty>
0.421206

> <b_epik_Metal_Only>
0

> <s_epik_Chemistry_Notes>
This compound contains an acetal/aminal-like group ( X-CH(R)-Y where X, Y are N, S, or O) that may be acid/base labile, releasing an aldehyde.

> <s_lp_Force_Field>
OPLS_2005

> <r_lp_Energy>
47.6187

> <b_lp_Chiralities_Consistent>
1

> <s_lp_Variant>
AV-unprocessed.smi:54-2

> <Gold.Version>
5.8.1

> <Gold.Id.Protein>
6NUR|6NUR_protein|mol2

> <Gold.PLP.Fitness>
50.1987

> <Gold.PLP.PLP>
-34.2919

> <Gold.PLP.part.hbond>
-8.3820

> <Gold.PLP.part.metal>
0.0000

> <Gold.PLP.part.buried>
-2.8938

> <Gold.PLP.part.nonpolar>
-23.0981

> <Gold.PLP.part.repulsive>
1.5841

> <Gold.PLP.ligand.clash>
0.0000

> <Gold.PLP.ligand.torsion>
1.2985

> <Gold.PLP.Chemscore.Hbond>
5.2402

> <Gold.PLP.Chemscore.CHOScore>
0.9196

> <Gold.PLP.Chemscore.Metal>
0.0000

> <Gold.Chemscore.Hbonds>
donor molecule, donor type, donor heavy atom, donor atom, acceptor molecule, acceptor atom, score
      L1  H    18    41       P1  8028  1.00
      L1  H    20    42       P1  8028  1.00
      L1  H    22    43       P1  7957  1.00
      P1  H  7989  7998       L1    22  0.43
      P1  H  8011  8017       L1    20  0.05
      P1  H 10752 10764       L1    11  0.85
      P1  H 10752 10765       L1    24  0.64
      L1  C    12    38       P1  7948  1.00

> <Gold.PLP.Chemscore.Internal.Correction>
0.0244

> <Gold.Rescore>
     Score         DG    S(hbond)    S(metal)    S(lipo)     H(rot)  DE(clash)    DE(int)     intcor
      9.39     -15.84       4.12        0.00      59.57       4.05       1.37       5.09       ----

> <Gold.Chemscore.Fitness>
9.3856

> <Gold.Chemscore.DG>
-15.8443

> <Gold.Chemscore.ZeroCoef>
-5.4800

> <Gold.Chemscore.Hbond>
4.1200

> <Gold.Chemscore.Metal>
0.0000

> <Gold.Chemscore.Lipo>
59.5712

> <Gold.Chemscore.Internal_Hbond>
0.0000

> <Gold.Chemscore.DEClash>
1.3655

> <Gold.Chemscore.DEInternal>
5.0932

> <Gold.Chemscore.Rot>
4.0493

> <Gold.Chemscore.Internal.Correction>
   9.000000E+99

> <Gold.Chemscore.Hbonds>
donor molecule, donor type, donor heavy atom, donor atom, acceptor molecule, acceptor atom, score
      L1  H    18    41       P1  8028  0.78
      L1  H    20    42       P1  8028  0.95
      L1  H    22    43       P1  7957  0.99
      P1  H  7989  7998       L1    22  0.03
      P1  H  8011  8017       L1    20  0.06
      P1  H 10752 10764       L1    11  0.15
      P1  H 10752 10765       L1    24  0.62

> <Gold.Chemscore.Hbond.Weighted>
-13.7607

> <Gold.Chemscore.Metal.Weighted>
-0.0000

> <Gold.Chemscore.Lipo.Weighted>
-6.9698

> <Gold.Chemscore.Internal_Hbond.Weighted>
0.0000

> <Gold.Chemscore.DEClash.Weighted>
1.3655

> <Gold.Chemscore.DEInternal.Weighted>
5.0932

> <Gold.Chemscore.Rot.Weighted>
10.3662

> <Gold.Chemscore.Internal.Correction.Weighted>
   9.000000E+99

> <Gold.Protein.RotatedTorsions>
[ 6907 6896 6895 6894 ] final    6.81 input  -60.11 | X-H torsion
[ 7974 7965 7964 7962 ] final  155.55 input  175.53 | X-H torsion
[ 8008 7997 7996 7995 ] final  -25.98 input   59.86 | X-H torsion
[ 10167 10162 10161 10158 ] final -141.60 input  -65.29 | X-H torsion
[ 10718 10713 10712 10709 ] final -175.09 input   66.30 | X-H torsion
[ 10763 10752 10751 10750 ] final  -74.72 input  -60.55 | X-H torsion
[ 11005 11000 10999 10996 ] final  178.56 input  -57.11 | X-H torsion

> <Gold.Protein.ActiveResidues>
 VAL166  LYS551  ARG553  GLY616  TRP617  ASP618  TYR619  PRO620  LYS621  CYS622 
 ASP623  PHE694  ASN695  SER759  ASP760  ASP761  ALA762  ILE779  LEU786  VAL792 
 PHE793  MET794  SER795  GLU796  ALA797  LYS798  CYS799  TRP800  GLU811  SER814 

> <Gold.Protein.RotatedAtoms>
  151.6797  135.0963  160.0213 H   0  0  0  0  0  0  0  0  0  0  0  0  # atno 6907 bound_to 6896
  152.3843  133.6585  159.6194 H   0  0  0  0  0  0  0  0  0  0  0  0  # atno 6908 bound_to 6896
  150.7772  133.8978  159.3373 H   0  0  0  0  0  0  0  0  0  0  0  0  # atno 6909 bound_to 6896
  144.8018  139.7083  143.6179 H   0  0  0  0  0  0  0  0  0  0  0  0  # atno 7974 bound_to 7965
  154.4448  140.1912  156.0704 H   0  0  0  0  0  0  0  0  0  0  0  0  # atno 8008 bound_to 7997
  156.0515  140.3308  155.7330 H   0  0  0  0  0  0  0  0  0  0  0  0  # atno 8009 bound_to 7997
  155.5549  140.0598  157.2832 H   0  0  0  0  0  0  0  0  0  0  0  0  # atno 8010 bound_to 7997
  139.8169  143.7626  152.2665 H   0  0  0  0  0  0  0  0  0  0  0  0  # atno 10167 bound_to 10162
  156.7948  130.9531  151.3120 H   0  0  0  0  0  0  0  0  0  0  0  0  # atno 10718 bound_to 10713
  154.4768  135.5855  153.6361 H   0  0  0  0  0  0  0  0  0  0  0  0  # atno 10763 bound_to 10752
  152.9842  135.6080  154.3296 H   0  0  0  0  0  0  0  0  0  0  0  0  # atno 10764 bound_to 10752
  154.3184  135.2844  155.2511 H   0  0  0  0  0  0  0  0  0  0  0  0  # atno 10765 bound_to 10752
  140.3965  134.6816  157.4537 H   0  0  0  0  0  0  0  0  0  0  0  0  # atno 11005 bound_to 11000
  146.2301  139.5797  142.9561 LP  0  0  0  0  0  0  0  0  0  0  0  0  # atno 17320 bound_to 7965
  145.5535  141.0411  143.2265 LP  0  0  0  0  0  0  0  0  0  0  0  0  # atno 17321 bound_to 7965
  139.7793  144.7450  151.0112 LP  0  0  0  0  0  0  0  0  0  0  0  0  # atno 17342 bound_to 10162
  140.7815  143.4560  151.0345 LP  0  0  0  0  0  0  0  0  0  0  0  0  # atno 17343 bound_to 10162
  157.6583  130.8943  149.9775 LP  0  0  0  0  0  0  0  0  0  0  0  0  # atno 17370 bound_to 10713
  156.1137  130.3649  150.0005 LP  0  0  0  0  0  0  0  0  0  0  0  0  # atno 17371 bound_to 10713
  140.0368  134.6326  155.9033 LP  0  0  0  0  0  0  0  0  0  0  0  0  # atno 17394 bound_to 11000
  141.1872  133.6559  156.5272 LP  0  0  0  0  0  0  0  0  0  0  0  0  # atno 17395 bound_to 11000

$$$$
