AV-unprocessed.smi:1754|AV-procd|sdf|7069|dock9
  -GOLD-   22720 8283D 1   1.00000     0.00000
 Structure written by MMmdl.
 44 45  0  0  0  0  0  0  0  0  3 V2000
  152.9140  142.9824  162.2215 C   0  0  0  0  0  0  0  0  0  0  0  0
  153.4714  142.5008  160.8758 C   0  0  0  0  0  0  0  0  0  0  0  0
  152.4948  142.6296  159.7976 N   0  0  0  0  0  0  0  0  0  0  0  0
  151.8760  143.9313  159.5529 C   0  0  0  0  0  0  0  0  0  0  0  0
  152.0875  144.4124  158.1111 C   0  0  0  0  0  0  0  0  0  0  0  0
  152.1127  141.5005  159.0367 C   0  0  0  0  0  0  0  0  0  0  0  0
  151.0558  141.5176  158.0931 C   0  0  0  0  0  0  0  0  0  0  0  0
  150.7394  140.3493  157.3702 C   0  0  0  0  0  0  0  0  0  0  0  0
  151.4691  139.1651  157.5968 C   0  0  0  0  0  0  0  0  0  0  0  0
  151.1317  138.0202  156.8262 N   0  0  0  0  0  0  0  0  0  0  0  0
  151.9423  137.0818  156.2778 C   0  0  0  0  0  0  0  0  0  0  0  0
  153.1508  137.1342  156.4995 O   0  0  0  0  0  0  0  0  0  0  0  0
  151.4043  136.0822  155.5150 N   0  5  0  0  0  0  0  0  0  0  0  0
  150.0364  135.9476  154.9832 C   0  0  1  0  0  0  0  0  0  0  0  0
  149.9216  134.6190  154.2040 C   0  0  0  0  0  0  0  0  0  0  0  0
  149.7242  133.4598  155.1903 C   0  0  0  0  0  0  0  0  0  0  0  0
  148.7168  134.1509  156.5528 S   0  0  0  0  0  0  0  0  0  0  0  0
  147.2984  133.8469  156.3073 O   0  0  0  0  0  0  0  0  0  0  0  0
  149.3445  133.8169  157.8407 O   0  0  0  0  0  0  0  0  0  0  0  0
  149.0211  135.9165  156.1433 C   0  0  0  0  0  0  0  0  0  0  0  0
  152.5228  139.1988  158.5392 C   0  0  0  0  0  0  0  0  0  0  0  0
  152.7918  140.3399  159.2088 N   0  3  0  0  0  0  0  0  0  0  0  0
  153.6561  142.8627  163.0109 H   0  0  0  0  0  0  0  0  0  0  0  0
  152.0299  142.4131  162.5101 H   0  0  0  0  0  0  0  0  0  0  0  0
  152.6360  144.0360  162.1846 H   0  0  0  0  0  0  0  0  0  0  0  0
  154.3940  143.0256  160.6292 H   0  0  0  0  0  0  0  0  0  0  0  0
  153.7512  141.4508  160.9651 H   0  0  0  0  0  0  0  0  0  0  0  0
  150.8062  143.8477  159.7474 H   0  0  0  0  0  0  0  0  0  0  0  0
  152.2444  144.6742  160.2608 H   0  0  0  0  0  0  0  0  0  0  0  0
  151.6035  145.3761  157.9517 H   0  0  0  0  0  0  0  0  0  0  0  0
  151.6676  143.7083  157.3923 H   0  0  0  0  0  0  0  0  0  0  0  0
  153.1469  144.5323  157.8830 H   0  0  0  0  0  0  0  0  0  0  0  0
  150.4731  142.4077  157.9123 H   0  0  0  0  0  0  0  0  0  0  0  0
  149.9351  140.3642  156.6492 H   0  0  0  0  0  0  0  0  0  0  0  0
  150.1433  137.8623  156.6945 H   0  0  0  0  0  0  0  0  0  0  0  0
  149.7915  136.7723  154.3121 H   0  0  0  0  0  0  0  0  0  0  0  0
  149.0420  134.6741  153.5619 H   0  0  0  0  0  0  0  0  0  0  0  0
  150.7738  134.4483  153.5450 H   0  0  0  0  0  0  0  0  0  0  0  0
  149.2224  132.6002  154.7467 H   0  0  0  0  0  0  0  0  0  0  0  0
  150.6784  133.1299  155.6049 H   0  0  0  0  0  0  0  0  0  0  0  0
  149.3527  136.4539  157.0324 H   0  0  0  0  0  0  0  0  0  0  0  0
  148.0714  136.3465  155.8257 H   0  0  0  0  0  0  0  0  0  0  0  0
  153.1713  138.3686  158.7754 H   0  0  0  0  0  0  0  0  0  0  0  0
  153.5587  140.3270  159.8811 H   0  0  0  0  0  0  0  0  0  0  0  0
  1  2  1  0  0  0  0
  1 23  1  0  0  0  0
  1 24  1  0  0  0  0
  1 25  1  0  0  0  0
  2  3  1  0  0  0  0
  2 26  1  0  0  0  0
  2 27  1  0  0  0  0
  3  4  1  0  0  0  0
  3  6  1  0  0  0  0
  4  5  1  0  0  0  0
  4 28  1  0  0  0  0
  4 29  1  0  0  0  0
  5 30  1  0  0  0  0
  5 31  1  0  0  0  0
  5 32  1  0  0  0  0
  6 22  1  0  0  0  0
  6  7  2  0  0  0  0
  7  8  1  0  0  0  0
  7 33  1  0  0  0  0
  8  9  2  0  0  0  0
  8 34  1  0  0  0  0
  9 10  1  0  0  0  0
  9 21  1  0  0  0  0
 10 11  1  0  0  0  0
 10 35  1  0  0  0  0
 11 12  2  0  0  0  0
 11 13  1  0  0  0  0
 13 14  1  0  0  0  0
 14 20  1  0  0  0  0
 14 15  1  0  0  0  0
 14 36  1  0  0  0  0
 15 16  1  0  0  0  0
 15 37  1  0  0  0  0
 15 38  1  0  0  0  0
 16 17  1  0  0  0  0
 16 39  1  0  0  0  0
 16 40  1  0  0  0  0
 17 18  2  0  0  0  0
 17 19  2  0  0  0  0
 17 20  1  0  0  0  0
 20 41  1  0  0  0  0
 20 42  1  0  0  0  0
 21 22  2  0  0  0  0
 21 43  1  0  0  0  0
 22 44  1  0  0  0  0
M  CHG  1  13  -1
M  CHG  1  22   1
M  END
> <s_m_source_file>
AV-unprocessed.smi

> <i_m_source_file_index>
1754

> <i_lp_mmshare_version>
43012

> <i_f3d_flags>
0

> <s_epik_input>
W0NIM11bQ0gyXU4oW0NIMl1bQ0gzXSljMVtjSF1bY0hdYyhbY0hdbjEpW05IXUMoPU8pW05IXVtDQEBIXShbQ0gyXTIpW0NIMl1bQ0gyXVMyKD1PKT1P

> <s_epik_cmdline>
J2VwaWtfcHl0aG9uJywgJy1waCcsICc3LjAnLCAnLXRuJywgJzgnLCAnLW1hJywgJzIwMCcsICctbWV0YWxfYmluZGluZycsICctaW1hZScsICc8aW5maWxlLm1hZT4nLCAnLW9tYWUnLCAnPG91dGZpbGUubWFlPic=

> <r_lp_tautomer_probability>
0.999994

> <r_epik_Ionization_Penalty>
7.1175

> <r_epik_Ionization_Penalty_Charging>
7.11749

> <r_epik_Ionization_Penalty_Neutral>
3.13064e-06

> <r_epik_State_Penalty>
6.65299

> <r_epik_Charging_Adjusted_Penalty>
13.7705

> <i_epik_Tot_Q>
0

> <i_epik_Tot_abs_Q>
2

> <r_epik_Metal_State_Penalty>
2.60496

> <b_epik_Metal_Only>
1

> <s_lp_Force_Field>
OPLS_2005

> <r_lp_Energy>
22.4709

> <b_lp_Chiralities_Consistent>
1

> <s_lp_Variant>
AV-unprocessed.smi:1754-6

> <Gold.Version>
5.8.1

> <Gold.Id.Protein>
6NUR|6NUR_protein|mol2

> <Gold.PLP.Fitness>
47.3538

> <Gold.PLP.PLP>
-39.0240

> <Gold.PLP.part.hbond>
-2.5870

> <Gold.PLP.part.metal>
0.0000

> <Gold.PLP.part.buried>
-5.4367

> <Gold.PLP.part.nonpolar>
-30.4016

> <Gold.PLP.part.repulsive>
0.1951

> <Gold.PLP.ligand.clash>
0.0000

> <Gold.PLP.ligand.torsion>
0.3558

> <Gold.PLP.Chemscore.Hbond>
3.0000

> <Gold.PLP.Chemscore.CHOScore>
0.0000

> <Gold.PLP.Chemscore.Metal>
0.0000

> <Gold.Chemscore.Hbonds>
donor molecule, donor type, donor heavy atom, donor atom, acceptor molecule, acceptor atom, score
      P1  H  6896  6907       L1    19  1.00
      P1  H 10752 10764       L1    13  1.30

> <Gold.PLP.Chemscore.Internal.Correction>
0.0415

> <Gold.Rescore>
     Score         DG    S(hbond)    S(metal)    S(lipo)     H(rot)  DE(clash)    DE(int)     intcor
     14.78     -17.09       1.41        0.00      89.46       1.39       0.02       2.28       ----

> <Gold.Chemscore.Fitness>
14.7821

> <Gold.Chemscore.DG>
-17.0897

> <Gold.Chemscore.ZeroCoef>
-5.4800

> <Gold.Chemscore.Hbond>
1.4058

> <Gold.Chemscore.Metal>
0.0000

> <Gold.Chemscore.Lipo>
89.4595

> <Gold.Chemscore.Internal_Hbond>
0.0000

> <Gold.Chemscore.DEClash>
0.0237

> <Gold.Chemscore.DEInternal>
2.2839

> <Gold.Chemscore.Rot>
1.3876

> <Gold.Chemscore.Internal.Correction>
   9.000000E+99

> <Gold.Chemscore.Hbonds>
donor molecule, donor type, donor heavy atom, donor atom, acceptor molecule, acceptor atom, score
      P1  H  6896  6907       L1    19  0.95
      P1  H 10752 10764       L1    13  0.06

> <Gold.Chemscore.Hbond.Weighted>
-4.6953

> <Gold.Chemscore.Metal.Weighted>
-0.0000

> <Gold.Chemscore.Lipo.Weighted>
-10.4668

> <Gold.Chemscore.Internal_Hbond.Weighted>
0.0000

> <Gold.Chemscore.DEClash.Weighted>
0.0237

> <Gold.Chemscore.DEInternal.Weighted>
2.2839

> <Gold.Chemscore.Rot.Weighted>
3.5524

> <Gold.Chemscore.Internal.Correction.Weighted>
   9.000000E+99

> <Gold.Protein.RotatedTorsions>
[ 6907 6896 6895 6894 ] final -101.22 input  -60.11 | X-H torsion
[ 7974 7965 7964 7962 ] final  -38.34 input  175.53 | X-H torsion
[ 8008 7997 7996 7995 ] final  130.86 input   59.86 | X-H torsion
[ 10167 10162 10161 10158 ] final -125.02 input  -65.29 | X-H torsion
[ 10718 10713 10712 10709 ] final   -6.04 input   66.30 | X-H torsion
[ 10763 10752 10751 10750 ] final  -38.12 input  -60.55 | X-H torsion
[ 11005 11000 10999 10996 ] final   37.54 input  -57.11 | X-H torsion

> <Gold.Protein.ActiveResidues>
 VAL166  LYS551  ARG553  GLY616  TRP617  ASP618  TYR619  PRO620  LYS621  CYS622 
 ASP623  PHE694  ASN695  SER759  ASP760  ASP761  ALA762  ILE779  LEU786  VAL792 
 PHE793  MET794  SER795  GLU796  ALA797  LYS798  CYS799  TRP800  GLU811  SER814 

> <Gold.Protein.RotatedAtoms>
  150.7146  134.0767  159.3883 H   0  0  0  0  0  0  0  0  0  0  0  0  # atno 6907 bound_to 6896
  151.8751  135.0472  160.0492 H   0  0  0  0  0  0  0  0  0  0  0  0  # atno 6908 bound_to 6896
  152.2612  133.5264  159.5419 H   0  0  0  0  0  0  0  0  0  0  0  0  # atno 6909 bound_to 6896
  146.0495  140.6501  142.9049 H   0  0  0  0  0  0  0  0  0  0  0  0  # atno 7974 bound_to 7965
  156.2961  140.2585  156.2832 H   0  0  0  0  0  0  0  0  0  0  0  0  # atno 8008 bound_to 7997
  154.9582  140.0393  157.2196 H   0  0  0  0  0  0  0  0  0  0  0  0  # atno 8009 bound_to 7997
  154.7972  140.2822  155.5953 H   0  0  0  0  0  0  0  0  0  0  0  0  # atno 8010 bound_to 7997
  139.9866  143.5686  152.2358 H   0  0  0  0  0  0  0  0  0  0  0  0  # atno 10167 bound_to 10162
  156.7377  130.5200  149.5831 H   0  0  0  0  0  0  0  0  0  0  0  0  # atno 10718 bound_to 10713
  153.9076  135.6796  153.4752 H   0  0  0  0  0  0  0  0  0  0  0  0  # atno 10763 bound_to 10752
  153.1095  135.4789  154.9008 H   0  0  0  0  0  0  0  0  0  0  0  0  # atno 10764 bound_to 10752
  154.7543  135.3193  154.8454 H   0  0  0  0  0  0  0  0  0  0  0  0  # atno 10765 bound_to 10752
  140.2216  134.3634  155.8002 H   0  0  0  0  0  0  0  0  0  0  0  0  # atno 11005 bound_to 11000
  144.7115  140.4055  143.7077 LP  0  0  0  0  0  0  0  0  0  0  0  0  # atno 17320 bound_to 7965
  145.6749  139.1606  143.2733 LP  0  0  0  0  0  0  0  0  0  0  0  0  # atno 17321 bound_to 7965
  139.6371  144.7651  151.2416 LP  0  0  0  0  0  0  0  0  0  0  0  0  # atno 17342 bound_to 10162
  140.7470  143.6380  150.8361 LP  0  0  0  0  0  0  0  0  0  0  0  0  # atno 17343 bound_to 10162
  156.1485  130.6294  151.0564 LP  0  0  0  0  0  0  0  0  0  0  0  0  # atno 17370 bound_to 10713
  157.6832  131.0832  150.7315 LP  0  0  0  0  0  0  0  0  0  0  0  0  # atno 17371 bound_to 10713
  141.2223  133.7196  156.8584 LP  0  0  0  0  0  0  0  0  0  0  0  0  # atno 17394 bound_to 11000
  140.1844  134.9010  157.2987 LP  0  0  0  0  0  0  0  0  0  0  0  0  # atno 17395 bound_to 11000

$$$$
