AV-unprocessed.smi:845|AV-procd|sdf|3934|dock6
  -GOLD-   22720 1393D 1   1.00000     0.00000
 Structure written by MMmdl.
 41 42  0  0  0  0  0  0  0  0  2 V2000
  149.6210  140.6813  154.8414 C   0  0  0  0  0  0  0  0  0  0  0  0
  150.6873  140.3893  155.9185 C   0  0  0  0  0  0  0  0  0  0  0  0
  151.8069  139.4900  155.3653 C   0  0  0  0  0  0  0  0  0  0  0  0
  150.1651  139.9120  157.3128 C   0  0  1  0  0  0  0  0  0  0  0  0
  149.4190  138.5521  157.2648 C   0  0  0  0  0  0  0  0  0  0  0  0
  148.6686  138.3067  158.4909 N   0  0  0  0  0  0  0  0  0  0  0  0
  148.7311  137.1887  159.2253 C   0  0  0  0  0  0  0  0  0  0  0  0
  149.4696  136.2650  158.8752 O   0  0  0  0  0  0  0  0  0  0  0  0
  147.9357  137.2113  160.3189 N   0  5  0  0  0  0  0  0  0  0  0  0
  147.6158  136.0652  160.9415 C   0  0  0  0  0  0  0  0  0  0  0  0
  147.6116  134.8776  160.3251 N   0  0  0  0  0  0  0  0  0  0  0  0
  147.2588  133.8181  161.1629 C   0  0  0  0  0  0  0  0  0  0  0  0
  146.9964  134.2068  162.4498 C   0  0  0  0  0  0  0  0  0  0  0  0
  147.1846  135.9259  162.6485 S   0  0  0  0  0  0  0  0  0  0  0  0
  151.1301  140.0519  158.4225 N   0  0  0  0  0  0  0  0  0  0  0  0
  152.2438  139.1088  158.3389 C   0  0  0  0  0  0  0  0  0  0  0  0
  153.1488  139.1844  159.5797 C   0  0  0  0  0  0  0  0  0  0  0  0
  153.6273  140.5162  159.7358 O   0  0  0  0  0  0  0  0  0  0  0  0
  152.5736  141.4646  159.8678 C   0  0  0  0  0  0  0  0  0  0  0  0
  151.6500  141.4004  158.6384 C   0  0  0  0  0  0  0  0  0  0  0  0
  149.1226  139.7854  154.4801 H   0  0  0  0  0  0  0  0  0  0  0  0
  150.0837  141.1502  153.9727 H   0  0  0  0  0  0  0  0  0  0  0  0
  148.8563  141.3726  155.1945 H   0  0  0  0  0  0  0  0  0  0  0  0
  151.1637  141.3534  156.1021 H   0  0  0  0  0  0  0  0  0  0  0  0
  151.4282  138.5085  155.0786 H   0  0  0  0  0  0  0  0  0  0  0  0
  152.5942  139.3425  156.1050 H   0  0  0  0  0  0  0  0  0  0  0  0
  152.2660  139.9344  154.4820 H   0  0  0  0  0  0  0  0  0  0  0  0
  149.3818  140.6390  157.5341 H   0  0  0  0  0  0  0  0  0  0  0  0
  148.7392  138.5128  156.4128 H   0  0  0  0  0  0  0  0  0  0  0  0
  150.1208  137.7278  157.1413 H   0  0  0  0  0  0  0  0  0  0  0  0
  148.0522  139.0407  158.8079 H   0  0  0  0  0  0  0  0  0  0  0  0
  147.2221  132.8176  160.7586 H   0  0  0  0  0  0  0  0  0  0  0  0
  146.7069  133.5916  163.2884 H   0  0  0  0  0  0  0  0  0  0  0  0
  151.8646  138.0919  158.2334 H   0  0  0  0  0  0  0  0  0  0  0  0
  152.8493  139.3128  157.4560 H   0  0  0  0  0  0  0  0  0  0  0  0
  152.6054  138.8763  160.4742 H   0  0  0  0  0  0  0  0  0  0  0  0
  153.9984  138.5102  159.4717 H   0  0  0  0  0  0  0  0  0  0  0  0
  152.0110  141.2649  160.7812 H   0  0  0  0  0  0  0  0  0  0  0  0
  153.0022  142.4619  159.9678 H   0  0  0  0  0  0  0  0  0  0  0  0
  152.2004  141.7371  157.7593 H   0  0  0  0  0  0  0  0  0  0  0  0
  150.8375  142.1027  158.7949 H   0  0  0  0  0  0  0  0  0  0  0  0
  1  2  1  0  0  0  0
  1 21  1  0  0  0  0
  1 22  1  0  0  0  0
  1 23  1  0  0  0  0
  2  3  1  0  0  0  0
  2  4  1  0  0  0  0
  2 24  1  0  0  0  0
  3 25  1  0  0  0  0
  3 26  1  0  0  0  0
  3 27  1  0  0  0  0
  4  5  1  0  0  0  0
  4 15  1  0  0  0  0
  4 28  1  0  0  0  0
  5  6  1  0  0  0  0
  5 29  1  0  0  0  0
  5 30  1  0  0  0  0
  6  7  1  0  0  0  0
  6 31  1  0  0  0  0
  7  8  2  0  0  0  0
  7  9  1  0  0  0  0
  9 10  1  0  0  0  0
 10 14  1  0  0  0  0
 10 11  2  0  0  0  0
 11 12  1  0  0  0  0
 12 13  2  0  0  0  0
 12 32  1  0  0  0  0
 13 14  1  0  0  0  0
 13 33  1  0  0  0  0
 15 20  1  0  0  0  0
 15 16  1  0  0  0  0
 16 17  1  0  0  0  0
 16 34  1  0  0  0  0
 16 35  1  0  0  0  0
 17 18  1  0  0  0  0
 17 36  1  0  0  0  0
 17 37  1  0  0  0  0
 18 19  1  0  0  0  0
 19 20  1  0  0  0  0
 19 38  1  0  0  0  0
 19 39  1  0  0  0  0
 20 40  1  0  0  0  0
 20 41  1  0  0  0  0
M  CHG  1   9  -1
M  END
> <s_m_source_file>
AV-unprocessed.smi

> <i_m_source_file_index>
845

> <i_lp_mmshare_version>
43012

> <i_f3d_flags>
0

> <s_epik_input>
W0NIMl0xW0NIMl1PW0NIMl1bQ0gyXU4xW0NASF0oW0NIXShbQ0gzXSlbQ0gzXSlbQ0gyXVtOSF1DKD1PKVtOSF1jMm5bY0hdW2NIXXMy

> <s_epik_cmdline>
J2VwaWtfcHl0aG9uJywgJy1waCcsICc3LjAnLCAnLXRuJywgJzgnLCAnLW1hJywgJzIwMCcsICctbWV0YWxfYmluZGluZycsICctaW1hZScsICc8aW5maWxlLm1hZT4nLCAnLW9tYWUnLCAnPG91dGZpbGUubWFlPic=

> <r_lp_tautomer_probability>
0.999

> <r_epik_Ionization_Penalty>
9.02543

> <r_epik_Ionization_Penalty_Charging>
6.76546

> <r_epik_Ionization_Penalty_Neutral>
2.25997

> <r_epik_State_Penalty>
7.18984

> <r_epik_Charging_Adjusted_Penalty>
13.9553

> <i_epik_Tot_Q>
-1

> <i_epik_Tot_abs_Q>
1

> <r_epik_Metal_State_Penalty>
3.11401

> <b_epik_Metal_Only>
1

> <s_lp_Force_Field>
OPLS_2005

> <r_lp_Energy>
34.4261

> <b_lp_Chiralities_Consistent>
1

> <s_lp_Variant>
AV-unprocessed.smi:845-8

> <Gold.Version>
5.8.1

> <Gold.Id.Protein>
6NUR|6NUR_protein|mol2

> <Gold.PLP.Fitness>
48.8075

> <Gold.PLP.PLP>
-37.8935

> <Gold.PLP.part.hbond>
-3.0000

> <Gold.PLP.part.metal>
0.0000

> <Gold.PLP.part.buried>
-4.9079

> <Gold.PLP.part.nonpolar>
-31.3972

> <Gold.PLP.part.repulsive>
0.1907

> <Gold.PLP.ligand.clash>
0.0000

> <Gold.PLP.ligand.torsion>
0.4830

> <Gold.PLP.Chemscore.Hbond>
3.7442

> <Gold.PLP.Chemscore.CHOScore>
0.0000

> <Gold.PLP.Chemscore.Metal>
0.0000

> <Gold.Chemscore.Hbonds>
donor molecule, donor type, donor heavy atom, donor atom, acceptor molecule, acceptor atom, score
      P1  H  6896  6908       L1     8  0.76
      P1  H  6931  6943       L1     9  0.85
      P1  H  6934  6947       L1     9  1.50

> <Gold.PLP.Chemscore.Internal.Correction>
0.6475

> <Gold.Rescore>
     Score         DG    S(hbond)    S(metal)    S(lipo)     H(rot)  DE(clash)    DE(int)     intcor
     14.95     -17.03       1.98        0.00      79.63       1.71       0.00       2.07       ----

> <Gold.Chemscore.Fitness>
14.9548

> <Gold.Chemscore.DG>
-17.0315

> <Gold.Chemscore.ZeroCoef>
-5.4800

> <Gold.Chemscore.Hbond>
1.9783

> <Gold.Chemscore.Metal>
0.0000

> <Gold.Chemscore.Lipo>
79.6311

> <Gold.Chemscore.Internal_Hbond>
0.0000

> <Gold.Chemscore.DEClash>
0.0029

> <Gold.Chemscore.DEInternal>
2.0738

> <Gold.Chemscore.Rot>
1.7081

> <Gold.Chemscore.Internal.Correction>
   9.000000E+99

> <Gold.Chemscore.Hbonds>
donor molecule, donor type, donor heavy atom, donor atom, acceptor molecule, acceptor atom, score
      P1  H  6896  6908       L1     8  0.77
      P1  H  6931  6943       L1     9  0.09
      P1  H  6934  6947       L1     9  0.66

> <Gold.Chemscore.Hbond.Weighted>
-6.6074

> <Gold.Chemscore.Metal.Weighted>
-0.0000

> <Gold.Chemscore.Lipo.Weighted>
-9.3168

> <Gold.Chemscore.Internal_Hbond.Weighted>
0.0000

> <Gold.Chemscore.DEClash.Weighted>
0.0029

> <Gold.Chemscore.DEInternal.Weighted>
2.0738

> <Gold.Chemscore.Rot.Weighted>
4.3728

> <Gold.Chemscore.Internal.Correction.Weighted>
   9.000000E+99

> <Gold.Protein.RotatedTorsions>
[ 6907 6896 6895 6894 ] final -168.85 input  -60.11 | X-H torsion
[ 7974 7965 7964 7962 ] final   17.34 input  175.53 | X-H torsion
[ 8008 7997 7996 7995 ] final  124.98 input   59.86 | X-H torsion
[ 10167 10162 10161 10158 ] final -124.56 input  -65.29 | X-H torsion
[ 10718 10713 10712 10709 ] final -119.50 input   66.30 | X-H torsion
[ 10763 10752 10751 10750 ] final -117.58 input  -60.55 | X-H torsion
[ 11005 11000 10999 10996 ] final   -9.71 input  -57.11 | X-H torsion

> <Gold.Protein.ActiveResidues>
 VAL166  LYS551  ARG553  GLY616  TRP617  ASP618  TYR619  PRO620  LYS621  CYS622 
 ASP623  PHE694  ASN695  SER759  ASP760  ASP761  ALA762  ILE779  LEU786  VAL792 
 PHE793  MET794  SER795  GLU796  ALA797  LYS798  CYS799  TRP800  GLU811  SER814 

> <Gold.Protein.RotatedAtoms>
  151.4821  133.3544  159.2839 H   0  0  0  0  0  0  0  0  0  0  0  0  # atno 6907 bound_to 6896
  150.8890  134.8293  159.7291 H   0  0  0  0  0  0  0  0  0  0  0  0  # atno 6908 bound_to 6896
  152.4811  134.4729  159.9693 H   0  0  0  0  0  0  0  0  0  0  0  0  # atno 6909 bound_to 6896
  146.2221  139.8616  142.8603 H   0  0  0  0  0  0  0  0  0  0  0  0  # atno 7974 bound_to 7965
  156.2819  140.2727  156.1875 H   0  0  0  0  0  0  0  0  0  0  0  0  # atno 8008 bound_to 7997
  155.0492  140.0386  157.2555 H   0  0  0  0  0  0  0  0  0  0  0  0  # atno 8009 bound_to 7997
  154.7209  140.2687  155.6548 H   0  0  0  0  0  0  0  0  0  0  0  0  # atno 8010 bound_to 7997
  139.9914  143.5636  152.2340 H   0  0  0  0  0  0  0  0  0  0  0  0  # atno 10167 bound_to 10162
  156.1186  130.6305  150.9424 H   0  0  0  0  0  0  0  0  0  0  0  0  # atno 10718 bound_to 10713
  154.8560  135.4304  154.2003 H   0  0  0  0  0  0  0  0  0  0  0  0  # atno 10763 bound_to 10752
  153.3051  135.6972  153.7173 H   0  0  0  0  0  0  0  0  0  0  0  0  # atno 10764 bound_to 10752
  153.6287  135.3489  155.3009 H   0  0  0  0  0  0  0  0  0  0  0  0  # atno 10765 bound_to 10752
  140.7370  133.8702  155.8937 H   0  0  0  0  0  0  0  0  0  0  0  0  # atno 11005 bound_to 11000
  145.2698  141.0105  143.3778 LP  0  0  0  0  0  0  0  0  0  0  0  0  # atno 17320 bound_to 7965
  144.9232  139.4386  143.6531 LP  0  0  0  0  0  0  0  0  0  0  0  0  # atno 17321 bound_to 7965
  139.6337  144.7647  151.2483 LP  0  0  0  0  0  0  0  0  0  0  0  0  # atno 17342 bound_to 10162
  140.7453  143.6435  150.8313 LP  0  0  0  0  0  0  0  0  0  0  0  0  # atno 17343 bound_to 10162
  157.6369  131.0915  150.8330 LP  0  0  0  0  0  0  0  0  0  0  0  0  # atno 17370 bound_to 10713
  156.8429  130.5054  149.5319 LP  0  0  0  0  0  0  0  0  0  0  0  0  # atno 17371 bound_to 10713
  140.9870  134.1329  157.4442 LP  0  0  0  0  0  0  0  0  0  0  0  0  # atno 17394 bound_to 11000
  139.8814  135.0029  156.6152 LP  0  0  0  0  0  0  0  0  0  0  0  0  # atno 17395 bound_to 11000

$$$$
