AV-unprocessed.smi:3039|AV-procd|sdf|11594|dock8
  -GOLD-   2272016573D 1   1.00000     0.00000
 Structure written by MMmdl.
 38 39  0  0  0  0  0  0  0  0  1 V2000
  152.2763  140.0362  155.0992 O   0  0  0  0  0  0  0  0  0  0  0  0
  151.1718  139.8870  155.6216 C   0  0  0  0  0  0  0  0  0  0  0  0
  150.1333  138.9769  154.9658 C   0  0  0  0  0  0  0  0  0  0  0  0
  148.9462  139.7866  154.5192 C   0  0  0  0  0  0  0  0  0  0  0  0
  147.7409  139.3282  153.9178 C   0  0  0  0  0  0  0  0  0  0  0  0
  147.0265  140.4745  153.7204 C   0  0  0  0  0  0  0  0  0  0  0  0
  147.7229  141.5509  154.1644 O   0  0  0  0  0  0  0  0  0  0  0  0
  148.9465  141.1020  154.6745 N   0  0  0  0  0  0  0  0  0  0  0  0
  150.8029  140.4900  156.7634 N   0  0  0  0  0  0  0  0  0  0  0  0
  151.6360  141.3880  157.5641 C   0  0  1  0  0  0  0  0  0  0  0  0
  151.0105  142.8035  157.5574 C   0  0  0  0  0  0  0  0  0  0  0  0
  152.0488  143.9289  157.7210 C   0  0  0  0  0  0  0  0  0  0  0  0
  152.6036  144.1043  159.1407 C   0  0  0  0  0  0  0  0  0  0  0  0
  153.2378  142.8387  159.7364 C   0  0  0  0  0  0  0  0  0  0  0  0
  152.1912  141.7704  160.0918 C   0  0  0  0  0  0  0  0  0  0  0  0
  151.8553  140.7573  158.9724 C   0  0  2  0  0  0  0  0  0  0  0  0
  152.9163  139.6286  158.9454 C   0  0  0  0  0  0  0  0  0  0  0  0
  154.2324  140.1330  158.8486 O   0  0  0  0  0  0  0  0  0  0  0  0
  150.5871  138.4700  154.1134 H   0  0  0  0  0  0  0  0  0  0  0  0
  149.8360  138.1956  155.6669 H   0  0  0  0  0  0  0  0  0  0  0  0
  147.4508  138.3188  153.6672 H   0  0  0  0  0  0  0  0  0  0  0  0
  146.0542  140.6794  153.2970 H   0  0  0  0  0  0  0  0  0  0  0  0
  149.8738  140.3050  157.1135 H   0  0  0  0  0  0  0  0  0  0  0  0
  152.6116  141.4580  157.0798 H   0  0  0  0  0  0  0  0  0  0  0  0
  150.5235  142.9722  156.5957 H   0  0  0  0  0  0  0  0  0  0  0  0
  150.2168  142.8870  158.3006 H   0  0  0  0  0  0  0  0  0  0  0  0
  152.8715  143.7734  157.0221 H   0  0  0  0  0  0  0  0  0  0  0  0
  151.5876  144.8708  157.4223 H   0  0  0  0  0  0  0  0  0  0  0  0
  153.3540  144.8953  159.1196 H   0  0  0  0  0  0  0  0  0  0  0  0
  151.8142  144.4660  159.8007 H   0  0  0  0  0  0  0  0  0  0  0  0
  154.0080  142.4365  159.0776 H   0  0  0  0  0  0  0  0  0  0  0  0
  153.7518  143.1281  160.6537 H   0  0  0  0  0  0  0  0  0  0  0  0
  152.5333  141.2251  160.9722 H   0  0  0  0  0  0  0  0  0  0  0  0
  151.2749  142.2611  160.4225 H   0  0  0  0  0  0  0  0  0  0  0  0
  150.9146  140.3005  159.2858 H   0  0  0  0  0  0  0  0  0  0  0  0
  152.8366  138.9990  159.8319 H   0  0  0  0  0  0  0  0  0  0  0  0
  152.7647  138.9780  158.0838 H   0  0  0  0  0  0  0  0  0  0  0  0
  154.6074  140.1614  159.7158 H   0  0  0  0  0  0  0  0  0  0  0  0
  1  2  2  0  0  0  0
  2  3  1  0  0  0  0
  2  9  1  0  0  0  0
  3  4  1  0  0  0  0
  3 19  1  0  0  0  0
  3 20  1  0  0  0  0
  4  8  2  0  0  0  0
  4  5  1  0  0  0  0
  5  6  2  0  0  0  0
  5 21  1  0  0  0  0
  6  7  1  0  0  0  0
  6 22  1  0  0  0  0
  7  8  1  0  0  0  0
  9 10  1  0  0  0  0
  9 23  1  0  0  0  0
 10 16  1  0  0  0  0
 10 11  1  0  0  0  0
 10 24  1  0  0  0  0
 11 12  1  0  0  0  0
 11 25  1  0  0  0  0
 11 26  1  0  0  0  0
 12 13  1  0  0  0  0
 12 27  1  0  0  0  0
 12 28  1  0  0  0  0
 13 14  1  0  0  0  0
 13 29  1  0  0  0  0
 13 30  1  0  0  0  0
 14 15  1  0  0  0  0
 14 31  1  0  0  0  0
 14 32  1  0  0  0  0
 15 16  1  0  0  0  0
 15 33  1  0  0  0  0
 15 34  1  0  0  0  0
 16 17  1  0  0  0  0
 16 35  1  0  0  0  0
 17 18  1  0  0  0  0
 17 36  1  0  0  0  0
 17 37  1  0  0  0  0
 18 38  1  0  0  0  0
M  END
> <s_m_source_file>
AV-unprocessed.smi

> <i_m_source_file_index>
3039

> <i_lp_mmshare_version>
43012

> <i_f3d_flags>
0

> <s_epik_input>
bjFvW2NIXVtjSF1jMVtDSDJdQyg9TylbTkhdW0NAQEhdMltDSDJdW0NIMl1bQ0gyXVtDSDJdW0NIMl1bQ0BIXTJbQ0gyXVtPSF0=

> <s_epik_cmdline>
J2VwaWtfcHl0aG9uJywgJy1waCcsICc3LjAnLCAnLXRuJywgJzgnLCAnLW1hJywgJzIwMCcsICctbWV0YWxfYmluZGluZycsICctaW1hZScsICc8aW5maWxlLm1hZT4nLCAnLW9tYWUnLCAnPG91dGZpbGUubWFlPic=

> <r_lp_tautomer_probability>
1

> <r_epik_Ionization_Penalty>
3.05817e-07

> <r_epik_Ionization_Penalty_Charging>
0

> <r_epik_Ionization_Penalty_Neutral>
3.05817e-07

> <r_epik_State_Penalty>
-0

> <r_epik_Charging_Adjusted_Penalty>
0

> <i_epik_Tot_Q>
0

> <i_epik_Tot_abs_Q>
0

> <r_epik_Metal_State_Penalty>
-0

> <b_epik_Metal_Only>
0

> <s_lp_Force_Field>
OPLS_2005

> <r_lp_Energy>
18.8226

> <b_lp_Chiralities_Consistent>
1

> <s_lp_Variant>
AV-unprocessed.smi:3039-4

> <Gold.Version>
5.8.1

> <Gold.Id.Protein>
6NUR|6NUR_protein|mol2

> <Gold.PLP.Fitness>
43.3755

> <Gold.PLP.PLP>
-36.0918

> <Gold.PLP.part.hbond>
-2.3803

> <Gold.PLP.part.metal>
0.0000

> <Gold.PLP.part.buried>
-3.4024

> <Gold.PLP.part.nonpolar>
-30.7581

> <Gold.PLP.part.repulsive>
0.3902

> <Gold.PLP.ligand.clash>
0.0000

> <Gold.PLP.ligand.torsion>
0.1119

> <Gold.PLP.Chemscore.Hbond>
1.6535

> <Gold.PLP.Chemscore.CHOScore>
0.8327

> <Gold.PLP.Chemscore.Metal>
0.0000

> <Gold.Chemscore.Hbonds>
donor molecule, donor type, donor heavy atom, donor atom, acceptor molecule, acceptor atom, score
      P1  H  7989  7998       L1     1  0.62
      P1  H  7997  8008       L1     1  0.15
      P1  H  7997  8010       L1    18  0.83
      L1  C     6    22       P1 10175  1.00

> <Gold.PLP.Chemscore.Internal.Correction>
0.0488

> <Gold.Rescore>
     Score         DG    S(hbond)    S(metal)    S(lipo)     H(rot)  DE(clash)    DE(int)     intcor
     15.99     -17.38       1.70        0.00     102.53       2.26       0.37       1.02       ----

> <Gold.Chemscore.Fitness>
15.9924

> <Gold.Chemscore.DG>
-17.3809

> <Gold.Chemscore.ZeroCoef>
-5.4800

> <Gold.Chemscore.Hbond>
1.7048

> <Gold.Chemscore.Metal>
0.0000

> <Gold.Chemscore.Lipo>
102.5333

> <Gold.Chemscore.Internal_Hbond>
0.0000

> <Gold.Chemscore.DEClash>
0.3722

> <Gold.Chemscore.DEInternal>
1.0163

> <Gold.Chemscore.Rot>
2.2616

> <Gold.Chemscore.Internal.Correction>
   9.000000E+99

> <Gold.Chemscore.Hbonds>
donor molecule, donor type, donor heavy atom, donor atom, acceptor molecule, acceptor atom, score
      P1  H  7989  7998       L1     1  0.12
      P1  H  7997  8008       L1     1  0.15
      P1  H  7997  8010       L1    18  0.80

> <Gold.Chemscore.Hbond.Weighted>
-5.6941

> <Gold.Chemscore.Metal.Weighted>
-0.0000

> <Gold.Chemscore.Lipo.Weighted>
-11.9964

> <Gold.Chemscore.Internal_Hbond.Weighted>
0.0000

> <Gold.Chemscore.DEClash.Weighted>
0.3722

> <Gold.Chemscore.DEInternal.Weighted>
1.0163

> <Gold.Chemscore.Rot.Weighted>
5.7896

> <Gold.Chemscore.Internal.Correction.Weighted>
   9.000000E+99

> <Gold.Protein.RotatedTorsions>
[ 6907 6896 6895 6894 ] final   33.01 input  -60.11 | X-H torsion
[ 7974 7965 7964 7962 ] final -174.65 input  175.53 | X-H torsion
[ 8008 7997 7996 7995 ] final   -4.10 input   59.86 | X-H torsion
[ 10167 10162 10161 10158 ] final -105.21 input  -65.29 | X-H torsion
[ 10718 10713 10712 10709 ] final  -65.11 input   66.30 | X-H torsion
[ 10763 10752 10751 10750 ] final -172.26 input  -60.55 | X-H torsion
[ 11005 11000 10999 10996 ] final  -35.06 input  -57.11 | X-H torsion

> <Gold.Protein.ActiveResidues>
 VAL166  LYS551  ARG553  GLY616  TRP617  ASP618  TYR619  PRO620  LYS621  CYS622 
 ASP623  PHE694  ASN695  SER759  ASP760  ASP761  ALA762  ILE779  LEU786  VAL792 
 PHE793  MET794  SER795  GLU796  ALA797  LYS798  CYS799  TRP800  GLU811  SER814 

> <Gold.Protein.RotatedAtoms>
  152.0826  134.9461  160.0573 H   0  0  0  0  0  0  0  0  0  0  0  0  # atno 6907 bound_to 6896
  152.0744  133.4117  159.4481 H   0  0  0  0  0  0  0  0  0  0  0  0  # atno 6908 bound_to 6896
  150.6836  134.2975  159.4736 H   0  0  0  0  0  0  0  0  0  0  0  0  # atno 6909 bound_to 6896
  144.7131  140.1439  143.6389 H   0  0  0  0  0  0  0  0  0  0  0  0  # atno 7974 bound_to 7965
  154.6179  140.2492  155.7586 H   0  0  0  0  0  0  0  0  0  0  0  0  # atno 8008 bound_to 7997
  156.2410  140.2933  156.0392 H   0  0  0  0  0  0  0  0  0  0  0  0  # atno 8009 bound_to 7997
  155.1945  140.0392  157.2896 H   0  0  0  0  0  0  0  0  0  0  0  0  # atno 8010 bound_to 7997
  140.2010  143.3819  152.1129 H   0  0  0  0  0  0  0  0  0  0  0  0  # atno 10167 bound_to 10162
  156.0688  130.4243  150.1517 H   0  0  0  0  0  0  0  0  0  0  0  0  # atno 10718 bound_to 10713
  154.6213  135.2875  155.0322 H   0  0  0  0  0  0  0  0  0  0  0  0  # atno 10763 bound_to 10752
  154.1516  135.6502  153.4969 H   0  0  0  0  0  0  0  0  0  0  0  0  # atno 10764 bound_to 10752
  153.0237  135.5357  154.7004 H   0  0  0  0  0  0  0  0  0  0  0  0  # atno 10765 bound_to 10752
  140.9766  133.7079  156.1613 H   0  0  0  0  0  0  0  0  0  0  0  0  # atno 11005 bound_to 11000
  145.9177  139.2526  143.1400 LP  0  0  0  0  0  0  0  0  0  0  0  0  # atno 17320 bound_to 7965
  145.9652  140.8804  143.0190 LP  0  0  0  0  0  0  0  0  0  0  0  0  # atno 17321 bound_to 7965
  139.5217  144.7050  151.5382 LP  0  0  0  0  0  0  0  0  0  0  0  0  # atno 17342 bound_to 10162
  140.6390  143.8926  150.6674 LP  0  0  0  0  0  0  0  0  0  0  0  0  # atno 17343 bound_to 10162
  156.9572  130.9793  151.3486 LP  0  0  0  0  0  0  0  0  0  0  0  0  # atno 17370 bound_to 10713
  157.5747  130.8335  149.8439 LP  0  0  0  0  0  0  0  0  0  0  0  0  # atno 17371 bound_to 10713
  140.7249  134.4318  157.5571 LP  0  0  0  0  0  0  0  0  0  0  0  0  # atno 17394 bound_to 11000
  139.8933  134.8734  156.2230 LP  0  0  0  0  0  0  0  0  0  0  0  0  # atno 17395 bound_to 11000

$$$$
