#       Name:                AV-unprocessed.smi:839
#       Creating user name   scv26
#       Creation time:       Fri Mar 27 01:37:23 2020


#       File generated by GOLD software.
#

@<TRIPOS>MOLECULE
AV-unprocessed.smi:839
    55    57     1
SMALL
NO_CHARGES


@<TRIPOS>ATOM
      1 ****         1.5512   0.4341  -0.3375 O.2            1 S1                 0.0000
      2 ****         1.0608  -0.6256  -0.7267 C.2            1 S1                 0.0000
      3 ****         1.7881  -1.7188  -0.9997 N.am           1 S1                 0.0000
      4 ****         3.2385  -1.8253  -0.8496 C.3            1 S1                 0.0000
      5 ****         3.6827  -2.1898   0.5794 C.2            1 S1                 0.0000
      6 ****         2.8400  -2.3659   1.4614 O.2            1 S1                 0.0000
      7 ****         5.0044  -2.3167   0.8193 N.am           1 S1                 0.0000
      8 ****         6.0721  -2.1347  -0.1637 C.3            1 S1                 0.0000
      9 ****         7.3795  -2.1907   0.6275 C.3            1 S1                 0.0000
     10 ****         7.0329  -2.9992   1.8699 C.3            1 S1                 0.0000
     11 ****         5.5579  -2.6855   2.1208 C.3            1 S1                 0.0000
     12 ****        -0.2466  -0.8447  -0.9490 N.am           1 S1                 0.0000
     13 ****        -1.3410   0.0436  -0.7651 C.ar           1 S1                 0.0000
     14 ****        -1.3101   1.1930   0.0582 C.ar           1 S1                 0.0000
     15 ****        -2.4705   1.9826   0.1712 C.ar           1 S1                 0.0000
     16 ****        -3.6390   1.6036  -0.5307 C.ar           1 S1                 0.0000
     17 ****        -4.8138   2.3805  -0.4277 N.3            1 S1                 0.0000
     18 ****        -5.9084   2.0954  -1.3540 C.3            1 S1                 0.0000
     19 ****        -6.9689   3.2077  -1.2910 C.3            1 S1                 0.0000
     20 ****        -7.4138   3.3698   0.0514 O.3            1 S1                 0.0000
     21 ****        -6.3519   3.7578   0.9165 C.3            1 S1                 0.0000
     22 ****        -5.2660   2.6681   0.9314 C.3            1 S1                 0.0000
     23 ****        -3.6656   0.4981  -1.3147 N.ar           1 S1                 0.0000
     24 ****        -2.5519  -0.2564  -1.4196 C.ar           1 S1                 0.0000
     25 ****         1.3038  -2.5461  -1.3158 H              1 S1                 0.0000
     26 ****         3.5887  -2.5969  -1.5356 H              1 S1                 0.0000
     27 ****         3.7100  -0.8908  -1.1575 H              1 S1                 0.0000
     28 ****         6.0310  -2.9472  -0.8904 H              1 S1                 0.0000
     29 ****         5.9854  -1.1899  -0.7011 H              1 S1                 0.0000
     30 ****         8.2008  -2.6242   0.0562 H              1 S1                 0.0000
     31 ****         7.6730  -1.1817   0.9204 H              1 S1                 0.0000
     32 ****         7.1491  -4.0628   1.6570 H              1 S1                 0.0000
     33 ****         7.6675  -2.7581   2.7232 H              1 S1                 0.0000
     34 ****         5.4554  -1.8398   2.8026 H              1 S1                 0.0000
     35 ****         5.0417  -3.5404   2.5605 H              1 S1                 0.0000
     36 ****        -0.4841  -1.7449  -1.3395 H              1 S1                 0.0000
     37 ****        -0.4307   1.4812   0.6121 H              1 S1                 0.0000
     38 ****        -2.4460   2.8708   0.7845 H              1 S1                 0.0000
     39 ****        -5.5294   2.0160  -2.3737 H              1 S1                 0.0000
     40 ****        -6.3588   1.1357  -1.0968 H              1 S1                 0.0000
     41 ****        -6.5684   4.1495  -1.6695 H              1 S1                 0.0000
     42 ****        -7.8214   2.9494  -1.9193 H              1 S1                 0.0000
     43 ****        -5.9379   4.7150   0.5951 H              1 S1                 0.0000
     44 ****        -6.7487   3.9044   1.9210 H              1 S1                 0.0000
     45 ****        -5.6632   1.7519   1.3702 H              1 S1                 0.0000
     46 ****        -4.4467   2.9949   1.5701 H              1 S1                 0.0000
     47 ****        -2.6317  -1.1282  -2.0526 H              1 S1                 0.0000
     48 ****         2.5401   0.5104  -0.2101 LP             1 S1                 0.0000
     49 ****         0.9607   1.2188  -0.1487 LP             1 S1                 0.0000
     50 ****         1.8672  -2.2721   1.2494 LP             1 S1                 0.0000
     51 ****         3.1290  -2.6025   2.3890 LP             1 S1                 0.0000
     52 ****        -4.4568   3.2454  -0.7807 LP             1 S1                 0.0000
     53 ****        -7.7935   2.5026   0.3736 LP             1 S1                 0.0000
     54 ****        -8.1238   4.0736   0.0745 LP             1 S1                 0.0000
     55 ****        -4.4981   0.2456  -1.8079 LP             1 S1                 0.0000
@<TRIPOS>BOND
    1    1    2 2     
    2    2    3 am    
    3    2   12 am    
    4    3    4 1     
    5    3   25 1     
    6    4    5 1     
    7    4   26 1     
    8    4   27 1     
    9    5    6 2     
   10    5    7 am    
   11    7   11 1     
   12    7    8 1     
   13    8    9 1     
   14    8   28 1     
   15    8   29 1     
   16    9   10 1     
   17    9   30 1     
   18    9   31 1     
   19   10   11 1     
   20   10   32 1     
   21   10   33 1     
   22   11   34 1     
   23   11   35 1     
   24   12   13 1     
   25   12   36 1     
   26   13   24 ar    
   27   13   14 ar    
   28   14   15 ar    
   29   14   37 1     
   30   15   16 ar    
   31   15   38 1     
   32   16   17 1     
   33   16   23 ar    
   34   17   22 1     
   35   17   18 1     
   36   18   19 1     
   37   18   39 1     
   38   18   40 1     
   39   19   20 1     
   40   19   41 1     
   41   19   42 1     
   42   20   21 1     
   43   21   22 1     
   44   21   43 1     
   45   21   44 1     
   46   22   45 1     
   47   22   46 1     
   48   23   24 ar    
   49   24   47 1     
   50    1   48 1     
   51    1   49 1     
   52    6   50 1     
   53    6   51 1     
   54   17   52 1     
   55   20   53 1     
   56   20   54 1     
   57   23   55 1     
@<TRIPOS>SUBSTRUCTURE
      1 S1             1
@<TRIPOS>SET
LONE_PAIRS      STATIC     ATOMS    <user>   **** ""
8 48 49 50 51 52 53 54 55
DONOR_HYDROGENS      STATIC     ATOMS    <user>   **** ""
2 25 36
ATOM$BLUE        STATIC     ATOMS    COLORGROUP SYSTEM
8 48 49 50 51 52 53 54 55
ATOM$RED        STATIC     ATOMS    COLORGROUP SYSTEM
2 25 36
