#       Name:                AV-unprocessed.smi:103
#       Creating user name   scv26
#       Creation time:       Thu Mar 26 17:56:38 2020


#       File generated by GOLD software.
#

@<TRIPOS>MOLECULE
AV-unprocessed.smi:103
    64    66     1
SMALL
NO_CHARGES


@<TRIPOS>ATOM
      1 ****        -1.1929   5.4388  -1.2858 C.3            1 S1                 0.0000
      2 ****        -1.1024   4.4812  -0.1045 C.2            1 S1                 0.0000
      3 ****        -0.4168   4.7485   0.8826 O.2            1 S1                 0.0000
      4 ****        -1.8344   3.3688  -0.2862 O.3            1 S1                 0.0000
      5 ****        -1.8451   2.3497   0.7024 C.3            1 S1                 0.0000
      6 ****        -1.9468   0.9800   0.0188 C.3            1 S1                 0.0000
      7 ****        -0.7459   0.7591  -0.7254 O.3            1 S1                 0.0000
      8 ****        -0.1519  -0.4477  -0.3669 C.3            1 S1                 0.0000
      9 ****         1.3336  -0.2857  -0.3902 N.pl3          1 S1                 0.0000
     10 ****         2.3032  -1.1252  -0.9011 C.2            1 S1                 0.0000
     11 ****         2.0277  -2.6794  -1.7442 S.o2           1 S1                 0.0000
     12 ****         1.5015  -2.1166  -3.4136 C.3            1 S1                 0.0000
     13 ****         3.3329  -3.3510  -1.8462 O.2            1 S1                 0.0000
     14 ****         0.8972  -3.3429  -1.0772 O.2            1 S1                 0.0000
     15 ****         3.5354  -0.6966  -0.8486 N.2            1 S1                 0.0000
     16 ****         3.4176   0.5186  -0.1888 C.ar           1 S1                 0.0000
     17 ****         4.3430   1.5096   0.2253 C.ar           1 S1                 0.0000
     18 ****         5.6627   1.4107   0.0152 N.pl3          1 S1                 0.0000
     19 ****         3.8737   2.6078   0.8624 N.ar           1 S1                 0.0000
     20 ****         2.5609   2.7304   1.0834 C.ar           1 S1                 0.0000
     21 ****         1.5773   1.8892   0.7545 N.ar           1 S1                 0.0000
     22 ****         2.0505   0.7822   0.1113 C.ar           1 S1                 0.0000
     23 ****        -0.6409  -0.7883   1.0347 C.3            1 S1                 0.0000
     24 ****        -0.6200  -2.1926   1.2508 O.3            1 S1                 0.0000
     25 ****        -0.5637  -2.6824   2.4981 C.2            1 S1                 0.0000
     26 ****        -0.5322  -4.2044   2.5205 C.3            1 S1                 0.0000
     27 ****        -0.5420  -2.0214   3.5364 O.2            1 S1                 0.0000
     28 ****        -2.0367  -0.1679   1.0452 C.3            1 S1                 0.0000
     29 ****        -3.1332  -1.0785   0.8704 O.3            1 S1                 0.0000
     30 ****        -3.4219  -1.7311  -0.2798 C.2            1 S1                 0.0000
     31 ****        -4.6161  -2.6622  -0.1221 C.3            1 S1                 0.0000
     32 ****        -2.8358  -1.6281  -1.3557 O.2            1 S1                 0.0000
     33 ****        -0.2366   5.4845  -1.8064 H              1 S1                 0.0000
     34 ****        -1.4468   6.4409  -0.9403 H              1 S1                 0.0000
     35 ****        -1.9563   5.1150  -1.9938 H              1 S1                 0.0000
     36 ****        -0.9579   2.3808   1.3355 H              1 S1                 0.0000
     37 ****        -2.7058   2.5097   1.3522 H              1 S1                 0.0000
     38 ****        -2.8027   0.9804  -0.6563 H              1 S1                 0.0000
     39 ****        -0.3830  -1.1994  -1.1167 H              1 S1                 0.0000
     40 ****         1.3037  -2.9841  -4.0425 H              1 S1                 0.0000
     41 ****         2.2945  -1.5173  -3.8606 H              1 S1                 0.0000
     42 ****         0.5968  -1.5150  -3.3304 H              1 S1                 0.0000
     43 ****         6.0371   0.6010  -0.4582 H              1 S1                 0.0000
     44 ****         6.2801   2.1445   0.3318 H              1 S1                 0.0000
     45 ****         2.2535   3.6312   1.5944 H              1 S1                 0.0000
     46 ****        -0.0046  -0.2617   1.7479 H              1 S1                 0.0000
     47 ****         0.4268  -4.5671   2.1501 H              1 S1                 0.0000
     48 ****        -1.3236  -4.6101   1.8901 H              1 S1                 0.0000
     49 ****        -0.6748  -4.5753   3.5355 H              1 S1                 0.0000
     50 ****        -2.1992   0.2538   2.0374 H              1 S1                 0.0000
     51 ****        -5.4893  -2.1056   0.2180 H              1 S1                 0.0000
     52 ****        -4.3940  -3.4406   0.6079 H              1 S1                 0.0000
     53 ****        -4.8586  -3.1389  -1.0721 H              1 S1                 0.0000
     54 ****         0.0938   5.6076   0.9190 LP             1 S1                 0.0000
     55 ****        -0.3705   4.1065   1.6479 LP             1 S1                 0.0000
     56 ****        -0.1060   1.5056  -0.5428 LP             1 S1                 0.0000
     57 ****        -0.9647   0.7388  -1.7009 LP             1 S1                 0.0000
     58 ****         4.3624  -1.1367  -1.1985 LP             1 S1                 0.0000
     59 ****         4.5044   3.3222   1.1656 LP             1 S1                 0.0000
     60 ****         0.6111   2.0507   0.9552 LP             1 S1                 0.0000
     61 ****        -0.5670  -1.0226   3.4939 LP             1 S1                 0.0000
     62 ****        -0.4993  -2.4832   4.4224 LP             1 S1                 0.0000
     63 ****        -2.0553  -1.0089  -1.4427 LP             1 S1                 0.0000
     64 ****        -3.1395  -2.1635  -2.1438 LP             1 S1                 0.0000
@<TRIPOS>BOND
    1    1    2 1     
    2    1   33 1     
    3    1   34 1     
    4    1   35 1     
    5    2    3 2     
    6    2    4 1     
    7    4    5 1     
    8    5    6 1     
    9    5   36 1     
   10    5   37 1     
   11    6   28 1     
   12    6    7 1     
   13    6   38 1     
   14    7    8 1     
   15    8    9 1     
   16    8   23 1     
   17    8   39 1     
   18    9   22 1     
   19    9   10 1     
   20   10   11 1     
   21   10   15 2     
   22   11   12 1     
   23   11   13 2     
   24   11   14 2     
   25   12   40 1     
   26   12   41 1     
   27   12   42 1     
   28   15   16 1     
   29   16   22 ar    
   30   16   17 ar    
   31   17   18 1     
   32   17   19 ar    
   33   18   43 1     
   34   18   44 1     
   35   19   20 ar    
   36   20   21 ar    
   37   20   45 1     
   38   21   22 ar    
   39   23   24 1     
   40   23   28 1     
   41   23   46 1     
   42   24   25 1     
   43   25   26 1     
   44   25   27 2     
   45   26   47 1     
   46   26   48 1     
   47   26   49 1     
   48   28   29 1     
   49   28   50 1     
   50   29   30 1     
   51   30   31 1     
   52   30   32 2     
   53   31   51 1     
   54   31   52 1     
   55   31   53 1     
   56    3   54 1     
   57    3   55 1     
   58    7   56 1     
   59    7   57 1     
   60   15   58 1     
   61   19   59 1     
   62   21   60 1     
   63   27   61 1     
   64   27   62 1     
   65   32   63 1     
   66   32   64 1     
@<TRIPOS>SUBSTRUCTURE
      1 S1             1
@<TRIPOS>SET
LONE_PAIRS      STATIC     ATOMS    <user>   **** ""
13 54 55 56 57 13 14 58 59 60 61 62 63 64
DONOR_HYDROGENS      STATIC     ATOMS    <user>   **** ""
2 43 44
ATOM$BLUE        STATIC     ATOMS    COLORGROUP SYSTEM
13 54 55 56 57 13 14 58 59 60 61 62 63 64
ATOM$RED        STATIC     ATOMS    COLORGROUP SYSTEM
2 43 44
