AV-unprocessed.smi:1914|AV-procd|sdf|7759|dock10
  -GOLD-   22720 9503D 1   1.00000     0.00000
 Structure written by MMmdl.
 44 45  0  0  0  0  0  0  0  0  2 V2000
  145.5546  132.3908  151.2998 C   0  0  0  0  0  0  0  0  0  0  0  0
  146.0949  133.8109  151.5193 C   0  0  1  0  0  0  0  0  0  0  0  0
  145.2247  134.8592  150.8059 C   0  0  0  0  0  0  0  0  0  0  0  0
  145.7679  136.2694  151.0676 C   0  0  0  0  0  0  0  0  0  0  0  0
  145.8912  136.5407  152.5752 C   0  0  0  0  0  0  0  0  0  0  0  0
  146.7423  135.5173  153.2353 N   0  3  1  0  0  0  0  0  0  0  0  0
  146.9900  135.8314  154.6653 C   0  0  0  0  0  0  0  0  0  0  0  0
  148.3256  135.2589  155.1668 C   0  0  0  0  0  0  0  0  0  0  0  0
  149.4433  136.0313  154.6430 N   0  0  0  0  0  0  0  0  0  0  0  0
  150.2713  136.7672  155.3983 C   0  0  0  0  0  0  0  0  0  0  0  0
  150.1749  136.8403  156.6240 O   0  0  0  0  0  0  0  0  0  0  0  0
  151.3843  137.5146  154.6497 C   0  0  0  0  0  0  0  0  0  0  0  0
  151.1515  138.9660  154.5598 N   0  0  0  0  0  0  0  0  0  0  0  0
  150.1394  139.4024  153.6815 C   0  0  0  0  0  0  0  0  0  0  0  0
  149.8468  140.7033  153.5261 C   0  0  0  0  0  0  0  0  0  0  0  0
  150.6016  141.6690  154.2892 C   0  0  0  0  0  0  0  0  0  0  0  0
  151.5731  141.2626  155.1304 C   0  0  0  0  0  0  0  0  0  0  0  0
  151.8971  139.8416  155.3027 C   0  0  0  0  0  0  0  0  0  0  0  0
  152.7842  139.4611  156.0676 O   0  0  0  0  0  0  0  0  0  0  0  0
  146.2104  134.1440  153.0206 C   0  0  0  0  0  0  0  0  0  0  0  0
  144.5496  132.2808  151.7086 H   0  0  0  0  0  0  0  0  0  0  0  0
  146.1922  131.6487  151.7808 H   0  0  0  0  0  0  0  0  0  0  0  0
  145.5098  132.1471  150.2378 H   0  0  0  0  0  0  0  0  0  0  0  0
  147.0961  133.8512  151.0872 H   0  0  0  0  0  0  0  0  0  0  0  0
  145.1997  134.6648  149.7332 H   0  0  0  0  0  0  0  0  0  0  0  0
  144.1945  134.7927  151.1593 H   0  0  0  0  0  0  0  0  0  0  0  0
  146.7440  136.3813  150.5935 H   0  0  0  0  0  0  0  0  0  0  0  0
  145.1140  137.0113  150.6079 H   0  0  0  0  0  0  0  0  0  0  0  0
  146.3218  137.5319  152.7232 H   0  0  0  0  0  0  0  0  0  0  0  0
  144.9037  136.5506  153.0396 H   0  0  0  0  0  0  0  0  0  0  0  0
  147.0207  136.9144  154.7955 H   0  0  0  0  0  0  0  0  0  0  0  0
  146.1576  135.4722  155.2729 H   0  0  0  0  0  0  0  0  0  0  0  0
  148.3766  135.2758  156.2557 H   0  0  0  0  0  0  0  0  0  0  0  0
  148.4254  134.2179  154.8547 H   0  0  0  0  0  0  0  0  0  0  0  0
  149.5919  136.0174  153.6441 H   0  0  0  0  0  0  0  0  0  0  0  0
  152.3291  137.3063  155.1535 H   0  0  0  0  0  0  0  0  0  0  0  0
  151.4965  137.0951  153.6479 H   0  0  0  0  0  0  0  0  0  0  0  0
  149.6253  138.6191  153.1434 H   0  0  0  0  0  0  0  0  0  0  0  0
  149.0695  141.0196  152.8461 H   0  0  0  0  0  0  0  0  0  0  0  0
  150.3868  142.7223  154.1840 H   0  0  0  0  0  0  0  0  0  0  0  0
  152.1281  141.9995  155.6925 H   0  0  0  0  0  0  0  0  0  0  0  0
  145.2357  134.0532  153.5030 H   0  0  0  0  0  0  0  0  0  0  0  0
  146.8632  133.4119  153.4947 H   0  0  0  0  0  0  0  0  0  0  0  0
  147.6398  135.5614  152.7739 H   0  0  0  0  0  0  0  0  0  0  0  0
  1  2  1  0  0  0  0
  1 21  1  0  0  0  0
  1 22  1  0  0  0  0
  1 23  1  0  0  0  0
  2 20  1  0  0  0  0
  2  3  1  0  0  0  0
  2 24  1  0  0  0  0
  3  4  1  0  0  0  0
  3 25  1  0  0  0  0
  3 26  1  0  0  0  0
  4  5  1  0  0  0  0
  4 27  1  0  0  0  0
  4 28  1  0  0  0  0
  5  6  1  0  0  0  0
  5 29  1  0  0  0  0
  5 30  1  0  0  0  0
  6  7  1  0  0  0  0
  6 20  1  0  0  0  0
  6 44  1  0  0  0  0
  7  8  1  0  0  0  0
  7 31  1  0  0  0  0
  7 32  1  0  0  0  0
  8  9  1  0  0  0  0
  8 33  1  0  0  0  0
  8 34  1  0  0  0  0
  9 10  1  0  0  0  0
  9 35  1  0  0  0  0
 10 11  2  0  0  0  0
 10 12  1  0  0  0  0
 12 13  1  0  0  0  0
 12 36  1  0  0  0  0
 12 37  1  0  0  0  0
 13 18  1  0  0  0  0
 13 14  1  0  0  0  0
 14 15  2  0  0  0  0
 14 38  1  0  0  0  0
 15 16  1  0  0  0  0
 15 39  1  0  0  0  0
 16 17  2  0  0  0  0
 16 40  1  0  0  0  0
 17 18  1  0  0  0  0
 17 41  1  0  0  0  0
 18 19  2  0  0  0  0
 20 42  1  0  0  0  0
 20 43  1  0  0  0  0
M  CHG  1   6   1
M  END
> <s_m_source_file>
AV-unprocessed.smi

> <i_m_source_file_index>
1914

> <i_lp_mmshare_version>
43012

> <i_f3d_flags>
0

> <s_epik_input>
W0NIM11bQ0BASF0xW0NIMl1bQ0gyXVtDSDJdTihbQ0gyXTEpW0NIMl1bQ0gyXVtOSF1DKD1PKVtDSDJdbjJbY0hdW2NIXVtjSF1bY0hdYzI9Tw==

> <s_epik_cmdline>
J2VwaWtfcHl0aG9uJywgJy1waCcsICc3LjAnLCAnLXRuJywgJzgnLCAnLW1hJywgJzIwMCcsICctbWV0YWxfYmluZGluZycsICctaW1hZScsICc8aW5maWxlLm1hZT4nLCAnLW9tYWUnLCAnPG91dGZpbGUubWFlPic=

> <r_lp_tautomer_probability>
1

> <r_epik_Ionization_Penalty>
0.00192477

> <r_epik_Ionization_Penalty_Charging>
0.00192469

> <r_epik_Ionization_Penalty_Neutral>
8.16761e-08

> <r_epik_State_Penalty>
0.00131115

> <r_epik_Charging_Adjusted_Penalty>
0.00323584

> <i_epik_Tot_Q>
1

> <i_epik_Tot_abs_Q>
1

> <r_epik_Metal_State_Penalty>
-0

> <b_epik_Metal_Only>
0

> <s_lp_Force_Field>
OPLS_2005

> <r_lp_Energy>
25.5857

> <b_lp_Chiralities_Consistent>
1

> <s_lp_Variant>
AV-unprocessed.smi:1914-4

> <Gold.Version>
5.8.1

> <Gold.Id.Protein>
6NUR|6NUR_protein|mol2

> <Gold.PLP.Fitness>
50.4585

> <Gold.PLP.PLP>
-39.0768

> <Gold.PLP.part.hbond>
-3.0539

> <Gold.PLP.part.metal>
0.0000

> <Gold.PLP.part.buried>
-1.6936

> <Gold.PLP.part.nonpolar>
-33.2609

> <Gold.PLP.part.repulsive>
0.0420

> <Gold.PLP.ligand.clash>
0.0000

> <Gold.PLP.ligand.torsion>
0.6390

> <Gold.PLP.Chemscore.Hbond>
4.0000

> <Gold.PLP.Chemscore.CHOScore>
0.2072

> <Gold.PLP.Chemscore.Metal>
0.0000

> <Gold.Chemscore.Hbonds>
donor molecule, donor type, donor heavy atom, donor atom, acceptor molecule, acceptor atom, score
      L1  H     6    44       P1  7948  2.00
      L1  H     9    35       P1  7948  1.00
      P1  H  7997  8010       L1    19  1.00
      L1  C    14    38       P1  7948  0.45
      L1  C    14    38       P1  7957  0.20

> <Gold.PLP.Chemscore.Internal.Correction>
0.0380

> <Gold.Rescore>
     Score         DG    S(hbond)    S(metal)    S(lipo)     H(rot)  DE(clash)    DE(int)     intcor
     17.61     -18.42       2.76        0.00      72.45       1.86       0.02       0.80       ----

> <Gold.Chemscore.Fitness>
17.6080

> <Gold.Chemscore.DG>
-18.4217

> <Gold.Chemscore.ZeroCoef>
-5.4800

> <Gold.Chemscore.Hbond>
2.7615

> <Gold.Chemscore.Metal>
0.0000

> <Gold.Chemscore.Lipo>
72.4494

> <Gold.Chemscore.Internal_Hbond>
0.0000

> <Gold.Chemscore.DEClash>
0.0168

> <Gold.Chemscore.DEInternal>
0.7969

> <Gold.Chemscore.Rot>
1.8586

> <Gold.Chemscore.Internal.Correction>
   9.000000E+99

> <Gold.Chemscore.Hbonds>
donor molecule, donor type, donor heavy atom, donor atom, acceptor molecule, acceptor atom, score
      L1  H     6    44       P1  7948  0.99
      L1  H     9    35       P1  7948  0.34
      P1  H  7997  8010       L1    19  1.00

> <Gold.Chemscore.Hbond.Weighted>
-9.2233

> <Gold.Chemscore.Metal.Weighted>
-0.0000

> <Gold.Chemscore.Lipo.Weighted>
-8.4766

> <Gold.Chemscore.Internal_Hbond.Weighted>
0.0000

> <Gold.Chemscore.DEClash.Weighted>
0.0168

> <Gold.Chemscore.DEInternal.Weighted>
0.7969

> <Gold.Chemscore.Rot.Weighted>
4.7581

> <Gold.Chemscore.Internal.Correction.Weighted>
   9.000000E+99

> <Gold.Protein.RotatedTorsions>
[ 6907 6896 6895 6894 ] final  -79.00 input  -60.11 | X-H torsion
[ 7974 7965 7964 7962 ] final -125.96 input  175.53 | X-H torsion
[ 8008 7997 7996 7995 ] final   76.69 input   59.86 | X-H torsion
[ 10167 10162 10161 10158 ] final  149.38 input  -65.29 | X-H torsion
[ 10718 10713 10712 10709 ] final  115.03 input   66.30 | X-H torsion
[ 10763 10752 10751 10750 ] final  -25.56 input  -60.55 | X-H torsion
[ 11005 11000 10999 10996 ] final   60.96 input  -57.11 | X-H torsion

> <Gold.Protein.ActiveResidues>
 VAL166  LYS551  ARG553  GLY616  TRP617  ASP618  TYR619  PRO620  LYS621  CYS622 
 ASP623  PHE694  ASN695  SER759  ASP760  ASP761  ALA762  ILE779  LEU786  VAL792 
 PHE793  MET794  SER795  GLU796  ALA797  LYS798  CYS799  TRP800  GLU811  SER814 

> <Gold.Protein.RotatedAtoms>
  150.6959  134.4186  159.5194 H   0  0  0  0  0  0  0  0  0  0  0  0  # atno 6907 bound_to 6896
  152.1933  134.8650  160.0524 H   0  0  0  0  0  0  0  0  0  0  0  0  # atno 6908 bound_to 6896
  151.9597  133.3656  159.4067 H   0  0  0  0  0  0  0  0  0  0  0  0  # atno 6909 bound_to 6896
  144.9922  140.7742  143.4547 H   0  0  0  0  0  0  0  0  0  0  0  0  # atno 7974 bound_to 7965
  155.8309  140.3466  155.5572 H   0  0  0  0  0  0  0  0  0  0  0  0  # atno 8008 bound_to 7997
  155.8243  140.0917  157.1850 H   0  0  0  0  0  0  0  0  0  0  0  0  # atno 8009 bound_to 7997
  154.4004  140.1424  156.3525 H   0  0  0  0  0  0  0  0  0  0  0  0  # atno 8010 bound_to 7997
  139.4862  144.5606  151.7237 H   0  0  0  0  0  0  0  0  0  0  0  0  # atno 10167 bound_to 10162
  157.6246  131.1007  150.7271 H   0  0  0  0  0  0  0  0  0  0  0  0  # atno 10718 bound_to 10713
  153.7019  135.6956  153.5061 H   0  0  0  0  0  0  0  0  0  0  0  0  # atno 10763 bound_to 10752
  153.2336  135.4329  155.0621 H   0  0  0  0  0  0  0  0  0  0  0  0  # atno 10764 bound_to 10752
  154.8342  135.3490  154.6558 H   0  0  0  0  0  0  0  0  0  0  0  0  # atno 10765 bound_to 10752
  140.0194  134.6175  155.9661 H   0  0  0  0  0  0  0  0  0  0  0  0  # atno 11005 bound_to 11000
  145.2270  139.2132  143.5063 LP  0  0  0  0  0  0  0  0  0  0  0  0  # atno 17320 bound_to 7965
  146.3434  140.2139  142.8590 LP  0  0  0  0  0  0  0  0  0  0  0  0  # atno 17321 bound_to 7965
  140.5175  144.0930  150.6013 LP  0  0  0  0  0  0  0  0  0  0  0  0  # atno 17342 bound_to 10162
  140.3876  143.2769  152.0097 LP  0  0  0  0  0  0  0  0  0  0  0  0  # atno 17343 bound_to 10162
  156.7622  130.4802  149.5434 LP  0  0  0  0  0  0  0  0  0  0  0  0  # atno 17370 bound_to 10713
  156.1411  130.6245  151.0468 LP  0  0  0  0  0  0  0  0  0  0  0  0  # atno 17371 bound_to 10713
  141.1764  133.6541  156.4846 LP  0  0  0  0  0  0  0  0  0  0  0  0  # atno 17394 bound_to 11000
  140.4413  134.7013  157.4993 LP  0  0  0  0  0  0  0  0  0  0  0  0  # atno 17395 bound_to 11000

$$$$
