AV-unprocessed.smi:2706|AV-procd|sdf|10448|dock8
  -GOLD-   2272014493D 1   1.00000     0.00000
 Structure written by MMmdl.
 44 47  0  0  0  0  0  0  0  0  2 V2000
  150.7323  141.9286  156.2084 C   0  0  0  0  0  0  0  0  0  0  0  0
  150.4560  140.7289  155.4287 N   0  0  0  0  0  0  0  0  0  0  0  0
  151.3765  139.5982  155.4766 C   0  0  0  0  0  0  0  0  0  0  0  0
  149.2162  140.5960  154.7679 C   0  0  0  0  0  0  0  0  0  0  0  0
  148.2941  141.6603  154.6285 C   0  0  0  0  0  0  0  0  0  0  0  0
  147.0775  141.4423  153.9542 C   0  0  0  0  0  0  0  0  0  0  0  0
  146.7929  140.1679  153.4262 C   0  0  0  0  0  0  0  0  0  0  0  0
  147.7373  139.1227  153.5825 C   0  0  0  0  0  0  0  0  0  0  0  0
  147.5793  137.7927  153.1012 N   0  0  0  0  0  0  0  0  0  0  0  0
  146.4586  137.0689  152.9268 C   0  0  0  0  0  0  0  0  0  0  0  0
  145.3141  137.4531  153.1641 O   0  0  0  0  0  0  0  0  0  0  0  0
  146.7438  135.8476  152.4531 N   0  0  0  0  0  0  0  0  0  0  0  0
  145.7891  134.8294  152.1542 C   0  0  2  0  0  0  0  0  0  0  0  0
  146.0891  133.9317  150.9715 C   0  0  1  0  0  0  0  0  0  0  0  0
  145.3633  132.6444  150.5870 C   0  0  1  0  0  0  0  0  0  0  0  0
  144.3758  132.2067  151.6885 C   0  0  0  0  0  0  0  0  0  0  0  0
  143.2668  133.2773  151.5863 C   0  0  0  0  0  0  0  0  0  0  0  0
  143.7766  134.1762  150.4409 C   0  0  2  0  0  0  0  0  0  0  0  0
  144.3969  133.1354  149.5140 C   0  0  0  0  0  0  0  0  0  0  0  0
  144.9985  134.9847  150.8713 C   0  0  1  0  0  0  0  0  0  0  0  0
  148.8900  139.3912  154.2388 N   0  3  0  0  0  0  0  0  0  0  0  0
  149.9763  142.0648  156.9826 H   0  0  0  0  0  0  0  0  0  0  0  0
  150.7393  142.8108  155.5673 H   0  0  0  0  0  0  0  0  0  0  0  0
  151.7039  141.8676  156.6993 H   0  0  0  0  0  0  0  0  0  0  0  0
  150.9227  138.7577  156.0027 H   0  0  0  0  0  0  0  0  0  0  0  0
  152.2986  139.8595  155.9964 H   0  0  0  0  0  0  0  0  0  0  0  0
  151.6442  139.2762  154.4697 H   0  0  0  0  0  0  0  0  0  0  0  0
  148.5003  142.6423  155.0271 H   0  0  0  0  0  0  0  0  0  0  0  0
  146.3670  142.2482  153.8422 H   0  0  0  0  0  0  0  0  0  0  0  0
  145.8539  140.0300  152.9146 H   0  0  0  0  0  0  0  0  0  0  0  0
  148.4394  137.3227  152.8602 H   0  0  0  0  0  0  0  0  0  0  0  0
  147.7123  135.6153  152.2879 H   0  0  0  0  0  0  0  0  0  0  0  0
  145.2802  134.3861  153.0067 H   0  0  0  0  0  0  0  0  0  0  0  0
  146.9923  134.1336  150.3978 H   0  0  0  0  0  0  0  0  0  0  0  0
  146.0510  131.8620  150.2654 H   0  0  0  0  0  0  0  0  0  0  0  0
  143.9705  131.2174  151.4714 H   0  0  0  0  0  0  0  0  0  0  0  0
  144.8398  132.1613  152.6741 H   0  0  0  0  0  0  0  0  0  0  0  0
  142.3155  132.8150  151.3191 H   0  0  0  0  0  0  0  0  0  0  0  0
  143.1139  133.8263  152.5159 H   0  0  0  0  0  0  0  0  0  0  0  0
  143.0081  134.8000  149.9836 H   0  0  0  0  0  0  0  0  0  0  0  0
  144.8988  133.5726  148.6488 H   0  0  0  0  0  0  0  0  0  0  0  0
  143.6927  132.3736  149.1732 H   0  0  0  0  0  0  0  0  0  0  0  0
  145.2257  135.8388  150.2356 H   0  0  0  0  0  0  0  0  0  0  0  0
  149.5657  138.6352  154.3472 H   0  0  0  0  0  0  0  0  0  0  0  0
  1  2  1  0  0  0  0
  1 22  1  0  0  0  0
  1 23  1  0  0  0  0
  1 24  1  0  0  0  0
  2  3  1  0  0  0  0
  2  4  1  0  0  0  0
  3 25  1  0  0  0  0
  3 26  1  0  0  0  0
  3 27  1  0  0  0  0
  4 21  1  0  0  0  0
  4  5  2  0  0  0  0
  5  6  1  0  0  0  0
  5 28  1  0  0  0  0
  6  7  2  0  0  0  0
  6 29  1  0  0  0  0
  7  8  1  0  0  0  0
  7 30  1  0  0  0  0
  8  9  1  0  0  0  0
  8 21  2  0  0  0  0
  9 10  1  0  0  0  0
  9 31  1  0  0  0  0
 10 11  2  0  0  0  0
 10 12  1  0  0  0  0
 12 13  1  0  0  0  0
 12 32  1  0  0  0  0
 13 20  1  0  0  0  0
 13 14  1  0  0  0  0
 13 33  1  0  0  0  0
 14 20  1  0  0  0  0
 14 15  1  0  0  0  0
 14 34  1  0  0  0  0
 15 19  1  0  0  0  0
 15 16  1  0  0  0  0
 15 35  1  0  0  0  0
 16 17  1  0  0  0  0
 16 36  1  0  0  0  0
 16 37  1  0  0  0  0
 17 18  1  0  0  0  0
 17 38  1  0  0  0  0
 17 39  1  0  0  0  0
 18 19  1  0  0  0  0
 18 20  1  0  0  0  0
 18 40  1  0  0  0  0
 19 41  1  0  0  0  0
 19 42  1  0  0  0  0
 20 43  1  0  0  0  0
 21 44  1  0  0  0  0
M  CHG  1  21   1
M  END
> <s_m_source_file>
AV-unprocessed.smi

> <i_m_source_file_index>
2706

> <i_lp_mmshare_version>
43012

> <i_f3d_flags>
0

> <s_epik_input>
W0NIM11OKFtDSDNdKWMxW2NIXVtjSF1bY0hdYyhuMSlbTkhdQyg9TylbTkhdW0NASF0yW0NAQEhdM1tDQEBIXShbQ0gyXTQpW0NIMl1bQ0gyXVtDQEBIXTRbQ0BIXTIz

> <s_epik_cmdline>
J2VwaWtfcHl0aG9uJywgJy1waCcsICc3LjAnLCAnLXRuJywgJzgnLCAnLW1hJywgJzIwMCcsICctbWV0YWxfYmluZGluZycsICctaW1hZScsICc8aW5maWxlLm1hZT4nLCAnLW9tYWUnLCAnPG91dGZpbGUubWFlPic=

> <r_lp_tautomer_probability>
0.999994

> <r_epik_Ionization_Penalty>
1.8105

> <r_epik_Ionization_Penalty_Charging>
1.79227

> <r_epik_Ionization_Penalty_Neutral>
0.0182286

> <r_epik_State_Penalty>
1.90588

> <r_epik_Charging_Adjusted_Penalty>
3.69815

> <i_epik_Tot_Q>
1

> <i_epik_Tot_abs_Q>
1

> <r_epik_Metal_State_Penalty>
1.93501

> <b_epik_Metal_Only>
0

> <s_lp_Force_Field>
OPLS_2005

> <r_lp_Energy>
87.3902

> <b_lp_Chiralities_Consistent>
1

> <s_lp_Variant>
AV-unprocessed.smi:2706-5

> <Gold.Version>
5.8.1

> <Gold.Id.Protein>
6NUR|6NUR_protein|mol2

> <Gold.PLP.Fitness>
40.6862

> <Gold.PLP.PLP>
-37.4950

> <Gold.PLP.part.hbond>
-1.1596

> <Gold.PLP.part.metal>
0.0000

> <Gold.PLP.part.buried>
1.2688

> <Gold.PLP.part.nonpolar>
-37.9334

> <Gold.PLP.part.repulsive>
0.3277

> <Gold.PLP.ligand.clash>
0.0000

> <Gold.PLP.ligand.torsion>
0.5024

> <Gold.PLP.Chemscore.Hbond>
1.3807

> <Gold.PLP.Chemscore.CHOScore>
0.0000

> <Gold.PLP.Chemscore.Metal>
0.0000

> <Gold.Chemscore.Hbonds>
donor molecule, donor type, donor heavy atom, donor atom, acceptor molecule, acceptor atom, score
      L1  H     9    31       P1  7948  0.80
      L1  H    12    32       P1  7948  0.62

> <Gold.PLP.Chemscore.Internal.Correction>
0.0538

> <Gold.Rescore>
     Score         DG    S(hbond)    S(metal)    S(lipo)     H(rot)  DE(clash)    DE(int)     intcor
     16.29     -18.06       1.40        0.00      89.42       1.00       1.23       0.53       ----

> <Gold.Chemscore.Fitness>
16.2947

> <Gold.Chemscore.DG>
-18.0569

> <Gold.Chemscore.ZeroCoef>
-5.4800

> <Gold.Chemscore.Hbond>
1.3998

> <Gold.Chemscore.Metal>
0.0000

> <Gold.Chemscore.Lipo>
89.4168

> <Gold.Chemscore.Internal_Hbond>
0.0000

> <Gold.Chemscore.DEClash>
1.2281

> <Gold.Chemscore.DEInternal>
0.5341

> <Gold.Chemscore.Rot>
1.0000

> <Gold.Chemscore.Internal.Correction>
   9.000000E+99

> <Gold.Chemscore.Hbonds>
donor molecule, donor type, donor heavy atom, donor atom, acceptor molecule, acceptor atom, score
      L1  H     9    31       P1  7948  0.76
      L1  H    12    32       P1  7948  0.61

> <Gold.Chemscore.Hbond.Weighted>
-4.6752

> <Gold.Chemscore.Metal.Weighted>
-0.0000

> <Gold.Chemscore.Lipo.Weighted>
-10.4618

> <Gold.Chemscore.Internal_Hbond.Weighted>
0.0000

> <Gold.Chemscore.DEClash.Weighted>
1.2281

> <Gold.Chemscore.DEInternal.Weighted>
0.5341

> <Gold.Chemscore.Rot.Weighted>
2.5600

> <Gold.Chemscore.Internal.Correction.Weighted>
   9.000000E+99

> <Gold.Protein.RotatedTorsions>
[ 6907 6896 6895 6894 ] final   66.02 input  -60.11 | X-H torsion
[ 7974 7965 7964 7962 ] final -139.56 input  175.53 | X-H torsion
[ 8008 7997 7996 7995 ] final  111.35 input   59.86 | X-H torsion
[ 10167 10162 10161 10158 ] final   39.51 input  -65.29 | X-H torsion
[ 10718 10713 10712 10709 ] final -108.77 input   66.30 | X-H torsion
[ 10763 10752 10751 10750 ] final   37.23 input  -60.55 | X-H torsion
[ 11005 11000 10999 10996 ] final  114.95 input  -57.11 | X-H torsion

> <Gold.Protein.ActiveResidues>
 VAL166  LYS551  ARG553  GLY616  TRP617  ASP618  TYR619  PRO620  LYS621  CYS622 
 ASP623  PHE694  ASN695  SER759  ASP760  ASP761  ALA762  ILE779  LEU786  VAL792 
 PHE793  MET794  SER795  GLU796  ALA797  LYS798  CYS799  TRP800  GLU811  SER814 

> <Gold.Protein.RotatedAtoms>
  152.4450  134.5513  159.9867 H   0  0  0  0  0  0  0  0  0  0  0  0  # atno 6907 bound_to 6896
  151.5600  133.3399  159.2977 H   0  0  0  0  0  0  0  0  0  0  0  0  # atno 6908 bound_to 6896
  150.8364  134.7672  159.6960 H   0  0  0  0  0  0  0  0  0  0  0  0  # atno 6909 bound_to 6896
  144.8667  140.6304  143.5293 H   0  0  0  0  0  0  0  0  0  0  0  0  # atno 7974 bound_to 7965
  156.2118  140.3021  155.9749 H   0  0  0  0  0  0  0  0  0  0  0  0  # atno 8008 bound_to 7997
  155.2705  140.0433  157.3023 H   0  0  0  0  0  0  0  0  0  0  0  0  # atno 8009 bound_to 7997
  154.5710  140.2348  155.8200 H   0  0  0  0  0  0  0  0  0  0  0  0  # atno 8010 bound_to 7997
  140.3832  144.1952  150.6130 H   0  0  0  0  0  0  0  0  0  0  0  0  # atno 10167 bound_to 10162
  156.0502  130.5730  150.8007 H   0  0  0  0  0  0  0  0  0  0  0  0  # atno 10718 bound_to 10713
  153.0045  135.6283  154.2112 H   0  0  0  0  0  0  0  0  0  0  0  0  # atno 10763 bound_to 10752
  154.1855  135.2811  155.3040 H   0  0  0  0  0  0  0  0  0  0  0  0  # atno 10764 bound_to 10752
  154.5801  135.5650  153.7236 H   0  0  0  0  0  0  0  0  0  0  0  0  # atno 10765 bound_to 10752
  139.8995  134.9576  156.6970 H   0  0  0  0  0  0  0  0  0  0  0  0  # atno 11005 bound_to 11000
  145.4208  139.1564  143.4075 LP  0  0  0  0  0  0  0  0  0  0  0  0  # atno 17320 bound_to 7965
  146.2901  140.4318  142.8743 LP  0  0  0  0  0  0  0  0  0  0  0  0  # atno 17321 bound_to 7965
  140.4916  143.2345  151.8810 LP  0  0  0  0  0  0  0  0  0  0  0  0  # atno 17342 bound_to 10162
  139.4794  144.5159  151.8868 LP  0  0  0  0  0  0  0  0  0  0  0  0  # atno 17343 bound_to 10162
  157.5421  131.0941  150.9813 LP  0  0  0  0  0  0  0  0  0  0  0  0  # atno 17370 bound_to 10713
  157.0093  130.5630  149.5319 LP  0  0  0  0  0  0  0  0  0  0  0  0  # atno 17371 bound_to 10713
  140.7180  133.9165  155.8128 LP  0  0  0  0  0  0  0  0  0  0  0  0  # atno 17394 bound_to 11000
  141.0249  134.0837  157.4079 LP  0  0  0  0  0  0  0  0  0  0  0  0  # atno 17395 bound_to 11000

$$$$
