AV-unprocessed.smi:45|AV-procd|sdf|414|dock5
  -GOLD-   2262016283D 1   1.00000     0.00000
 Structure written by MMmdl.
 59 62  0  0  0  0  0  0  0  0  2 V2000
  148.5982  127.3295  152.8343 C   0  0  0  0  0  0  0  0  0  0  0  0
  149.5856  127.8885  153.6881 O   0  0  0  0  0  0  0  0  0  0  0  0
  149.5187  129.2379  153.9678 C   0  0  0  0  0  0  0  0  0  0  0  0
  148.4551  130.0785  153.5512 C   0  0  0  0  0  0  0  0  0  0  0  0
  148.4559  131.4486  153.8763 C   0  0  0  0  0  0  0  0  0  0  0  0
  149.5159  132.0017  154.6216 C   0  0  0  0  0  0  0  0  0  0  0  0
  149.5152  133.4758  154.9734 C   0  0  0  0  0  0  0  0  0  0  0  0
  150.1267  133.7556  156.2638 N   0  0  0  0  0  0  0  0  0  0  0  0
  149.5784  134.7051  157.1425 C   0  0  0  0  0  0  0  0  0  0  0  0
  148.8256  134.2488  158.1726 N   0  0  0  0  0  0  0  0  0  0  0  0
  148.3143  135.1444  159.0189 C   0  0  0  0  0  0  0  0  0  0  0  0
  147.5298  134.6339  160.0413 N   0  0  0  0  0  0  0  0  0  0  0  0
  147.3283  133.1897  160.1357 C   0  0  0  0  0  0  0  0  0  0  0  0
  147.3094  132.8332  161.6277 C   0  0  0  0  0  0  0  0  0  0  0  0
  147.0131  134.1600  162.3173 C   0  0  0  0  0  0  0  0  0  0  0  0
  147.7175  135.1536  161.3917 C   0  0  2  0  0  0  0  0  0  0  0  0
  147.3159  136.6336  161.5639 C   0  0  0  0  0  0  0  0  0  0  0  0
  147.9082  137.2086  162.7108 O   0  0  0  0  0  0  0  0  0  0  0  0
  148.4654  136.4696  158.9524 N   0  0  0  0  0  0  0  0  0  0  0  0
  149.2138  136.9460  157.9347 C   0  0  0  0  0  0  0  0  0  0  0  0
  149.8148  136.0975  156.9736 C   0  0  0  0  0  0  0  0  0  0  0  0
  150.6124  136.6669  155.8273 C   0  0  0  0  0  0  0  0  0  0  0  0
  151.5206  135.9816  155.3439 O   0  0  0  0  0  0  0  0  0  0  0  0
  150.2029  137.9235  155.5011 N   0  5  0  0  0  0  0  0  0  0  0  0
  151.0903  138.9761  155.0068 C   0  0  0  0  0  0  0  0  0  0  0  0
  151.2343  140.1042  156.0186 C   0  0  0  0  0  0  0  0  0  0  0  0
  150.9249  141.3371  155.5975 N   0  0  0  0  0  0  0  0  0  0  0  0
  151.0234  142.3363  156.5004 C   0  0  0  0  0  0  0  0  0  0  0  0
  151.4354  142.0995  157.8270 C   0  0  0  0  0  0  0  0  0  0  0  0
  151.7401  140.7634  158.1558 C   0  0  0  0  0  0  0  0  0  0  0  0
  151.6403  139.7674  157.2494 N   0  0  0  0  0  0  0  0  0  0  0  0
  150.5758  131.1735  155.0391 C   0  0  0  0  0  0  0  0  0  0  0  0
  150.5778  129.8031  154.7134 C   0  0  0  0  0  0  0  0  0  0  0  0
  151.8947  128.8162  155.2389 Cl  0  0  0  0  0  0  0  0  0  0  0  0
  148.7878  135.0877  161.5956 H   0  0  0  0  0  0  0  0  0  0  0  0
  148.7840  126.2614  152.7222 H   0  0  0  0  0  0  0  0  0  0  0  0
  148.6311  127.7758  151.8395 H   0  0  0  0  0  0  0  0  0  0  0  0
  147.5974  127.4479  153.2516 H   0  0  0  0  0  0  0  0  0  0  0  0
  147.6236  129.6964  152.9788 H   0  0  0  0  0  0  0  0  0  0  0  0
  147.6389  132.0761  153.5510 H   0  0  0  0  0  0  0  0  0  0  0  0
  150.0537  134.0169  154.1944 H   0  0  0  0  0  0  0  0  0  0  0  0
  148.4910  133.8505  154.9739 H   0  0  0  0  0  0  0  0  0  0  0  0
  150.9543  133.2450  156.5383 H   0  0  0  0  0  0  0  0  0  0  0  0
  146.3643  132.9569  159.6828 H   0  0  0  0  0  0  0  0  0  0  0  0
  148.0865  132.6167  159.6010 H   0  0  0  0  0  0  0  0  0  0  0  0
  146.5838  132.0562  161.8688 H   0  0  0  0  0  0  0  0  0  0  0  0
  148.2950  132.4771  161.9301 H   0  0  0  0  0  0  0  0  0  0  0  0
  145.9360  134.3311  162.3349 H   0  0  0  0  0  0  0  0  0  0  0  0
  147.3821  134.1988  163.3425 H   0  0  0  0  0  0  0  0  0  0  0  0
  147.6452  137.2043  160.6953 H   0  0  0  0  0  0  0  0  0  0  0  0
  146.2332  136.7478  161.6174 H   0  0  0  0  0  0  0  0  0  0  0  0
  147.4350  136.9114  163.4727 H   0  0  0  0  0  0  0  0  0  0  0  0
  149.3178  138.0203  157.8849 H   0  0  0  0  0  0  0  0  0  0  0  0
  152.0826  138.5815  154.7826 H   0  0  0  0  0  0  0  0  0  0  0  0
  150.7412  139.4102  154.0679 H   0  0  0  0  0  0  0  0  0  0  0  0
  150.7714  143.3307  156.1628 H   0  0  0  0  0  0  0  0  0  0  0  0
  151.5136  142.8968  158.5507 H   0  0  0  0  0  0  0  0  0  0  0  0
  152.0644  140.4929  159.1496 H   0  0  0  0  0  0  0  0  0  0  0  0
  151.3939  131.5885  155.6097 H   0  0  0  0  0  0  0  0  0  0  0  0
  1  2  1  0  0  0  0
  1 36  1  0  0  0  0
  1 37  1  0  0  0  0
  1 38  1  0  0  0  0
  2  3  1  0  0  0  0
  3 33  1  0  0  0  0
  3  4  2  0  0  0  0
  4  5  1  0  0  0  0
  4 39  1  0  0  0  0
  5  6  2  0  0  0  0
  5 40  1  0  0  0  0
  6  7  1  0  0  0  0
  6 32  1  0  0  0  0
  7  8  1  0  0  0  0
  7 41  1  0  0  0  0
  7 42  1  0  0  0  0
  8  9  1  0  0  0  0
  8 43  1  0  0  0  0
  9 21  1  0  0  0  0
  9 10  2  0  0  0  0
 10 11  1  0  0  0  0
 11 12  1  0  0  0  0
 11 19  2  0  0  0  0
 12 16  1  0  0  0  0
 12 13  1  0  0  0  0
 13 14  1  0  0  0  0
 13 44  1  0  0  0  0
 13 45  1  0  0  0  0
 14 15  1  0  0  0  0
 14 46  1  0  0  0  0
 14 47  1  0  0  0  0
 15 16  1  0  0  0  0
 15 48  1  0  0  0  0
 15 49  1  0  0  0  0
 16 35  1  0  0  0  0
 16 17  1  0  0  0  0
 17 18  1  0  0  0  0
 17 50  1  0  0  0  0
 17 51  1  0  0  0  0
 18 52  1  0  0  0  0
 19 20  1  0  0  0  0
 20 21  2  0  0  0  0
 20 53  1  0  0  0  0
 21 22  1  0  0  0  0
 22 23  2  0  0  0  0
 22 24  1  0  0  0  0
 24 25  1  0  0  0  0
 25 26  1  0  0  0  0
 25 54  1  0  0  0  0
 25 55  1  0  0  0  0
 26 31  1  0  0  0  0
 26 27  2  0  0  0  0
 27 28  1  0  0  0  0
 28 29  2  0  0  0  0
 28 56  1  0  0  0  0
 29 30  1  0  0  0  0
 29 57  1  0  0  0  0
 30 31  2  0  0  0  0
 30 58  1  0  0  0  0
 32 33  2  0  0  0  0
 32 59  1  0  0  0  0
 33 34  1  0  0  0  0
M  CHG  1  24  -1
M  END
> <s_m_source_file>
AV-unprocessed.smi

> <i_m_source_file_index>
45

> <i_lp_mmshare_version>
43012

> <i_f3d_flags>
0

> <s_epik_input>
W0NIM11PYzFbY0hdW2NIXWMoW2NIXWMxQ2wpW0NIMl1bTkhdYzJuYyhOM1tDSDJdW0NIMl1bQ0gyXVtDQEhdM1tDSDJdW09IXSluW2NIXWMyQyg9TylbTkhdW0NIMl1jNG5bY0hdW2NIXVtjSF1uNA==

> <s_epik_cmdline>
J2VwaWtfcHl0aG9uJywgJy1waCcsICc3LjAnLCAnLXRuJywgJzgnLCAnLW1hJywgJzIwMCcsICctbWV0YWxfYmluZGluZycsICctaW1hZScsICc8aW5maWxlLm1hZT4nLCAnLW9tYWUnLCAnPG91dGZpbGUubWFlPic=

> <r_lp_tautomer_probability>
1

> <r_epik_Ionization_Penalty>
7.35269

> <r_epik_Ionization_Penalty_Charging>
6.82087

> <r_epik_Ionization_Penalty_Neutral>
0.53182

> <r_epik_State_Penalty>
6.85781

> <r_epik_Charging_Adjusted_Penalty>
13.6787

> <i_epik_Tot_Q>
-1

> <i_epik_Tot_abs_Q>
1

> <r_epik_Metal_State_Penalty>
2.8146

> <b_epik_Metal_Only>
1

> <s_epik_Chemistry_Notes>
This compound contains an electron-poor aromatic ring that is susceptible to covalent hydrolysis at low pH, typically resulting in measured values for nitrogen ring protonation that are around two units higher than predicted values.

> <s_lp_Force_Field>
OPLS_2005

> <r_lp_Energy>
50.4559

> <b_lp_Chiralities_Consistent>
1

> <s_lp_Variant>
AV-unprocessed.smi:45-8

> <Gold.Version>
5.8.1

> <Gold.Id.Protein>
6NUR|6NUR_protein|mol2

> <Gold.PLP.Fitness>
57.7731

> <Gold.PLP.PLP>
-52.1964

> <Gold.PLP.part.hbond>
-3.7228

> <Gold.PLP.part.metal>
0.0000

> <Gold.PLP.part.buried>
-7.5146

> <Gold.PLP.part.nonpolar>
-41.2748

> <Gold.PLP.part.repulsive>
1.2499

> <Gold.PLP.ligand.clash>
0.0000

> <Gold.PLP.ligand.torsion>
2.2277

> <Gold.PLP.Chemscore.Hbond>
2.0306

> <Gold.PLP.Chemscore.CHOScore>
1.0000

> <Gold.PLP.Chemscore.Metal>
0.0000

> <Gold.Chemscore.Hbonds>
donor molecule, donor type, donor heavy atom, donor atom, acceptor molecule, acceptor atom, score
      P1  H  6931  6943       L1    18  0.80
      P1  H  7989  7998       L1    27  0.16
      P1  H 10752 10763       L1    23  1.00
      L1  C    28    56       P1  8028  1.00

> <Gold.PLP.Chemscore.Internal.Correction>
0.9402

> <Gold.Rescore>
     Score         DG    S(hbond)    S(metal)    S(lipo)     H(rot)  DE(clash)    DE(int)     intcor
     12.15     -17.22       1.90        0.00     114.09       3.11       0.01       5.06       ----

> <Gold.Chemscore.Fitness>
12.1485

> <Gold.Chemscore.DG>
-17.2206

> <Gold.Chemscore.ZeroCoef>
-5.4800

> <Gold.Chemscore.Hbond>
1.9006

> <Gold.Chemscore.Metal>
0.0000

> <Gold.Chemscore.Lipo>
114.0883

> <Gold.Chemscore.Internal_Hbond>
0.0000

> <Gold.Chemscore.DEClash>
0.0088

> <Gold.Chemscore.DEInternal>
5.0633

> <Gold.Chemscore.Rot>
3.1077

> <Gold.Chemscore.Internal.Correction>
   9.000000E+99

> <Gold.Chemscore.Hbonds>
donor molecule, donor type, donor heavy atom, donor atom, acceptor molecule, acceptor atom, score
      P1  H  6931  6943       L1    18  0.20
      P1  H  7989  7998       L1    27  0.01
      P1  H 10752 10763       L1    23  1.00

> <Gold.Chemscore.Hbond.Weighted>
-6.3479

> <Gold.Chemscore.Metal.Weighted>
-0.0000

> <Gold.Chemscore.Lipo.Weighted>
-13.3483

> <Gold.Chemscore.Internal_Hbond.Weighted>
0.0000

> <Gold.Chemscore.DEClash.Weighted>
0.0088

> <Gold.Chemscore.DEInternal.Weighted>
5.0633

> <Gold.Chemscore.Rot.Weighted>
7.9557

> <Gold.Chemscore.Internal.Correction.Weighted>
   9.000000E+99

> <Gold.Protein.RotatedTorsions>
[ 6907 6896 6895 6894 ] final   58.35 input  -60.11 | X-H torsion
[ 7974 7965 7964 7962 ] final    7.11 input  175.53 | X-H torsion
[ 8008 7997 7996 7995 ] final  -75.34 input   59.86 | X-H torsion
[ 10167 10162 10161 10158 ] final    2.25 input  -65.29 | X-H torsion
[ 10718 10713 10712 10709 ] final  122.33 input   66.30 | X-H torsion
[ 10763 10752 10751 10750 ] final   78.12 input  -60.55 | X-H torsion
[ 11005 11000 10999 10996 ] final -157.16 input  -57.11 | X-H torsion

> <Gold.Protein.ActiveResidues>
 VAL166  LYS551  ARG553  GLY616  TRP617  ASP618  TYR619  PRO620  LYS621  CYS622 
 ASP623  PHE694  ASN695  SER759  ASP760  ASP761  ALA762  ILE779  LEU786  VAL792 
 PHE793  MET794  SER795  GLU796  ALA797  LYS798  CYS799  TRP800  GLU811  SER814 

> <Gold.Protein.RotatedAtoms>
  152.3816  134.6582  160.0140 H   0  0  0  0  0  0  0  0  0  0  0  0  # atno 6907 bound_to 6896
  151.6843  133.3306  159.3235 H   0  0  0  0  0  0  0  0  0  0  0  0  # atno 6908 bound_to 6896
  150.7752  134.6689  159.6425 H   0  0  0  0  0  0  0  0  0  0  0  0  # atno 6909 bound_to 6896
  146.2429  140.0132  142.8405 H   0  0  0  0  0  0  0  0  0  0  0  0  # atno 7974 bound_to 7965
  154.5409  140.0745  156.8507 H   0  0  0  0  0  0  0  0  0  0  0  0  # atno 8008 bound_to 7997
  155.3183  140.3394  155.4223 H   0  0  0  0  0  0  0  0  0  0  0  0  # atno 8009 bound_to 7997
  156.1873  140.1673  156.8147 H   0  0  0  0  0  0  0  0  0  0  0  0  # atno 8010 bound_to 7997
  140.6644  143.7218  150.7799 H   0  0  0  0  0  0  0  0  0  0  0  0  # atno 10167 bound_to 10162
  157.5750  131.1080  150.8296 H   0  0  0  0  0  0  0  0  0  0  0  0  # atno 10718 bound_to 10713
  153.0850  135.4889  154.8579 H   0  0  0  0  0  0  0  0  0  0  0  0  # atno 10763 bound_to 10752
  154.7199  135.3037  154.9066 H   0  0  0  0  0  0  0  0  0  0  0  0  # atno 10764 bound_to 10752
  153.9734  135.6798  153.4801 H   0  0  0  0  0  0  0  0  0  0  0  0  # atno 10765 bound_to 10752
  140.6677  134.4281  157.5232 H   0  0  0  0  0  0  0  0  0  0  0  0  # atno 11005 bound_to 11000
  145.1309  140.9517  143.4545 LP  0  0  0  0  0  0  0  0  0  0  0  0  # atno 17320 bound_to 7965
  145.0389  139.3277  143.5987 LP  0  0  0  0  0  0  0  0  0  0  0  0  # atno 17321 bound_to 7965
  140.0893  143.4893  152.2487 LP  0  0  0  0  0  0  0  0  0  0  0  0  # atno 17342 bound_to 10162
  139.5888  144.7542  151.3453 LP  0  0  0  0  0  0  0  0  0  0  0  0  # atno 17343 bound_to 10162
  156.8757  130.5162  149.5294 LP  0  0  0  0  0  0  0  0  0  0  0  0  # atno 17370 bound_to 10713
  156.0795  130.5809  150.9536 LP  0  0  0  0  0  0  0  0  0  0  0  0  # atno 17371 bound_to 10713
  139.8992  134.8597  156.1971 LP  0  0  0  0  0  0  0  0  0  0  0  0  # atno 17394 bound_to 11000
  141.0416  133.6935  156.1609 LP  0  0  0  0  0  0  0  0  0  0  0  0  # atno 17395 bound_to 11000

$$$$
