AV-unprocessed.smi:1986|AV-procd|sdf|8046|dock5
  -GOLD-   2272010243D 1   1.00000     0.00000
 Structure written by MMmdl.
 46 47  0  0  0  0  0  0  0  0  2 V2000
  149.9469  141.7780  155.6615 C   0  0  0  0  0  0  0  0  0  0  0  0
  151.1268  140.8051  155.8334 C   0  0  0  0  0  0  0  0  0  0  0  0
  151.3768  140.3030  157.2931 C   0  0  1  0  0  0  0  0  0  0  0  0
  149.9845  139.9609  157.8871 C   0  0  0  0  0  0  0  0  0  0  0  0
  152.2201  138.9837  157.2278 C   0  0  0  0  0  0  0  0  0  0  0  0
  151.4316  137.7514  157.2549 N   0  0  0  0  0  0  0  0  0  0  0  0
  151.2783  136.8896  156.2380 C   0  0  0  0  0  0  0  0  0  0  0  0
  151.7669  137.0667  155.1212 O   0  0  0  0  0  0  0  0  0  0  0  0
  150.4375  135.6398  156.5372 C   0  0  0  0  0  0  0  0  0  0  0  0
  149.1967  135.9363  157.2678 N   0  0  0  0  0  0  0  0  0  0  0  0
  149.3818  136.1050  158.7065 N   0  5  0  0  0  0  0  0  0  0  0  0
  148.3095  136.4225  159.4796 C   0  0  0  0  0  0  0  0  0  0  0  0
  148.3925  136.6058  160.6918 O   0  0  0  0  0  0  0  0  0  0  0  0
  147.0123  136.5421  158.8345 C   0  0  0  0  0  0  0  0  0  0  0  0
  146.8647  136.3457  157.5095 C   0  0  0  0  0  0  0  0  0  0  0  0
  147.9872  136.0125  156.6412 C   0  0  0  0  0  0  0  0  0  0  0  0
  147.8572  135.8196  155.4317 O   0  0  0  0  0  0  0  0  0  0  0  0
  152.0926  141.3342  158.1046 N   0  0  0  0  0  0  0  0  0  0  0  0
  152.3281  140.9697  159.5084 C   0  0  0  0  0  0  0  0  0  0  0  0
  153.1767  142.0173  160.2497 C   0  0  0  0  0  0  0  0  0  0  0  0
  152.5530  143.2919  160.1639 O   0  0  0  0  0  0  0  0  0  0  0  0
  152.3684  143.7115  158.8183 C   0  0  0  0  0  0  0  0  0  0  0  0
  151.5068  142.6818  158.0686 C   0  0  0  0  0  0  0  0  0  0  0  0
  149.8304  142.0533  154.6134 H   0  0  0  0  0  0  0  0  0  0  0  0
  150.0961  142.6996  156.2234 H   0  0  0  0  0  0  0  0  0  0  0  0
  149.0070  141.3334  155.9882 H   0  0  0  0  0  0  0  0  0  0  0  0
  150.9846  139.9607  155.1598 H   0  0  0  0  0  0  0  0  0  0  0  0
  152.0221  141.2865  155.4391 H   0  0  0  0  0  0  0  0  0  0  0  0
  149.4392  139.2599  157.2553 H   0  0  0  0  0  0  0  0  0  0  0  0
  149.3462  140.8387  157.9799 H   0  0  0  0  0  0  0  0  0  0  0  0
  150.0608  139.5006  158.8720 H   0  0  0  0  0  0  0  0  0  0  0  0
  152.8111  138.9662  156.3116 H   0  0  0  0  0  0  0  0  0  0  0  0
  152.9451  138.9413  158.0405 H   0  0  0  0  0  0  0  0  0  0  0  0
  150.9874  137.5209  158.1317 H   0  0  0  0  0  0  0  0  0  0  0  0
  150.1899  135.1272  155.6055 H   0  0  0  0  0  0  0  0  0  0  0  0
  151.0613  134.9428  157.0998 H   0  0  0  0  0  0  0  0  0  0  0  0
  146.1474  136.7908  159.4315 H   0  0  0  0  0  0  0  0  0  0  0  0
  145.8819  136.4430  157.0731 H   0  0  0  0  0  0  0  0  0  0  0  0
  151.3788  140.8521  160.0316 H   0  0  0  0  0  0  0  0  0  0  0  0
  152.8533  140.0205  159.5867 H   0  0  0  0  0  0  0  0  0  0  0  0
  153.2824  141.7435  161.2995 H   0  0  0  0  0  0  0  0  0  0  0  0
  154.1825  142.0663  159.8292 H   0  0  0  0  0  0  0  0  0  0  0  0
  151.8817  144.6869  158.8139 H   0  0  0  0  0  0  0  0  0  0  0  0
  153.3364  143.8344  158.3301 H   0  0  0  0  0  0  0  0  0  0  0  0
  151.3985  143.0368  157.0462 H   0  0  0  0  0  0  0  0  0  0  0  0
  150.5106  142.6746  158.5103 H   0  0  0  0  0  0  0  0  0  0  0  0
  1  2  1  0  0  0  0
  1 24  1  0  0  0  0
  1 25  1  0  0  0  0
  1 26  1  0  0  0  0
  2  3  1  0  0  0  0
  2 27  1  0  0  0  0
  2 28  1  0  0  0  0
  3  4  1  0  0  0  0
  3  5  1  0  0  0  0
  3 18  1  0  0  0  0
  4 29  1  0  0  0  0
  4 30  1  0  0  0  0
  4 31  1  0  0  0  0
  5  6  1  0  0  0  0
  5 32  1  0  0  0  0
  5 33  1  0  0  0  0
  6  7  1  0  0  0  0
  6 34  1  0  0  0  0
  7  8  2  0  0  0  0
  7  9  1  0  0  0  0
  9 35  1  0  0  0  0
  9 36  1  0  0  0  0
  9 10  1  0  0  0  0
 10 11  1  0  0  0  0
 10 16  1  0  0  0  0
 11 12  1  0  0  0  0
 12 13  2  0  0  0  0
 12 14  1  0  0  0  0
 14 37  1  0  0  0  0
 14 15  2  0  0  0  0
 15 38  1  0  0  0  0
 15 16  1  0  0  0  0
 16 17  2  0  0  0  0
 18 23  1  0  0  0  0
 18 19  1  0  0  0  0
 19 20  1  0  0  0  0
 19 39  1  0  0  0  0
 19 40  1  0  0  0  0
 20 21  1  0  0  0  0
 20 41  1  0  0  0  0
 20 42  1  0  0  0  0
 21 22  1  0  0  0  0
 22 23  1  0  0  0  0
 22 43  1  0  0  0  0
 22 44  1  0  0  0  0
 23 45  1  0  0  0  0
 23 46  1  0  0  0  0
M  CHG  1  11  -1
M  END
> <s_m_source_file>
AV-unprocessed.smi

> <i_m_source_file_index>
1986

> <i_lp_mmshare_version>
43012

> <i_f3d_flags>
0

> <s_epik_input>
W0NIMl0xW0NIMl1PW0NIMl1bQ0gyXU4xW0NAQF0oW0NIM10pKFtDSDJdW0NIM10pW0NIMl1bTkhdQyg9TylbQ0gyXW4yW25IXWMoPU8pW2NIXVtjSF1jMj1P

> <s_epik_cmdline>
J2VwaWtfcHl0aG9uJywgJy1waCcsICc3LjAnLCAnLXRuJywgJzgnLCAnLW1hJywgJzIwMCcsICctbWV0YWxfYmluZGluZycsICctaW1hZScsICc8aW5maWxlLm1hZT4nLCAnLW9tYWUnLCAnPG91dGZpbGUubWFlPic=

> <r_lp_tautomer_probability>
1

> <r_epik_Ionization_Penalty>
0.416475

> <r_epik_Ionization_Penalty_Charging>
0.0978085

> <r_epik_Ionization_Penalty_Neutral>
0.318667

> <r_epik_State_Penalty>
0.355037

> <r_epik_Charging_Adjusted_Penalty>
0.452845

> <i_epik_Tot_Q>
-1

> <i_epik_Tot_abs_Q>
1

> <r_epik_Metal_State_Penalty>
0.355037

> <b_epik_Metal_Only>
0

> <s_lp_Force_Field>
OPLS_2005

> <r_lp_Energy>
59.1101

> <b_lp_Chiralities_Consistent>
1

> <s_lp_Variant>
AV-unprocessed.smi:1986-1

> <Gold.Version>
5.8.1

> <Gold.Id.Protein>
6NUR|6NUR_protein|mol2

> <Gold.PLP.Fitness>
40.3782

> <Gold.PLP.PLP>
-32.6824

> <Gold.PLP.part.hbond>
-3.0000

> <Gold.PLP.part.metal>
0.0000

> <Gold.PLP.part.buried>
-4.7102

> <Gold.PLP.part.nonpolar>
-24.0270

> <Gold.PLP.part.repulsive>
0.1811

> <Gold.PLP.ligand.clash>
1.2378

> <Gold.PLP.ligand.torsion>
1.5761

> <Gold.PLP.Chemscore.Hbond>
3.9760

> <Gold.PLP.Chemscore.CHOScore>
0.0000

> <Gold.PLP.Chemscore.Metal>
0.0000

> <Gold.Chemscore.Hbonds>
donor molecule, donor type, donor heavy atom, donor atom, acceptor molecule, acceptor atom, score
      P1  H  6896  6908       L1    11  1.30
      P1  H  6931  6943       L1    13  0.73
      P1  H 10752 10765       L1     8  1.00

> <Gold.PLP.Chemscore.Internal.Correction>
0.1579

> <Gold.Rescore>
     Score         DG    S(hbond)    S(metal)    S(lipo)     H(rot)  DE(clash)    DE(int)     intcor
     15.77     -17.58       2.84        0.00      75.19       2.42       0.06       1.75       ----

> <Gold.Chemscore.Fitness>
15.7713

> <Gold.Chemscore.DG>
-17.5791

> <Gold.Chemscore.ZeroCoef>
-5.4800

> <Gold.Chemscore.Hbond>
2.8432

> <Gold.Chemscore.Metal>
0.0000

> <Gold.Chemscore.Lipo>
75.1887

> <Gold.Chemscore.Internal_Hbond>
0.0000

> <Gold.Chemscore.DEClash>
0.0597

> <Gold.Chemscore.DEInternal>
1.7482

> <Gold.Chemscore.Rot>
2.4197

> <Gold.Chemscore.Internal.Correction>
   9.000000E+99

> <Gold.Chemscore.Hbonds>
donor molecule, donor type, donor heavy atom, donor atom, acceptor molecule, acceptor atom, score
      P1  H  6896  6908       L1    11  0.48
      P1  H  6931  6943       L1    13  0.69
      P1  H 10752 10765       L1     8  0.76

> <Gold.Chemscore.Hbond.Weighted>
-9.4964

> <Gold.Chemscore.Metal.Weighted>
-0.0000

> <Gold.Chemscore.Lipo.Weighted>
-8.7971

> <Gold.Chemscore.Internal_Hbond.Weighted>
0.0000

> <Gold.Chemscore.DEClash.Weighted>
0.0597

> <Gold.Chemscore.DEInternal.Weighted>
1.7482

> <Gold.Chemscore.Rot.Weighted>
6.1943

> <Gold.Chemscore.Internal.Correction.Weighted>
   9.000000E+99

> <Gold.Protein.RotatedTorsions>
[ 6907 6896 6895 6894 ] final  168.18 input  -60.11 | X-H torsion
[ 7974 7965 7964 7962 ] final   62.77 input  175.53 | X-H torsion
[ 8008 7997 7996 7995 ] final   30.97 input   59.86 | X-H torsion
[ 10167 10162 10161 10158 ] final  -17.59 input  -65.29 | X-H torsion
[ 10718 10713 10712 10709 ] final  162.25 input   66.30 | X-H torsion
[ 10763 10752 10751 10750 ] final -176.40 input  -60.55 | X-H torsion
[ 11005 11000 10999 10996 ] final    7.34 input  -57.11 | X-H torsion

> <Gold.Protein.ActiveResidues>
 VAL166  LYS551  ARG553  GLY616  TRP617  ASP618  TYR619  PRO620  LYS621  CYS622 
 ASP623  PHE694  ASN695  SER759  ASP760  ASP761  ALA762  ILE779  LEU786  VAL792 
 PHE793  MET794  SER795  GLU796  ALA797  LYS798  CYS799  TRP800  GLU811  SER814 

> <Gold.Protein.RotatedAtoms>
  151.8517  133.3441  159.3674 H   0  0  0  0  0  0  0  0  0  0  0  0  # atno 6907 bound_to 6896
  150.7204  134.5293  159.5701 H   0  0  0  0  0  0  0  0  0  0  0  0  # atno 6908 bound_to 6896
  152.2788  134.7852  160.0451 H   0  0  0  0  0  0  0  0  0  0  0  0  # atno 6909 bound_to 6896
  145.8696  139.3369  143.0770 H   0  0  0  0  0  0  0  0  0  0  0  0  # atno 7974 bound_to 7965
  155.0990  140.3227  155.4552 H   0  0  0  0  0  0  0  0  0  0  0  0  # atno 8008 bound_to 7997
  156.2722  140.2064  156.6063 H   0  0  0  0  0  0  0  0  0  0  0  0  # atno 8009 bound_to 7997
  154.6844  140.0523  157.0286 H   0  0  0  0  0  0  0  0  0  0  0  0  # atno 8010 bound_to 7997
  140.7249  143.5001  150.9881 H   0  0  0  0  0  0  0  0  0  0  0  0  # atno 10167 bound_to 10162
  157.1252  131.0502  151.2397 H   0  0  0  0  0  0  0  0  0  0  0  0  # atno 10718 bound_to 10713
  154.5729  135.2829  155.0810 H   0  0  0  0  0  0  0  0  0  0  0  0  # atno 10763 bound_to 10752
  154.2175  135.6397  153.5138 H   0  0  0  0  0  0  0  0  0  0  0  0  # atno 10764 bound_to 10752
  153.0063  135.5506  154.6358 H   0  0  0  0  0  0  0  0  0  0  0  0  # atno 10765 bound_to 10752
  140.5493  134.0299  155.7931 H   0  0  0  0  0  0  0  0  0  0  0  0  # atno 11005 bound_to 11000
  145.9153  140.9152  143.0433 LP  0  0  0  0  0  0  0  0  0  0  0  0  # atno 17320 bound_to 7965
  144.6726  140.1215  143.7449 LP  0  0  0  0  0  0  0  0  0  0  0  0  # atno 17321 bound_to 7965
  139.8709  143.7193  152.3166 LP  0  0  0  0  0  0  0  0  0  0  0  0  # atno 17342 bound_to 10162
  139.7442  144.7551  151.0606 LP  0  0  0  0  0  0  0  0  0  0  0  0  # atno 17343 bound_to 10162
  157.4441  130.7561  149.7095 LP  0  0  0  0  0  0  0  0  0  0  0  0  # atno 17370 bound_to 10713
  155.9820  130.4014  150.3442 LP  0  0  0  0  0  0  0  0  0  0  0  0  # atno 17371 bound_to 10713
  141.1181  133.9506  157.2783 LP  0  0  0  0  0  0  0  0  0  0  0  0  # atno 17394 bound_to 11000
  139.9463  135.0183  156.8863 LP  0  0  0  0  0  0  0  0  0  0  0  0  # atno 17395 bound_to 11000

$$$$
