AV-unprocessed.smi:1484|AV-procd|sdf|5997|dock5
  -GOLD-   22720 6 93D 1   1.00000     0.00000
 Structure written by MMmdl.
 38 39  0  0  0  0  0  0  0  0  1 V2000
  146.3962  130.4017  152.5083 C   0  0  0  0  0  0  0  0  0  0  0  0
  145.5377  131.6241  152.1543 C   0  0  2  0  0  0  0  0  0  0  0  0
  144.7033  131.3771  150.8830 C   0  0  0  0  0  0  0  0  0  0  0  0
  143.8452  132.6003  150.5234 C   0  0  0  0  0  0  0  0  0  0  0  0
  144.7077  133.8653  150.3705 C   0  0  0  0  0  0  0  0  0  0  0  0
  145.5682  134.1362  151.6196 C   0  0  1  0  0  0  0  0  0  0  0  0
  144.7226  134.5680  152.7313 N   0  0  0  0  0  0  0  0  0  0  0  0
  143.8177  135.5572  152.6857 C   0  0  0  0  0  0  0  0  0  0  0  0
  143.6018  136.2284  151.6756 O   0  0  0  0  0  0  0  0  0  0  0  0
  143.0636  135.8337  153.9947 C   0  0  0  0  0  0  0  0  0  0  0  0
  141.7941  136.5486  153.8008 N   0  0  0  0  0  0  0  0  0  0  0  0
  141.9297  137.9246  153.6955 N   0  0  0  0  0  0  0  0  0  0  0  0
  140.8883  138.6628  153.5086 C   0  0  0  0  0  0  0  0  0  0  0  0
  141.0679  140.0205  153.4067 O   0  0  0  0  0  0  0  0  0  0  0  0
  139.5673  138.0820  153.4097 C   0  0  0  0  0  0  0  0  0  0  0  0
  139.4448  136.7410  153.5182 C   0  0  0  0  0  0  0  0  0  0  0  0
  140.6056  135.8741  153.7292 C   0  0  0  0  0  0  0  0  0  0  0  0
  140.5230  134.6504  153.8314 O   0  0  0  0  0  0  0  0  0  0  0  0
  146.4030  132.8915  151.9933 C   0  0  0  0  0  0  0  0  0  0  0  0
  140.9646  140.2200  152.4891 H   0  0  0  0  0  0  0  0  0  0  0  0
  147.1111  130.1759  151.7163 H   0  0  0  0  0  0  0  0  0  0  0  0
  145.7767  129.5173  152.6605 H   0  0  0  0  0  0  0  0  0  0  0  0
  146.9591  130.5708  153.4268 H   0  0  0  0  0  0  0  0  0  0  0  0
  144.8483  131.7862  152.9840 H   0  0  0  0  0  0  0  0  0  0  0  0
  145.3641  131.1401  150.0480 H   0  0  0  0  0  0  0  0  0  0  0  0
  144.0590  130.5083  151.0221 H   0  0  0  0  0  0  0  0  0  0  0  0
  143.3007  132.4104  149.5980 H   0  0  0  0  0  0  0  0  0  0  0  0
  143.0911  132.7573  151.2957 H   0  0  0  0  0  0  0  0  0  0  0  0
  145.3623  133.7449  149.5063 H   0  0  0  0  0  0  0  0  0  0  0  0
  144.0752  134.7267  150.1528 H   0  0  0  0  0  0  0  0  0  0  0  0
  146.2514  134.9533  151.3804 H   0  0  0  0  0  0  0  0  0  0  0  0
  144.8375  134.0744  153.6047 H   0  0  0  0  0  0  0  0  0  0  0  0
  142.8847  134.8915  154.5163 H   0  0  0  0  0  0  0  0  0  0  0  0
  143.7225  136.4081  154.6484 H   0  0  0  0  0  0  0  0  0  0  0  0
  138.7046  138.7127  153.2531 H   0  0  0  0  0  0  0  0  0  0  0  0
  138.4646  136.2936  153.4463 H   0  0  0  0  0  0  0  0  0  0  0  0
  146.9686  133.0781  152.9072 H   0  0  0  0  0  0  0  0  0  0  0  0
  147.1462  132.7201  151.2131 H   0  0  0  0  0  0  0  0  0  0  0  0
  1  2  1  0  0  0  0
  1 21  1  0  0  0  0
  1 22  1  0  0  0  0
  1 23  1  0  0  0  0
  2 19  1  0  0  0  0
  2  3  1  0  0  0  0
  2 24  1  0  0  0  0
  3  4  1  0  0  0  0
  3 25  1  0  0  0  0
  3 26  1  0  0  0  0
  4  5  1  0  0  0  0
  4 27  1  0  0  0  0
  4 28  1  0  0  0  0
  5  6  1  0  0  0  0
  5 29  1  0  0  0  0
  5 30  1  0  0  0  0
  6  7  1  0  0  0  0
  6 19  1  0  0  0  0
  6 31  1  0  0  0  0
  7  8  1  0  0  0  0
  7 32  1  0  0  0  0
  8  9  2  0  0  0  0
  8 10  1  0  0  0  0
 10 33  1  0  0  0  0
 10 34  1  0  0  0  0
 10 11  1  0  0  0  0
 11 12  1  0  0  0  0
 11 17  1  0  0  0  0
 12 13  2  0  0  0  0
 13 14  1  0  0  0  0
 13 15  1  0  0  0  0
 14 20  1  0  0  0  0
 15 35  1  0  0  0  0
 15 16  2  0  0  0  0
 16 36  1  0  0  0  0
 16 17  1  0  0  0  0
 17 18  2  0  0  0  0
 19 37  1  0  0  0  0
 19 38  1  0  0  0  0
M  END
> <s_m_source_file>
AV-unprocessed.smi

> <i_m_source_file_index>
1484

> <i_lp_mmshare_version>
43012

> <i_f3d_flags>
0

> <s_epik_input>
W0NIM11bQ0BASF0xW0NIMl1bQ0gyXVtDSDJdW0NASF0oW0NIMl0xKVtOSF1DKD1PKVtDSDJdbjJbbkhdYyg9TylbY0hdW2NIXWMyPU8=

> <s_epik_cmdline>
J2VwaWtfcHl0aG9uJywgJy1waCcsICc3LjAnLCAnLXRuJywgJzgnLCAnLW1hJywgJzIwMCcsICctbWV0YWxfYmluZGluZycsICctaW1hZScsICc8aW5maWxlLm1hZT4nLCAnLW9tYWUnLCAnPG91dGZpbGUubWFlPic=

> <r_lp_tautomer_probability>
0.9996

> <r_epik_Ionization_Penalty>
2.10343

> <r_epik_Ionization_Penalty_Charging>
3.97871e-08

> <r_epik_Ionization_Penalty_Neutral>
2.10343

> <r_epik_State_Penalty>
1.67966

> <r_epik_Charging_Adjusted_Penalty>
1.67966

> <i_epik_Tot_Q>
0

> <i_epik_Tot_abs_Q>
0

> <r_epik_Metal_State_Penalty>
1.67966

> <b_epik_Metal_Only>
0

> <s_lp_Force_Field>
OPLS_2005

> <r_lp_Energy>
17.3635

> <b_lp_Chiralities_Consistent>
1

> <s_lp_Variant>
AV-unprocessed.smi:1484-5

> <Gold.Version>
5.8.1

> <Gold.Id.Protein>
6NUR|6NUR_protein|mol2

> <Gold.PLP.Fitness>
39.9195

> <Gold.PLP.PLP>
-35.2057

> <Gold.PLP.part.hbond>
-5.0000

> <Gold.PLP.part.metal>
0.0000

> <Gold.PLP.part.buried>
-3.8247

> <Gold.PLP.part.nonpolar>
-26.9425

> <Gold.PLP.part.repulsive>
1.6213

> <Gold.PLP.ligand.clash>
0.0000

> <Gold.PLP.ligand.torsion>
0.6819

> <Gold.PLP.Chemscore.Hbond>
2.0234

> <Gold.PLP.Chemscore.CHOScore>
0.0000

> <Gold.PLP.Chemscore.Metal>
0.0000

> <Gold.Chemscore.Hbonds>
donor molecule, donor type, donor heavy atom, donor atom, acceptor molecule, acceptor atom, score
      L1  H    14    20       P1 10160  1.00
      P1  H 10995 11001       L1    18  0.05
      P1  H 11000 11005       L1    18  1.00

> <Gold.PLP.Chemscore.Internal.Correction>
0.0075

> <Gold.Rescore>
     Score         DG    S(hbond)    S(metal)    S(lipo)     H(rot)  DE(clash)    DE(int)     intcor
     12.27     -13.84       1.85        0.00      67.71       2.24       0.22       1.34       ----

> <Gold.Chemscore.Fitness>
12.2745

> <Gold.Chemscore.DG>
-13.8372

> <Gold.Chemscore.ZeroCoef>
-5.4800

> <Gold.Chemscore.Hbond>
1.8487

> <Gold.Chemscore.Metal>
0.0000

> <Gold.Chemscore.Lipo>
67.7116

> <Gold.Chemscore.Internal_Hbond>
0.0000

> <Gold.Chemscore.DEClash>
0.2205

> <Gold.Chemscore.DEInternal>
1.3421

> <Gold.Chemscore.Rot>
2.2421

> <Gold.Chemscore.Internal.Correction>
   9.000000E+99

> <Gold.Chemscore.Hbonds>
donor molecule, donor type, donor heavy atom, donor atom, acceptor molecule, acceptor atom, score
      L1  H    14    20       P1 10160  1.00
      P1  H 10995 11001       L1    18  0.06
      P1  H 11000 11005       L1    18  0.65

> <Gold.Chemscore.Hbond.Weighted>
-6.1747

> <Gold.Chemscore.Metal.Weighted>
-0.0000

> <Gold.Chemscore.Lipo.Weighted>
-7.9223

> <Gold.Chemscore.Internal_Hbond.Weighted>
0.0000

> <Gold.Chemscore.DEClash.Weighted>
0.2205

> <Gold.Chemscore.DEInternal.Weighted>
1.3421

> <Gold.Chemscore.Rot.Weighted>
5.7398

> <Gold.Chemscore.Internal.Correction.Weighted>
   9.000000E+99

> <Gold.Protein.RotatedTorsions>
[ 6907 6896 6895 6894 ] final -152.26 input  -60.11 | X-H torsion
[ 7974 7965 7964 7962 ] final  145.38 input  175.53 | X-H torsion
[ 8008 7997 7996 7995 ] final  144.85 input   59.86 | X-H torsion
[ 10167 10162 10161 10158 ] final -124.81 input  -65.29 | X-H torsion
[ 10718 10713 10712 10709 ] final  154.84 input   66.30 | X-H torsion
[ 10763 10752 10751 10750 ] final  170.92 input  -60.55 | X-H torsion
[ 11005 11000 10999 10996 ] final   23.14 input  -57.11 | X-H torsion

> <Gold.Protein.ActiveResidues>
 VAL166  LYS551  ARG553  GLY616  TRP617  ASP618  TYR619  PRO620  LYS621  CYS622 
 ASP623  PHE694  ASN695  SER759  ASP760  ASP761  ALA762  ILE779  LEU786  VAL792 
 PHE793  MET794  SER795  GLU796  ALA797  LYS798  CYS799  TRP800  GLU811  SER814 

> <Gold.Protein.RotatedAtoms>
  151.2251  133.4481  159.2601 H   0  0  0  0  0  0  0  0  0  0  0  0  # atno 6907 bound_to 6896
  151.0847  134.9880  159.8384 H   0  0  0  0  0  0  0  0  0  0  0  0  # atno 6908 bound_to 6896
  152.5428  134.2189  159.8832 H   0  0  0  0  0  0  0  0  0  0  0  0  # atno 6909 bound_to 6896
  144.8757  139.5776  143.5866 H   0  0  0  0  0  0  0  0  0  0  0  0  # atno 7974 bound_to 7965
  156.2898  140.2225  156.5120 H   0  0  0  0  0  0  0  0  0  0  0  0  # atno 8008 bound_to 7997
  154.7600  140.0474  157.0987 H   0  0  0  0  0  0  0  0  0  0  0  0  # atno 8009 bound_to 7997
  155.0002  140.3101  155.4873 H   0  0  0  0  0  0  0  0  0  0  0  0  # atno 8010 bound_to 7997
  139.9889  143.5662  152.2350 H   0  0  0  0  0  0  0  0  0  0  0  0  # atno 10167 bound_to 10162
  157.2262  131.0729  151.1881 H   0  0  0  0  0  0  0  0  0  0  0  0  # atno 10718 bound_to 10713
  154.4045  135.2755  155.2076 H   0  0  0  0  0  0  0  0  0  0  0  0  # atno 10763 bound_to 10752
  154.4088  135.6027  153.5944 H   0  0  0  0  0  0  0  0  0  0  0  0  # atno 10764 bound_to 10752
  152.9831  135.5944  154.4317 H   0  0  0  0  0  0  0  0  0  0  0  0  # atno 10765 bound_to 10752
  140.3729  134.2003  155.7666 H   0  0  0  0  0  0  0  0  0  0  0  0  # atno 11005 bound_to 11000
  146.2961  139.7282  142.9126 LP  0  0  0  0  0  0  0  0  0  0  0  0  # atno 17320 bound_to 7965
  145.4047  141.0389  143.3051 LP  0  0  0  0  0  0  0  0  0  0  0  0  # atno 17321 bound_to 7965
  139.6355  144.7649  151.2447 LP  0  0  0  0  0  0  0  0  0  0  0  0  # atno 17342 bound_to 10162
  140.7462  143.6406  150.8338 LP  0  0  0  0  0  0  0  0  0  0  0  0  # atno 17343 bound_to 10162
  157.3525  130.7089  149.6450 LP  0  0  0  0  0  0  0  0  0  0  0  0  # atno 17370 bound_to 10713
  155.9678  130.4248  150.4627 LP  0  0  0  0  0  0  0  0  0  0  0  0  # atno 17371 bound_to 10713
  141.1949  133.8118  157.0739 LP  0  0  0  0  0  0  0  0  0  0  0  0  # atno 17394 bound_to 11000
  140.0538  134.9791  157.1183 LP  0  0  0  0  0  0  0  0  0  0  0  0  # atno 17395 bound_to 11000

$$$$
