#       Name:                AV-unprocessed.smi:1957
#       Creating user name   scv26
#       Creation time:       Fri Mar 27 10:06:13 2020


#       File generated by GOLD software.
#

@<TRIPOS>MOLECULE
AV-unprocessed.smi:1957
    51    52     1
SMALL
NO_CHARGES


@<TRIPOS>ATOM
      1 ****        -3.4856  -3.3545  -0.7590 C.3            1 S1                 0.0000
      2 ****        -2.0828  -3.1638  -0.7161 O.3            1 S1                 0.0000
      3 ****        -1.3706  -4.3850  -0.5987 C.3            1 S1                 0.0000
      4 ****         0.1375  -4.0927  -0.5419 C.3            1 S1                 0.0000
      5 ****         0.5090  -3.3795   0.6852 N.am           1 S1                 0.0000
      6 ****         0.6071  -2.0075   0.5297 N.2            1 S1                 0.0000
      7 ****         0.9122  -1.2578   1.5390 C.2            1 S1                 0.0000
      8 ****         1.0197   0.2217   1.4122 C.2            1 S1                 0.0000
      9 ****         1.3266   0.9373   2.3672 O.2            1 S1                 0.0000
     10 ****         0.7562   0.7111   0.1870 N.am           1 S1                 0.0000
     11 ****         0.8137   2.1173  -0.2099 C.3            1 S1                 0.0000
     12 ****        -0.4692   2.8649   0.2381 C.3            1 S1                 0.0000
     13 ****        -0.8538   4.1105  -0.5874 C.3            1 S1                 0.0000
     14 ****         0.2486   5.1793  -0.7319 C.3            1 S1                 0.0000
     15 ****         1.6106   4.7010  -1.2888 C.3            1 S1                 0.0000
     16 ****         1.5308   3.5049  -2.1260 N.am           1 S1                 0.0000
     17 ****         1.1906   2.2777  -1.6959 C.2            1 S1                 0.0000
     18 ****         1.1598   1.3152  -2.4618 O.2            1 S1                 0.0000
     19 ****         1.1635  -1.8379   2.8475 C.2            1 S1                 0.0000
     20 ****         1.0628  -3.1783   2.9844 C.2            1 S1                 0.0000
     21 ****         0.7112  -4.0479   1.8604 C.2            1 S1                 0.0000
     22 ****         0.6026  -5.2695   1.9629 O.2            1 S1                 0.0000
     23 ****        -3.9827  -2.3895  -0.8567 H              1 S1                 0.0000
     24 ****        -3.8469  -3.8285   0.1546 H              1 S1                 0.0000
     25 ****        -3.7745  -3.9702  -1.6117 H              1 S1                 0.0000
     26 ****        -1.6915  -4.9320   0.2893 H              1 S1                 0.0000
     27 ****        -1.5861  -5.0154  -1.4624 H              1 S1                 0.0000
     28 ****         0.6960  -5.0276  -0.6128 H              1 S1                 0.0000
     29 ****         0.4310  -3.5150  -1.4203 H              1 S1                 0.0000
     30 ****         0.5154   0.0513  -0.5394 H              1 S1                 0.0000
     31 ****         1.6507   2.5481   0.3413 H              1 S1                 0.0000
     32 ****        -1.3166   2.1787   0.2051 H              1 S1                 0.0000
     33 ****        -0.3638   3.1480   1.2861 H              1 S1                 0.0000
     34 ****        -1.1850   3.7988  -1.5789 H              1 S1                 0.0000
     35 ****        -1.7298   4.5729  -0.1317 H              1 S1                 0.0000
     36 ****        -0.1361   5.9594  -1.3899 H              1 S1                 0.0000
     37 ****         0.4130   5.6659   0.2300 H              1 S1                 0.0000
     38 ****         2.0650   5.5007  -1.8742 H              1 S1                 0.0000
     39 ****         2.3055   4.5171  -0.4688 H              1 S1                 0.0000
     40 ****         1.7653   3.6137  -3.1021 H              1 S1                 0.0000
     41 ****         1.4242  -1.2197   3.6943 H              1 S1                 0.0000
     42 ****         1.2464  -3.6234   3.9513 H              1 S1                 0.0000
     43 ****        -1.8617  -2.5870   0.0703 LP             1 S1                 0.0000
     44 ****        -1.7959  -2.7051  -1.5571 LP             1 S1                 0.0000
     45 ****         0.4416  -1.5944  -0.3658 LP             1 S1                 0.0000
     46 ****         1.5119   0.5271   3.2602 LP             1 S1                 0.0000
     47 ****         1.3903   1.9283   2.2493 LP             1 S1                 0.0000
     48 ****         0.8877   0.4147  -2.1225 LP             1 S1                 0.0000
     49 ****         1.4068   1.4334  -3.4235 LP             1 S1                 0.0000
     50 ****         0.3563  -5.8183   1.1641 LP             1 S1                 0.0000
     51 ****         0.7607  -5.7133   2.8450 LP             1 S1                 0.0000
@<TRIPOS>BOND
    1    1    2 1     
    2    1   23 1     
    3    1   24 1     
    4    1   25 1     
    5    2    3 1     
    6    3    4 1     
    7    3   26 1     
    8    3   27 1     
    9    4    5 1     
   10    4   28 1     
   11    4   29 1     
   12    5   21 am    
   13    5    6 1     
   14    6    7 2     
   15    7    8 1     
   16    7   19 1     
   17    8    9 2     
   18    8   10 am    
   19   10   11 1     
   20   10   30 1     
   21   11   17 1     
   22   11   12 1     
   23   11   31 1     
   24   12   13 1     
   25   12   32 1     
   26   12   33 1     
   27   13   14 1     
   28   13   34 1     
   29   13   35 1     
   30   14   15 1     
   31   14   36 1     
   32   14   37 1     
   33   15   16 1     
   34   15   38 1     
   35   15   39 1     
   36   16   17 am    
   37   16   40 1     
   38   17   18 2     
   39   19   20 2     
   40   19   41 1     
   41   20   21 1     
   42   20   42 1     
   43   21   22 2     
   44    2   43 1     
   45    2   44 1     
   46    6   45 1     
   47    9   46 1     
   48    9   47 1     
   49   18   48 1     
   50   18   49 1     
   51   22   50 1     
   52   22   51 1     
@<TRIPOS>SUBSTRUCTURE
      1 S1             1
@<TRIPOS>SET
LONE_PAIRS      STATIC     ATOMS    <user>   **** ""
9 43 44 45 46 47 48 49 50 51
DONOR_HYDROGENS      STATIC     ATOMS    <user>   **** ""
2 30 40
ATOM$BLUE        STATIC     ATOMS    COLORGROUP SYSTEM
9 43 44 45 46 47 48 49 50 51
ATOM$RED        STATIC     ATOMS    COLORGROUP SYSTEM
2 30 40
