AV-unprocessed.smi:497|AV-procd|sdf|2726|dock1
  -GOLD-   2262023173D 1   1.00000     0.00000
 Structure written by MMmdl.
 38 40  0  0  0  0  0  0  0  0  2 V2000
  149.5210  140.6607  154.7910 C   0  0  0  0  0  0  0  0  0  0  0  0
  150.7820  140.0222  154.6982 O   0  0  0  0  0  0  0  0  0  0  0  0
  151.6189  140.3173  155.8030 C   0  0  0  0  0  0  0  0  0  0  0  0
  151.0142  139.6938  157.0688 C   0  0  0  0  0  0  0  0  0  0  0  0
  151.8641  139.9199  158.2401 N   0  0  0  0  0  0  0  0  0  0  0  0
  152.5245  139.0333  159.0494 C   0  0  0  0  0  0  0  0  0  0  0  0
  152.5146  137.5302  158.8715 C   0  0  0  0  0  0  0  0  0  0  0  0
  152.9421  136.8328  160.0838 N   0  5  0  0  0  0  0  0  0  0  0  0
  154.2166  136.8453  160.5665 C   0  0  0  0  0  0  0  0  0  0  0  0
  155.2888  136.9779  159.9669 O   0  0  0  0  0  0  0  0  0  0  0  0
  154.2582  136.5990  162.0259 C   0  0  0  0  0  0  0  0  0  0  0  0
  153.3746  136.8941  163.0330 C   0  0  0  0  0  0  0  0  0  0  0  0
  153.9555  136.4209  164.2417 C   0  0  0  0  0  0  0  0  0  0  0  0
  155.1581  135.8786  163.8914 C   0  0  0  0  0  0  0  0  0  0  0  0
  155.3593  135.9839  162.5502 O   0  0  0  0  0  0  0  0  0  0  0  0
  153.2148  139.5860  160.0510 N   0  0  0  0  0  0  0  0  0  0  0  0
  152.9832  140.9363  159.8884 C   0  0  0  0  0  0  0  0  0  0  0  0
  153.4397  142.0430  160.6397 C   0  0  0  0  0  0  0  0  0  0  0  0
  153.0649  143.3539  160.2797 C   0  0  0  0  0  0  0  0  0  0  0  0
  152.2299  143.5760  159.1657 C   0  0  0  0  0  0  0  0  0  0  0  0
  151.7651  142.4865  158.4042 C   0  0  0  0  0  0  0  0  0  0  0  0
  152.1433  141.1793  158.7669 C   0  0  0  0  0  0  0  0  0  0  0  0
  148.9192  140.4118  153.9170 H   0  0  0  0  0  0  0  0  0  0  0  0
  149.6302  141.7452  154.8287 H   0  0  0  0  0  0  0  0  0  0  0  0
  148.9770  140.3318  155.6777 H   0  0  0  0  0  0  0  0  0  0  0  0
  152.6222  139.9261  155.6286 H   0  0  0  0  0  0  0  0  0  0  0  0
  151.7109  141.3973  155.9201 H   0  0  0  0  0  0  0  0  0  0  0  0
  150.0118  140.0826  157.2459 H   0  0  0  0  0  0  0  0  0  0  0  0
  150.8906  138.6195  156.9303 H   0  0  0  0  0  0  0  0  0  0  0  0
  151.5114  137.2480  158.5485 H   0  0  0  0  0  0  0  0  0  0  0  0
  153.1610  137.2763  158.0303 H   0  0  0  0  0  0  0  0  0  0  0  0
  152.4211  137.3877  162.9124 H   0  0  0  0  0  0  0  0  0  0  0  0
  153.5466  136.4733  165.2398 H   0  0  0  0  0  0  0  0  0  0  0  0
  155.9558  135.4013  164.4411 H   0  0  0  0  0  0  0  0  0  0  0  0
  154.0787  141.8819  161.4951 H   0  0  0  0  0  0  0  0  0  0  0  0
  153.4187  144.1923  160.8615 H   0  0  0  0  0  0  0  0  0  0  0  0
  151.9457  144.5827  158.8967 H   0  0  0  0  0  0  0  0  0  0  0  0
  151.1238  142.6530  157.5515 H   0  0  0  0  0  0  0  0  0  0  0  0
  1  2  1  0  0  0  0
  1 23  1  0  0  0  0
  1 24  1  0  0  0  0
  1 25  1  0  0  0  0
  2  3  1  0  0  0  0
  3  4  1  0  0  0  0
  3 26  1  0  0  0  0
  3 27  1  0  0  0  0
  4  5  1  0  0  0  0
  4 28  1  0  0  0  0
  4 29  1  0  0  0  0
  5 22  1  0  0  0  0
  5  6  1  0  0  0  0
  6  7  1  0  0  0  0
  6 16  2  0  0  0  0
  7  8  1  0  0  0  0
  7 30  1  0  0  0  0
  7 31  1  0  0  0  0
  8  9  1  0  0  0  0
  9 10  2  0  0  0  0
  9 11  1  0  0  0  0
 11 15  1  0  0  0  0
 11 12  2  0  0  0  0
 12 13  1  0  0  0  0
 12 32  1  0  0  0  0
 13 14  2  0  0  0  0
 13 33  1  0  0  0  0
 14 15  1  0  0  0  0
 14 34  1  0  0  0  0
 16 17  1  0  0  0  0
 17 22  2  0  0  0  0
 17 18  1  0  0  0  0
 18 19  2  0  0  0  0
 18 35  1  0  0  0  0
 19 20  1  0  0  0  0
 19 36  1  0  0  0  0
 20 21  2  0  0  0  0
 20 37  1  0  0  0  0
 21 22  1  0  0  0  0
 21 38  1  0  0  0  0
M  CHG  1   8  -1
M  END
> <s_m_source_file>
AV-unprocessed.smi

> <i_m_source_file_index>
497

> <i_lp_mmshare_version>
43012

> <i_f3d_flags>
0

> <s_epik_input>
W2NIXTFbY0hdW2NIXVtjSF1jKGMxMiluKFtDSDJdW0NIMl1PW0NIM10pYyhuMilbQ0gyXVtOSF1DKD1PKWMzW2NIXVtjSF1bY0hdbzM=

> <s_epik_cmdline>
J2VwaWtfcHl0aG9uJywgJy1waCcsICc3LjAnLCAnLXRuJywgJzgnLCAnLW1hJywgJzIwMCcsICctbWV0YWxfYmluZGluZycsICctaW1hZScsICc8aW5maWxlLm1hZT4nLCAnLW9tYWUnLCAnPG91dGZpbGUubWFlPic=

> <r_epik_Ionization_Penalty>
7.1745

> <r_epik_Ionization_Penalty_Charging>
6.27046

> <r_epik_Ionization_Penalty_Neutral>
0.90404

> <r_epik_State_Penalty>
6.33612

> <r_epik_Charging_Adjusted_Penalty>
12.6066

> <i_epik_Tot_Q>
-1

> <i_epik_Tot_abs_Q>
1

> <r_epik_Metal_State_Penalty>
2.33688

> <b_epik_Metal_Only>
1

> <s_lp_Force_Field>
OPLS_2005

> <r_lp_Energy>
18.2002

> <b_lp_Chiralities_Consistent>
1

> <s_lp_Variant>
AV-unprocessed.smi:497-3

> <Gold.Version>
5.8.1

> <Gold.Id.Protein>
6NUR|6NUR_protein|mol2

> <Gold.PLP.Fitness>
52.5848

> <Gold.PLP.PLP>
-45.1014

> <Gold.PLP.part.hbond>
-1.9739

> <Gold.PLP.part.metal>
0.0000

> <Gold.PLP.part.buried>
-5.3618

> <Gold.PLP.part.nonpolar>
-38.1556

> <Gold.PLP.part.repulsive>
0.0732

> <Gold.PLP.ligand.clash>
0.0000

> <Gold.PLP.ligand.torsion>
0.8186

> <Gold.PLP.Chemscore.Hbond>
3.0000

> <Gold.PLP.Chemscore.CHOScore>
0.0000

> <Gold.PLP.Chemscore.Metal>
0.0000

> <Gold.Chemscore.Hbonds>
donor molecule, donor type, donor heavy atom, donor atom, acceptor molecule, acceptor atom, score
      P1  H  6896  6909       L1     8  2.00
      P1  H  7989  7998       L1     2  0.95

> <Gold.PLP.Chemscore.Internal.Correction>
0.1207

> <Gold.Rescore>
     Score         DG    S(hbond)    S(metal)    S(lipo)     H(rot)  DE(clash)    DE(int)     intcor
     17.36     -19.98       1.65        0.00     116.92       1.83       0.21       2.40       ----

> <Gold.Chemscore.Fitness>
17.3638

> <Gold.Chemscore.DG>
-19.9771

> <Gold.Chemscore.ZeroCoef>
-5.4800

> <Gold.Chemscore.Hbond>
1.6503

> <Gold.Chemscore.Metal>
0.0000

> <Gold.Chemscore.Lipo>
116.9237

> <Gold.Chemscore.Internal_Hbond>
0.0000

> <Gold.Chemscore.DEClash>
0.2100

> <Gold.Chemscore.DEInternal>
2.4033

> <Gold.Chemscore.Rot>
1.8339

> <Gold.Chemscore.Internal.Correction>
   9.000000E+99

> <Gold.Chemscore.Hbonds>
donor molecule, donor type, donor heavy atom, donor atom, acceptor molecule, acceptor atom, score
      P1  H  6896  6909       L1     8  0.49
      P1  H  7989  7998       L1     2  0.11

> <Gold.Chemscore.Hbond.Weighted>
-5.5119

> <Gold.Chemscore.Metal.Weighted>
-0.0000

> <Gold.Chemscore.Lipo.Weighted>
-13.6801

> <Gold.Chemscore.Internal_Hbond.Weighted>
0.0000

> <Gold.Chemscore.DEClash.Weighted>
0.2100

> <Gold.Chemscore.DEInternal.Weighted>
2.4033

> <Gold.Chemscore.Rot.Weighted>
4.6948

> <Gold.Chemscore.Internal.Correction.Weighted>
   9.000000E+99

> <Gold.Protein.RotatedTorsions>
[ 6907 6896 6895 6894 ] final  146.92 input  -60.11 | X-H torsion
[ 7974 7965 7964 7962 ] final  151.32 input  175.53 | X-H torsion
[ 8008 7997 7996 7995 ] final  155.69 input   59.86 | X-H torsion
[ 10167 10162 10161 10158 ] final   21.03 input  -65.29 | X-H torsion
[ 10718 10713 10712 10709 ] final   34.09 input   66.30 | X-H torsion
[ 10763 10752 10751 10750 ] final  156.83 input  -60.55 | X-H torsion
[ 11005 11000 10999 10996 ] final  122.78 input  -57.11 | X-H torsion

> <Gold.Protein.ActiveResidues>
 VAL166  LYS551  ARG553  GLY616  TRP617  ASP618  TYR619  PRO620  LYS621  CYS622 
 ASP623  PHE694  ASN695  SER759  ASP760  ASP761  ALA762  ILE779  LEU786  VAL792 
 PHE793  MET794  SER795  GLU796  ALA797  LYS798  CYS799  TRP800  GLU811  SER814 

> <Gold.Protein.RotatedAtoms>
  152.1616  133.4585  159.4863 H   0  0  0  0  0  0  0  0  0  0  0  0  # atno 6907 bound_to 6896
  150.6907  134.2065  159.4351 H   0  0  0  0  0  0  0  0  0  0  0  0  # atno 6908 bound_to 6896
  151.9967  134.9950  160.0614 H   0  0  0  0  0  0  0  0  0  0  0  0  # atno 6909 bound_to 6896
  144.8301  139.6522  143.6062 H   0  0  0  0  0  0  0  0  0  0  0  0  # atno 7974 bound_to 7965
  156.2464  140.1932  156.6841 H   0  0  0  0  0  0  0  0  0  0  0  0  # atno 8008 bound_to 7997
  154.6300  140.0597  156.9747 H   0  0  0  0  0  0  0  0  0  0  0  0  # atno 8009 bound_to 7997
  155.1725  140.3269  155.4392 H   0  0  0  0  0  0  0  0  0  0  0  0  # atno 8010 bound_to 7997
  140.5458  143.9596  150.6547 H   0  0  0  0  0  0  0  0  0  0  0  0  # atno 10167 bound_to 10162
  157.3060  130.7374  149.6695 H   0  0  0  0  0  0  0  0  0  0  0  0  # atno 10718 bound_to 10713
  154.1906  135.2795  155.3023 H   0  0  0  0  0  0  0  0  0  0  0  0  # atno 10763 bound_to 10752
  154.5932  135.5553  153.7303 H   0  0  0  0  0  0  0  0  0  0  0  0  # atno 10764 bound_to 10752
  153.0113  135.6373  154.2044 H   0  0  0  0  0  0  0  0  0  0  0  0  # atno 10765 bound_to 10752
  139.9283  134.9641  156.8161 H   0  0  0  0  0  0  0  0  0  0  0  0  # atno 11005 bound_to 11000
  146.2604  139.6398  142.9365 LP  0  0  0  0  0  0  0  0  0  0  0  0  # atno 17320 bound_to 7965
  145.4914  141.0438  143.2591 LP  0  0  0  0  0  0  0  0  0  0  0  0  # atno 17321 bound_to 7965
  140.3009  143.3261  152.0972 LP  0  0  0  0  0  0  0  0  0  0  0  0  # atno 17342 bound_to 10162
  139.5007  144.6697  151.6272 LP  0  0  0  0  0  0  0  0  0  0  0  0  # atno 17343 bound_to 10162
  155.9674  130.4266  150.4705 LP  0  0  0  0  0  0  0  0  0  0  0  0  # atno 17370 bound_to 10713
  157.2694  131.0584  151.2269 LP  0  0  0  0  0  0  0  0  0  0  0  0  # atno 17371 bound_to 10713
  140.6273  133.9938  155.7645 LP  0  0  0  0  0  0  0  0  0  0  0  0  # atno 17394 bound_to 11000
  141.0856  133.9996  157.3319 LP  0  0  0  0  0  0  0  0  0  0  0  0  # atno 17395 bound_to 11000

$$$$
