#       Name:                AV-unprocessed.smi:1695
#       Creating user name   scv26
#       Creation time:       Fri Mar 27 07:56:04 2020


#       File generated by GOLD software.
#

@<TRIPOS>MOLECULE
AV-unprocessed.smi:1695
    56    58     1
SMALL
NO_CHARGES


@<TRIPOS>ATOM
      1 ****        -4.0797   3.7949   2.3137 C.3            1 S1                 0.0000
      2 ****        -3.5935   2.8313   1.2445 C.ar           1 S1                 0.0000
      3 ****        -3.2073   3.3548  -0.0097 C.ar           1 S1                 0.0000
      4 ****        -2.7708   2.4486  -0.9685 C.ar           1 S1                 0.0000
      5 ****        -2.3331   2.6474  -2.2793 N.pl3          1 S1                 1.0000
      6 ****        -2.0088   1.4488  -2.8372 C.2            1 S1                 0.0000
      7 ****        -2.2262   0.4862  -1.8996 N.pl3          1 S1                 0.0000
      8 ****        -2.0461  -0.9691  -1.9993 C.3            1 S1                 0.0000
      9 ****        -0.5765  -1.4051  -1.8394 C.3            1 S1                 0.0000
     10 ****        -0.5235  -2.8044  -2.0289 O.3            1 S1                 0.0000
     11 ****         0.0315  -1.0664  -0.4607 C.3            1 S1                 0.0000
     12 ****         1.4671  -1.4383  -0.3710 N.4            1 S1                 1.0000
     13 ****         2.3721  -0.4620  -1.0335 C.3            1 S1                 0.0000
     14 ****         3.8211  -0.9754  -1.0462 C.3            1 S1                 0.0000
     15 ****         4.3182  -1.2791   0.3804 C.3            1 S1                 0.0000
     16 ****         5.7415  -1.8528   0.3554 C.2            1 S1                 0.0000
     17 ****         6.6975  -1.1424   0.9584 N.am           1 S1                 0.0000
     18 ****         5.9764  -2.9237  -0.2008 O.2            1 S1                 0.0000
     19 ****         3.3377  -2.2557   1.0585 C.3            1 S1                 0.0000
     20 ****         1.8979  -1.7164   1.0229 C.3            1 S1                 0.0000
     21 ****        -2.7076   1.0636  -0.7172 C.ar           1 S1                 0.0000
     22 ****        -3.0821   0.5321   0.5156 C.ar           1 S1                 0.0000
     23 ****        -3.5319   1.4376   1.5033 C.ar           1 S1                 0.0000
     24 ****        -3.9524   0.8851   2.8547 C.3            1 S1                 0.0000
     25 ****        -4.0502   4.8273   1.9641 H              1 S1                 0.0000
     26 ****        -3.4549   3.7275   3.2046 H              1 S1                 0.0000
     27 ****        -5.1087   3.5679   2.5936 H              1 S1                 0.0000
     28 ****        -3.2529   4.4147  -0.2145 H              1 S1                 0.0000
     29 ****        -1.6481   1.2908  -3.8438 H              1 S1                 0.0000
     30 ****        -2.6893  -1.4685  -1.2750 H              1 S1                 0.0000
     31 ****        -2.4138  -1.2645  -2.9832 H              1 S1                 0.0000
     32 ****         0.0057  -0.9404  -2.6345 H              1 S1                 0.0000
     33 ****        -1.0927  -3.2201  -1.3988 H              1 S1                 0.0000
     34 ****        -0.0706  -0.0043  -0.2345 H              1 S1                 0.0000
     35 ****        -0.5386  -1.5950   0.3049 H              1 S1                 0.0000
     36 ****         2.0536  -0.2815  -2.0594 H              1 S1                 0.0000
     37 ****         2.3191   0.4966  -0.5149 H              1 S1                 0.0000
     38 ****         3.8777  -1.8715  -1.6665 H              1 S1                 0.0000
     39 ****         4.4663  -0.2329  -1.5179 H              1 S1                 0.0000
     40 ****         4.3266  -0.3477   0.9498 H              1 S1                 0.0000
     41 ****         7.6494  -1.4786   0.9703 H              1 S1                 0.0000
     42 ****         6.4626  -0.2669   1.4042 H              1 S1                 0.0000
     43 ****         3.3671  -3.2277   0.5627 H              1 S1                 0.0000
     44 ****         3.6366  -2.4289   2.0933 H              1 S1                 0.0000
     45 ****         1.8188  -0.8064   1.6198 H              1 S1                 0.0000
     46 ****         1.2325  -2.4527   1.4754 H              1 S1                 0.0000
     47 ****        -3.0378  -0.5272   0.7193 H              1 S1                 0.0000
     48 ****        -3.8762  -0.2023   2.8831 H              1 S1                 0.0000
     49 ****        -4.9870   1.1506   3.0729 H              1 S1                 0.0000
     50 ****        -3.3178   1.2847   3.6460 H              1 S1                 0.0000
     51 ****         1.5602  -2.3119  -0.8705 H              1 S1                 0.0000
     52 ****        -2.2663   3.5346  -2.7622 H              1 S1                 0.0000
     53 ****         0.4143  -3.1257  -1.8976 LP             1 S1                 0.0000
     54 ****        -0.8264  -3.0295  -2.9549 LP             1 S1                 0.0000
     55 ****         5.2363  -3.4303  -0.6430 LP             1 S1                 0.0000
     56 ****         6.9075  -3.2881  -0.2110 LP             1 S1                 0.0000
@<TRIPOS>BOND
    1    1    2 1     
    2    1   25 1     
    3    1   26 1     
    4    1   27 1     
    5    2   23 ar    
    6    2    3 ar    
    7    3    4 ar    
    8    3   28 1     
    9    4   21 ar    
   10    4    5 1     
   11    5    6 2     
   12    5   52 1     
   13    6    7 1     
   14    6   29 1     
   15    7    8 1     
   16    7   21 1     
   17    8    9 1     
   18    8   30 1     
   19    8   31 1     
   20    9   10 1     
   21    9   11 1     
   22    9   32 1     
   23   10   33 1     
   24   11   12 1     
   25   11   34 1     
   26   11   35 1     
   27   12   20 1     
   28   12   13 1     
   29   12   51 1     
   30   13   14 1     
   31   13   36 1     
   32   13   37 1     
   33   14   15 1     
   34   14   38 1     
   35   14   39 1     
   36   15   16 1     
   37   15   19 1     
   38   15   40 1     
   39   16   17 am    
   40   16   18 2     
   41   17   41 1     
   42   17   42 1     
   43   19   20 1     
   44   19   43 1     
   45   19   44 1     
   46   20   45 1     
   47   20   46 1     
   48   21   22 ar    
   49   22   23 ar    
   50   22   47 1     
   51   23   24 1     
   52   24   48 1     
   53   24   49 1     
   54   24   50 1     
   55   10   53 1     
   56   10   54 1     
   57   18   55 1     
   58   18   56 1     
@<TRIPOS>SUBSTRUCTURE
      1 S1             1
@<TRIPOS>SET
LONE_PAIRS      STATIC     ATOMS    <user>   **** ""
4 53 54 55 56
DONOR_HYDROGENS      STATIC     ATOMS    <user>   **** ""
5 52 33 51 41 42
ATOM$BLUE        STATIC     ATOMS    COLORGROUP SYSTEM
4 53 54 55 56
ATOM$RED        STATIC     ATOMS    COLORGROUP SYSTEM
5 52 33 51 41 42
