AV-unprocessed.smi:1793|AV-procd|sdf|7229|dock2
  -GOLD-   22720 8473D 1   1.00000     0.00000
 Structure written by MMmdl.
 47 49  0  0  0  0  0  0  0  0  2 V2000
  150.5529  136.4414  156.6837 C   0  0  0  0  0  0  0  0  0  0  0  0
  150.9499  136.5839  155.2072 C   0  0  1  0  0  0  0  0  0  0  0  0
  150.0850  135.7267  154.3982 N   0  0  0  0  0  0  0  0  0  0  0  0
  149.9173  134.4058  154.5549 C   0  0  0  0  0  0  0  0  0  0  0  0
  150.4854  133.7387  155.4189 O   0  0  0  0  0  0  0  0  0  0  0  0
  149.0421  133.9206  153.6588 N   0  0  0  0  0  0  0  0  0  0  0  0
  148.5426  132.5916  153.5588 C   0  0  0  0  0  0  0  0  0  0  0  0
  149.1676  131.5225  154.2512 C   0  0  0  0  0  0  0  0  0  0  0  0
  148.7007  130.2058  154.0812 C   0  0  0  0  0  0  0  0  0  0  0  0
  147.6253  129.9736  153.2074 C   0  0  0  0  0  0  0  0  0  0  0  0
  147.0596  131.0093  152.5540 N   0  3  0  0  0  0  0  0  0  0  0  0
  147.4526  132.3011  152.6867 C   0  0  0  0  0  0  0  0  0  0  0  0
  146.7538  133.2793  151.9417 N   0  0  0  0  0  0  0  0  0  0  0  0
  145.8475  132.8841  150.8697 C   0  0  0  0  0  0  0  0  0  0  0  0
  145.0410  134.1393  150.5480 C   0  0  0  0  0  0  0  0  0  0  0  0
  144.9035  134.8009  151.9158 C   0  0  0  0  0  0  0  0  0  0  0  0
  146.2199  134.4565  152.6199 C   0  0  0  0  0  0  0  0  0  0  0  0
  150.8504  138.0436  154.7228 C   0  0  2  0  0  0  0  0  0  0  0  0
  151.5610  139.0663  155.6098 C   0  0  0  0  0  0  0  0  0  0  0  0
  150.8487  140.3671  155.2798 C   0  0  0  0  0  0  0  0  0  0  0  0
  149.5218  139.9174  154.6603 C   0  0  0  0  0  0  0  0  0  0  0  0
  149.5078  138.5001  154.7726 O   0  0  0  0  0  0  0  0  0  0  0  0
  151.1980  137.0435  157.3241 H   0  0  0  0  0  0  0  0  0  0  0  0
  150.6387  135.4059  157.0151 H   0  0  0  0  0  0  0  0  0  0  0  0
  149.5243  136.7620  156.8525 H   0  0  0  0  0  0  0  0  0  0  0  0
  151.9895  136.2651  155.1136 H   0  0  0  0  0  0  0  0  0  0  0  0
  149.5725  136.1830  153.6579 H   0  0  0  0  0  0  0  0  0  0  0  0
  148.5911  134.6019  153.0658 H   0  0  0  0  0  0  0  0  0  0  0  0
  150.0175  131.6893  154.8958 H   0  0  0  0  0  0  0  0  0  0  0  0
  149.1706  129.3854  154.6038 H   0  0  0  0  0  0  0  0  0  0  0  0
  147.2055  128.9983  153.0079 H   0  0  0  0  0  0  0  0  0  0  0  0
  146.3929  132.5194  149.9990 H   0  0  0  0  0  0  0  0  0  0  0  0
  145.1758  132.0955  151.2112 H   0  0  0  0  0  0  0  0  0  0  0  0
  145.6075  134.7862  149.8767 H   0  0  0  0  0  0  0  0  0  0  0  0
  144.0811  133.9201  150.0796 H   0  0  0  0  0  0  0  0  0  0  0  0
  144.7243  135.8746  151.8543 H   0  0  0  0  0  0  0  0  0  0  0  0
  144.0697  134.3521  152.4572 H   0  0  0  0  0  0  0  0  0  0  0  0
  146.0656  134.2854  153.6860 H   0  0  0  0  0  0  0  0  0  0  0  0
  146.9282  135.2771  152.5049 H   0  0  0  0  0  0  0  0  0  0  0  0
  151.2140  138.1309  153.6969 H   0  0  0  0  0  0  0  0  0  0  0  0
  151.4068  138.8218  156.6618 H   0  0  0  0  0  0  0  0  0  0  0  0
  152.6352  139.1132  155.4285 H   0  0  0  0  0  0  0  0  0  0  0  0
  150.7005  140.9769  156.1716 H   0  0  0  0  0  0  0  0  0  0  0  0
  151.4210  140.9554  154.5616 H   0  0  0  0  0  0  0  0  0  0  0  0
  148.6585  140.3515  155.1647 H   0  0  0  0  0  0  0  0  0  0  0  0
  149.4759  140.1966  153.6069 H   0  0  0  0  0  0  0  0  0  0  0  0
  146.2818  130.8077  151.9254 H   0  0  0  0  0  0  0  0  0  0  0  0
  1  2  1  0  0  0  0
  1 23  1  0  0  0  0
  1 24  1  0  0  0  0
  1 25  1  0  0  0  0
  2  3  1  0  0  0  0
  2 18  1  0  0  0  0
  2 26  1  0  0  0  0
  3  4  1  0  0  0  0
  3 27  1  0  0  0  0
  4  5  2  0  0  0  0
  4  6  1  0  0  0  0
  6  7  1  0  0  0  0
  6 28  1  0  0  0  0
  7 12  1  0  0  0  0
  7  8  2  0  0  0  0
  8  9  1  0  0  0  0
  8 29  1  0  0  0  0
  9 10  2  0  0  0  0
  9 30  1  0  0  0  0
 10 11  1  0  0  0  0
 10 31  1  0  0  0  0
 11 12  2  0  0  0  0
 11 47  1  0  0  0  0
 12 13  1  0  0  0  0
 13 17  1  0  0  0  0
 13 14  1  0  0  0  0
 14 15  1  0  0  0  0
 14 32  1  0  0  0  0
 14 33  1  0  0  0  0
 15 16  1  0  0  0  0
 15 34  1  0  0  0  0
 15 35  1  0  0  0  0
 16 17  1  0  0  0  0
 16 36  1  0  0  0  0
 16 37  1  0  0  0  0
 17 38  1  0  0  0  0
 17 39  1  0  0  0  0
 18 22  1  0  0  0  0
 18 19  1  0  0  0  0
 18 40  1  0  0  0  0
 19 20  1  0  0  0  0
 19 41  1  0  0  0  0
 19 42  1  0  0  0  0
 20 21  1  0  0  0  0
 20 43  1  0  0  0  0
 20 44  1  0  0  0  0
 21 22  1  0  0  0  0
 21 45  1  0  0  0  0
 21 46  1  0  0  0  0
M  CHG  1  11   1
M  END
> <s_m_source_file>
AV-unprocessed.smi

> <i_m_source_file_index>
1793

> <i_lp_mmshare_version>
43012

> <i_f3d_flags>
0

> <s_epik_input>
TzFbQ0gyXVtDSDJdW0NIMl1bQ0BIXTFbQ0BIXShbQ0gzXSlbTkhdQyg9TylbTkhdYzJbY0hdW2NIXVtjSF1uYzJOM1tDSDJdW0NIMl1bQ0gyXVtDSDJdMw==

> <s_epik_cmdline>
J2VwaWtfcHl0aG9uJywgJy1waCcsICc3LjAnLCAnLXRuJywgJzgnLCAnLW1hJywgJzIwMCcsICctbWV0YWxfYmluZGluZycsICctaW1hZScsICc8aW5maWxlLm1hZT4nLCAnLW9tYWUnLCAnPG91dGZpbGUubWFlPic=

> <r_lp_tautomer_probability>
0.999994

> <r_epik_Ionization_Penalty>
1.11092

> <r_epik_Ionization_Penalty_Charging>
1.1109

> <r_epik_Ionization_Penalty_Neutral>
1.9363e-05

> <r_epik_State_Penalty>
1.16888

> <r_epik_Charging_Adjusted_Penalty>
2.27978

> <i_epik_Tot_Q>
1

> <i_epik_Tot_abs_Q>
1

> <r_epik_Metal_State_Penalty>
1.25472

> <b_epik_Metal_Only>
0

> <s_lp_Force_Field>
OPLS_2005

> <r_lp_Energy>
51.9838

> <b_lp_Chiralities_Consistent>
1

> <s_lp_Variant>
AV-unprocessed.smi:1793-6

> <Gold.Version>
5.8.1

> <Gold.Id.Protein>
6NUR|6NUR_protein|mol2

> <Gold.PLP.Fitness>
40.6655

> <Gold.PLP.PLP>
-35.3026

> <Gold.PLP.part.hbond>
-3.7607

> <Gold.PLP.part.metal>
0.0000

> <Gold.PLP.part.buried>
-1.3673

> <Gold.PLP.part.nonpolar>
-30.7476

> <Gold.PLP.part.repulsive>
0.4169

> <Gold.PLP.ligand.clash>
0.0000

> <Gold.PLP.ligand.torsion>
0.2994

> <Gold.PLP.Chemscore.Hbond>
1.8400

> <Gold.PLP.Chemscore.CHOScore>
0.0000

> <Gold.PLP.Chemscore.Metal>
0.0000

> <Gold.Chemscore.Hbonds>
donor molecule, donor type, donor heavy atom, donor atom, acceptor molecule, acceptor atom, score
      L1  H     3    27       P1  7948  0.98
      L1  H     6    28       P1  7948  0.85

> <Gold.PLP.Chemscore.Internal.Correction>
0.4416

> <Gold.Rescore>
     Score         DG    S(hbond)    S(metal)    S(lipo)     H(rot)  DE(clash)    DE(int)     intcor
     12.08     -14.77       1.14        0.00      77.18       1.38       0.14       2.55       ----

> <Gold.Chemscore.Fitness>
12.0797

> <Gold.Chemscore.DG>
-14.7709

> <Gold.Chemscore.ZeroCoef>
-5.4800

> <Gold.Chemscore.Hbond>
1.1360

> <Gold.Chemscore.Metal>
0.0000

> <Gold.Chemscore.Lipo>
77.1799

> <Gold.Chemscore.Internal_Hbond>
0.0000

> <Gold.Chemscore.DEClash>
0.1387

> <Gold.Chemscore.DEInternal>
2.5525

> <Gold.Chemscore.Rot>
1.3802

> <Gold.Chemscore.Internal.Correction>
   9.000000E+99

> <Gold.Chemscore.Hbonds>
donor molecule, donor type, donor heavy atom, donor atom, acceptor molecule, acceptor atom, score
      L1  H     3    27       P1  7948  0.47
      L1  H     6    28       P1  7948  0.20

> <Gold.Chemscore.Hbond.Weighted>
-3.7941

> <Gold.Chemscore.Metal.Weighted>
-0.0000

> <Gold.Chemscore.Lipo.Weighted>
-9.0300

> <Gold.Chemscore.Internal_Hbond.Weighted>
0.0000

> <Gold.Chemscore.DEClash.Weighted>
0.1387

> <Gold.Chemscore.DEInternal.Weighted>
2.5525

> <Gold.Chemscore.Rot.Weighted>
3.5332

> <Gold.Chemscore.Internal.Correction.Weighted>
   9.000000E+99

> <Gold.Protein.RotatedTorsions>
[ 6907 6896 6895 6894 ] final   52.23 input  -60.11 | X-H torsion
[ 7974 7965 7964 7962 ] final  126.81 input  175.53 | X-H torsion
[ 8008 7997 7996 7995 ] final  -50.82 input   59.86 | X-H torsion
[ 10167 10162 10161 10158 ] final  -75.86 input  -65.29 | X-H torsion
[ 10718 10713 10712 10709 ] final -147.59 input   66.30 | X-H torsion
[ 10763 10752 10751 10750 ] final   -5.47 input  -60.55 | X-H torsion
[ 11005 11000 10999 10996 ] final  -39.78 input  -57.11 | X-H torsion

> <Gold.Protein.ActiveResidues>
 VAL166  LYS551  ARG553  GLY616  TRP617  ASP618  TYR619  PRO620  LYS621  CYS622 
 ASP623  PHE694  ASN695  SER759  ASP760  ASP761  ALA762  ILE779  LEU786  VAL792 
 PHE793  MET794  SER795  GLU796  ALA797  LYS798  CYS799  TRP800  GLU811  SER814 

> <Gold.Protein.RotatedAtoms>
  152.3211  134.7379  160.0313 H   0  0  0  0  0  0  0  0  0  0  0  0  # atno 6907 bound_to 6896
  151.7827  133.3346  159.3484 H   0  0  0  0  0  0  0  0  0  0  0  0  # atno 6908 bound_to 6896
  150.7370  134.5847  159.6001 H   0  0  0  0  0  0  0  0  0  0  0  0  # atno 6909 bound_to 6896
  145.0575  139.3832  143.5022 H   0  0  0  0  0  0  0  0  0  0  0  0  # atno 7974 bound_to 7965
  154.4070  140.1263  156.4728 H   0  0  0  0  0  0  0  0  0  0  0  0  # atno 8008 bound_to 7997
  155.7163  140.3493  155.4976 H   0  0  0  0  0  0  0  0  0  0  0  0  # atno 8009 bound_to 7997
  155.9255  140.1060  157.1163 H   0  0  0  0  0  0  0  0  0  0  0  0  # atno 8010 bound_to 7997
  140.4906  143.2381  151.7913 H   0  0  0  0  0  0  0  0  0  0  0  0  # atno 10167 bound_to 10162
  156.4095  130.7974  151.2191 H   0  0  0  0  0  0  0  0  0  0  0  0  # atno 10718 bound_to 10713
  153.3990  135.7004  153.6440 H   0  0  0  0  0  0  0  0  0  0  0  0  # atno 10763 bound_to 10752
  153.4981  135.3658  155.2526 H   0  0  0  0  0  0  0  0  0  0  0  0  # atno 10764 bound_to 10752
  154.8709  135.4105  154.3321 H   0  0  0  0  0  0  0  0  0  0  0  0  # atno 10765 bound_to 10752
  141.0127  133.6900  156.2233 H   0  0  0  0  0  0  0  0  0  0  0  0  # atno 11005 bound_to 11000
  146.3522  140.0257  142.8654 LP  0  0  0  0  0  0  0  0  0  0  0  0  # atno 17320 bound_to 7965
  145.1449  140.9592  143.4466 LP  0  0  0  0  0  0  0  0  0  0  0  0  # atno 17321 bound_to 7965
  139.4850  144.4654  151.9490 LP  0  0  0  0  0  0  0  0  0  0  0  0  # atno 17342 bound_to 10162
  140.3741  144.2819  150.5916 LP  0  0  0  0  0  0  0  0  0  0  0  0  # atno 17343 bound_to 10162
  157.7506  131.0262  150.3952 LP  0  0  0  0  0  0  0  0  0  0  0  0  # atno 17370 bound_to 10713
  156.4247  130.3960  149.6801 LP  0  0  0  0  0  0  0  0  0  0  0  0  # atno 17371 bound_to 10713
  140.6706  134.4871  157.5587 LP  0  0  0  0  0  0  0  0  0  0  0  0  # atno 17394 bound_to 11000
  139.9099  134.8367  156.1566 LP  0  0  0  0  0  0  0  0  0  0  0  0  # atno 17395 bound_to 11000

$$$$
