AV-unprocessed.smi:1414|AV-procd|sdf|5760|dock9
  -GOLD-   22720 5403D 1   1.00000     0.00000
 Structure written by MMmdl.
 45 46  0  0  0  0  0  0  0  0  1 V2000
  150.4590  139.8742  155.3163 C   0  0  0  0  0  0  0  0  0  0  0  0
  151.9360  139.6329  155.6720 C   0  0  2  0  0  0  0  0  0  0  0  0
  152.3672  138.1468  155.6588 C   0  0  0  0  0  0  0  0  0  0  0  0
  152.1585  137.4637  156.9489 N   0  0  0  0  0  0  0  0  0  0  0  0
  151.2791  135.9679  157.0489 S   0  0  0  0  0  0  0  0  0  0  0  0
  152.2652  134.8768  157.0152 O   0  0  0  0  0  0  0  0  0  0  0  0
  150.3419  136.0754  158.1779 O   0  0  0  0  0  0  0  0  0  0  0  0
  150.3161  135.9193  155.4753 C   0  0  0  0  0  0  0  0  0  0  0  0
  149.4350  134.6633  155.3766 C   0  0  0  0  0  0  0  0  0  0  0  0
  148.7494  134.5902  154.0922 N   0  0  0  0  0  0  0  0  0  0  0  0
  147.9025  133.6178  153.7272 C   0  0  0  0  0  0  0  0  0  0  0  0
  147.6139  132.6629  154.4475 O   0  0  0  0  0  0  0  0  0  0  0  0
  147.4403  133.8172  152.4814 N   0  0  0  0  0  0  0  0  0  0  0  0
  146.4922  133.0424  151.7613 C   0  0  0  0  0  0  0  0  0  0  0  0
  146.0909  131.8067  152.3089 C   0  0  0  0  0  0  0  0  0  0  0  0
  145.1701  131.0102  151.6025 C   0  0  0  0  0  0  0  0  0  0  0  0
  144.6909  131.4792  150.3644 C   0  0  0  0  0  0  0  0  0  0  0  0
  145.0756  132.6521  149.8183 N   0  0  0  0  0  0  0  0  0  0  0  0
  145.9578  133.4123  150.5021 C   0  0  0  0  0  0  0  0  0  0  0  0
  152.4583  138.2505  158.1528 C   0  0  0  0  0  0  0  0  0  0  0  0
  151.8259  139.6461  158.0624 C   0  0  1  0  0  0  0  0  0  0  0  0
  152.1948  140.5230  159.2634 C   0  0  0  0  0  0  0  0  0  0  0  0
  152.2978  140.2881  156.8849 O   0  0  0  0  0  0  0  0  0  0  0  0
  150.2130  139.4312  154.3511 H   0  0  0  0  0  0  0  0  0  0  0  0
  150.2503  140.9421  155.2494 H   0  0  0  0  0  0  0  0  0  0  0  0
  149.7754  139.4576  156.0506 H   0  0  0  0  0  0  0  0  0  0  0  0
  152.5099  140.1314  154.8902 H   0  0  0  0  0  0  0  0  0  0  0  0
  151.8638  137.6117  154.8540 H   0  0  0  0  0  0  0  0  0  0  0  0
  153.4334  138.0939  155.4366 H   0  0  0  0  0  0  0  0  0  0  0  0
  149.7433  136.8392  155.3889 H   0  0  0  0  0  0  0  0  0  0  0  0
  151.0375  135.9176  154.6581 H   0  0  0  0  0  0  0  0  0  0  0  0
  150.0486  133.7683  155.4795 H   0  0  0  0  0  0  0  0  0  0  0  0
  148.7079  134.6335  156.1878 H   0  0  0  0  0  0  0  0  0  0  0  0
  148.9369  135.3315  153.4328 H   0  0  0  0  0  0  0  0  0  0  0  0
  147.8441  134.5908  151.9742 H   0  0  0  0  0  0  0  0  0  0  0  0
  146.4789  131.4722  153.2601 H   0  0  0  0  0  0  0  0  0  0  0  0
  144.8403  130.0616  151.9994 H   0  0  0  0  0  0  0  0  0  0  0  0
  143.9841  130.8941  149.7949 H   0  0  0  0  0  0  0  0  0  0  0  0
  146.2492  134.3236  150.0035 H   0  0  0  0  0  0  0  0  0  0  0  0
  152.1073  137.7309  159.0438 H   0  0  0  0  0  0  0  0  0  0  0  0
  153.5413  138.3357  158.2471 H   0  0  0  0  0  0  0  0  0  0  0  0
  150.7411  139.5587  158.0353 H   0  0  0  0  0  0  0  0  0  0  0  0
  151.8474  140.0767  160.1956 H   0  0  0  0  0  0  0  0  0  0  0  0
  151.7396  141.5101  159.1787 H   0  0  0  0  0  0  0  0  0  0  0  0
  153.2741  140.6586  159.3380 H   0  0  0  0  0  0  0  0  0  0  0  0
  1  2  1  0  0  0  0
  1 24  1  0  0  0  0
  1 25  1  0  0  0  0
  1 26  1  0  0  0  0
  2 23  1  0  0  0  0
  2  3  1  0  0  0  0
  2 27  1  0  0  0  0
  3  4  1  0  0  0  0
  3 28  1  0  0  0  0
  3 29  1  0  0  0  0
  4  5  1  0  0  0  0
  4 20  1  0  0  0  0
  5  6  2  0  0  0  0
  5  7  2  0  0  0  0
  5  8  1  0  0  0  0
  8  9  1  0  0  0  0
  8 30  1  0  0  0  0
  8 31  1  0  0  0  0
  9 10  1  0  0  0  0
  9 32  1  0  0  0  0
  9 33  1  0  0  0  0
 10 11  1  0  0  0  0
 10 34  1  0  0  0  0
 11 12  2  0  0  0  0
 11 13  1  0  0  0  0
 13 14  1  0  0  0  0
 13 35  1  0  0  0  0
 14 19  1  0  0  0  0
 14 15  2  0  0  0  0
 15 16  1  0  0  0  0
 15 36  1  0  0  0  0
 16 17  2  0  0  0  0
 16 37  1  0  0  0  0
 17 18  1  0  0  0  0
 17 38  1  0  0  0  0
 18 19  2  0  0  0  0
 19 39  1  0  0  0  0
 20 21  1  0  0  0  0
 20 40  1  0  0  0  0
 20 41  1  0  0  0  0
 21 22  1  0  0  0  0
 21 23  1  0  0  0  0
 21 42  1  0  0  0  0
 22 43  1  0  0  0  0
 22 44  1  0  0  0  0
 22 45  1  0  0  0  0
M  END
> <s_m_source_file>
AV-unprocessed.smi

> <i_m_source_file_index>
1414

> <i_lp_mmshare_version>
43012

> <i_f3d_flags>
0

> <s_epik_input>
W0NIM11bQ0BASF0xW0NIMl1OKFtDSDJdW0NASF0oTzEpW0NIM10pUyg9TykoPU8pW0NIMl1bQ0gyXVtOSF1DKD1PKVtOSF1jMltjSF1bY0hdW2NIXW5bY0hdMg==

> <s_epik_cmdline>
J2VwaWtfcHl0aG9uJywgJy1waCcsICc3LjAnLCAnLXRuJywgJzgnLCAnLW1hJywgJzIwMCcsICctbWV0YWxfYmluZGluZycsICctaW1hZScsICc8aW5maWxlLm1hZT4nLCAnLW9tYWUnLCAnPG91dGZpbGUubWFlPic=

> <r_epik_Ionization_Penalty>
0.00437531

> <r_epik_Ionization_Penalty_Charging>
0

> <r_epik_Ionization_Penalty_Neutral>
0.00437531

> <r_epik_State_Penalty>
0.00312896

> <r_epik_Charging_Adjusted_Penalty>
0.00312896

> <i_epik_Tot_Q>
0

> <i_epik_Tot_abs_Q>
0

> <r_epik_Metal_State_Penalty>
-0

> <b_epik_Metal_Only>
0

> <s_lp_Force_Field>
OPLS_2005

> <r_lp_Energy>
6.94025

> <b_lp_Chiralities_Consistent>
1

> <s_lp_Variant>
AV-unprocessed.smi:1414-1

> <Gold.Version>
5.8.1

> <Gold.Id.Protein>
6NUR|6NUR_protein|mol2

> <Gold.PLP.Fitness>
52.4657

> <Gold.PLP.PLP>
-35.7255

> <Gold.PLP.part.hbond>
-5.5882

> <Gold.PLP.part.metal>
0.0000

> <Gold.PLP.part.buried>
-3.7593

> <Gold.PLP.part.nonpolar>
-26.9445

> <Gold.PLP.part.repulsive>
0.1992

> <Gold.PLP.ligand.clash>
0.0000

> <Gold.PLP.ligand.torsion>
1.2408

> <Gold.PLP.Chemscore.Hbond>
4.7520

> <Gold.PLP.Chemscore.CHOScore>
0.9510

> <Gold.PLP.Chemscore.Metal>
0.0000

> <Gold.Chemscore.Hbonds>
donor molecule, donor type, donor heavy atom, donor atom, acceptor molecule, acceptor atom, score
      L1  H    10    34       P1  7948  1.00
      L1  H    13    35       P1  7948  1.00
      P1  H  6896  6908       L1     7  0.83
      P1  H  7997  8010       L1    23  0.66
      P1  H 10752 10763       L1     6  0.75
      L1  C    19    39       P1  7921  0.87

> <Gold.PLP.Chemscore.Internal.Correction>
2.1129

> <Gold.Rescore>
     Score         DG    S(hbond)    S(metal)    S(lipo)     H(rot)  DE(clash)    DE(int)     intcor
     19.01     -21.72       3.37        0.00      77.03       1.57       0.01       2.70       ----

> <Gold.Chemscore.Fitness>
19.0098

> <Gold.Chemscore.DG>
-21.7246

> <Gold.Chemscore.ZeroCoef>
-5.4800

> <Gold.Chemscore.Hbond>
3.3676

> <Gold.Chemscore.Metal>
0.0000

> <Gold.Chemscore.Lipo>
77.0334

> <Gold.Chemscore.Internal_Hbond>
0.0000

> <Gold.Chemscore.DEClash>
0.0126

> <Gold.Chemscore.DEInternal>
2.7022

> <Gold.Chemscore.Rot>
1.5687

> <Gold.Chemscore.Internal.Correction>
   9.000000E+99

> <Gold.Chemscore.Hbonds>
donor molecule, donor type, donor heavy atom, donor atom, acceptor molecule, acceptor atom, score
      L1  H    10    34       P1  7948  0.65
      L1  H    13    35       P1  7948  0.29
      P1  H  6896  6908       L1     7  0.63
      P1  H  7997  8010       L1    23  0.08
      P1  H 10752 10763       L1     6  0.29

> <Gold.Chemscore.Hbond.Weighted>
-11.2476

> <Gold.Chemscore.Metal.Weighted>
-0.0000

> <Gold.Chemscore.Lipo.Weighted>
-9.0129

> <Gold.Chemscore.Internal_Hbond.Weighted>
0.0000

> <Gold.Chemscore.DEClash.Weighted>
0.0126

> <Gold.Chemscore.DEInternal.Weighted>
2.7022

> <Gold.Chemscore.Rot.Weighted>
4.0160

> <Gold.Chemscore.Internal.Correction.Weighted>
   9.000000E+99

> <Gold.Protein.RotatedTorsions>
[ 6907 6896 6895 6894 ] final -176.96 input  -60.11 | X-H torsion
[ 7974 7965 7964 7962 ] final   68.62 input  175.53 | X-H torsion
[ 8008 7997 7996 7995 ] final   59.27 input   59.86 | X-H torsion
[ 10167 10162 10161 10158 ] final  143.33 input  -65.29 | X-H torsion
[ 10718 10713 10712 10709 ] final -124.70 input   66.30 | X-H torsion
[ 10763 10752 10751 10750 ] final  111.61 input  -60.55 | X-H torsion
[ 11005 11000 10999 10996 ] final  146.66 input  -57.11 | X-H torsion

> <Gold.Protein.ActiveResidues>
 VAL166  LYS551  ARG553  GLY616  TRP617  ASP618  TYR619  PRO620  LYS621  CYS622 
 ASP623  PHE694  ASN695  SER759  ASP760  ASP761  ALA762  ILE779  LEU786  VAL792 
 PHE793  MET794  SER795  GLU796  ALA797  LYS798  CYS799  TRP800  GLU811  SER814 

> <Gold.Protein.RotatedAtoms>
  151.6133  133.3345  159.3071 H   0  0  0  0  0  0  0  0  0  0  0  0  # atno 6907 bound_to 6896
  150.8145  134.7322  159.6729 H   0  0  0  0  0  0  0  0  0  0  0  0  # atno 6908 bound_to 6896
  152.4241  134.5906  160.0024 H   0  0  0  0  0  0  0  0  0  0  0  0  # atno 6909 bound_to 6896
  145.8003  139.2979  143.1158 H   0  0  0  0  0  0  0  0  0  0  0  0  # atno 7974 bound_to 7965
  155.5635  140.3488  155.4497 H   0  0  0  0  0  0  0  0  0  0  0  0  # atno 8008 bound_to 7997
  156.0497  140.1315  157.0090 H   0  0  0  0  0  0  0  0  0  0  0  0  # atno 8009 bound_to 7997
  154.4428  140.1007  156.6342 H   0  0  0  0  0  0  0  0  0  0  0  0  # atno 8010 bound_to 7997
  139.4972  144.6047  151.6404 H   0  0  0  0  0  0  0  0  0  0  0  0  # atno 10167 bound_to 10162
  156.1610  130.6602  151.0050 H   0  0  0  0  0  0  0  0  0  0  0  0  # atno 10718 bound_to 10713
  153.4658  135.3712  155.2363 H   0  0  0  0  0  0  0  0  0  0  0  0  # atno 10763 bound_to 10752
  154.8757  135.3919  154.3870 H   0  0  0  0  0  0  0  0  0  0  0  0  # atno 10764 bound_to 10752
  153.4451  135.7085  153.6209 H   0  0  0  0  0  0  0  0  0  0  0  0  # atno 10765 bound_to 10752
  140.0811  134.9096  157.1502 H   0  0  0  0  0  0  0  0  0  0  0  0  # atno 11005 bound_to 11000
  145.9884  140.8623  143.0079 LP  0  0  0  0  0  0  0  0  0  0  0  0  # atno 17320 bound_to 7965
  144.6769  140.2180  143.7369 LP  0  0  0  0  0  0  0  0  0  0  0  0  # atno 17321 bound_to 7965
  140.5706  144.0115  150.6215 LP  0  0  0  0  0  0  0  0  0  0  0  0  # atno 17342 bound_to 10162
  140.3231  143.3124  152.0764 LP  0  0  0  0  0  0  0  0  0  0  0  0  # atno 17343 bound_to 10162
  157.6732  131.0856  150.7559 LP  0  0  0  0  0  0  0  0  0  0  0  0  # atno 17370 bound_to 10713
  156.7622  130.4802  149.5434 LP  0  0  0  0  0  0  0  0  0  0  0  0  # atno 17371 bound_to 10713
  140.3486  134.2624  155.7201 LP  0  0  0  0  0  0  0  0  0  0  0  0  # atno 17394 bound_to 11000
  141.2047  133.7880  157.0273 LP  0  0  0  0  0  0  0  0  0  0  0  0  # atno 17395 bound_to 11000

$$$$
