AV-unprocessed.smi:39|AV-procd|sdf|360|dock3
  -GOLD-   2262016203D 1   1.00000     0.00000
 Structure written by MMmdl.
 31 32  0  0  0  0  0  0  0  0  4 V2000
  154.2872  140.6930  161.7937 C   0  0  0  0  0  0  0  0  0  0  0  0
  153.3502  141.8269  161.4153 C   0  0  0  0  0  0  0  0  0  0  0  0
  152.7803  141.9141  160.1926 C   0  0  0  0  0  0  0  0  0  0  0  0
  151.9247  142.9493  159.8526 N   0  0  0  0  0  0  0  0  0  0  0  0
  151.2843  143.0418  158.4815 C   0  0  2  0  0  0  0  0  0  0  0  0
  149.7520  143.0786  158.6029 C   0  0  0  0  0  0  0  0  0  0  0  0
  149.3160  142.0011  157.6232 C   0  0  2  0  0  0  0  0  0  0  0  0
  148.0404  141.3798  157.9874 N   0  0  0  0  0  0  0  0  0  0  0  0
  147.4049  141.9214  158.9014 N   0  3  0  0  0  0  0  0  0  0  0  0
  146.8764  142.3372  159.8196 N   0  5  0  0  0  0  0  0  0  0  0  0
  150.4873  141.0219  157.7030 C   0  0  1  0  0  0  0  0  0  0  0  0
  150.5958  140.0859  156.4902 C   0  0  0  0  0  0  0  0  0  0  0  0
  150.6892  140.8457  155.3047 O   0  0  0  0  0  0  0  0  0  0  0  0
  151.6016  141.9076  157.7266 O   0  0  0  0  0  0  0  0  0  0  0  0
  151.6399  143.9622  160.8056 C   0  0  0  0  0  0  0  0  0  0  0  0
  150.8826  144.8736  160.4708 O   0  0  0  0  0  0  0  0  0  0  0  0
  152.2100  143.8824  162.0413 N   0  5  0  0  0  0  0  0  0  0  0  0
  153.0479  142.8692  162.4034 C   0  0  0  0  0  0  0  0  0  0  0  0
  153.5520  142.8069  163.5241 O   0  0  0  0  0  0  0  0  0  0  0  0
  151.7198  143.9238  158.0089 H   0  0  0  0  0  0  0  0  0  0  0  0
  149.2749  142.4252  156.6176 H   0  0  0  0  0  0  0  0  0  0  0  0
  150.4326  140.4561  158.6354 H   0  0  0  0  0  0  0  0  0  0  0  0
  154.4156  139.9921  160.9687 H   0  0  0  0  0  0  0  0  0  0  0  0
  153.8919  140.1413  162.6472 H   0  0  0  0  0  0  0  0  0  0  0  0
  155.2694  141.0836  162.0612 H   0  0  0  0  0  0  0  0  0  0  0  0
  153.0096  141.1457  159.4709 H   0  0  0  0  0  0  0  0  0  0  0  0
  149.4519  142.8264  159.6218 H   0  0  0  0  0  0  0  0  0  0  0  0
  149.3647  144.0675  158.3555 H   0  0  0  0  0  0  0  0  0  0  0  0
  151.4982  139.4781  156.5622 H   0  0  0  0  0  0  0  0  0  0  0  0
  149.7476  139.4027  156.4385 H   0  0  0  0  0  0  0  0  0  0  0  0
  149.8169  141.1039  155.0478 H   0  0  0  0  0  0  0  0  0  0  0  0
  1  2  1  0  0  0  0
  1 23  1  0  0  0  0
  1 24  1  0  0  0  0
  1 25  1  0  0  0  0
  2 18  1  0  0  0  0
  2  3  2  0  0  0  0
  3  4  1  0  0  0  0
  3 26  1  0  0  0  0
  4  5  1  0  0  0  0
  4 15  1  0  0  0  0
  5 20  1  0  0  0  0
  5 14  1  0  0  0  0
  5  6  1  0  0  0  0
  6  7  1  0  0  0  0
  6 27  1  0  0  0  0
  6 28  1  0  0  0  0
  7 21  1  0  0  0  0
  7  8  1  0  0  0  0
  7 11  1  0  0  0  0
  8  9  2  0  0  0  0
  9 10  2  0  0  0  0
 11 22  1  0  0  0  0
 11 12  1  0  0  0  0
 11 14  1  0  0  0  0
 12 13  1  0  0  0  0
 12 29  1  0  0  0  0
 12 30  1  0  0  0  0
 13 31  1  0  0  0  0
 15 16  2  0  0  0  0
 15 17  1  0  0  0  0
 17 18  1  0  0  0  0
 18 19  2  0  0  0  0
M  CHG  1   9   1
M  CHG  1  10  -1
M  CHG  1  17  -1
M  END
> <s_m_source_file>
AV-unprocessed.smi

> <i_m_source_file_index>
39

> <i_lp_mmshare_version>
43012

> <i_f3d_flags>
0

> <s_epik_input>
Tz1jMVtuSF1jKD1PKW4oW2NIXWMxW0NIM10pW0NASF0yW0NIMl1bQ0BIXShOPVtOK109W04tXSlbQ0BIXShPMilbQ0gyXVtPSF0=

> <s_epik_cmdline>
J2VwaWtfcHl0aG9uJywgJy1waCcsICc3LjAnLCAnLXRuJywgJzgnLCAnLW1hJywgJzIwMCcsICctbWV0YWxfYmluZGluZycsICctaW1hZScsICc8aW5maWxlLm1hZT4nLCAnLW9tYWUnLCAnPG91dGZpbGUubWFlPic=

> <r_lp_tautomer_probability>
0.999537

> <r_epik_Ionization_Penalty>
3.6393

> <r_epik_Ionization_Penalty_Charging>
9.76484e-08

> <r_epik_Ionization_Penalty_Neutral>
3.6393

> <r_epik_State_Penalty>
3.63887

> <r_epik_Charging_Adjusted_Penalty>
3.63887

> <i_epik_Tot_Q>
-1

> <i_epik_Tot_abs_Q>
3

> <r_epik_Metal_State_Penalty>
0.225911

> <b_epik_Metal_Only>
1

> <s_epik_Chemistry_Notes>
This compound contains an acetal/aminal-like group ( X-CH(R)-Y where X, Y are N, S, or O) that may be acid/base labile, releasing an aldehyde.

> <s_lp_Force_Field>
OPLS_2005

> <r_lp_Energy>
32.3737

> <b_lp_Chiralities_Consistent>
1

> <s_lp_Variant>
AV-unprocessed.smi:39-10

> <Gold.Version>
5.8.1

> <Gold.Id.Protein>
6NUR|6NUR_protein|mol2

> <Gold.PLP.Fitness>
39.8664

> <Gold.PLP.PLP>
-34.7031

> <Gold.PLP.part.hbond>
-4.0815

> <Gold.PLP.part.metal>
0.0000

> <Gold.PLP.part.buried>
-5.4634

> <Gold.PLP.part.nonpolar>
-25.4736

> <Gold.PLP.part.repulsive>
0.6326

> <Gold.PLP.ligand.clash>
0.0000

> <Gold.PLP.ligand.torsion>
0.0895

> <Gold.PLP.Chemscore.Hbond>
1.7685

> <Gold.PLP.Chemscore.CHOScore>
0.0000

> <Gold.PLP.Chemscore.Metal>
0.0000

> <Gold.Chemscore.Hbonds>
donor molecule, donor type, donor heavy atom, donor atom, acceptor molecule, acceptor atom, score
      P1  H  6933  6944       L1    10  0.22
      P1  H  6934  6946       L1    10  0.70
      P1  H  7989  7998       L1    13  0.80

> <Gold.PLP.Chemscore.Internal.Correction>
0.0369

> <Gold.Rescore>
     Score         DG    S(hbond)    S(metal)    S(lipo)     H(rot)  DE(clash)    DE(int)     intcor
      7.73      -9.27       1.60        0.00      46.13       2.72       0.45       1.08       ----

> <Gold.Chemscore.Fitness>
7.7280

> <Gold.Chemscore.DG>
-9.2659

> <Gold.Chemscore.ZeroCoef>
-5.4800

> <Gold.Chemscore.Hbond>
1.5989

> <Gold.Chemscore.Metal>
0.0000

> <Gold.Chemscore.Lipo>
46.1253

> <Gold.Chemscore.Internal_Hbond>
0.0000

> <Gold.Chemscore.DEClash>
0.4545

> <Gold.Chemscore.DEInternal>
1.0833

> <Gold.Chemscore.Rot>
2.7153

> <Gold.Chemscore.Internal.Correction>
   9.000000E+99

> <Gold.Chemscore.Hbonds>
donor molecule, donor type, donor heavy atom, donor atom, acceptor molecule, acceptor atom, score
      P1  H  6933  6944       L1    10  0.10
      P1  H  6934  6946       L1    10  0.09
      P1  H  7989  7998       L1    13  0.19

> <Gold.Chemscore.Hbond.Weighted>
-5.3404

> <Gold.Chemscore.Metal.Weighted>
-0.0000

> <Gold.Chemscore.Lipo.Weighted>
-5.3967

> <Gold.Chemscore.Internal_Hbond.Weighted>
0.0000

> <Gold.Chemscore.DEClash.Weighted>
0.4545

> <Gold.Chemscore.DEInternal.Weighted>
1.0833

> <Gold.Chemscore.Rot.Weighted>
6.9512

> <Gold.Chemscore.Internal.Correction.Weighted>
   9.000000E+99

> <Gold.Protein.RotatedTorsions>
[ 6907 6896 6895 6894 ] final -123.46 input  -60.11 | X-H torsion
[ 7974 7965 7964 7962 ] final  -33.89 input  175.53 | X-H torsion
[ 8008 7997 7996 7995 ] final  163.10 input   59.86 | X-H torsion
[ 10167 10162 10161 10158 ] final  -46.57 input  -65.29 | X-H torsion
[ 10718 10713 10712 10709 ] final  148.61 input   66.30 | X-H torsion
[ 10763 10752 10751 10750 ] final -150.60 input  -60.55 | X-H torsion
[ 11005 11000 10999 10996 ] final  -52.52 input  -57.11 | X-H torsion

> <Gold.Protein.ActiveResidues>
 VAL166  LYS551  ARG553  GLY616  TRP617  ASP618  TYR619  PRO620  LYS621  CYS622 
 ASP623  PHE694  ASN695  SER759  ASP760  ASP761  ALA762  ILE779  LEU786  VAL792 
 PHE793  MET794  SER795  GLU796  ALA797  LYS798  CYS799  TRP800  GLU811  SER814 

> <Gold.Protein.RotatedAtoms>
  150.8673  133.7556  159.2972 H   0  0  0  0  0  0  0  0  0  0  0  0  # atno 6907 bound_to 6896
  151.5179  135.1065  159.9880 H   0  0  0  0  0  0  0  0  0  0  0  0  # atno 6908 bound_to 6896
  152.4670  133.7900  159.6952 H   0  0  0  0  0  0  0  0  0  0  0  0  # atno 6909 bound_to 6896
  146.0874  140.5971  142.8880 H   0  0  0  0  0  0  0  0  0  0  0  0  # atno 7974 bound_to 7965
  156.1982  140.1732  156.7954 H   0  0  0  0  0  0  0  0  0  0  0  0  # atno 8008 bound_to 7997
  154.5557  140.0709  156.8770 H   0  0  0  0  0  0  0  0  0  0  0  0  # atno 8009 bound_to 7997
  155.2943  140.3357  155.4253 H   0  0  0  0  0  0  0  0  0  0  0  0  # atno 8010 bound_to 7997
  140.6812  143.2825  151.3801 H   0  0  0  0  0  0  0  0  0  0  0  0  # atno 10167 bound_to 10162
  157.3065  131.0880  151.1350 H   0  0  0  0  0  0  0  0  0  0  0  0  # atno 10718 bound_to 10713
  154.8109  135.3280  154.7307 H   0  0  0  0  0  0  0  0  0  0  0  0  # atno 10763 bound_to 10752
  153.7957  135.6907  153.4868 H   0  0  0  0  0  0  0  0  0  0  0  0  # atno 10764 bound_to 10752
  153.1887  135.4559  155.0068 H   0  0  0  0  0  0  0  0  0  0  0  0  # atno 10765 bound_to 10752
  141.0929  133.6629  156.4037 H   0  0  0  0  0  0  0  0  0  0  0  0  # atno 11005 bound_to 11000
  144.7336  140.4742  143.6920 LP  0  0  0  0  0  0  0  0  0  0  0  0  # atno 17320 bound_to 7965
  145.6103  139.1512  143.3079 LP  0  0  0  0  0  0  0  0  0  0  0  0  # atno 17321 bound_to 7965
  139.6136  144.1048  152.2323 LP  0  0  0  0  0  0  0  0  0  0  0  0  # atno 17342 bound_to 10162
  140.0470  144.5962  150.7366 LP  0  0  0  0  0  0  0  0  0  0  0  0  # atno 17343 bound_to 10162
  157.2688  130.6694  149.6010 LP  0  0  0  0  0  0  0  0  0  0  0  0  # atno 17370 bound_to 10713
  155.9675  130.4485  150.5623 LP  0  0  0  0  0  0  0  0  0  0  0  0  # atno 17371 bound_to 10713
  140.5210  134.6304  157.5318 LP  0  0  0  0  0  0  0  0  0  0  0  0  # atno 17394 bound_to 11000
  139.9758  134.7217  155.9952 LP  0  0  0  0  0  0  0  0  0  0  0  0  # atno 17395 bound_to 11000

$$$$
