AV-unprocessed.smi:2970|AV-procd|sdf|11331|dock5
  -GOLD-   2272016243D 1   1.00000     0.00000
 Structure written by MMmdl.
 38 39  0  0  0  0  0  0  0  0  1 V2000
  151.1574  137.4414  154.6990 C   0  0  0  0  0  0  0  0  0  0  0  0
  149.9802  138.2804  155.1655 C   0  0  0  0  0  0  0  0  0  0  0  0
  148.9472  138.6618  154.4071 C   0  0  0  0  0  0  0  0  0  0  0  0
  147.8001  139.6515  155.2761 S   0  0  0  0  0  0  0  0  0  0  0  0
  148.8097  139.5326  156.7618 C   0  0  0  0  0  0  0  0  0  0  0  0
  148.5041  140.0776  157.8212 O   0  0  0  0  0  0  0  0  0  0  0  0
  149.9292  138.7478  156.4864 N   0  0  0  0  0  0  0  0  0  0  0  0
  150.9534  138.4427  157.4944 C   0  0  0  0  0  0  0  0  0  0  0  0
  151.9064  139.6141  157.7677 C   0  0  0  0  0  0  0  0  0  0  0  0
  153.1091  139.5287  157.5143 O   0  0  0  0  0  0  0  0  0  0  0  0
  151.3443  140.7091  158.3024 N   0  0  0  0  0  0  0  0  0  0  0  0
  152.0476  141.9418  158.6501 C   0  0  0  0  0  0  0  0  0  0  0  0
  152.2679  141.9916  160.1769 C   0  0  0  0  0  0  0  0  0  0  0  0
  152.9672  143.2586  160.6986 C   0  0  0  0  0  0  0  0  0  0  0  0
  152.0462  144.4890  160.7011 C   0  0  0  0  0  0  0  0  0  0  0  0
  151.9919  145.2763  159.3801 C   0  0  0  0  0  0  0  0  0  0  0  0
  152.0569  144.4514  158.0830 C   0  0  0  0  0  0  0  0  0  0  0  0
  151.2537  143.1396  158.0881 C   0  0  0  0  0  0  0  0  0  0  0  0
  151.2087  137.4339  153.6099 H   0  0  0  0  0  0  0  0  0  0  0  0
  151.0481  136.4119  155.0400 H   0  0  0  0  0  0  0  0  0  0  0  0
  152.1050  137.8353  155.0666 H   0  0  0  0  0  0  0  0  0  0  0  0
  148.7957  138.4228  153.3648 H   0  0  0  0  0  0  0  0  0  0  0  0
  150.4682  138.1716  158.4335 H   0  0  0  0  0  0  0  0  0  0  0  0
  151.5305  137.5643  157.2056 H   0  0  0  0  0  0  0  0  0  0  0  0
  150.3503  140.6901  158.4792 H   0  0  0  0  0  0  0  0  0  0  0  0
  153.0220  141.9264  158.1581 H   0  0  0  0  0  0  0  0  0  0  0  0
  151.3162  141.8626  160.6943 H   0  0  0  0  0  0  0  0  0  0  0  0
  152.8749  141.1327  160.4664 H   0  0  0  0  0  0  0  0  0  0  0  0
  153.2691  143.0657  161.7287 H   0  0  0  0  0  0  0  0  0  0  0  0
  153.8899  143.4554  160.1513 H   0  0  0  0  0  0  0  0  0  0  0  0
  151.0385  144.1852  160.9870 H   0  0  0  0  0  0  0  0  0  0  0  0
  152.3708  145.1735  161.4856 H   0  0  0  0  0  0  0  0  0  0  0  0
  151.0802  145.8748  159.3788 H   0  0  0  0  0  0  0  0  0  0  0  0
  152.8116  145.9955  159.3614 H   0  0  0  0  0  0  0  0  0  0  0  0
  151.6953  145.0825  157.2705 H   0  0  0  0  0  0  0  0  0  0  0  0
  153.0976  144.2390  157.8355 H   0  0  0  0  0  0  0  0  0  0  0  0
  150.9916  142.9159  157.0528 H   0  0  0  0  0  0  0  0  0  0  0  0
  150.3060  143.2670  158.6133 H   0  0  0  0  0  0  0  0  0  0  0  0
  1  2  1  0  0  0  0
  1 19  1  0  0  0  0
  1 20  1  0  0  0  0
  1 21  1  0  0  0  0
  2  7  1  0  0  0  0
  2  3  2  0  0  0  0
  3  4  1  0  0  0  0
  3 22  1  0  0  0  0
  4  5  1  0  0  0  0
  5  6  2  0  0  0  0
  5  7  1  0  0  0  0
  7  8  1  0  0  0  0
  8  9  1  0  0  0  0
  8 23  1  0  0  0  0
  8 24  1  0  0  0  0
  9 10  2  0  0  0  0
  9 11  1  0  0  0  0
 11 12  1  0  0  0  0
 11 25  1  0  0  0  0
 12 18  1  0  0  0  0
 12 13  1  0  0  0  0
 12 26  1  0  0  0  0
 13 14  1  0  0  0  0
 13 27  1  0  0  0  0
 13 28  1  0  0  0  0
 14 15  1  0  0  0  0
 14 29  1  0  0  0  0
 14 30  1  0  0  0  0
 15 16  1  0  0  0  0
 15 31  1  0  0  0  0
 15 32  1  0  0  0  0
 16 17  1  0  0  0  0
 16 33  1  0  0  0  0
 16 34  1  0  0  0  0
 17 18  1  0  0  0  0
 17 35  1  0  0  0  0
 17 36  1  0  0  0  0
 18 37  1  0  0  0  0
 18 38  1  0  0  0  0
M  END
> <s_m_source_file>
AV-unprocessed.smi

> <i_m_source_file_index>
2970

> <i_lp_mmshare_version>
43012

> <i_f3d_flags>
0

> <s_epik_input>
W0NIM11jMVtjSF1zYyg9TyluMVtDSDJdQyg9TylbTkhdW0NIXTJbQ0gyXVtDSDJdW0NIMl1bQ0gyXVtDSDJdW0NIMl0y

> <s_epik_cmdline>
J2VwaWtfcHl0aG9uJywgJy1waCcsICc3LjAnLCAnLXRuJywgJzgnLCAnLW1hJywgJzIwMCcsICctbWV0YWxfYmluZGluZycsICctaW1hZScsICc8aW5maWxlLm1hZT4nLCAnLW9tYWUnLCAnPG91dGZpbGUubWFlPic=

> <r_lp_tautomer_probability>
1

> <r_epik_Ionization_Penalty>
1.32564e-06

> <r_epik_Ionization_Penalty_Charging>
1.22505e-06

> <r_epik_Ionization_Penalty_Neutral>
1.00582e-07

> <r_epik_State_Penalty>
-0

> <r_epik_Charging_Adjusted_Penalty>
1.22505e-06

> <i_epik_Tot_Q>
0

> <i_epik_Tot_abs_Q>
0

> <r_epik_Metal_State_Penalty>
-0

> <b_epik_Metal_Only>
0

> <s_lp_Force_Field>
OPLS_2005

> <r_lp_Energy>
18.3304

> <b_lp_Chiralities_Consistent>
1

> <s_lp_Variant>
AV-unprocessed.smi:2970-1

> <Gold.Version>
5.8.1

> <Gold.Id.Protein>
6NUR|6NUR_protein|mol2

> <Gold.PLP.Fitness>
42.9624

> <Gold.PLP.PLP>
-35.0073

> <Gold.PLP.part.hbond>
-1.0000

> <Gold.PLP.part.metal>
0.0000

> <Gold.PLP.part.buried>
-4.8760

> <Gold.PLP.part.nonpolar>
-30.6633

> <Gold.PLP.part.repulsive>
0.1104

> <Gold.PLP.ligand.clash>
0.0000

> <Gold.PLP.ligand.torsion>
0.4118

> <Gold.PLP.Chemscore.Hbond>
1.0000

> <Gold.PLP.Chemscore.CHOScore>
1.9209

> <Gold.PLP.Chemscore.Metal>
0.0000

> <Gold.Chemscore.Hbonds>
donor molecule, donor type, donor heavy atom, donor atom, acceptor molecule, acceptor atom, score
      P1  H  7997  8008       L1    10  1.00
      L1  C     3    22       P1  7948  0.73
      L1  C     3    22       P1  7957  0.21

> <Gold.PLP.Chemscore.Internal.Correction>
0.0161

> <Gold.Rescore>
     Score         DG    S(hbond)    S(metal)    S(lipo)     H(rot)  DE(clash)    DE(int)     intcor
     17.96     -18.34       0.99        0.00     112.13       1.40       0.06       0.33       ----

> <Gold.Chemscore.Fitness>
17.9570

> <Gold.Chemscore.DG>
-18.3423

> <Gold.Chemscore.ZeroCoef>
-5.4800

> <Gold.Chemscore.Hbond>
0.9939

> <Gold.Chemscore.Metal>
0.0000

> <Gold.Chemscore.Lipo>
112.1261

> <Gold.Chemscore.Internal_Hbond>
0.0000

> <Gold.Chemscore.DEClash>
0.0566

> <Gold.Chemscore.DEInternal>
0.3287

> <Gold.Chemscore.Rot>
1.3969

> <Gold.Chemscore.Internal.Correction>
   9.000000E+99

> <Gold.Chemscore.Hbonds>
donor molecule, donor type, donor heavy atom, donor atom, acceptor molecule, acceptor atom, score
      P1  H  7997  8008       L1    10  0.99

> <Gold.Chemscore.Hbond.Weighted>
-3.3196

> <Gold.Chemscore.Metal.Weighted>
-0.0000

> <Gold.Chemscore.Lipo.Weighted>
-13.1188

> <Gold.Chemscore.Internal_Hbond.Weighted>
0.0000

> <Gold.Chemscore.DEClash.Weighted>
0.0566

> <Gold.Chemscore.DEInternal.Weighted>
0.3287

> <Gold.Chemscore.Rot.Weighted>
3.5761

> <Gold.Chemscore.Internal.Correction.Weighted>
   9.000000E+99

> <Gold.Protein.RotatedTorsions>
[ 6907 6896 6895 6894 ] final    7.18 input  -60.11 | X-H torsion
[ 7974 7965 7964 7962 ] final -111.56 input  175.53 | X-H torsion
[ 8008 7997 7996 7995 ] final  -59.53 input   59.86 | X-H torsion
[ 10167 10162 10161 10158 ] final   99.28 input  -65.29 | X-H torsion
[ 10718 10713 10712 10709 ] final  -57.33 input   66.30 | X-H torsion
[ 10763 10752 10751 10750 ] final   36.06 input  -60.55 | X-H torsion
[ 11005 11000 10999 10996 ] final   41.32 input  -57.11 | X-H torsion

> <Gold.Protein.ActiveResidues>
 VAL166  LYS551  ARG553  GLY616  TRP617  ASP618  TYR619  PRO620  LYS621  CYS622 
 ASP623  PHE694  ASN695  SER759  ASP760  ASP761  ALA762  ILE779  LEU786  VAL792 
 PHE793  MET794  SER795  GLU796  ALA797  LYS798  CYS799  TRP800  GLU811  SER814 

> <Gold.Protein.RotatedAtoms>
  151.6857  135.0954  160.0224 H   0  0  0  0  0  0  0  0  0  0  0  0  # atno 6907 bound_to 6896
  152.3809  133.6540  159.6168 H   0  0  0  0  0  0  0  0  0  0  0  0  # atno 6908 bound_to 6896
  150.7746  133.9032  159.3389 H   0  0  0  0  0  0  0  0  0  0  0  0  # atno 6909 bound_to 6896
  145.1546  140.8847  143.3626 H   0  0  0  0  0  0  0  0  0  0  0  0  # atno 7974 bound_to 7965
  154.4357  140.1059  156.6131 H   0  0  0  0  0  0  0  0  0  0  0  0  # atno 8008 bound_to 7997
  155.5788  140.3490  155.4516 H   0  0  0  0  0  0  0  0  0  0  0  0  # atno 8009 bound_to 7997
  156.0334  140.1265  157.0223 H   0  0  0  0  0  0  0  0  0  0  0  0  # atno 8010 bound_to 7997
  139.7632  144.6947  151.0263 H   0  0  0  0  0  0  0  0  0  0  0  0  # atno 10167 bound_to 10162
  156.1219  130.4165  150.0427 H   0  0  0  0  0  0  0  0  0  0  0  0  # atno 10718 bound_to 10713
  153.0092  135.6316  154.1926 H   0  0  0  0  0  0  0  0  0  0  0  0  # atno 10763 bound_to 10752
  154.1669  135.2820  155.3094 H   0  0  0  0  0  0  0  0  0  0  0  0  # atno 10764 bound_to 10752
  154.5939  135.5609  153.7366 H   0  0  0  0  0  0  0  0  0  0  0  0  # atno 10765 bound_to 10752
  140.1846  134.4061  155.8180 H   0  0  0  0  0  0  0  0  0  0  0  0  # atno 11005 bound_to 11000
  145.0394  139.3272  143.5984 LP  0  0  0  0  0  0  0  0  0  0  0  0  # atno 17320 bound_to 7965
  146.3490  139.9762  142.8701 LP  0  0  0  0  0  0  0  0  0  0  0  0  # atno 17321 bound_to 7965
  140.7809  143.4673  151.0194 LP  0  0  0  0  0  0  0  0  0  0  0  0  # atno 17342 bound_to 10162
  139.8359  143.7629  152.3180 LP  0  0  0  0  0  0  0  0  0  0  0  0  # atno 17343 bound_to 10162
  156.8363  130.9410  151.3634 LP  0  0  0  0  0  0  0  0  0  0  0  0  # atno 17370 bound_to 10713
  157.6402  130.8799  149.9433 LP  0  0  0  0  0  0  0  0  0  0  0  0  # atno 17371 bound_to 10713
  141.2224  133.7017  156.7990 LP  0  0  0  0  0  0  0  0  0  0  0  0  # atno 17394 bound_to 11000
  140.2228  134.8744  157.3395 LP  0  0  0  0  0  0  0  0  0  0  0  0  # atno 17395 bound_to 11000

$$$$
