AV-unprocessed.smi:1207|AV-procd|sdf|5054|dock3
  -GOLD-   22720 4 83D 1   1.00000     0.00000
 Structure written by MMmdl.
 52 54  0  0  0  0  0  0  0  0  2 V2000
  151.9475  144.0078  159.8204 C   0  0  0  0  0  0  0  0  0  0  0  0
  151.8252  142.8317  158.8674 C   0  0  0  0  0  0  0  0  0  0  0  0
  150.9183  142.9144  157.7869 C   0  0  0  0  0  0  0  0  0  0  0  0
  150.7766  141.8443  156.8767 C   0  0  0  0  0  0  0  0  0  0  0  0
  149.9656  141.7130  155.7625 N   0  0  0  0  0  0  0  0  0  0  0  0
  150.2911  140.4968  155.3353 C   0  0  0  0  0  0  0  0  0  0  0  0
  151.2194  139.8232  156.0411 N   0  0  0  0  0  0  0  0  0  0  0  0
  151.7350  138.4950  155.7618 C   0  0  0  0  0  0  0  0  0  0  0  0
  150.8970  137.7481  154.7062 C   0  0  1  0  0  0  0  0  0  0  0  0
  151.7579  137.1246  153.7711 O   0  0  0  0  0  0  0  0  0  0  0  0
  150.0032  136.6685  155.3420 C   0  0  0  0  0  0  0  0  0  0  0  0
  148.7210  136.5169  154.6036 N   0  3  2  0  0  0  0  0  0  0  0  0
  147.8857  137.7387  154.6536 C   0  0  0  0  0  0  0  0  0  0  0  0
  147.9544  135.3008  154.9731 C   0  0  0  0  0  0  0  0  0  0  0  0
  148.7530  134.0481  154.7133 C   0  0  0  0  0  0  0  0  0  0  0  0
  148.6348  133.1412  153.6207 C   0  0  0  0  0  0  0  0  0  0  0  0
  147.6992  133.2076  152.4473 C   0  0  0  0  0  0  0  0  0  0  0  0
  149.4856  132.1344  153.7216 N   0  0  0  0  0  0  0  0  0  0  0  0
  150.2062  132.3568  154.8986 O   0  0  0  0  0  0  0  0  0  0  0  0
  149.7549  133.5023  155.4683 C   0  0  0  0  0  0  0  0  0  0  0  0
  150.3993  133.9064  156.7508 C   0  0  0  0  0  0  0  0  0  0  0  0
  151.5718  140.6787  157.0799 C   0  0  0  0  0  0  0  0  0  0  0  0
  152.4760  140.5836  158.1525 C   0  0  0  0  0  0  0  0  0  0  0  0
  152.6072  141.6631  159.0509 C   0  0  0  0  0  0  0  0  0  0  0  0
  153.5896  141.5524  160.2033 C   0  0  0  0  0  0  0  0  0  0  0  0
  151.2551  144.8077  159.5563 H   0  0  0  0  0  0  0  0  0  0  0  0
  152.9576  144.4173  159.7936 H   0  0  0  0  0  0  0  0  0  0  0  0
  151.7256  143.6977  160.8418 H   0  0  0  0  0  0  0  0  0  0  0  0
  150.3227  143.8045  157.6467 H   0  0  0  0  0  0  0  0  0  0  0  0
  149.8303  140.0710  154.4559 H   0  0  0  0  0  0  0  0  0  0  0  0
  152.7723  138.5858  155.4367 H   0  0  0  0  0  0  0  0  0  0  0  0
  151.7512  137.9320  156.6959 H   0  0  0  0  0  0  0  0  0  0  0  0
  150.2829  138.4718  154.1695 H   0  0  0  0  0  0  0  0  0  0  0  0
  151.5793  137.4754  152.9116 H   0  0  0  0  0  0  0  0  0  0  0  0
  150.5601  135.7318  155.3600 H   0  0  0  0  0  0  0  0  0  0  0  0
  149.7954  136.9060  156.3865 H   0  0  0  0  0  0  0  0  0  0  0  0
  147.5354  137.9313  155.6685 H   0  0  0  0  0  0  0  0  0  0  0  0
  147.0141  137.6367  154.0061 H   0  0  0  0  0  0  0  0  0  0  0  0
  148.4433  138.6116  154.3142 H   0  0  0  0  0  0  0  0  0  0  0  0
  147.6480  135.3757  156.0173 H   0  0  0  0  0  0  0  0  0  0  0  0
  147.0316  135.2717  154.3923 H   0  0  0  0  0  0  0  0  0  0  0  0
  146.6610  133.2501  152.7763 H   0  0  0  0  0  0  0  0  0  0  0  0
  147.8030  132.3388  151.7959 H   0  0  0  0  0  0  0  0  0  0  0  0
  147.8934  134.0956  151.8456 H   0  0  0  0  0  0  0  0  0  0  0  0
  150.1949  134.9523  156.9796 H   0  0  0  0  0  0  0  0  0  0  0  0
  151.4808  133.7786  156.6990 H   0  0  0  0  0  0  0  0  0  0  0  0
  150.0258  133.3002  157.5762 H   0  0  0  0  0  0  0  0  0  0  0  0
  153.0661  139.6884  158.2810 H   0  0  0  0  0  0  0  0  0  0  0  0
  154.1289  140.6051  160.1768 H   0  0  0  0  0  0  0  0  0  0  0  0
  153.0659  141.6134  161.1573 H   0  0  0  0  0  0  0  0  0  0  0  0
  154.3245  142.3563  160.1583 H   0  0  0  0  0  0  0  0  0  0  0  0
  148.9770  136.3880  153.6347 H   0  0  0  0  0  0  0  0  0  0  0  0
  1  2  1  0  0  0  0
  1 26  1  0  0  0  0
  1 27  1  0  0  0  0
  1 28  1  0  0  0  0
  2 24  1  0  0  0  0
  2  3  2  0  0  0  0
  3  4  1  0  0  0  0
  3 29  1  0  0  0  0
  4 22  2  0  0  0  0
  4  5  1  0  0  0  0
  5  6  2  0  0  0  0
  6  7  1  0  0  0  0
  6 30  1  0  0  0  0
  7  8  1  0  0  0  0
  7 22  1  0  0  0  0
  8  9  1  0  0  0  0
  8 31  1  0  0  0  0
  8 32  1  0  0  0  0
  9 10  1  0  0  0  0
  9 11  1  0  0  0  0
  9 33  1  0  0  0  0
 10 34  1  0  0  0  0
 11 12  1  0  0  0  0
 11 35  1  0  0  0  0
 11 36  1  0  0  0  0
 12 13  1  0  0  0  0
 12 14  1  0  0  0  0
 12 52  1  0  0  0  0
 13 37  1  0  0  0  0
 13 38  1  0  0  0  0
 13 39  1  0  0  0  0
 14 15  1  0  0  0  0
 14 40  1  0  0  0  0
 14 41  1  0  0  0  0
 15 20  2  0  0  0  0
 15 16  1  0  0  0  0
 16 17  1  0  0  0  0
 16 18  2  0  0  0  0
 17 42  1  0  0  0  0
 17 43  1  0  0  0  0
 17 44  1  0  0  0  0
 18 19  1  0  0  0  0
 19 20  1  0  0  0  0
 20 21  1  0  0  0  0
 21 45  1  0  0  0  0
 21 46  1  0  0  0  0
 21 47  1  0  0  0  0
 22 23  1  0  0  0  0
 23 24  2  0  0  0  0
 23 48  1  0  0  0  0
 24 25  1  0  0  0  0
 25 49  1  0  0  0  0
 25 50  1  0  0  0  0
 25 51  1  0  0  0  0
M  CHG  1  12   1
M  END
> <s_m_source_file>
AV-unprocessed.smi

> <i_m_source_file_index>
1207

> <i_lp_mmshare_version>
43012

> <i_f3d_flags>
0

> <s_epik_input>
W0NIM11jKFtjSF0xKWMoW0NIM10pW2NIXWMoYzEyKW4oW2NIXW4yKVtDSDJdW0NASF0oW09IXSlbQ0gyXU4oW0NIM10pW0NIMl1jM2MoW0NIM10pbm9jM1tDSDNd

> <s_epik_cmdline>
J2VwaWtfcHl0aG9uJywgJy1waCcsICc3LjAnLCAnLXRuJywgJzgnLCAnLW1hJywgJzIwMCcsICctbWV0YWxfYmluZGluZycsICctaW1hZScsICc8aW5maWxlLm1hZT4nLCAnLW9tYWUnLCAnPG91dGZpbGUubWFlPic=

> <r_epik_Ionization_Penalty>
0.646518

> <r_epik_Ionization_Penalty_Charging>
0.559419

> <r_epik_Ionization_Penalty_Neutral>
0.0870981

> <r_epik_State_Penalty>
0.661677

> <r_epik_Charging_Adjusted_Penalty>
1.2211

> <i_epik_Tot_Q>
1

> <i_epik_Tot_abs_Q>
1

> <r_epik_Metal_State_Penalty>
0.649158

> <b_epik_Metal_Only>
0

> <s_lp_Force_Field>
OPLS_2005

> <r_lp_Energy>
8.09598

> <b_lp_Chiralities_Consistent>
1

> <s_lp_Variant>
AV-unprocessed.smi:1207-6

> <Gold.Version>
5.8.1

> <Gold.Id.Protein>
6NUR|6NUR_protein|mol2

> <Gold.PLP.Fitness>
53.8314

> <Gold.PLP.PLP>
-46.6421

> <Gold.PLP.part.hbond>
-3.0000

> <Gold.PLP.part.metal>
0.0000

> <Gold.PLP.part.buried>
-3.9142

> <Gold.PLP.part.nonpolar>
-40.3689

> <Gold.PLP.part.repulsive>
0.2109

> <Gold.PLP.ligand.clash>
0.0000

> <Gold.PLP.ligand.torsion>
1.5168

> <Gold.PLP.Chemscore.Hbond>
3.2676

> <Gold.PLP.Chemscore.CHOScore>
0.0000

> <Gold.PLP.Chemscore.Metal>
0.0000

> <Gold.Chemscore.Hbonds>
donor molecule, donor type, donor heavy atom, donor atom, acceptor molecule, acceptor atom, score
      L1  H    10    34       P1  7949  0.23
      L1  H    12    52       P1  7948  2.00
      P1  H 10752 10763       L1    10  1.00

> <Gold.PLP.Chemscore.Internal.Correction>
0.4200

> <Gold.Rescore>
     Score         DG    S(hbond)    S(metal)    S(lipo)     H(rot)  DE(clash)    DE(int)     intcor
     18.60     -20.23       2.07        0.00     120.59       2.46       0.02       1.61       ----

> <Gold.Chemscore.Fitness>
18.5978

> <Gold.Chemscore.DG>
-20.2271

> <Gold.Chemscore.ZeroCoef>
-5.4800

> <Gold.Chemscore.Hbond>
2.0738

> <Gold.Chemscore.Metal>
0.0000

> <Gold.Chemscore.Lipo>
120.5907

> <Gold.Chemscore.Internal_Hbond>
0.0000

> <Gold.Chemscore.DEClash>
0.0165

> <Gold.Chemscore.DEInternal>
1.6127

> <Gold.Chemscore.Rot>
2.4565

> <Gold.Chemscore.Internal.Correction>
   9.000000E+99

> <Gold.Chemscore.Hbonds>
donor molecule, donor type, donor heavy atom, donor atom, acceptor molecule, acceptor atom, score
      L1  H    10    34       P1  7949  0.20
      L1  H    12    52       P1  7948  1.00
      P1  H 10752 10763       L1    10  0.84

> <Gold.Chemscore.Hbond.Weighted>
-6.9267

> <Gold.Chemscore.Metal.Weighted>
-0.0000

> <Gold.Chemscore.Lipo.Weighted>
-14.1091

> <Gold.Chemscore.Internal_Hbond.Weighted>
0.0000

> <Gold.Chemscore.DEClash.Weighted>
0.0165

> <Gold.Chemscore.DEInternal.Weighted>
1.6127

> <Gold.Chemscore.Rot.Weighted>
6.2887

> <Gold.Chemscore.Internal.Correction.Weighted>
   9.000000E+99

> <Gold.Protein.RotatedTorsions>
[ 6907 6896 6895 6894 ] final   17.96 input  -60.11 | X-H torsion
[ 7974 7965 7964 7962 ] final  -82.24 input  175.53 | X-H torsion
[ 8008 7997 7996 7995 ] final  147.50 input   59.86 | X-H torsion
[ 10167 10162 10161 10158 ] final  -71.19 input  -65.29 | X-H torsion
[ 10718 10713 10712 10709 ] final  131.85 input   66.30 | X-H torsion
[ 10763 10752 10751 10750 ] final   11.62 input  -60.55 | X-H torsion
[ 11005 11000 10999 10996 ] final   35.93 input  -57.11 | X-H torsion

> <Gold.Protein.ActiveResidues>
 VAL166  LYS551  ARG553  GLY616  TRP617  ASP618  TYR619  PRO620  LYS621  CYS622 
 ASP623  PHE694  ASN695  SER759  ASP760  ASP761  ALA762  ILE779  LEU786  VAL792 
 PHE793  MET794  SER795  GLU796  ALA797  LYS798  CYS799  TRP800  GLU811  SER814 

> <Gold.Protein.RotatedAtoms>
  151.8577  135.0535  160.0465 H   0  0  0  0  0  0  0  0  0  0  0  0  # atno 6907 bound_to 6896
  152.2687  133.5358  159.5434 H   0  0  0  0  0  0  0  0  0  0  0  0  # atno 6908 bound_to 6896
  150.7143  134.0644  159.3885 H   0  0  0  0  0  0  0  0  0  0  0  0  # atno 6909 bound_to 6896
  145.5359  140.9516  143.1577 H   0  0  0  0  0  0  0  0  0  0  0  0  # atno 7974 bound_to 7965
  156.2822  140.2154  156.5548 H   0  0  0  0  0  0  0  0  0  0  0  0  # atno 8008 bound_to 7997
  154.7261  140.0499  157.0706 H   0  0  0  0  0  0  0  0  0  0  0  0  # atno 8009 bound_to 7997
  155.0415  140.3146  155.4726 H   0  0  0  0  0  0  0  0  0  0  0  0  # atno 8010 bound_to 7997
  140.5293  143.2323  151.7291 H   0  0  0  0  0  0  0  0  0  0  0  0  # atno 10167 bound_to 10162
  157.4928  131.1091  150.9534 H   0  0  0  0  0  0  0  0  0  0  0  0  # atno 10718 bound_to 10713
  153.1907  135.6842  153.8357 H   0  0  0  0  0  0  0  0  0  0  0  0  # atno 10763 bound_to 10752
  153.7657  135.3203  155.3345 H   0  0  0  0  0  0  0  0  0  0  0  0  # atno 10764 bound_to 10752
  154.8115  135.4714  154.0628 H   0  0  0  0  0  0  0  0  0  0  0  0  # atno 10765 bound_to 10752
  140.2377  134.3452  155.7938 H   0  0  0  0  0  0  0  0  0  0  0  0  # atno 11005 bound_to 11000
  144.7602  139.6976  143.7237 LP  0  0  0  0  0  0  0  0  0  0  0  0  # atno 17320 bound_to 7965
  146.2013  139.5310  142.9741 LP  0  0  0  0  0  0  0  0  0  0  0  0  # atno 17321 bound_to 7965
  139.4948  144.4139  152.0051 LP  0  0  0  0  0  0  0  0  0  0  0  0  # atno 17342 bound_to 10162
  140.3240  144.3395  150.6003 LP  0  0  0  0  0  0  0  0  0  0  0  0  # atno 17343 bound_to 10162
  157.0230  130.5681  149.5333 LP  0  0  0  0  0  0  0  0  0  0  0  0  # atno 17370 bound_to 10713
  156.0183  130.5277  150.8200 LP  0  0  0  0  0  0  0  0  0  0  0  0  # atno 17371 bound_to 10713
  141.2213  133.7281  156.8835 LP  0  0  0  0  0  0  0  0  0  0  0  0  # atno 17394 bound_to 11000
  140.1685  134.9116  157.2804 LP  0  0  0  0  0  0  0  0  0  0  0  0  # atno 17395 bound_to 11000

$$$$
