AV-unprocessed.smi:1056|AV-procd|sdf|4644|dock2
  -GOLD-   22720 3153D 1   1.00000     0.00000
 Structure written by MMmdl.
 44 46  0  0  0  0  0  0  0  0  3 V2000
  153.3386  142.1521  161.4337 C   0  0  0  0  0  0  0  0  0  0  0  0
  152.6954  141.9459  160.0735 C   0  0  0  0  0  0  0  0  0  0  0  0
  153.0191  140.7900  159.3276 C   0  0  0  0  0  0  0  0  0  0  0  0
  152.4433  140.5619  158.0586 C   0  0  0  0  0  0  0  0  0  0  0  0
  152.6174  139.5186  157.1653 N   0  0  0  0  0  0  0  0  0  0  0  0
  151.8139  139.8801  156.1695 C   0  0  0  0  0  0  0  0  0  0  0  0
  151.1409  141.0381  156.3102 N   0  0  0  0  0  0  0  0  0  0  0  0
  150.2178  141.6332  155.3603 C   0  0  0  0  0  0  0  0  0  0  0  0
  149.0903  140.6675  154.9478 C   0  0  2  0  0  0  0  0  0  0  0  0
  149.5452  139.8324  153.9002 O   0  0  0  0  0  0  0  0  0  0  0  0
  147.8424  141.4286  154.4605 C   0  0  0  0  0  0  0  0  0  0  0  0
  147.1309  142.1193  155.5650 N   0  3  1  0  0  0  0  0  0  0  0  0
  145.7724  142.5969  155.1953 C   0  0  0  0  0  0  0  0  0  0  0  0
  145.2299  143.5539  156.2744 C   0  0  0  0  0  0  0  0  0  0  0  0
  145.4280  142.9815  157.6116 N   0  5  0  0  0  0  0  0  0  0  0  0
  146.3523  142.0335  157.9620 C   0  0  0  0  0  0  0  0  0  0  0  0
  146.6042  141.6725  159.1095 O   0  0  0  0  0  0  0  0  0  0  0  0
  147.1111  141.3118  156.8159 C   0  0  0  0  0  0  0  0  0  0  0  0
  151.5256  141.5287  157.5534 C   0  0  0  0  0  0  0  0  0  0  0  0
  151.1946  142.6821  158.2862 C   0  0  0  0  0  0  0  0  0  0  0  0
  151.7813  142.8959  159.5509 C   0  0  0  0  0  0  0  0  0  0  0  0
  151.4226  144.1479  160.3317 C   0  0  0  0  0  0  0  0  0  0  0  0
  154.0229  141.3392  161.6784 H   0  0  0  0  0  0  0  0  0  0  0  0
  152.5776  142.1950  162.2132 H   0  0  0  0  0  0  0  0  0  0  0  0
  153.9058  143.0829  161.4513 H   0  0  0  0  0  0  0  0  0  0  0  0
  153.7159  140.0668  159.7250 H   0  0  0  0  0  0  0  0  0  0  0  0
  151.7093  139.2689  155.2849 H   0  0  0  0  0  0  0  0  0  0  0  0
  149.7955  142.5312  155.8131 H   0  0  0  0  0  0  0  0  0  0  0  0
  150.7814  141.9628  154.4862 H   0  0  0  0  0  0  0  0  0  0  0  0
  148.8436  140.0365  155.8013 H   0  0  0  0  0  0  0  0  0  0  0  0
  149.5647  140.3367  153.1004 H   0  0  0  0  0  0  0  0  0  0  0  0
  148.1102  142.1590  153.6956 H   0  0  0  0  0  0  0  0  0  0  0  0
  147.1703  140.7167  153.9787 H   0  0  0  0  0  0  0  0  0  0  0  0
  145.7860  143.1158  154.2378 H   0  0  0  0  0  0  0  0  0  0  0  0
  145.1067  141.7402  155.0771 H   0  0  0  0  0  0  0  0  0  0  0  0
  145.7480  144.5088  156.1831 H   0  0  0  0  0  0  0  0  0  0  0  0
  144.1799  143.7654  156.0733 H   0  0  0  0  0  0  0  0  0  0  0  0
  146.6315  140.3496  156.6299 H   0  0  0  0  0  0  0  0  0  0  0  0
  148.1339  141.1104  157.1375 H   0  0  0  0  0  0  0  0  0  0  0  0
  150.4981  143.3984  157.8759 H   0  0  0  0  0  0  0  0  0  0  0  0
  150.7053  144.7638  159.7885 H   0  0  0  0  0  0  0  0  0  0  0  0
  152.3118  144.7521  160.5129 H   0  0  0  0  0  0  0  0  0  0  0  0
  150.9788  143.8860  161.2924 H   0  0  0  0  0  0  0  0  0  0  0  0
  147.6720  142.9440  155.7829 H   0  0  0  0  0  0  0  0  0  0  0  0
  1  2  1  0  0  0  0
  1 23  1  0  0  0  0
  1 24  1  0  0  0  0
  1 25  1  0  0  0  0
  2 21  1  0  0  0  0
  2  3  2  0  0  0  0
  3  4  1  0  0  0  0
  3 26  1  0  0  0  0
  4 19  2  0  0  0  0
  4  5  1  0  0  0  0
  5  6  2  0  0  0  0
  6  7  1  0  0  0  0
  6 27  1  0  0  0  0
  7  8  1  0  0  0  0
  7 19  1  0  0  0  0
  8  9  1  0  0  0  0
  8 28  1  0  0  0  0
  8 29  1  0  0  0  0
  9 10  1  0  0  0  0
  9 11  1  0  0  0  0
  9 30  1  0  0  0  0
 10 31  1  0  0  0  0
 11 12  1  0  0  0  0
 11 32  1  0  0  0  0
 11 33  1  0  0  0  0
 12 18  1  0  0  0  0
 12 13  1  0  0  0  0
 12 44  1  0  0  0  0
 13 14  1  0  0  0  0
 13 34  1  0  0  0  0
 13 35  1  0  0  0  0
 14 15  1  0  0  0  0
 14 36  1  0  0  0  0
 14 37  1  0  0  0  0
 15 16  1  0  0  0  0
 16 17  2  0  0  0  0
 16 18  1  0  0  0  0
 18 38  1  0  0  0  0
 18 39  1  0  0  0  0
 19 20  1  0  0  0  0
 20 21  2  0  0  0  0
 20 40  1  0  0  0  0
 21 22  1  0  0  0  0
 22 41  1  0  0  0  0
 22 42  1  0  0  0  0
 22 43  1  0  0  0  0
M  CHG  1  12   1
M  CHG  1  15  -1
M  END
> <s_m_source_file>
AV-unprocessed.smi

> <i_m_source_file_index>
1056

> <i_lp_mmshare_version>
43012

> <i_f3d_flags>
0

> <s_epik_input>
W0NIM11jKFtjSF0xKWMoW0NIM10pW2NIXWMoYzEyKW4oW2NIXW4yKVtDSDJdW0NASF0oW09IXSlbQ0gyXU4zW0NIMl1bQ0gyXVtOSF1DKD1PKVtDSDJdMw==

> <s_epik_cmdline>
J2VwaWtfcHl0aG9uJywgJy1waCcsICc3LjAnLCAnLXRuJywgJzgnLCAnLW1hJywgJzIwMCcsICctbWV0YWxfYmluZGluZycsICctaW1hZScsICc8aW5maWxlLm1hZT4nLCAnLW9tYWUnLCAnPG91dGZpbGUubWFlPic=

> <r_epik_Ionization_Penalty>
5.13411

> <r_epik_Ionization_Penalty_Charging>
5.04792

> <r_epik_Ionization_Penalty_Neutral>
0.0861879

> <r_epik_State_Penalty>
5.18224

> <r_epik_Charging_Adjusted_Penalty>
10.2302

> <i_epik_Tot_Q>
0

> <i_epik_Tot_abs_Q>
2

> <r_epik_Metal_State_Penalty>
1.33873

> <b_epik_Metal_Only>
1

> <s_lp_Force_Field>
OPLS_2005

> <r_lp_Energy>
16.7981

> <b_lp_Chiralities_Consistent>
1

> <s_lp_Variant>
AV-unprocessed.smi:1056-15

> <Gold.Version>
5.8.1

> <Gold.Id.Protein>
6NUR|6NUR_protein|mol2

> <Gold.PLP.Fitness>
55.6559

> <Gold.PLP.PLP>
-42.8662

> <Gold.PLP.part.hbond>
-4.1449

> <Gold.PLP.part.metal>
0.0000

> <Gold.PLP.part.buried>
-6.3081

> <Gold.PLP.part.nonpolar>
-32.9808

> <Gold.PLP.part.repulsive>
0.2046

> <Gold.PLP.ligand.clash>
0.0000

> <Gold.PLP.ligand.torsion>
0.5080

> <Gold.PLP.Chemscore.Hbond>
4.5600

> <Gold.PLP.Chemscore.CHOScore>
0.0000

> <Gold.PLP.Chemscore.Metal>
0.0000

> <Gold.Chemscore.Hbonds>
donor molecule, donor type, donor heavy atom, donor atom, acceptor molecule, acceptor atom, score
      L1  H    10    31       P1  7957  0.78
      L1  H    12    44       P1  8028  1.53
      P1  H  6934  6946       L1    17  0.74
      P1  H  7997  8010       L1     5  0.80

> <Gold.PLP.Chemscore.Internal.Correction>
0.1256

> <Gold.Rescore>
     Score         DG    S(hbond)    S(metal)    S(lipo)     H(rot)  DE(clash)    DE(int)     intcor
     18.72     -19.49       2.21        0.00     107.27       2.31       0.21       0.56       ----

> <Gold.Chemscore.Fitness>
18.7191

> <Gold.Chemscore.DG>
-19.4890

> <Gold.Chemscore.ZeroCoef>
-5.4800

> <Gold.Chemscore.Hbond>
2.2107

> <Gold.Chemscore.Metal>
0.0000

> <Gold.Chemscore.Lipo>
107.2718

> <Gold.Chemscore.Internal_Hbond>
0.0000

> <Gold.Chemscore.DEClash>
0.2092

> <Gold.Chemscore.DEInternal>
0.5607

> <Gold.Chemscore.Rot>
2.3147

> <Gold.Chemscore.Internal.Correction>
   9.000000E+99

> <Gold.Chemscore.Hbonds>
donor molecule, donor type, donor heavy atom, donor atom, acceptor molecule, acceptor atom, score
      L1  H    10    31       P1  7957  0.77
      L1  H    12    44       P1  8028  0.30
      P1  H  6934  6946       L1    17  0.74
      P1  H  7997  8010       L1     5  0.05

> <Gold.Chemscore.Hbond.Weighted>
-7.3838

> <Gold.Chemscore.Metal.Weighted>
-0.0000

> <Gold.Chemscore.Lipo.Weighted>
-12.5508

> <Gold.Chemscore.Internal_Hbond.Weighted>
0.0000

> <Gold.Chemscore.DEClash.Weighted>
0.2092

> <Gold.Chemscore.DEInternal.Weighted>
0.5607

> <Gold.Chemscore.Rot.Weighted>
5.9256

> <Gold.Chemscore.Internal.Correction.Weighted>
   9.000000E+99

> <Gold.Protein.RotatedTorsions>
[ 6907 6896 6895 6894 ] final   23.61 input  -60.11 | X-H torsion
[ 7974 7965 7964 7962 ] final   49.17 input  175.53 | X-H torsion
[ 8008 7997 7996 7995 ] final   66.79 input   59.86 | X-H torsion
[ 10167 10162 10161 10158 ] final   61.54 input  -65.29 | X-H torsion
[ 10718 10713 10712 10709 ] final -149.75 input   66.30 | X-H torsion
[ 10763 10752 10751 10750 ] final  128.29 input  -60.55 | X-H torsion
[ 11005 11000 10999 10996 ] final  -36.03 input  -57.11 | X-H torsion

> <Gold.Protein.ActiveResidues>
 VAL166  LYS551  ARG553  GLY616  TRP617  ASP618  TYR619  PRO620  LYS621  CYS622 
 ASP623  PHE694  ASN695  SER759  ASP760  ASP761  ALA762  ILE779  LEU786  VAL792 
 PHE793  MET794  SER795  GLU796  ALA797  LYS798  CYS799  TRP800  GLU811  SER814 

> <Gold.Protein.RotatedAtoms>
  151.9450  135.0196  160.0538 H   0  0  0  0  0  0  0  0  0  0  0  0  # atno 6907 bound_to 6896
  152.2003  133.4832  159.5063 H   0  0  0  0  0  0  0  0  0  0  0  0  # atno 6908 bound_to 6896
  150.6953  134.1516  159.4185 H   0  0  0  0  0  0  0  0  0  0  0  0  # atno 6909 bound_to 6896
  146.0135  139.4569  142.9941 H   0  0  0  0  0  0  0  0  0  0  0  0  # atno 7974 bound_to 7965
  155.6829  140.3496  155.4862 H   0  0  0  0  0  0  0  0  0  0  0  0  # atno 8008 bound_to 7997
  155.9591  140.1134  157.0933 H   0  0  0  0  0  0  0  0  0  0  0  0  # atno 8009 bound_to 7997
  154.4139  140.1179  156.5141 H   0  0  0  0  0  0  0  0  0  0  0  0  # atno 8010 bound_to 7997
  140.1537  144.4438  150.6746 H   0  0  0  0  0  0  0  0  0  0  0  0  # atno 10167 bound_to 10162
  156.4372  130.8104  151.2333 H   0  0  0  0  0  0  0  0  0  0  0  0  # atno 10718 bound_to 10713
  153.7232  135.3250  155.3271 H   0  0  0  0  0  0  0  0  0  0  0  0  # atno 10763 bound_to 10752
  154.8349  135.4504  154.1197 H   0  0  0  0  0  0  0  0  0  0  0  0  # atno 10764 bound_to 10752
  153.2323  135.6961  153.7956 H   0  0  0  0  0  0  0  0  0  0  0  0  # atno 10765 bound_to 10752
  140.9843  133.7039  156.1738 H   0  0  0  0  0  0  0  0  0  0  0  0  # atno 11005 bound_to 11000
  145.7305  141.0044  143.1354 LP  0  0  0  0  0  0  0  0  0  0  0  0  # atno 17320 bound_to 7965
  144.6962  139.8979  143.7457 LP  0  0  0  0  0  0  0  0  0  0  0  0  # atno 17321 bound_to 7965
  140.6687  143.2277  151.5680 LP  0  0  0  0  0  0  0  0  0  0  0  0  # atno 17342 bound_to 10162
  139.5414  144.2638  152.1357 LP  0  0  0  0  0  0  0  0  0  0  0  0  # atno 17343 bound_to 10162
  157.7507  131.0180  150.3607 LP  0  0  0  0  0  0  0  0  0  0  0  0  # atno 17370 bound_to 10713
  156.3956  130.3906  149.6997 LP  0  0  0  0  0  0  0  0  0  0  0  0  # atno 17371 bound_to 10713
  140.7138  134.4432  157.5580 LP  0  0  0  0  0  0  0  0  0  0  0  0  # atno 17394 bound_to 11000
  139.8964  134.8661  156.2091 LP  0  0  0  0  0  0  0  0  0  0  0  0  # atno 17395 bound_to 11000

$$$$
