AV-unprocessed.smi:34|AV-procd|sdf|225|dock10
  -GOLD-   2262015553D 1   1.00000     0.00000
 Structure written by MMmdl.
 55 59  0  0  0  0  0  0  0  0  1 V2000
  153.2661  140.2518  159.0929 O   0  0  0  0  0  0  0  0  0  0  0  0
  152.5121  141.0831  158.5863 C   0  0  0  0  0  0  0  0  0  0  0  0
  151.8757  140.8665  157.2987 N   0  0  0  0  0  0  0  0  0  0  0  0
  151.9266  139.7637  156.5150 C   0  0  0  0  0  0  0  0  0  0  0  0
  152.7972  139.6452  155.4783 N   0  0  0  0  0  0  0  0  0  0  0  0
  152.8094  138.5362  154.7336 C   0  0  0  0  0  0  0  0  0  0  0  0
  152.0505  137.4454  154.8516 N   0  0  0  0  0  0  0  0  0  0  0  0
  151.1722  137.5549  155.8898 C   0  0  0  0  0  0  0  0  0  0  0  0
  151.0505  138.6740  156.7602 C   0  0  0  0  0  0  0  0  0  0  0  0
  150.0558  138.4334  157.6991 N   0  0  0  0  0  0  0  0  0  0  0  0
  149.6200  137.2395  157.3991 C   0  0  0  0  0  0  0  0  0  0  0  0
  150.2341  136.6383  156.3225 N   0  0  0  0  0  0  0  0  0  0  0  0
  149.9527  135.2811  155.7515 C   0  0  2  0  0  0  0  0  0  0  0  0
  148.6925  134.8831  156.2002 O   0  0  0  0  0  0  0  0  0  0  0  0
  148.7512  133.5523  156.6971 C   0  0  2  0  0  0  0  0  0  0  0  0
  147.6772  133.3481  157.7721 C   0  0  0  0  0  0  0  0  0  0  0  0
  147.7634  134.3861  158.7346 O   0  0  0  0  0  0  0  0  0  0  0  0
  146.6402  134.9331  159.2384 C   0  0  0  0  0  0  0  0  0  0  0  0
  145.5460  134.8877  158.6723 O   0  0  0  0  0  0  0  0  0  0  0  0
  146.8592  135.5998  160.5544 C   0  0  0  0  0  0  0  0  0  0  0  0
  145.8097  136.3502  161.1344 C   0  0  0  0  0  0  0  0  0  0  0  0
  145.9874  136.9918  162.3754 C   0  0  0  0  0  0  0  0  0  0  0  0
  147.2171  136.8915  163.0516 C   0  0  0  0  0  0  0  0  0  0  0  0
  148.2694  136.1490  162.4849 C   0  0  0  0  0  0  0  0  0  0  0  0
  148.0936  135.5063  161.2439 C   0  0  0  0  0  0  0  0  0  0  0  0
  150.1842  133.4006  157.2042 C   0  0  1  0  0  0  0  0  0  0  0  0
  150.5712  132.1244  157.2090 F   0  0  0  0  0  0  0  0  0  0  0  0
  150.9786  134.2170  156.2006 C   0  0  2  0  0  0  0  0  0  0  0  0
  152.1621  134.7333  156.7830 O   0  0  0  0  0  0  0  0  0  0  0  0
  152.2626  142.4168  159.2290 C   0  0  0  0  0  0  0  0  0  0  0  0
  151.8767  143.5217  158.4370 C   0  0  0  0  0  0  0  0  0  0  0  0
  151.6569  144.7809  159.0287 C   0  0  0  0  0  0  0  0  0  0  0  0
  151.8269  144.9477  160.4159 C   0  0  0  0  0  0  0  0  0  0  0  0
  152.2223  143.8555  161.2108 C   0  0  0  0  0  0  0  0  0  0  0  0
  152.4439  142.5961  160.6203 C   0  0  0  0  0  0  0  0  0  0  0  0
  151.3070  141.6262  156.9547 H   0  0  0  0  0  0  0  0  0  0  0  0
  153.5303  138.5202  153.9296 H   0  0  0  0  0  0  0  0  0  0  0  0
  148.8299  136.7614  157.9597 H   0  0  0  0  0  0  0  0  0  0  0  0
  149.9465  135.4354  154.6718 H   0  0  0  0  0  0  0  0  0  0  0  0
  148.5803  132.8800  155.8544 H   0  0  0  0  0  0  0  0  0  0  0  0
  146.6853  133.3320  157.3185 H   0  0  0  0  0  0  0  0  0  0  0  0
  147.8259  132.3878  158.2673 H   0  0  0  0  0  0  0  0  0  0  0  0
  144.8564  136.4417  160.6339 H   0  0  0  0  0  0  0  0  0  0  0  0
  145.1785  137.5619  162.8084 H   0  0  0  0  0  0  0  0  0  0  0  0
  147.3531  137.3836  164.0034 H   0  0  0  0  0  0  0  0  0  0  0  0
  149.2144  136.0721  163.0022 H   0  0  0  0  0  0  0  0  0  0  0  0
  148.9223  134.9456  160.8367 H   0  0  0  0  0  0  0  0  0  0  0  0
  150.2884  133.7943  158.2160 H   0  0  0  0  0  0  0  0  0  0  0  0
  151.2273  133.6066  155.3313 H   0  0  0  0  0  0  0  0  0  0  0  0
  152.0993  134.6442  157.7215 H   0  0  0  0  0  0  0  0  0  0  0  0
  151.7428  143.4109  157.3705 H   0  0  0  0  0  0  0  0  0  0  0  0
  151.3588  145.6195  158.4169 H   0  0  0  0  0  0  0  0  0  0  0  0
  151.6582  145.9135  160.8689 H   0  0  0  0  0  0  0  0  0  0  0  0
  152.3588  143.9842  162.2746 H   0  0  0  0  0  0  0  0  0  0  0  0
  152.7572  141.7746  161.2478 H   0  0  0  0  0  0  0  0  0  0  0  0
  1  2  2  0  0  0  0
  2  3  1  0  0  0  0
  2 30  1  0  0  0  0
  3  4  1  0  0  0  0
  3 36  1  0  0  0  0
  4  9  1  0  0  0  0
  4  5  2  0  0  0  0
  5  6  1  0  0  0  0
  6  7  2  0  0  0  0
  6 37  1  0  0  0  0
  7  8  1  0  0  0  0
  8 12  1  0  0  0  0
  8  9  2  0  0  0  0
  9 10  1  0  0  0  0
 10 11  2  0  0  0  0
 11 12  1  0  0  0  0
 11 38  1  0  0  0  0
 12 13  1  0  0  0  0
 13 28  1  0  0  0  0
 13 14  1  0  0  0  0
 13 39  1  0  0  0  0
 14 15  1  0  0  0  0
 15 16  1  0  0  0  0
 15 26  1  0  0  0  0
 15 40  1  0  0  0  0
 16 17  1  0  0  0  0
 16 41  1  0  0  0  0
 16 42  1  0  0  0  0
 17 18  1  0  0  0  0
 18 19  2  0  0  0  0
 18 20  1  0  0  0  0
 20 25  1  0  0  0  0
 20 21  2  0  0  0  0
 21 22  1  0  0  0  0
 21 43  1  0  0  0  0
 22 23  2  0  0  0  0
 22 44  1  0  0  0  0
 23 24  1  0  0  0  0
 23 45  1  0  0  0  0
 24 25  2  0  0  0  0
 24 46  1  0  0  0  0
 25 47  1  0  0  0  0
 26 27  1  0  0  0  0
 26 28  1  0  0  0  0
 26 48  1  0  0  0  0
 28 29  1  0  0  0  0
 28 49  1  0  0  0  0
 29 50  1  0  0  0  0
 30 35  1  0  0  0  0
 30 31  2  0  0  0  0
 31 32  1  0  0  0  0
 31 51  1  0  0  0  0
 32 33  2  0  0  0  0
 32 52  1  0  0  0  0
 33 34  1  0  0  0  0
 33 53  1  0  0  0  0
 34 35  2  0  0  0  0
 34 54  1  0  0  0  0
 35 55  1  0  0  0  0
M  END
> <s_m_source_file>
AV-unprocessed.smi

> <i_m_source_file_index>
34

> <i_lp_mmshare_version>
43012

> <i_f3d_flags>
0

> <s_epik_input>
W2NIXTFbY0hdW2NIXVtjSF1bY0hdYzFDKD1PKVtOSF1jKG5bY0hdbjIpYyhjMjMpbltjSF1uM1tDQEBIXTRPW0NASF0oW0NAQEhdKEYpW0NASF00W09IXSlbQ0gyXU9DKD1PKWM1W2NIXVtjSF1bY0hdW2NIXVtjSF01

> <s_epik_cmdline>
J2VwaWtfcHl0aG9uJywgJy1waCcsICc3LjAnLCAnLXRuJywgJzgnLCAnLW1hJywgJzIwMCcsICctbWV0YWxfYmluZGluZycsICctaW1hZScsICc8aW5maWxlLm1hZT4nLCAnLW9tYWUnLCAnPG91dGZpbGUubWFlPic=

> <r_lp_tautomer_probability>
1

> <r_epik_Ionization_Penalty>
0.00257489

> <r_epik_Ionization_Penalty_Charging>
0

> <r_epik_Ionization_Penalty_Neutral>
0.00257489

> <r_epik_State_Penalty>
0.00519398

> <r_epik_Charging_Adjusted_Penalty>
0.00519398

> <i_epik_Tot_Q>
0

> <i_epik_Tot_abs_Q>
0

> <r_epik_Metal_State_Penalty>
0.335891

> <b_epik_Metal_Only>
0

> <s_epik_Chemistry_Notes>
This compound has an ester and may undergo hydrolysis at high or low pH. This compound contains an acetal/aminal-like group ( X-CH(R)-Y where X, Y are N, S, or O) that may be acid/base labile, releasing an aldehyde.

> <s_lp_Force_Field>
OPLS_2005

> <r_lp_Energy>
52.3036

> <b_lp_Chiralities_Consistent>
1

> <s_lp_Variant>
AV-unprocessed.smi:34-11

> <Gold.Version>
5.8.1

> <Gold.Id.Protein>
6NUR|6NUR_protein|mol2

> <Gold.PLP.Fitness>
57.1175

> <Gold.PLP.PLP>
-55.3589

> <Gold.PLP.part.hbond>
-3.5805

> <Gold.PLP.part.metal>
0.0000

> <Gold.PLP.part.buried>
-6.8173

> <Gold.PLP.part.nonpolar>
-45.7676

> <Gold.PLP.part.repulsive>
0.2525

> <Gold.PLP.ligand.clash>
0.0000

> <Gold.PLP.ligand.torsion>
2.1477

> <Gold.PLP.Chemscore.Hbond>
1.9920

> <Gold.PLP.Chemscore.CHOScore>
0.0000

> <Gold.PLP.Chemscore.Metal>
0.0000

> <Gold.Chemscore.Hbonds>
donor molecule, donor type, donor heavy atom, donor atom, acceptor molecule, acceptor atom, score
      P1  H  7997  8008       L1     5  1.00
      P1  H 10752 10763       L1    29  0.89

> <Gold.PLP.Chemscore.Internal.Correction>
0.0779

> <Gold.Rescore>
     Score         DG    S(hbond)    S(metal)    S(lipo)     H(rot)  DE(clash)    DE(int)     intcor
     16.34     -18.24       1.40        0.00     128.74       2.72       0.05       1.86       ----

> <Gold.Chemscore.Fitness>
16.3395

> <Gold.Chemscore.DG>
-18.2427

> <Gold.Chemscore.ZeroCoef>
-5.4800

> <Gold.Chemscore.Hbond>
1.3975

> <Gold.Chemscore.Metal>
0.0000

> <Gold.Chemscore.Lipo>
128.7368

> <Gold.Chemscore.Internal_Hbond>
0.0000

> <Gold.Chemscore.DEClash>
0.0456

> <Gold.Chemscore.DEInternal>
1.8576

> <Gold.Chemscore.Rot>
2.7215

> <Gold.Chemscore.Internal.Correction>
   9.000000E+99

> <Gold.Chemscore.Hbonds>
donor molecule, donor type, donor heavy atom, donor atom, acceptor molecule, acceptor atom, score
      P1  H  7997  8008       L1     5  0.37
      P1  H 10752 10763       L1    29  0.37

> <Gold.Chemscore.Hbond.Weighted>
-4.6676

> <Gold.Chemscore.Metal.Weighted>
-0.0000

> <Gold.Chemscore.Lipo.Weighted>
-15.0622

> <Gold.Chemscore.Internal_Hbond.Weighted>
0.0000

> <Gold.Chemscore.DEClash.Weighted>
0.0456

> <Gold.Chemscore.DEInternal.Weighted>
1.8576

> <Gold.Chemscore.Rot.Weighted>
6.9670

> <Gold.Chemscore.Internal.Correction.Weighted>
   9.000000E+99

> <Gold.Protein.RotatedTorsions>
[ 6907 6896 6895 6894 ] final  -73.05 input  -60.11 | X-H torsion
[ 7974 7965 7964 7962 ] final  -17.59 input  175.53 | X-H torsion
[ 8008 7997 7996 7995 ] final  -35.40 input   59.86 | X-H torsion
[ 10167 10162 10161 10158 ] final  -29.95 input  -65.29 | X-H torsion
[ 10718 10713 10712 10709 ] final -134.00 input   66.30 | X-H torsion
[ 10763 10752 10751 10750 ] final   98.78 input  -60.55 | X-H torsion
[ 11005 11000 10999 10996 ] final   10.21 input  -57.11 | X-H torsion

> <Gold.Protein.ActiveResidues>
 VAL166  LYS551  ARG553  GLY616  TRP617  ASP618  TYR619  PRO620  LYS621  CYS622 
 ASP623  PHE694  ASN695  SER759  ASP760  ASP761  ALA762  ILE779  LEU786  VAL792 
 PHE793  MET794  SER795  GLU796  ALA797  LYS798  CYS799  TRP800  GLU811  SER814 

> <Gold.Protein.RotatedAtoms>
  150.7145  134.5074  159.5590 H   0  0  0  0  0  0  0  0  0  0  0  0  # atno 6907 bound_to 6896
  152.2658  134.7983  160.0432 H   0  0  0  0  0  0  0  0  0  0  0  0  # atno 6908 bound_to 6896
  151.8681  133.3435  159.3762 H   0  0  0  0  0  0  0  0  0  0  0  0  # atno 6909 bound_to 6896
  146.1934  140.3800  142.8450 H   0  0  0  0  0  0  0  0  0  0  0  0  # atno 7974 bound_to 7965
  154.4096  140.1658  156.2206 H   0  0  0  0  0  0  0  0  0  0  0  0  # atno 8008 bound_to 7997
  155.9367  140.3411  155.6270 H   0  0  0  0  0  0  0  0  0  0  0  0  # atno 8009 bound_to 7997
  155.7039  140.0748  157.2389 H   0  0  0  0  0  0  0  0  0  0  0  0  # atno 8010 bound_to 7997
  140.7255  143.3887  151.1468 H   0  0  0  0  0  0  0  0  0  0  0  0  # atno 10167 bound_to 10162
  156.2508  130.7152  151.1050 H   0  0  0  0  0  0  0  0  0  0  0  0  # atno 10718 bound_to 10713
  153.2932  135.4136  155.1186 H   0  0  0  0  0  0  0  0  0  0  0  0  # atno 10763 bound_to 10752
  154.8527  135.3523  154.5952 H   0  0  0  0  0  0  0  0  0  0  0  0  # atno 10764 bound_to 10752
  153.6375  135.7058  153.5311 H   0  0  0  0  0  0  0  0  0  0  0  0  # atno 10765 bound_to 10752
  140.5171  134.0595  155.7834 H   0  0  0  0  0  0  0  0  0  0  0  0  # atno 11005 bound_to 11000
  144.8531  140.7030  143.6155 LP  0  0  0  0  0  0  0  0  0  0  0  0  # atno 17320 bound_to 7965
  145.3722  139.1656  143.4326 LP  0  0  0  0  0  0  0  0  0  0  0  0  # atno 17321 bound_to 7965
  139.7489  143.8809  152.3071 LP  0  0  0  0  0  0  0  0  0  0  0  0  # atno 17342 bound_to 10162
  139.8656  144.7095  150.9048 LP  0  0  0  0  0  0  0  0  0  0  0  0  # atno 17343 bound_to 10162
  157.7214  131.0679  150.6121 LP  0  0  0  0  0  0  0  0  0  0  0  0  # atno 17370 bound_to 10713
  156.6201  130.4403  149.5825 LP  0  0  0  0  0  0  0  0  0  0  0  0  # atno 17371 bound_to 10713
  141.1354  133.9230  157.2444 LP  0  0  0  0  0  0  0  0  0  0  0  0  # atno 17394 bound_to 11000
  139.9626  135.0150  156.9303 LP  0  0  0  0  0  0  0  0  0  0  0  0  # atno 17395 bound_to 11000

$$$$
