#       Name:                AV-unprocessed.smi:690
#       Creating user name   scv26
#       Creation time:       Fri Mar 27 00:34:10 2020


#       File generated by GOLD software.
#

@<TRIPOS>MOLECULE
AV-unprocessed.smi:690
    52    54     1
SMALL
NO_CHARGES


@<TRIPOS>ATOM
      1 ****        -4.9043   2.4027   2.1798 C.3            1 S1                 0.0000
      2 ****        -3.3807   2.4885   2.0695 C.3            1 S1                 0.0000
      3 ****        -2.8585   1.1777   1.9355 O.3            1 S1                 0.0000
      4 ****        -1.4426   1.1538   1.8481 C.3            1 S1                 0.0000
      5 ****        -0.8771   1.5393   0.4776 C.3            1 S1                 0.0000
      6 ****         0.1729   0.4530   0.7302 C.3            1 S1                 0.0000
      7 ****         0.5358  -0.2862  -0.4730 N.am           1 S1                 0.0000
      8 ****         1.4272   0.1324  -1.3818 C.2            1 S1                 0.0000
      9 ****         2.0267   1.2045  -1.2927 O.2            1 S1                 0.0000
     10 ****         1.6527  -0.7976  -2.5820 C.3            1 S1                 0.0000
     11 ****         2.9953  -0.6652  -3.1713 N.am           1 S1                 0.0000
     12 ****         3.1167   0.1410  -4.3209 C.2            1 S1                 0.0000
     13 ****         4.2960   0.3308  -4.9333 C.2            1 S1                 0.0000
     14 ****         5.4628  -0.3184  -4.3841 C.2            1 S1                 0.0000
     15 ****         5.3582  -1.0899  -3.2837 C.2            1 S1                 0.0000
     16 ****         4.0713  -1.2992  -2.6103 C.2            1 S1                 0.0000
     17 ****         3.9668  -2.0019  -1.6045 O.2            1 S1                 0.0000
     18 ****        -0.8602  -0.2656   1.6328 C.3            1 S1                 0.0000
     19 ****        -1.7890  -1.3217   1.0187 C.3            1 S1                 0.0000
     20 ****        -2.4530  -2.0527   2.1871 C.3            1 S1                 0.0000
     21 ****        -1.4926  -1.8917   3.3703 C.3            1 S1                 0.0000
     22 ****        -0.3520  -0.9982   2.8698 C.3            1 S1                 0.0000
     23 ****        -5.3435   3.3941   2.2910 H              1 S1                 0.0000
     24 ****        -5.2003   1.8064   3.0431 H              1 S1                 0.0000
     25 ****        -5.3357   1.9430   1.2904 H              1 S1                 0.0000
     26 ****        -3.1033   3.0976   1.2082 H              1 S1                 0.0000
     27 ****        -2.9702   2.9673   2.9596 H              1 S1                 0.0000
     28 ****        -0.9525   1.6825   2.6693 H              1 S1                 0.0000
     29 ****        -1.5555   1.3147  -0.3478 H              1 S1                 0.0000
     30 ****        -0.4808   2.5529   0.4147 H              1 S1                 0.0000
     31 ****         1.0277   0.8273   1.2990 H              1 S1                 0.0000
     32 ****         0.0818  -1.1759  -0.6207 H              1 S1                 0.0000
     33 ****         1.4769  -1.8328  -2.2826 H              1 S1                 0.0000
     34 ****         0.8840  -0.5816  -3.3251 H              1 S1                 0.0000
     35 ****         2.1987   0.5957  -4.6640 H              1 S1                 0.0000
     36 ****         4.3709   0.9556  -5.8111 H              1 S1                 0.0000
     37 ****         6.4245  -0.1835  -4.8570 H              1 S1                 0.0000
     38 ****         6.2422  -1.5667  -2.8862 H              1 S1                 0.0000
     39 ****        -2.5293  -0.8963   0.3405 H              1 S1                 0.0000
     40 ****        -1.2141  -2.0463   0.4408 H              1 S1                 0.0000
     41 ****        -3.4097  -1.5855   2.4237 H              1 S1                 0.0000
     42 ****        -2.6481  -3.0994   1.9520 H              1 S1                 0.0000
     43 ****        -2.0098  -1.4181   4.2056 H              1 S1                 0.0000
     44 ****        -1.1155  -2.8527   3.7211 H              1 S1                 0.0000
     45 ****         0.5044  -1.6196   2.6042 H              1 S1                 0.0000
     46 ****        -0.0130  -0.3154   3.6495 H              1 S1                 0.0000
     47 ****        -3.2364   0.7670   1.1058 LP             1 S1                 0.0000
     48 ****        -3.1383   0.6400   2.7308 LP             1 S1                 0.0000
     49 ****         1.8573   1.8089  -0.5142 LP             1 S1                 0.0000
     50 ****         2.6828   1.4707  -1.9988 LP             1 S1                 0.0000
     51 ****         3.0742  -2.1242  -1.1705 LP             1 S1                 0.0000
     52 ****         4.7745  -2.4502  -1.2217 LP             1 S1                 0.0000
@<TRIPOS>BOND
    1    1    2 1     
    2    1   23 1     
    3    1   24 1     
    4    1   25 1     
    5    2    3 1     
    6    2   26 1     
    7    2   27 1     
    8    3    4 1     
    9    4   18 1     
   10    4    5 1     
   11    4   28 1     
   12    5    6 1     
   13    5   29 1     
   14    5   30 1     
   15    6    7 1     
   16    6   18 1     
   17    6   31 1     
   18    7    8 am    
   19    7   32 1     
   20    8    9 2     
   21    8   10 1     
   22   10   11 1     
   23   10   33 1     
   24   10   34 1     
   25   11   16 am    
   26   11   12 1     
   27   12   13 2     
   28   12   35 1     
   29   13   14 1     
   30   13   36 1     
   31   14   15 2     
   32   14   37 1     
   33   15   16 1     
   34   15   38 1     
   35   16   17 2     
   36   18   22 1     
   37   18   19 1     
   38   19   20 1     
   39   19   39 1     
   40   19   40 1     
   41   20   21 1     
   42   20   41 1     
   43   20   42 1     
   44   21   22 1     
   45   21   43 1     
   46   21   44 1     
   47   22   45 1     
   48   22   46 1     
   49    3   47 1     
   50    3   48 1     
   51    9   49 1     
   52    9   50 1     
   53   17   51 1     
   54   17   52 1     
@<TRIPOS>SUBSTRUCTURE
      1 S1             1
@<TRIPOS>SET
LONE_PAIRS      STATIC     ATOMS    <user>   **** ""
6 47 48 49 50 51 52
DONOR_HYDROGENS      STATIC     ATOMS    <user>   **** ""
1 32
ATOM$BLUE        STATIC     ATOMS    COLORGROUP SYSTEM
6 47 48 49 50 51 52
ATOM$RED        STATIC     ATOMS    COLORGROUP SYSTEM
1 32
