#       Name:                AV-unprocessed.smi:2323
#       Creating user name   scv26
#       Creation time:       Fri Mar 27 12:51:21 2020


#       File generated by GOLD software.
#

@<TRIPOS>MOLECULE
AV-unprocessed.smi:2323
    37    38     1
SMALL
NO_CHARGES


@<TRIPOS>ATOM
      1 ****        -5.1771  -0.3937   0.2610 C.3            1 S1                 0.0000
      2 ****        -3.7657  -0.0479   0.1946 N.am           1 S1                 0.0000
      3 ****        -3.2999   1.1676  -0.1310 C.2            1 S1                 0.0000
      4 ****        -4.0286   2.1274  -0.3844 O.2            1 S1                 0.0000
      5 ****        -1.8058   1.3196  -0.1048 C.ar           1 S1                 0.0000
      6 ****        -1.2201   2.5697   0.1909 C.ar           1 S1                 0.0000
      7 ****         0.1835   2.6773   0.1837 C.ar           1 S1                 0.0000
      8 ****         1.0043   1.6447  -0.0988 N.ar           1 S1                 0.0000
      9 ****         0.4473   0.4444  -0.3940 C.ar           1 S1                 0.0000
     10 ****         1.2708  -0.6227  -0.6941 O.3            1 S1                 0.0000
     11 ****         2.6893  -0.4554  -0.6443 C.3            1 S1                 0.0000
     12 ****         3.1983  -0.5193   0.7905 C.3            1 S1                 0.0000
     13 ****         3.4393  -2.0083   0.9888 C.3            1 S1                 0.0000
     14 ****         3.9933  -2.4046  -0.2538 O.3            1 S1                 0.0000
     15 ****         3.3357  -1.6882  -1.2947 C.3            1 S1                 0.0000
     16 ****        -0.9472   0.2389  -0.4126 C.ar           1 S1                 0.0000
     17 ****        -5.2911  -1.4344   0.5639 H              1 S1                 0.0000
     18 ****        -5.6532  -0.2673  -0.7121 H              1 S1                 0.0000
     19 ****        -5.6971   0.2318   0.9877 H              1 S1                 0.0000
     20 ****        -3.0987  -0.7748   0.4101 H              1 S1                 0.0000
     21 ****        -1.8283   3.4325   0.4218 H              1 S1                 0.0000
     22 ****         0.6603   3.6197   0.4094 H              1 S1                 0.0000
     23 ****         3.0064   0.4535  -1.1585 H              1 S1                 0.0000
     24 ****         4.1444   0.0176   0.8703 H              1 S1                 0.0000
     25 ****         2.5107  -0.0995   1.5250 H              1 S1                 0.0000
     26 ****         4.1134  -2.2223   1.8184 H              1 S1                 0.0000
     27 ****         2.4999  -2.5372   1.1579 H              1 S1                 0.0000
     28 ****         2.5904  -2.3273  -1.7705 H              1 S1                 0.0000
     29 ****         4.0650  -1.4062  -2.0548 H              1 S1                 0.0000
     30 ****        -1.3390  -0.7357  -0.6650 H              1 S1                 0.0000
     31 ****        -5.0226   2.0225  -0.3531 LP             1 S1                 0.0000
     32 ****        -3.6264   3.0117  -0.6215 LP             1 S1                 0.0000
     33 ****         1.9974   1.7615  -0.0907 LP             1 S1                 0.0000
     34 ****         1.0448  -0.9113  -1.6245 LP             1 S1                 0.0000
     35 ****         1.0420  -1.3554  -0.0531 LP             1 S1                 0.0000
     36 ****         3.8592  -3.3869  -0.3843 LP             1 S1                 0.0000
     37 ****         4.9714  -2.1969  -0.2680 LP             1 S1                 0.0000
@<TRIPOS>BOND
    1    1    2 1     
    2    1   17 1     
    3    1   18 1     
    4    1   19 1     
    5    2    3 am    
    6    2   20 1     
    7    3    4 2     
    8    3    5 1     
    9    5   16 ar    
   10    5    6 ar    
   11    6    7 ar    
   12    6   21 1     
   13    7    8 ar    
   14    7   22 1     
   15    8    9 ar    
   16    9   10 1     
   17    9   16 ar    
   18   10   11 1     
   19   11   15 1     
   20   11   12 1     
   21   11   23 1     
   22   12   13 1     
   23   12   24 1     
   24   12   25 1     
   25   13   14 1     
   26   13   26 1     
   27   13   27 1     
   28   14   15 1     
   29   15   28 1     
   30   15   29 1     
   31   16   30 1     
   32    4   31 1     
   33    4   32 1     
   34    8   33 1     
   35   10   34 1     
   36   10   35 1     
   37   14   36 1     
   38   14   37 1     
@<TRIPOS>SUBSTRUCTURE
      1 S1             1
@<TRIPOS>SET
LONE_PAIRS      STATIC     ATOMS    <user>   **** ""
7 31 32 33 34 35 36 37
DONOR_HYDROGENS      STATIC     ATOMS    <user>   **** ""
1 20
ATOM$BLUE        STATIC     ATOMS    COLORGROUP SYSTEM
7 31 32 33 34 35 36 37
ATOM$RED        STATIC     ATOMS    COLORGROUP SYSTEM
1 20
