AV-unprocessed.smi:668|AV-procd|sdf|3260|dock2
  -GOLD-   22720 0213D 1   1.00000     0.00000
 Structure written by MMmdl.
 38 39  0  0  0  0  0  0  0  0  1 V2000
  150.4369  142.3049  157.4360 C   0  0  0  0  0  0  0  0  0  0  0  0
  150.9820  141.7483  156.2448 O   0  0  0  0  0  0  0  0  0  0  0  0
  150.2117  140.8576  155.5256 C   0  0  0  0  0  0  0  0  0  0  0  0
  148.8095  140.9847  155.5767 C   0  0  0  0  0  0  0  0  0  0  0  0
  148.0153  140.0784  154.8486 C   0  0  0  0  0  0  0  0  0  0  0  0
  148.6522  139.0727  154.0821 C   0  0  0  0  0  0  0  0  0  0  0  0
  147.9730  138.0865  153.3152 N   0  0  0  0  0  0  0  0  0  0  0  0
  146.6522  137.8774  153.1810 C   0  0  0  0  0  0  0  0  0  0  0  0
  145.7633  138.5509  153.7010 O   0  0  0  0  0  0  0  0  0  0  0  0
  146.4093  136.8236  152.3892 N   0  0  0  0  0  0  0  0  0  0  0  0
  145.0782  136.3150  152.0533 C   0  0  1  0  0  0  0  0  0  0  0  0
  145.0545  135.7041  150.6397 C   0  0  0  0  0  0  0  0  0  0  0  0
  144.1986  134.4331  150.7186 C   0  0  0  0  0  0  0  0  0  0  0  0
  143.5721  134.4315  152.1162 C   0  0  0  0  0  0  0  0  0  0  0  0
  144.5397  135.2196  153.0117 C   0  0  1  0  0  0  0  0  0  0  0  0
  145.6162  134.2911  153.6154 C   0  0  0  0  0  0  0  0  0  0  0  0
  145.1835  133.2312  154.3029 N   0  0  0  0  0  0  0  0  0  0  0  0
  146.8150  134.5272  153.4731 O   0  0  0  0  0  0  0  0  0  0  0  0
  150.0615  139.0269  154.1053 C   0  0  0  0  0  0  0  0  0  0  0  0
  150.8287  139.8917  154.8015 N   0  0  0  0  0  0  0  0  0  0  0  0
  151.1644  142.9825  157.8826 H   0  0  0  0  0  0  0  0  0  0  0  0
  150.2104  141.5318  158.1717 H   0  0  0  0  0  0  0  0  0  0  0  0
  149.5328  142.8796  157.2300 H   0  0  0  0  0  0  0  0  0  0  0  0
  148.3496  141.7621  156.1689 H   0  0  0  0  0  0  0  0  0  0  0  0
  146.9426  140.1706  154.9068 H   0  0  0  0  0  0  0  0  0  0  0  0
  148.5707  137.4781  152.7749 H   0  0  0  0  0  0  0  0  0  0  0  0
  147.1972  136.3239  152.0032 H   0  0  0  0  0  0  0  0  0  0  0  0
  144.3728  137.1487  152.0647 H   0  0  0  0  0  0  0  0  0  0  0  0
  144.6417  136.4151  149.9229 H   0  0  0  0  0  0  0  0  0  0  0  0
  146.0570  135.4466  150.2944 H   0  0  0  0  0  0  0  0  0  0  0  0
  143.4417  134.3971  149.9344 H   0  0  0  0  0  0  0  0  0  0  0  0
  144.8342  133.5555  150.5955 H   0  0  0  0  0  0  0  0  0  0  0  0
  142.6120  134.9483  152.0850 H   0  0  0  0  0  0  0  0  0  0  0  0
  143.3773  133.4197  152.4752 H   0  0  0  0  0  0  0  0  0  0  0  0
  143.9906  135.6850  153.8322 H   0  0  0  0  0  0  0  0  0  0  0  0
  145.8473  132.5903  154.7130 H   0  0  0  0  0  0  0  0  0  0  0  0
  144.1919  133.0717  154.4055 H   0  0  0  0  0  0  0  0  0  0  0  0
  150.5939  138.2718  153.5453 H   0  0  0  0  0  0  0  0  0  0  0  0
  1  2  1  0  0  0  0
  1 21  1  0  0  0  0
  1 22  1  0  0  0  0
  1 23  1  0  0  0  0
  2  3  1  0  0  0  0
  3 20  1  0  0  0  0
  3  4  2  0  0  0  0
  4  5  1  0  0  0  0
  4 24  1  0  0  0  0
  5  6  2  0  0  0  0
  5 25  1  0  0  0  0
  6  7  1  0  0  0  0
  6 19  1  0  0  0  0
  7  8  1  0  0  0  0
  7 26  1  0  0  0  0
  8  9  2  0  0  0  0
  8 10  1  0  0  0  0
 10 11  1  0  0  0  0
 10 27  1  0  0  0  0
 11 15  1  0  0  0  0
 11 12  1  0  0  0  0
 11 28  1  0  0  0  0
 12 13  1  0  0  0  0
 12 29  1  0  0  0  0
 12 30  1  0  0  0  0
 13 14  1  0  0  0  0
 13 31  1  0  0  0  0
 13 32  1  0  0  0  0
 14 15  1  0  0  0  0
 14 33  1  0  0  0  0
 14 34  1  0  0  0  0
 15 16  1  0  0  0  0
 15 35  1  0  0  0  0
 16 17  1  0  0  0  0
 16 18  2  0  0  0  0
 17 36  1  0  0  0  0
 17 37  1  0  0  0  0
 19 20  2  0  0  0  0
 19 38  1  0  0  0  0
M  END
> <s_m_source_file>
AV-unprocessed.smi

> <i_m_source_file_index>
668

> <i_lp_mmshare_version>
43012

> <i_f3d_flags>
0

> <s_epik_input>
W0NIM11PYzFbY0hdW2NIXWMoW2NIXW4xKVtOSF1DKD1PKVtOSF1bQ0BASF0yW0NIMl1bQ0gyXVtDSDJdW0NASF0yQyg9TylbTkgyXQ==

> <s_epik_cmdline>
J2VwaWtfcHl0aG9uJywgJy1waCcsICc3LjAnLCAnLXRuJywgJzgnLCAnLW1hJywgJzIwMCcsICctbWV0YWxfYmluZGluZycsICctaW1hZScsICc8aW5maWxlLm1hZT4nLCAnLW9tYWUnLCAnPG91dGZpbGUubWFlPic=

> <r_lp_tautomer_probability>
1

> <r_epik_Ionization_Penalty>
9.0916e-05

> <r_epik_Ionization_Penalty_Charging>
0

> <r_epik_Ionization_Penalty_Neutral>
9.0916e-05

> <r_epik_State_Penalty>
-0

> <r_epik_Charging_Adjusted_Penalty>
0

> <i_epik_Tot_Q>
0

> <i_epik_Tot_abs_Q>
0

> <r_epik_Metal_State_Penalty>
-0

> <b_epik_Metal_Only>
0

> <s_lp_Force_Field>
OPLS_2005

> <r_lp_Energy>
16.947

> <b_lp_Chiralities_Consistent>
1

> <s_lp_Variant>
AV-unprocessed.smi:668-2

> <Gold.Version>
5.8.1

> <Gold.Id.Protein>
6NUR|6NUR_protein|mol2

> <Gold.PLP.Fitness>
37.2969

> <Gold.PLP.PLP>
-27.1966

> <Gold.PLP.part.hbond>
-4.0000

> <Gold.PLP.part.metal>
0.0000

> <Gold.PLP.part.buried>
-3.9491

> <Gold.PLP.part.nonpolar>
-20.9118

> <Gold.PLP.part.repulsive>
0.7460

> <Gold.PLP.ligand.clash>
0.0000

> <Gold.PLP.ligand.torsion>
0.8443

> <Gold.PLP.Chemscore.Hbond>
3.9200

> <Gold.PLP.Chemscore.CHOScore>
0.0000

> <Gold.PLP.Chemscore.Metal>
0.0000

> <Gold.Chemscore.Hbonds>
donor molecule, donor type, donor heavy atom, donor atom, acceptor molecule, acceptor atom, score
      L1  H     7    26       P1  7948  1.00
      L1  H    10    27       P1  7948  0.96
      L1  H    17    37       P1 10957  0.94
      P1  H  7989  7998       L1    20  1.00

> <Gold.PLP.Chemscore.Internal.Correction>
0.0288

> <Gold.Rescore>
     Score         DG    S(hbond)    S(metal)    S(lipo)     H(rot)  DE(clash)    DE(int)     intcor
     13.30     -17.09       3.04        0.00      53.23       1.86       0.10       3.68       ----

> <Gold.Chemscore.Fitness>
13.3033

> <Gold.Chemscore.DG>
-17.0854

> <Gold.Chemscore.ZeroCoef>
-5.4800

> <Gold.Chemscore.Hbond>
3.0392

> <Gold.Chemscore.Metal>
0.0000

> <Gold.Chemscore.Lipo>
53.2335

> <Gold.Chemscore.Internal_Hbond>
0.0000

> <Gold.Chemscore.DEClash>
0.0974

> <Gold.Chemscore.DEInternal>
3.6847

> <Gold.Chemscore.Rot>
1.8648

> <Gold.Chemscore.Internal.Correction>
   9.000000E+99

> <Gold.Chemscore.Hbonds>
donor molecule, donor type, donor heavy atom, donor atom, acceptor molecule, acceptor atom, score
      L1  H     7    26       P1  7948  0.97
      L1  H    10    27       P1  7948  0.92
      L1  H    17    37       P1 10957  0.84
      P1  H  7989  7998       L1    20  0.14

> <Gold.Chemscore.Hbond.Weighted>
-10.1510

> <Gold.Chemscore.Metal.Weighted>
-0.0000

> <Gold.Chemscore.Lipo.Weighted>
-6.2283

> <Gold.Chemscore.Internal_Hbond.Weighted>
0.0000

> <Gold.Chemscore.DEClash.Weighted>
0.0974

> <Gold.Chemscore.DEInternal.Weighted>
3.6847

> <Gold.Chemscore.Rot.Weighted>
4.7739

> <Gold.Chemscore.Internal.Correction.Weighted>
   9.000000E+99

> <Gold.Protein.RotatedTorsions>
[ 6907 6896 6895 6894 ] final  -54.76 input  -60.11 | X-H torsion
[ 7974 7965 7964 7962 ] final  178.76 input  175.53 | X-H torsion
[ 8008 7997 7996 7995 ] final   94.79 input   59.86 | X-H torsion
[ 10167 10162 10161 10158 ] final  -34.77 input  -65.29 | X-H torsion
[ 10718 10713 10712 10709 ] final  170.85 input   66.30 | X-H torsion
[ 10763 10752 10751 10750 ] final  139.81 input  -60.55 | X-H torsion
[ 11005 11000 10999 10996 ] final   57.56 input  -57.11 | X-H torsion

> <Gold.Protein.ActiveResidues>
 VAL166  LYS551  ARG553  GLY616  TRP617  ASP618  TYR619  PRO620  LYS621  CYS622 
 ASP623  PHE694  ASN695  SER759  ASP760  ASP761  ALA762  ILE779  LEU786  VAL792 
 PHE793  MET794  SER795  GLU796  ALA797  LYS798  CYS799  TRP800  GLU811  SER814 

> <Gold.Protein.RotatedAtoms>
  150.8310  134.7563  159.6853 H   0  0  0  0  0  0  0  0  0  0  0  0  # atno 6907 bound_to 6896
  152.4414  134.5579  159.9895 H   0  0  0  0  0  0  0  0  0  0  0  0  # atno 6908 bound_to 6896
  151.5740  133.3348  159.3031 H   0  0  0  0  0  0  0  0  0  0  0  0  # atno 6909 bound_to 6896
  144.7152  140.0446  143.6436 H   0  0  0  0  0  0  0  0  0  0  0  0  # atno 7974 bound_to 7965
  156.0618  140.3295  155.7470 H   0  0  0  0  0  0  0  0  0  0  0  0  # atno 8008 bound_to 7997
  155.5443  140.0604  157.2881 H   0  0  0  0  0  0  0  0  0  0  0  0  # atno 8009 bound_to 7997
  154.4485  140.1905  156.0611 H   0  0  0  0  0  0  0  0  0  0  0  0  # atno 8010 bound_to 7997
  140.7179  143.3524  151.2128 H   0  0  0  0  0  0  0  0  0  0  0  0  # atno 10167 bound_to 10162
  157.0021  131.0179  151.2827 H   0  0  0  0  0  0  0  0  0  0  0  0  # atno 10718 bound_to 10713
  153.9123  135.3010  155.3448 H   0  0  0  0  0  0  0  0  0  0  0  0  # atno 10763 bound_to 10752
  154.7617  135.4931  153.9480 H   0  0  0  0  0  0  0  0  0  0  0  0  # atno 10764 bound_to 10752
  153.1186  135.6777  153.9477 H   0  0  0  0  0  0  0  0  0  0  0  0  # atno 10765 bound_to 10752
  140.0444  134.5827  155.9342 H   0  0  0  0  0  0  0  0  0  0  0  0  # atno 11005 bound_to 11000
  145.9995  139.3079  143.0936 LP  0  0  0  0  0  0  0  0  0  0  0  0  # atno 17320 bound_to 7965
  145.8810  140.9363  143.0601 LP  0  0  0  0  0  0  0  0  0  0  0  0  # atno 17321 bound_to 7965
  139.7058  143.9458  152.2926 LP  0  0  0  0  0  0  0  0  0  0  0  0  # atno 17342 bound_to 10162
  139.9166  144.6825  150.8506 LP  0  0  0  0  0  0  0  0  0  0  0  0  # atno 17343 bound_to 10162
  157.5382  130.8103  149.7997 LP  0  0  0  0  0  0  0  0  0  0  0  0  # atno 17370 bound_to 10713
  156.0167  130.3811  150.2089 LP  0  0  0  0  0  0  0  0  0  0  0  0  # atno 17371 bound_to 10713
  141.1899  133.6567  156.5389 LP  0  0  0  0  0  0  0  0  0  0  0  0  # atno 17394 bound_to 11000
  140.4018  134.7350  157.4784 LP  0  0  0  0  0  0  0  0  0  0  0  0  # atno 17395 bound_to 11000

$$$$
