AV-unprocessed.smi:3060|AV-procd|sdf|11678|dock5
  -GOLD-   2272017 83D 1   1.00000     0.00000
 Structure written by MMmdl.
 42 43  0  0  0  0  0  0  0  0  1 V2000
  147.1381  139.3841  152.8585 C   0  0  0  0  0  0  0  0  0  0  0  0
  147.0820  140.8621  153.2587 C   0  0  0  0  0  0  0  0  0  0  0  0
  147.1375  141.0599  154.7408 C   0  0  0  0  0  0  0  0  0  0  0  0
  146.2091  141.6729  155.4635 N   0  0  0  0  0  0  0  0  0  0  0  0
  146.7066  141.6214  156.7519 N   0  0  0  0  0  0  0  0  0  0  0  0
  147.8625  141.0237  156.7900 N   0  0  0  0  0  0  0  0  0  0  0  0
  148.1570  140.6619  155.5165 N   0  0  0  0  0  0  0  0  0  0  0  0
  149.3975  139.9653  155.2071 C   0  0  0  0  0  0  0  0  0  0  0  0
  150.6337  140.6978  155.7424 C   0  0  0  0  0  0  0  0  0  0  0  0
  151.6724  140.6965  155.0828 O   0  0  0  0  0  0  0  0  0  0  0  0
  150.5217  141.2968  156.9404 N   0  0  0  0  0  0  0  0  0  0  0  0
  151.5696  142.0418  157.6335 C   0  0  0  0  0  0  0  0  0  0  0  0
  151.9196  141.2905  158.9416 C   0  0  0  0  0  0  0  0  0  0  0  0
  153.1576  141.8183  159.6940 C   0  0  0  0  0  0  0  0  0  0  0  0
  152.8621  142.6918  160.9288 C   0  0  0  0  0  0  0  0  0  0  0  0
  151.7587  143.7549  160.7820 C   0  0  0  0  0  0  0  0  0  0  0  0
  152.0306  144.8923  159.7812 C   0  0  0  0  0  0  0  0  0  0  0  0
  152.1387  144.5015  158.2945 C   0  0  0  0  0  0  0  0  0  0  0  0
  151.0791  143.5007  157.7909 C   0  0  0  0  0  0  0  0  0  0  0  0
  147.0994  139.2738  151.7746 H   0  0  0  0  0  0  0  0  0  0  0  0
  146.2988  138.8303  153.2803 H   0  0  0  0  0  0  0  0  0  0  0  0
  148.0590  138.9166  153.2086 H   0  0  0  0  0  0  0  0  0  0  0  0
  147.9187  141.3957  152.8067 H   0  0  0  0  0  0  0  0  0  0  0  0
  146.1777  141.3238  152.8620 H   0  0  0  0  0  0  0  0  0  0  0  0
  149.3612  138.9595  155.6257 H   0  0  0  0  0  0  0  0  0  0  0  0
  149.4753  139.8527  154.1246 H   0  0  0  0  0  0  0  0  0  0  0  0
  149.6296  141.2405  157.4096 H   0  0  0  0  0  0  0  0  0  0  0  0
  152.4593  142.0627  157.0015 H   0  0  0  0  0  0  0  0  0  0  0  0
  151.0547  141.2311  159.6028 H   0  0  0  0  0  0  0  0  0  0  0  0
  152.1343  140.2548  158.6732 H   0  0  0  0  0  0  0  0  0  0  0  0
  153.7328  140.9602  160.0439 H   0  0  0  0  0  0  0  0  0  0  0  0
  153.8346  142.3275  159.0103 H   0  0  0  0  0  0  0  0  0  0  0  0
  152.5691  142.0294  161.7443 H   0  0  0  0  0  0  0  0  0  0  0  0
  153.7861  143.1679  161.2579 H   0  0  0  0  0  0  0  0  0  0  0  0
  150.8013  143.2820  160.5689 H   0  0  0  0  0  0  0  0  0  0  0  0
  151.6199  144.2134  161.7617 H   0  0  0  0  0  0  0  0  0  0  0  0
  151.2178  145.6130  159.8792 H   0  0  0  0  0  0  0  0  0  0  0  0
  152.9330  145.4294  160.0751 H   0  0  0  0  0  0  0  0  0  0  0  0
  152.0376  145.4214  157.7173 H   0  0  0  0  0  0  0  0  0  0  0  0
  153.1413  144.1509  158.0568 H   0  0  0  0  0  0  0  0  0  0  0  0
  150.7679  143.8434  156.8024 H   0  0  0  0  0  0  0  0  0  0  0  0
  150.1742  143.5480  158.3973 H   0  0  0  0  0  0  0  0  0  0  0  0
  1  2  1  0  0  0  0
  1 20  1  0  0  0  0
  1 21  1  0  0  0  0
  1 22  1  0  0  0  0
  2  3  1  0  0  0  0
  2 23  1  0  0  0  0
  2 24  1  0  0  0  0
  3  7  1  0  0  0  0
  3  4  2  0  0  0  0
  4  5  1  0  0  0  0
  5  6  2  0  0  0  0
  6  7  1  0  0  0  0
  7  8  1  0  0  0  0
  8  9  1  0  0  0  0
  8 25  1  0  0  0  0
  8 26  1  0  0  0  0
  9 10  2  0  0  0  0
  9 11  1  0  0  0  0
 11 12  1  0  0  0  0
 11 27  1  0  0  0  0
 12 19  1  0  0  0  0
 12 13  1  0  0  0  0
 12 28  1  0  0  0  0
 13 14  1  0  0  0  0
 13 29  1  0  0  0  0
 13 30  1  0  0  0  0
 14 15  1  0  0  0  0
 14 31  1  0  0  0  0
 14 32  1  0  0  0  0
 15 16  1  0  0  0  0
 15 33  1  0  0  0  0
 15 34  1  0  0  0  0
 16 17  1  0  0  0  0
 16 35  1  0  0  0  0
 16 36  1  0  0  0  0
 17 18  1  0  0  0  0
 17 37  1  0  0  0  0
 17 38  1  0  0  0  0
 18 19  1  0  0  0  0
 18 39  1  0  0  0  0
 18 40  1  0  0  0  0
 19 41  1  0  0  0  0
 19 42  1  0  0  0  0
M  END
> <s_m_source_file>
AV-unprocessed.smi

> <i_m_source_file_index>
3060

> <i_lp_mmshare_version>
43012

> <i_f3d_flags>
0

> <s_epik_input>
W0NIM11bQ0gyXWMxbm5ubjFbQ0gyXUMoPU8pW05IXVtDSF0yW0NIMl1bQ0gyXVtDSDJdW0NIMl1bQ0gyXVtDSDJdW0NIMl0y

> <s_epik_cmdline>
J2VwaWtfcHl0aG9uJywgJy1waCcsICc3LjAnLCAnLXRuJywgJzgnLCAnLW1hJywgJzIwMCcsICctbWV0YWxfYmluZGluZycsICctaW1hZScsICc8aW5maWxlLm1hZT4nLCAnLW9tYWUnLCAnPG91dGZpbGUubWFlPic=

> <r_lp_tautomer_probability>
1

> <r_epik_Ionization_Penalty>
4.54698e-07

> <r_epik_Ionization_Penalty_Charging>
0

> <r_epik_Ionization_Penalty_Neutral>
4.54698e-07

> <r_epik_State_Penalty>
-0

> <r_epik_Charging_Adjusted_Penalty>
0

> <i_epik_Tot_Q>
0

> <i_epik_Tot_abs_Q>
0

> <r_epik_Metal_State_Penalty>
-0

> <b_epik_Metal_Only>
0

> <s_lp_Force_Field>
OPLS_2005

> <r_lp_Energy>
19.51

> <b_lp_Chiralities_Consistent>
1

> <s_lp_Variant>
AV-unprocessed.smi:3060-1

> <Gold.Version>
5.8.1

> <Gold.Id.Protein>
6NUR|6NUR_protein|mol2

> <Gold.PLP.Fitness>
42.0019

> <Gold.PLP.PLP>
-40.2025

> <Gold.PLP.part.hbond>
-1.0000

> <Gold.PLP.part.metal>
0.0000

> <Gold.PLP.part.buried>
-5.0025

> <Gold.PLP.part.nonpolar>
-34.7567

> <Gold.PLP.part.repulsive>
0.3928

> <Gold.PLP.ligand.clash>
0.0000

> <Gold.PLP.ligand.torsion>
0.3859

> <Gold.PLP.Chemscore.Hbond>
0.8480

> <Gold.PLP.Chemscore.CHOScore>
0.0000

> <Gold.PLP.Chemscore.Metal>
0.0000

> <Gold.Chemscore.Hbonds>
donor molecule, donor type, donor heavy atom, donor atom, acceptor molecule, acceptor atom, score
      P1  H  7989  7998       L1    10  0.70

> <Gold.PLP.Chemscore.Internal.Correction>
0.0274

> <Gold.Rescore>
     Score         DG    S(hbond)    S(metal)    S(lipo)     H(rot)  DE(clash)    DE(int)     intcor
     16.80     -17.14       0.92        0.00     109.78       1.66       0.08       0.26       ----

> <Gold.Chemscore.Fitness>
16.8005

> <Gold.Chemscore.DG>
-17.1414

> <Gold.Chemscore.ZeroCoef>
-5.4800

> <Gold.Chemscore.Hbond>
0.9189

> <Gold.Chemscore.Metal>
0.0000

> <Gold.Chemscore.Lipo>
109.7794

> <Gold.Chemscore.Internal_Hbond>
0.0000

> <Gold.Chemscore.DEClash>
0.0768

> <Gold.Chemscore.DEInternal>
0.2641

> <Gold.Chemscore.Rot>
1.6609

> <Gold.Chemscore.Internal.Correction>
   9.000000E+99

> <Gold.Chemscore.Hbonds>
donor molecule, donor type, donor heavy atom, donor atom, acceptor molecule, acceptor atom, score
      P1  H  7989  7998       L1    10  0.67

> <Gold.Chemscore.Hbond.Weighted>
-3.0690

> <Gold.Chemscore.Metal.Weighted>
-0.0000

> <Gold.Chemscore.Lipo.Weighted>
-12.8442

> <Gold.Chemscore.Internal_Hbond.Weighted>
0.0000

> <Gold.Chemscore.DEClash.Weighted>
0.0768

> <Gold.Chemscore.DEInternal.Weighted>
0.2641

> <Gold.Chemscore.Rot.Weighted>
4.2518

> <Gold.Chemscore.Internal.Correction.Weighted>
   9.000000E+99

> <Gold.Protein.RotatedTorsions>
[ 6907 6896 6895 6894 ] final -135.62 input  -60.11 | X-H torsion
[ 7974 7965 7964 7962 ] final -137.50 input  175.53 | X-H torsion
[ 8008 7997 7996 7995 ] final -141.97 input   59.86 | X-H torsion
[ 10167 10162 10161 10158 ] final  115.53 input  -65.29 | X-H torsion
[ 10718 10713 10712 10709 ] final   73.80 input   66.30 | X-H torsion
[ 10763 10752 10751 10750 ] final   63.36 input  -60.55 | X-H torsion
[ 11005 11000 10999 10996 ] final   53.89 input  -57.11 | X-H torsion

> <Gold.Protein.ActiveResidues>
 VAL166  LYS551  ARG553  GLY616  TRP617  ASP618  TYR619  PRO620  LYS621  CYS622 
 ASP623  PHE694  ASN695  SER759  ASP760  ASP761  ALA762  ILE779  LEU786  VAL792 
 PHE793  MET794  SER795  GLU796  ALA797  LYS798  CYS799  TRP800  GLU811  SER814 

> <Gold.Protein.RotatedAtoms>
  151.0001  133.6065  159.2695 H   0  0  0  0  0  0  0  0  0  0  0  0  # atno 6907 bound_to 6896
  151.3254  135.0828  159.9330 H   0  0  0  0  0  0  0  0  0  0  0  0  # atno 6908 bound_to 6896
  152.5271  133.9640  159.7785 H   0  0  0  0  0  0  0  0  0  0  0  0  # atno 6909 bound_to 6896
  144.8836  140.6543  143.5190 H   0  0  0  0  0  0  0  0  0  0  0  0  # atno 7974 bound_to 7965
  155.4865  140.0564  157.2960 H   0  0  0  0  0  0  0  0  0  0  0  0  # atno 8008 bound_to 7997
  154.4640  140.2010  156.0120 H   0  0  0  0  0  0  0  0  0  0  0  0  # atno 8009 bound_to 7997
  156.0941  140.3229  155.7859 H   0  0  0  0  0  0  0  0  0  0  0  0  # atno 8010 bound_to 7997
  139.6310  144.7115  151.2431 H   0  0  0  0  0  0  0  0  0  0  0  0  # atno 10167 bound_to 10162
  157.6564  130.9646  150.1120 H   0  0  0  0  0  0  0  0  0  0  0  0  # atno 10718 bound_to 10713
  153.0015  135.5432  154.6340 H   0  0  0  0  0  0  0  0  0  0  0  0  # atno 10763 bound_to 10752
  154.5611  135.2834  155.0920 H   0  0  0  0  0  0  0  0  0  0  0  0  # atno 10764 bound_to 10752
  154.2123  135.6465  153.5171 H   0  0  0  0  0  0  0  0  0  0  0  0  # atno 10765 bound_to 10752
  140.0731  134.5442  155.9026 H   0  0  0  0  0  0  0  0  0  0  0  0  # atno 11005 bound_to 11000
  145.3909  139.1617  143.4230 LP  0  0  0  0  0  0  0  0  0  0  0  0  # atno 17320 bound_to 7965
  146.3010  140.3997  142.8704 LP  0  0  0  0  0  0  0  0  0  0  0  0  # atno 17321 bound_to 7965
  140.7439  143.6479  150.8275 LP  0  0  0  0  0  0  0  0  0  0  0  0  # atno 17342 bound_to 10162
  140.0104  143.5648  152.2841 LP  0  0  0  0  0  0  0  0  0  0  0  0  # atno 17343 bound_to 10162
  156.2014  130.3660  149.8783 LP  0  0  0  0  0  0  0  0  0  0  0  0  # atno 17370 bound_to 10713
  156.6686  130.8811  151.3558 LP  0  0  0  0  0  0  0  0  0  0  0  0  # atno 17371 bound_to 10713
  141.2019  133.6621  156.5977 LP  0  0  0  0  0  0  0  0  0  0  0  0  # atno 17394 bound_to 11000
  140.3598  134.7697  157.4526 LP  0  0  0  0  0  0  0  0  0  0  0  0  # atno 17395 bound_to 11000

$$$$
