AV-unprocessed.smi:1722|AV-procd|sdf|6944|dock5
  -GOLD-   22720 8153D 1   1.00000     0.00000
 Structure written by MMmdl.
 38 39  0  0  0  0  0  0  0  0  2 V2000
  148.4142  138.0804  156.7507 O   0  0  0  0  0  0  0  0  0  0  0  0
  149.1561  138.5418  157.6172 C   0  0  0  0  0  0  0  0  0  0  0  0
  149.6099  139.9966  157.5107 C   0  0  0  0  0  0  0  0  0  0  0  0
  150.4683  140.2898  158.6053 O   0  0  0  0  0  0  0  0  0  0  0  0
  151.3904  141.3445  158.3690 C   0  0  0  0  0  0  0  0  0  0  0  0
  152.4552  141.2753  159.4782 C   0  0  0  0  0  0  0  0  0  0  0  0
  153.4617  142.4317  159.3674 C   0  0  0  0  0  0  0  0  0  0  0  0
  152.7474  143.7923  159.3824 C   0  0  0  0  0  0  0  0  0  0  0  0
  151.6820  143.8708  158.2775 C   0  0  0  0  0  0  0  0  0  0  0  0
  150.6767  142.7127  158.3874 C   0  0  0  0  0  0  0  0  0  0  0  0
  149.6465  137.8582  158.6700 N   0  0  0  0  0  0  0  0  0  0  0  0
  149.3906  136.5376  159.0758 C   0  0  0  0  0  0  0  0  0  0  0  0
  149.1281  136.1571  160.3567 C   0  0  0  0  0  0  0  0  0  0  0  0
  148.8908  134.7669  160.7248 C   0  0  0  0  0  0  0  0  0  0  0  0
  148.6749  134.2978  162.1527 C   0  0  0  0  0  0  0  0  0  0  0  0
  149.6783  134.7138  162.9240 F   0  0  0  0  0  0  0  0  0  0  0  0
  147.5383  134.7849  162.6509 F   0  0  0  0  0  0  0  0  0  0  0  0
  148.6255  132.9671  162.2170 F   0  0  0  0  0  0  0  0  0  0  0  0
  148.9962  133.9136  159.6435 C   0  0  0  0  0  0  0  0  0  0  0  0
  149.2433  134.2079  158.3481 N   0  5  0  0  0  0  0  0  0  0  0  0
  149.4556  135.5121  158.0140 C   0  0  0  0  0  0  0  0  0  0  0  0
  149.6968  135.8491  156.8543 O   0  0  0  0  0  0  0  0  0  0  0  0
  150.1346  140.1367  156.5646 H   0  0  0  0  0  0  0  0  0  0  0  0
  148.7375  140.6505  157.5095 H   0  0  0  0  0  0  0  0  0  0  0  0
  151.8863  141.1973  157.4075 H   0  0  0  0  0  0  0  0  0  0  0  0
  151.9703  141.3090  160.4549 H   0  0  0  0  0  0  0  0  0  0  0  0
  152.9812  140.3212  159.4283 H   0  0  0  0  0  0  0  0  0  0  0  0
  154.1794  142.3797  160.1868 H   0  0  0  0  0  0  0  0  0  0  0  0
  154.0361  142.3297  158.4458 H   0  0  0  0  0  0  0  0  0  0  0  0
  152.2776  143.9478  160.3545 H   0  0  0  0  0  0  0  0  0  0  0  0
  153.4736  144.5960  159.2579 H   0  0  0  0  0  0  0  0  0  0  0  0
  151.1576  144.8248  158.3342 H   0  0  0  0  0  0  0  0  0  0  0  0
  152.1662  143.8418  157.3006 H   0  0  0  0  0  0  0  0  0  0  0  0
  149.9581  142.7837  157.5715 H   0  0  0  0  0  0  0  0  0  0  0  0
  150.1057  142.8144  159.3113 H   0  0  0  0  0  0  0  0  0  0  0  0
  150.3116  138.3499  159.2494 H   0  0  0  0  0  0  0  0  0  0  0  0
  149.1073  136.8812  161.1545 H   0  0  0  0  0  0  0  0  0  0  0  0
  148.8679  132.8299  159.8518 H   0  0  0  0  0  0  0  0  0  0  0  0
  1  2  2  0  0  0  0
  2  3  1  0  0  0  0
  2 11  1  0  0  0  0
  3  4  1  0  0  0  0
  3 23  1  0  0  0  0
  3 24  1  0  0  0  0
  4  5  1  0  0  0  0
  5 10  1  0  0  0  0
  5  6  1  0  0  0  0
  5 25  1  0  0  0  0
  6  7  1  0  0  0  0
  6 26  1  0  0  0  0
  6 27  1  0  0  0  0
  7  8  1  0  0  0  0
  7 28  1  0  0  0  0
  7 29  1  0  0  0  0
  8  9  1  0  0  0  0
  8 30  1  0  0  0  0
  8 31  1  0  0  0  0
  9 10  1  0  0  0  0
  9 32  1  0  0  0  0
  9 33  1  0  0  0  0
 10 34  1  0  0  0  0
 10 35  1  0  0  0  0
 11 12  1  0  0  0  0
 11 36  1  0  0  0  0
 12 21  1  0  0  0  0
 12 13  2  0  0  0  0
 13 14  1  0  0  0  0
 13 37  1  0  0  0  0
 14 15  1  0  0  0  0
 14 19  2  0  0  0  0
 15 16  1  0  0  0  0
 15 17  1  0  0  0  0
 15 18  1  0  0  0  0
 19 20  1  0  0  0  0
 19 38  1  0  0  0  0
 20 21  1  0  0  0  0
 21 22  2  0  0  0  0
M  CHG  1  20  -1
M  END
> <s_m_source_file>
AV-unprocessed.smi

> <i_m_source_file_index>
1722

> <i_lp_mmshare_version>
43012

> <i_f3d_flags>
0

> <s_epik_input>
Tz1jMVtuSF1bY0hdYyhDKEYpKEYpRilbY0hdYzFbTkhdQyg9TylbQ0gyXU9bQ0hdMltDSDJdW0NIMl1bQ0gyXVtDSDJdW0NIMl0y

> <s_epik_cmdline>
J2VwaWtfcHl0aG9uJywgJy1waCcsICc3LjAnLCAnLXRuJywgJzgnLCAnLW1hJywgJzIwMCcsICctbWV0YWxfYmluZGluZycsICctaW1hZScsICc8aW5maWxlLm1hZT4nLCAnLW9tYWUnLCAnPG91dGZpbGUubWFlPic=

> <r_epik_Ionization_Penalty>
2.55378

> <r_epik_Ionization_Penalty_Charging>
0.0617094

> <r_epik_Ionization_Penalty_Neutral>
2.49207

> <r_epik_State_Penalty>
2.65647

> <r_epik_Charging_Adjusted_Penalty>
2.71818

> <i_epik_Tot_Q>
-1

> <i_epik_Tot_abs_Q>
1

> <r_epik_Metal_State_Penalty>
0.516461

> <b_epik_Metal_Only>
0

> <s_lp_Force_Field>
OPLS_2005

> <r_lp_Energy>
27.5399

> <b_lp_Chiralities_Consistent>
1

> <s_lp_Variant>
AV-unprocessed.smi:1722-2

> <Gold.Version>
5.8.1

> <Gold.Id.Protein>
6NUR|6NUR_protein|mol2

> <Gold.PLP.Fitness>
44.8972

> <Gold.PLP.PLP>
-41.1083

> <Gold.PLP.part.hbond>
-1.0000

> <Gold.PLP.part.metal>
0.0000

> <Gold.PLP.part.buried>
-3.3829

> <Gold.PLP.part.nonpolar>
-37.4581

> <Gold.PLP.part.repulsive>
0.1790

> <Gold.PLP.ligand.clash>
0.0000

> <Gold.PLP.ligand.torsion>
0.6957

> <Gold.PLP.Chemscore.Hbond>
1.7000

> <Gold.PLP.Chemscore.CHOScore>
0.0000

> <Gold.PLP.Chemscore.Metal>
0.0000

> <Gold.PLP.Chemscore.Internal.Correction>
0.0804

> <Gold.Rescore>
     Score         DG    S(hbond)    S(metal)    S(lipo)     H(rot)  DE(clash)    DE(int)     intcor
      9.37     -13.00       0.07        0.00      96.61       1.57       0.02       3.61       ----

> <Gold.Chemscore.Fitness>
9.3710

> <Gold.Chemscore.DG>
-12.9966

> <Gold.Chemscore.ZeroCoef>
-5.4800

> <Gold.Chemscore.Hbond>
0.0709

> <Gold.Chemscore.Metal>
0.0000

> <Gold.Chemscore.Lipo>
96.6110

> <Gold.Chemscore.Internal_Hbond>
0.0000

> <Gold.Chemscore.DEClash>
0.0156

> <Gold.Chemscore.DEInternal>
3.6101

> <Gold.Chemscore.Rot>
1.5717

> <Gold.Chemscore.Internal.Correction>
   9.000000E+99

> <Gold.Chemscore.Hbond.Weighted>
-0.2368

> <Gold.Chemscore.Metal.Weighted>
-0.0000

> <Gold.Chemscore.Lipo.Weighted>
-11.3035

> <Gold.Chemscore.Internal_Hbond.Weighted>
0.0000

> <Gold.Chemscore.DEClash.Weighted>
0.0156

> <Gold.Chemscore.DEInternal.Weighted>
3.6101

> <Gold.Chemscore.Rot.Weighted>
4.0237

> <Gold.Chemscore.Internal.Correction.Weighted>
   9.000000E+99

> <Gold.Protein.RotatedTorsions>
[ 6907 6896 6895 6894 ] final  135.48 input  -60.11 | X-H torsion
[ 7974 7965 7964 7962 ] final   94.21 input  175.53 | X-H torsion
[ 8008 7997 7996 7995 ] final   42.52 input   59.86 | X-H torsion
[ 10167 10162 10161 10158 ] final -113.92 input  -65.29 | X-H torsion
[ 10718 10713 10712 10709 ] final   83.53 input   66.30 | X-H torsion
[ 10763 10752 10751 10750 ] final   16.54 input  -60.55 | X-H torsion
[ 11005 11000 10999 10996 ] final  -72.13 input  -57.11 | X-H torsion

> <Gold.Protein.ActiveResidues>
 VAL166  LYS551  ARG553  GLY616  TRP617  ASP618  TYR619  PRO620  LYS621  CYS622 
 ASP623  PHE694  ASN695  SER759  ASP760  ASP761  ALA762  ILE779  LEU786  VAL792 
 PHE793  MET794  SER795  GLU796  ALA797  LYS798  CYS799  TRP800  GLU811  SER814 

> <Gold.Protein.RotatedAtoms>
  152.3000  133.5645  159.5611 H   0  0  0  0  0  0  0  0  0  0  0  0  # atno 6907 bound_to 6896
  150.7273  134.0305  159.3741 H   0  0  0  0  0  0  0  0  0  0  0  0  # atno 6908 bound_to 6896
  151.8206  135.0653  160.0475 H   0  0  0  0  0  0  0  0  0  0  0  0  # atno 6909 bound_to 6896
  145.4685  139.2283  143.2948 H   0  0  0  0  0  0  0  0  0  0  0  0  # atno 7974 bound_to 7965
  155.2876  140.3376  155.4254 H   0  0  0  0  0  0  0  0  0  0  0  0  # atno 8008 bound_to 7997
  156.2061  140.1751  156.7837 H   0  0  0  0  0  0  0  0  0  0  0  0  # atno 8009 bound_to 7997
  154.5622  140.0685  156.8821 H   0  0  0  0  0  0  0  0  0  0  0  0  # atno 8010 bound_to 7997
  140.1066  143.4565  152.1779 H   0  0  0  0  0  0  0  0  0  0  0  0  # atno 10167 bound_to 10162
  157.6880  131.0095  150.2537 H   0  0  0  0  0  0  0  0  0  0  0  0  # atno 10718 bound_to 10713
  153.1421  135.6762  153.9011 H   0  0  0  0  0  0  0  0  0  0  0  0  # atno 10763 bound_to 10752
  153.8464  135.3099  155.3431 H   0  0  0  0  0  0  0  0  0  0  0  0  # atno 10764 bound_to 10752
  154.7796  135.4896  153.9900 H   0  0  0  0  0  0  0  0  0  0  0  0  # atno 10765 bound_to 10752
  141.1603  133.6837  156.7011 H   0  0  0  0  0  0  0  0  0  0  0  0  # atno 11005 bound_to 11000
  146.2410  140.5461  142.8934 LP  0  0  0  0  0  0  0  0  0  0  0  0  # atno 17320 bound_to 7965
  144.7959  140.6122  143.6510 LP  0  0  0  0  0  0  0  0  0  0  0  0  # atno 17321 bound_to 7965
  139.5642  144.7424  151.4070 LP  0  0  0  0  0  0  0  0  0  0  0  0  # atno 17342 bound_to 10162
  140.6948  143.7774  150.7310 LP  0  0  0  0  0  0  0  0  0  0  0  0  # atno 17343 bound_to 10162
  156.3129  130.3774  149.7645 LP  0  0  0  0  0  0  0  0  0  0  0  0  # atno 17370 bound_to 10713
  156.5240  130.8227  151.3213 LP  0  0  0  0  0  0  0  0  0  0  0  0  # atno 17371 bound_to 10713
  140.2958  134.8204  157.4055 LP  0  0  0  0  0  0  0  0  0  0  0  0  # atno 17394 bound_to 11000
  140.1306  134.5100  155.8109 LP  0  0  0  0  0  0  0  0  0  0  0  0  # atno 17395 bound_to 11000

$$$$
