#       Name:                AV-unprocessed.smi:2562
#       Creating user name   scv26
#       Creation time:       Fri Mar 27 14:09:21 2020


#       File generated by GOLD software.
#

@<TRIPOS>MOLECULE
AV-unprocessed.smi:2562
    35    36     1
SMALL
NO_CHARGES


@<TRIPOS>ATOM
      1 ****        -2.8998   4.0241  -2.0067 C.3            1 S1                 0.0000
      2 ****        -2.2218   2.6496  -1.9993 C.3            1 S1                 0.0000
      3 ****        -0.7880   2.7032  -1.4528 C.3            1 S1                 0.0000
      4 ****        -0.1339   1.3608  -1.4246 C.2            1 S1                 0.0000
      5 ****         0.4714   0.7813  -2.4656 N.2            1 S1                 0.0000
      6 ****         0.9123  -0.4460  -1.9998 N.2            1 S1                 0.0000
      7 ****         0.5231  -0.5053  -0.7226 C.2            1 S1                 0.0000
      8 ****         0.8055  -1.6553   0.1939 C.3            1 S1                 0.0000
      9 ****         2.2050  -1.5674   0.8321 C.3            1 S1                 0.0000
     10 ****         2.3960  -2.6796   1.7831 N.4            1 S1                 1.0000
     11 ****         1.3201  -2.7182   2.7937 C.3            1 S1                 0.0000
     12 ****        -0.0547  -2.7590   2.1035 C.3            1 S1                 0.0000
     13 ****        -0.1835  -1.6476   1.2224 O.3            1 S1                 0.0000
     14 ****        -0.1251   0.5995  -0.3215 N.pl3          1 S1                 0.0000
     15 ****        -0.5170   0.8042   0.5863 H              1 S1                 0.0000
     16 ****        -3.9147   3.9542  -2.3989 H              1 S1                 0.0000
     17 ****        -2.3504   4.7309  -2.6291 H              1 S1                 0.0000
     18 ****        -2.9601   4.4389  -1.0001 H              1 S1                 0.0000
     19 ****        -2.8169   1.9603  -1.3990 H              1 S1                 0.0000
     20 ****        -2.2124   2.2475  -3.0131 H              1 S1                 0.0000
     21 ****        -0.1805   3.3729  -2.0629 H              1 S1                 0.0000
     22 ****        -0.7869   3.1173  -0.4436 H              1 S1                 0.0000
     23 ****         0.7146  -2.5768  -0.3845 H              1 S1                 0.0000
     24 ****         2.9819  -1.6092   0.0680 H              1 S1                 0.0000
     25 ****         2.3241  -0.6209   1.3617 H              1 S1                 0.0000
     26 ****         2.3892  -3.5493   1.2690 H              1 S1                 0.0000
     27 ****         1.4552  -3.5904   3.4335 H              1 S1                 0.0000
     28 ****         1.3951  -1.8360   3.4310 H              1 S1                 0.0000
     29 ****        -0.1868  -3.6914   1.5523 H              1 S1                 0.0000
     30 ****        -0.8506  -2.7143   2.8472 H              1 S1                 0.0000
     31 ****         3.2888  -2.5777   2.2449 H              1 S1                 0.0000
     32 ****         0.5825   1.1550  -3.3864 LP             1 S1                 0.0000
     33 ****         1.4162  -1.1418  -2.5116 LP             1 S1                 0.0000
     34 ****        -1.0887  -1.6764   0.7985 LP             1 S1                 0.0000
     35 ****        -0.0902  -0.8046   1.7522 LP             1 S1                 0.0000
@<TRIPOS>BOND
    1    1    2 1     
    2    1   16 1     
    3    1   17 1     
    4    1   18 1     
    5    2    3 1     
    6    2   19 1     
    7    2   20 1     
    8    3   21 1     
    9    3   22 1     
   10    3    4 1     
   11    4    5 2     
   12    4   14 1     
   13    5    6 1     
   14    6    7 2     
   15    7   14 1     
   16    7    8 1     
   17    8   13 1     
   18    8    9 1     
   19    8   23 1     
   20    9   10 1     
   21    9   24 1     
   22    9   25 1     
   23   10   11 1     
   24   10   26 1     
   25   10   31 1     
   26   11   12 1     
   27   11   27 1     
   28   11   28 1     
   29   12   13 1     
   30   12   29 1     
   31   12   30 1     
   32   14   15 1     
   33    5   32 1     
   34    6   33 1     
   35   13   34 1     
   36   13   35 1     
@<TRIPOS>SUBSTRUCTURE
      1 S1             1
@<TRIPOS>SET
LONE_PAIRS      STATIC     ATOMS    <user>   **** ""
4 32 33 34 35
DONOR_HYDROGENS      STATIC     ATOMS    <user>   **** ""
3 26 31 15
ATOM$BLUE        STATIC     ATOMS    COLORGROUP SYSTEM
4 32 33 34 35
ATOM$RED        STATIC     ATOMS    COLORGROUP SYSTEM
3 26 31 15
