AV-unprocessed.smi:818|AV-procd|sdf|3832|dock8
  -GOLD-   22720 1273D 1   1.00000     0.00000
 Structure written by MMmdl.
 44 45  0  0  0  0  0  0  0  0  1 V2000
  145.1712  130.9280  151.4397 C   0  0  0  0  0  0  0  0  0  0  0  0
  144.2541  131.8332  150.6094 C   0  0  0  0  0  0  0  0  0  0  0  0
  144.6331  133.2278  150.7235 N   0  0  0  0  0  0  0  0  0  0  0  0
  145.6672  133.7736  151.4579 C   0  0  0  0  0  0  0  0  0  0  0  0
  145.6123  135.1193  151.2283 C   0  0  0  0  0  0  0  0  0  0  0  0
  146.4435  136.1521  151.7306 N   0  0  0  0  0  0  0  0  0  0  0  0
  146.0999  137.1344  152.5795 C   0  0  0  0  0  0  0  0  0  0  0  0
  144.9757  137.3002  153.0538 O   0  0  0  0  0  0  0  0  0  0  0  0
  147.1460  137.9267  152.8571 N   0  0  0  0  0  0  0  0  0  0  0  0
  147.1190  139.0677  153.7713 C   0  0  2  0  0  0  0  0  0  0  0  0
  147.0343  140.3518  152.9297 C   0  0  0  0  0  0  0  0  0  0  0  0
  148.4101  139.1236  154.6034 C   0  0  0  0  0  0  0  0  0  0  0  0
  148.3662  139.0793  155.8340 O   0  0  0  0  0  0  0  0  0  0  0  0
  149.5562  139.2096  153.9117 N   0  0  0  0  0  0  0  0  0  0  0  0
  150.8885  139.2818  154.5042 C   0  0  0  0  0  0  0  0  0  0  0  0
  151.2747  137.9608  155.2029 C   0  0  0  0  0  0  0  0  0  0  0  0
  151.7721  138.3474  156.5968 C   0  0  0  0  0  0  0  0  0  0  0  0
  151.0137  139.6289  156.9263 C   0  0  0  0  0  0  0  0  0  0  0  0
  150.9389  140.3707  155.5914 C   0  0  0  0  0  0  0  0  0  0  0  0
  144.5196  135.3174  150.3450 C   0  0  0  0  0  0  0  0  0  0  0  0
  143.9324  134.1692  150.0439 N   0  0  0  0  0  0  0  0  0  0  0  0
  144.8727  129.8839  151.3461 H   0  0  0  0  0  0  0  0  0  0  0  0
  145.1322  131.1922  152.4969 H   0  0  0  0  0  0  0  0  0  0  0  0
  146.2083  131.0081  151.1117 H   0  0  0  0  0  0  0  0  0  0  0  0
  144.2841  131.5439  149.5578 H   0  0  0  0  0  0  0  0  0  0  0  0
  143.2199  131.7251  150.9385 H   0  0  0  0  0  0  0  0  0  0  0  0
  146.3288  133.1653  152.0567 H   0  0  0  0  0  0  0  0  0  0  0  0
  147.4033  136.1347  151.4184 H   0  0  0  0  0  0  0  0  0  0  0  0
  148.0337  137.7113  152.4276 H   0  0  0  0  0  0  0  0  0  0  0  0
  146.2478  139.0006  154.4261 H   0  0  0  0  0  0  0  0  0  0  0  0
  147.0077  141.2396  153.5631 H   0  0  0  0  0  0  0  0  0  0  0  0
  146.1280  140.3604  152.3233 H   0  0  0  0  0  0  0  0  0  0  0  0
  147.8842  140.4516  152.2526 H   0  0  0  0  0  0  0  0  0  0  0  0
  149.5015  139.2392  152.9040 H   0  0  0  0  0  0  0  0  0  0  0  0
  151.6164  139.5266  153.7283 H   0  0  0  0  0  0  0  0  0  0  0  0
  150.4043  137.3102  155.3056 H   0  0  0  0  0  0  0  0  0  0  0  0
  152.0262  137.4038  154.6422 H   0  0  0  0  0  0  0  0  0  0  0  0
  151.6086  137.5607  157.3340 H   0  0  0  0  0  0  0  0  0  0  0  0
  152.8426  138.5543  156.5614 H   0  0  0  0  0  0  0  0  0  0  0  0
  150.0074  139.3831  157.2685 H   0  0  0  0  0  0  0  0  0  0  0  0
  151.4986  140.2161  157.7067 H   0  0  0  0  0  0  0  0  0  0  0  0
  151.8452  140.9638  155.4616 H   0  0  0  0  0  0  0  0  0  0  0  0
  150.0966  141.0631  155.5531 H   0  0  0  0  0  0  0  0  0  0  0  0
  144.1415  136.2356  149.9199 H   0  0  0  0  0  0  0  0  0  0  0  0
  1  2  1  0  0  0  0
  1 22  1  0  0  0  0
  1 23  1  0  0  0  0
  1 24  1  0  0  0  0
  2  3  1  0  0  0  0
  2 25  1  0  0  0  0
  2 26  1  0  0  0  0
  3 21  1  0  0  0  0
  3  4  1  0  0  0  0
  4  5  2  0  0  0  0
  4 27  1  0  0  0  0
  5  6  1  0  0  0  0
  5 20  1  0  0  0  0
  6  7  1  0  0  0  0
  6 28  1  0  0  0  0
  7  8  2  0  0  0  0
  7  9  1  0  0  0  0
  9 10  1  0  0  0  0
  9 29  1  0  0  0  0
 10 11  1  0  0  0  0
 10 12  1  0  0  0  0
 10 30  1  0  0  0  0
 11 31  1  0  0  0  0
 11 32  1  0  0  0  0
 11 33  1  0  0  0  0
 12 13  2  0  0  0  0
 12 14  1  0  0  0  0
 14 15  1  0  0  0  0
 14 34  1  0  0  0  0
 15 19  1  0  0  0  0
 15 16  1  0  0  0  0
 15 35  1  0  0  0  0
 16 17  1  0  0  0  0
 16 36  1  0  0  0  0
 16 37  1  0  0  0  0
 17 18  1  0  0  0  0
 17 38  1  0  0  0  0
 17 39  1  0  0  0  0
 18 19  1  0  0  0  0
 18 40  1  0  0  0  0
 18 41  1  0  0  0  0
 19 42  1  0  0  0  0
 19 43  1  0  0  0  0
 20 21  2  0  0  0  0
 20 44  1  0  0  0  0
M  END
> <s_m_source_file>
AV-unprocessed.smi

> <i_m_source_file_index>
818

> <i_lp_mmshare_version>
43012

> <i_f3d_flags>
0

> <s_epik_input>
W0NIM11bQ0gyXW4xW2NIXWMoW2NIXW4xKVtOSF1DKD1PKVtOSF1bQ0BIXShbQ0gzXSlDKD1PKVtOSF1bQ0hdMltDSDJdW0NIMl1bQ0gyXVtDSDJdMg==

> <s_epik_cmdline>
J2VwaWtfcHl0aG9uJywgJy1waCcsICc3LjAnLCAnLXRuJywgJzgnLCAnLW1hJywgJzIwMCcsICctbWV0YWxfYmluZGluZycsICctaW1hZScsICc8aW5maWxlLm1hZT4nLCAnLW9tYWUnLCAnPG91dGZpbGUubWFlPic=

> <r_lp_tautomer_probability>
1

> <r_epik_Ionization_Penalty>
0.00015627

> <r_epik_Ionization_Penalty_Charging>
0

> <r_epik_Ionization_Penalty_Neutral>
0.00015627

> <r_epik_State_Penalty>
-0

> <r_epik_Charging_Adjusted_Penalty>
0

> <i_epik_Tot_Q>
0

> <i_epik_Tot_abs_Q>
0

> <r_epik_Metal_State_Penalty>
-0

> <b_epik_Metal_Only>
0

> <s_lp_Force_Field>
OPLS_2005

> <r_lp_Energy>
21.5062

> <b_lp_Chiralities_Consistent>
1

> <s_lp_Variant>
AV-unprocessed.smi:818-1

> <Gold.Version>
5.8.1

> <Gold.Id.Protein>
6NUR|6NUR_protein|mol2

> <Gold.PLP.Fitness>
42.2190

> <Gold.PLP.PLP>
-32.8349

> <Gold.PLP.part.hbond>
-2.9283

> <Gold.PLP.part.metal>
0.0000

> <Gold.PLP.part.buried>
-2.2499

> <Gold.PLP.part.nonpolar>
-29.0742

> <Gold.PLP.part.repulsive>
2.0523

> <Gold.PLP.ligand.clash>
0.0000

> <Gold.PLP.ligand.torsion>
0.9830

> <Gold.PLP.Chemscore.Hbond>
2.7760

> <Gold.PLP.Chemscore.CHOScore>
1.0000

> <Gold.PLP.Chemscore.Metal>
0.0000

> <Gold.Chemscore.Hbonds>
donor molecule, donor type, donor heavy atom, donor atom, acceptor molecule, acceptor atom, score
      L1  H     6    28       P1  7948  0.96
      L1  H     9    29       P1  7948  0.78
      L1  H    14    34       P1  7957  1.00
      L1  C    20    44       P1 10171  1.00

> <Gold.PLP.Chemscore.Internal.Correction>
0.0221

> <Gold.Rescore>
     Score         DG    S(hbond)    S(metal)    S(lipo)     H(rot)  DE(clash)    DE(int)     intcor
     16.19     -19.72       2.73        0.00      80.61       1.68       0.36       3.17       ----

> <Gold.Chemscore.Fitness>
16.1889

> <Gold.Chemscore.DG>
-19.7183

> <Gold.Chemscore.ZeroCoef>
-5.4800

> <Gold.Chemscore.Hbond>
2.7291

> <Gold.Chemscore.Metal>
0.0000

> <Gold.Chemscore.Lipo>
80.6087

> <Gold.Chemscore.Internal_Hbond>
0.0000

> <Gold.Chemscore.DEClash>
0.3625

> <Gold.Chemscore.DEInternal>
3.1668

> <Gold.Chemscore.Rot>
1.6828

> <Gold.Chemscore.Internal.Correction>
   9.000000E+99

> <Gold.Chemscore.Hbonds>
donor molecule, donor type, donor heavy atom, donor atom, acceptor molecule, acceptor atom, score
      L1  H     6    28       P1  7948  0.90
      L1  H     9    29       P1  7948  0.78
      L1  H    14    34       P1  7957  0.98

> <Gold.Chemscore.Hbond.Weighted>
-9.1151

> <Gold.Chemscore.Metal.Weighted>
-0.0000

> <Gold.Chemscore.Lipo.Weighted>
-9.4312

> <Gold.Chemscore.Internal_Hbond.Weighted>
0.0000

> <Gold.Chemscore.DEClash.Weighted>
0.3625

> <Gold.Chemscore.DEInternal.Weighted>
3.1668

> <Gold.Chemscore.Rot.Weighted>
4.3081

> <Gold.Chemscore.Internal.Correction.Weighted>
   9.000000E+99

> <Gold.Protein.RotatedTorsions>
[ 6907 6896 6895 6894 ] final   99.85 input  -60.11 | X-H torsion
[ 7974 7965 7964 7962 ] final   70.90 input  175.53 | X-H torsion
[ 8008 7997 7996 7995 ] final   50.61 input   59.86 | X-H torsion
[ 10167 10162 10161 10158 ] final    7.90 input  -65.29 | X-H torsion
[ 10718 10713 10712 10709 ] final   78.78 input   66.30 | X-H torsion
[ 10763 10752 10751 10750 ] final  129.46 input  -60.55 | X-H torsion
[ 11005 11000 10999 10996 ] final  162.01 input  -57.11 | X-H torsion

> <Gold.Protein.ActiveResidues>
 VAL166  LYS551  ARG553  GLY616  TRP617  ASP618  TYR619  PRO620  LYS621  CYS622 
 ASP623  PHE694  ASN695  SER759  ASP760  ASP761  ALA762  ILE779  LEU786  VAL792 
 PHE793  MET794  SER795  GLU796  ALA797  LYS798  CYS799  TRP800  GLU811  SER814 

> <Gold.Protein.RotatedAtoms>
  152.5384  134.0365  159.8048 H   0  0  0  0  0  0  0  0  0  0  0  0  # atno 6907 bound_to 6896
  151.0528  133.5602  159.2648 H   0  0  0  0  0  0  0  0  0  0  0  0  # atno 6908 bound_to 6896
  151.2530  135.0636  159.9123 H   0  0  0  0  0  0  0  0  0  0  0  0  # atno 6909 bound_to 6896
  145.7725  139.2849  143.1313 H   0  0  0  0  0  0  0  0  0  0  0  0  # atno 7974 bound_to 7965
  155.4217  140.3447  155.4272 H   0  0  0  0  0  0  0  0  0  0  0  0  # atno 8008 bound_to 7997
  156.1389  140.1536  156.8982 H   0  0  0  0  0  0  0  0  0  0  0  0  # atno 8009 bound_to 7997
  154.4954  140.0829  156.7667 H   0  0  0  0  0  0  0  0  0  0  0  0  # atno 8010 bound_to 7997
  140.6345  143.7917  150.7340 H   0  0  0  0  0  0  0  0  0  0  0  0  # atno 10167 bound_to 10162
  157.6756  130.9884  150.1836 H   0  0  0  0  0  0  0  0  0  0  0  0  # atno 10718 bound_to 10713
  153.7421  135.3222  155.3306 H   0  0  0  0  0  0  0  0  0  0  0  0  # atno 10763 bound_to 10752
  154.8291  135.4547  154.1016 H   0  0  0  0  0  0  0  0  0  0  0  0  # atno 10764 bound_to 10752
  153.2194  135.6946  153.8100 H   0  0  0  0  0  0  0  0  0  0  0  0  # atno 10765 bound_to 10752
  140.2215  134.8192  157.3225 H   0  0  0  0  0  0  0  0  0  0  0  0  # atno 11005 bound_to 11000
  146.0156  140.8396  142.9949 LP  0  0  0  0  0  0  0  0  0  0  0  0  # atno 17320 bound_to 7965
  144.6810  140.2553  143.7326 LP  0  0  0  0  0  0  0  0  0  0  0  0  # atno 17321 bound_to 7965
  140.1536  143.4336  152.2115 LP  0  0  0  0  0  0  0  0  0  0  0  0  # atno 17342 bound_to 10162
  139.5556  144.7370  151.4303 LP  0  0  0  0  0  0  0  0  0  0  0  0  # atno 17343 bound_to 10162
  156.2563  130.3706  149.8178 LP  0  0  0  0  0  0  0  0  0  0  0  0  # atno 17370 bound_to 10713
  156.5936  130.8517  151.3414 LP  0  0  0  0  0  0  0  0  0  0  0  0  # atno 17371 bound_to 10713
  140.1844  134.4449  155.7752 LP  0  0  0  0  0  0  0  0  0  0  0  0  # atno 17394 bound_to 11000
  141.2223  133.6998  156.7923 LP  0  0  0  0  0  0  0  0  0  0  0  0  # atno 17395 bound_to 11000

$$$$
