AV-unprocessed.smi:1964|AV-procd|sdf|7931|dock2
  -GOLD-   2272010103D 1   1.00000     0.00000
 Structure written by MMmdl.
 46 48  0  0  0  0  0  0  0  0  1 V2000
  157.7871  138.2783  161.9863 C   0  0  0  0  0  0  0  0  0  0  0  0
  157.9620  139.6491  161.3070 C   0  0  1  0  0  0  0  0  0  0  0  0
  159.4174  140.1413  161.4402 C   0  0  0  0  0  0  0  0  0  0  0  0
  159.6186  141.5174  160.7874 C   0  0  0  0  0  0  0  0  0  0  0  0
  159.1899  141.4974  159.3138 C   0  0  0  0  0  0  0  0  0  0  0  0
  157.7371  141.0217  159.1695 C   0  0  0  0  0  0  0  0  0  0  0  0
  157.5274  139.6381  159.8202 C   0  0  2  0  0  0  0  0  0  0  0  0
  156.1280  139.2391  159.7096 N   0  0  0  0  0  0  0  0  0  0  0  0
  155.0728  139.9153  160.1941 C   0  0  0  0  0  0  0  0  0  0  0  0
  155.1860  140.9620  160.8307 O   0  0  0  0  0  0  0  0  0  0  0  0
  153.6667  139.3509  159.9237 C   0  0  0  0  0  0  0  0  0  0  0  0
  152.8113  140.2042  159.0657 N   0  0  0  0  0  0  0  0  0  0  0  0
  152.4383  139.7187  157.7860 C   0  0  0  0  0  0  0  0  0  0  0  0
  152.8052  138.6091  157.3963 O   0  0  0  0  0  0  0  0  0  0  0  0
  151.6004  140.6145  156.9926 C   0  0  0  0  0  0  0  0  0  0  0  0
  151.2450  140.1826  155.6813 C   0  0  0  0  0  0  0  0  0  0  0  0
  150.9705  139.8121  154.6200 N   0  0  0  0  0  0  0  0  0  0  0  0
  151.1866  141.7989  157.4879 C   0  0  0  0  0  0  0  0  0  0  0  0
  151.5099  142.2240  158.7580 N   0  0  0  0  0  0  0  0  0  0  0  0
  151.1661  143.5390  159.2195 C   0  0  0  0  0  0  0  0  0  0  0  0
  151.5184  144.7545  158.3839 C   0  0  0  0  0  0  0  0  0  0  0  0
  152.2706  144.4744  159.6614 C   0  0  0  0  0  0  0  0  0  0  0  0
  152.3767  141.4561  159.5653 C   0  0  0  0  0  0  0  0  0  0  0  0
  152.7397  141.8573  160.6737 O   0  0  0  0  0  0  0  0  0  0  0  0
  158.3732  137.5098  161.4816 H   0  0  0  0  0  0  0  0  0  0  0  0
  156.7456  137.9561  161.9863 H   0  0  0  0  0  0  0  0  0  0  0  0
  158.1123  138.3136  163.0263 H   0  0  0  0  0  0  0  0  0  0  0  0
  157.3254  140.3579  161.8393 H   0  0  0  0  0  0  0  0  0  0  0  0
  159.6979  140.1963  162.4925 H   0  0  0  0  0  0  0  0  0  0  0  0
  160.0930  139.4195  160.9791 H   0  0  0  0  0  0  0  0  0  0  0  0
  159.0400  142.2678  161.3273 H   0  0  0  0  0  0  0  0  0  0  0  0
  160.6640  141.8170  160.8660 H   0  0  0  0  0  0  0  0  0  0  0  0
  159.3007  142.4914  158.8797 H   0  0  0  0  0  0  0  0  0  0  0  0
  159.8488  140.8367  158.7488 H   0  0  0  0  0  0  0  0  0  0  0  0
  157.0697  141.7514  159.6306 H   0  0  0  0  0  0  0  0  0  0  0  0
  157.4717  140.9872  158.1123 H   0  0  0  0  0  0  0  0  0  0  0  0
  158.1419  138.9061  159.2921 H   0  0  0  0  0  0  0  0  0  0  0  0
  155.9432  138.3848  159.2046 H   0  0  0  0  0  0  0  0  0  0  0  0
  153.7811  138.3545  159.4945 H   0  0  0  0  0  0  0  0  0  0  0  0
  153.1857  139.1634  160.8850 H   0  0  0  0  0  0  0  0  0  0  0  0
  150.5692  142.4361  156.8711 H   0  0  0  0  0  0  0  0  0  0  0  0
  150.2368  143.6048  159.7827 H   0  0  0  0  0  0  0  0  0  0  0  0
  152.0536  144.5991  157.4488 H   0  0  0  0  0  0  0  0  0  0  0  0
  150.8140  145.5836  158.3846 H   0  0  0  0  0  0  0  0  0  0  0  0
  152.0701  145.1196  160.5144 H   0  0  0  0  0  0  0  0  0  0  0  0
  153.3004  144.1344  159.5675 H   0  0  0  0  0  0  0  0  0  0  0  0
  1  2  1  0  0  0  0
  1 25  1  0  0  0  0
  1 26  1  0  0  0  0
  1 27  1  0  0  0  0
  2  7  1  0  0  0  0
  2  3  1  0  0  0  0
  2 28  1  0  0  0  0
  3  4  1  0  0  0  0
  3 29  1  0  0  0  0
  3 30  1  0  0  0  0
  4  5  1  0  0  0  0
  4 31  1  0  0  0  0
  4 32  1  0  0  0  0
  5  6  1  0  0  0  0
  5 33  1  0  0  0  0
  5 34  1  0  0  0  0
  6  7  1  0  0  0  0
  6 35  1  0  0  0  0
  6 36  1  0  0  0  0
  7  8  1  0  0  0  0
  7 37  1  0  0  0  0
  8  9  1  0  0  0  0
  8 38  1  0  0  0  0
  9 10  2  0  0  0  0
  9 11  1  0  0  0  0
 11 12  1  0  0  0  0
 11 39  1  0  0  0  0
 11 40  1  0  0  0  0
 12 23  1  0  0  0  0
 12 13  1  0  0  0  0
 13 14  2  0  0  0  0
 13 15  1  0  0  0  0
 15 16  1  0  0  0  0
 15 18  2  0  0  0  0
 16 17  3  0  0  0  0
 18 19  1  0  0  0  0
 18 41  1  0  0  0  0
 19 20  1  0  0  0  0
 19 23  1  0  0  0  0
 20 22  1  0  0  0  0
 20 21  1  0  0  0  0
 20 42  1  0  0  0  0
 21 22  1  0  0  0  0
 21 43  1  0  0  0  0
 21 44  1  0  0  0  0
 22 45  1  0  0  0  0
 22 46  1  0  0  0  0
 23 24  2  0  0  0  0
M  END
> <s_m_source_file>
AV-unprocessed.smi

> <i_m_source_file_index>
1964

> <i_lp_mmshare_version>
43012

> <i_f3d_flags>
0

> <s_epik_input>
W0NIM11bQ0BASF0xW0NIMl1bQ0gyXVtDSDJdW0NIMl1bQ0BIXTFbTkhdQyg9TylbQ0gyXW4yYyg9TyljKEMjTilbY0hdbihjMj1PKVtDSF0zW0NIMl1bQ0gyXTM=

> <s_epik_cmdline>
J2VwaWtfcHl0aG9uJywgJy1waCcsICc3LjAnLCAnLXRuJywgJzgnLCAnLW1hJywgJzIwMCcsICctbWV0YWxfYmluZGluZycsICctaW1hZScsICc8aW5maWxlLm1hZT4nLCAnLW9tYWUnLCAnPG91dGZpbGUubWFlPic=

> <r_lp_tautomer_probability>
1

> <r_epik_Ionization_Penalty>
1.91372e-08

> <r_epik_Ionization_Penalty_Charging>
9.0283e-11

> <r_epik_Ionization_Penalty_Neutral>
1.90469e-08

> <r_epik_State_Penalty>
-0

> <r_epik_Charging_Adjusted_Penalty>
9.0283e-11

> <i_epik_Tot_Q>
0

> <i_epik_Tot_abs_Q>
0

> <r_epik_Metal_State_Penalty>
-0

> <b_epik_Metal_Only>
0

> <s_lp_Force_Field>
OPLS_2005

> <r_lp_Energy>
35.2183

> <b_lp_Chiralities_Consistent>
1

> <s_lp_Variant>
AV-unprocessed.smi:1964-4

> <Gold.Version>
5.8.1

> <Gold.Id.Protein>
6NUR|6NUR_protein|mol2

> <Gold.PLP.Fitness>
45.2946

> <Gold.PLP.PLP>
-42.4429

> <Gold.PLP.part.hbond>
-2.5343

> <Gold.PLP.part.metal>
0.0000

> <Gold.PLP.part.buried>
-5.9993

> <Gold.PLP.part.nonpolar>
-34.3384

> <Gold.PLP.part.repulsive>
0.1651

> <Gold.PLP.ligand.clash>
0.0000

> <Gold.PLP.ligand.torsion>
0.1706

> <Gold.PLP.Chemscore.Hbond>
1.0000

> <Gold.PLP.Chemscore.CHOScore>
0.0000

> <Gold.PLP.Chemscore.Metal>
0.0000

> <Gold.Chemscore.Hbonds>
donor molecule, donor type, donor heavy atom, donor atom, acceptor molecule, acceptor atom, score
      P1  H  7989  7998       L1    17  1.00

> <Gold.PLP.Chemscore.Internal.Correction>
0.1930

> <Gold.Rescore>
     Score         DG    S(hbond)    S(metal)    S(lipo)     H(rot)  DE(clash)    DE(int)     intcor
     10.48     -14.36       0.92        0.00      86.85       1.70       0.06       3.83       ----

> <Gold.Chemscore.Fitness>
10.4797

> <Gold.Chemscore.DG>
-14.3645

> <Gold.Chemscore.ZeroCoef>
-5.4800

> <Gold.Chemscore.Hbond>
0.9236

> <Gold.Chemscore.Metal>
0.0000

> <Gold.Chemscore.Lipo>
86.8494

> <Gold.Chemscore.Internal_Hbond>
0.0000

> <Gold.Chemscore.DEClash>
0.0580

> <Gold.Chemscore.DEInternal>
3.8268

> <Gold.Chemscore.Rot>
1.7038

> <Gold.Chemscore.Internal.Correction>
   9.000000E+99

> <Gold.Chemscore.Hbonds>
donor molecule, donor type, donor heavy atom, donor atom, acceptor molecule, acceptor atom, score
      P1  H  7989  7998       L1    17  0.70

> <Gold.Chemscore.Hbond.Weighted>
-3.0849

> <Gold.Chemscore.Metal.Weighted>
-0.0000

> <Gold.Chemscore.Lipo.Weighted>
-10.1614

> <Gold.Chemscore.Internal_Hbond.Weighted>
0.0000

> <Gold.Chemscore.DEClash.Weighted>
0.0580

> <Gold.Chemscore.DEInternal.Weighted>
3.8268

> <Gold.Chemscore.Rot.Weighted>
4.3618

> <Gold.Chemscore.Internal.Correction.Weighted>
   9.000000E+99

> <Gold.Protein.RotatedTorsions>
[ 6907 6896 6895 6894 ] final   12.17 input  -60.11 | X-H torsion
[ 7974 7965 7964 7962 ] final  132.94 input  175.53 | X-H torsion
[ 8008 7997 7996 7995 ] final  -58.28 input   59.86 | X-H torsion
[ 10167 10162 10161 10158 ] final  111.81 input  -65.29 | X-H torsion
[ 10718 10713 10712 10709 ] final -137.23 input   66.30 | X-H torsion
[ 10763 10752 10751 10750 ] final   92.69 input  -60.55 | X-H torsion
[ 11005 11000 10999 10996 ] final -155.47 input  -57.11 | X-H torsion

> <Gold.Protein.ActiveResidues>
 VAL166  LYS551  ARG553  GLY616  TRP617  ASP618  TYR619  PRO620  LYS621  CYS622 
 ASP623  PHE694  ASN695  SER759  ASP760  ASP761  ALA762  ILE779  LEU786  VAL792 
 PHE793  MET794  SER795  GLU796  ALA797  LYS798  CYS799  TRP800  GLU811  SER814 

> <Gold.Protein.RotatedAtoms>
  151.7660  135.0798  160.0352 H   0  0  0  0  0  0  0  0  0  0  0  0  # atno 6907 bound_to 6896
  152.3321  133.5965  159.5825 H   0  0  0  0  0  0  0  0  0  0  0  0  # atno 6908 bound_to 6896
  150.7429  133.9768  159.3605 H   0  0  0  0  0  0  0  0  0  0  0  0  # atno 6909 bound_to 6896
  144.9917  139.4400  143.5336 H   0  0  0  0  0  0  0  0  0  0  0  0  # atno 7974 bound_to 7965
  154.4302  140.1088  156.5931 H   0  0  0  0  0  0  0  0  0  0  0  0  # atno 8008 bound_to 7997
  155.5991  140.3493  155.4569 H   0  0  0  0  0  0  0  0  0  0  0  0  # atno 8009 bound_to 7997
  156.0188  140.1235  157.0369 H   0  0  0  0  0  0  0  0  0  0  0  0  # atno 8010 bound_to 7997
  139.6583  144.7129  151.1915 H   0  0  0  0  0  0  0  0  0  0  0  0  # atno 10167 bound_to 10162
  156.2859  130.7347  151.1358 H   0  0  0  0  0  0  0  0  0  0  0  0  # atno 10718 bound_to 10713
  153.2219  135.4352  155.0499 H   0  0  0  0  0  0  0  0  0  0  0  0  # atno 10763 bound_to 10752
  154.8254  135.3358  154.6914 H   0  0  0  0  0  0  0  0  0  0  0  0  # atno 10764 bound_to 10752
  153.7345  135.7009  153.5037 H   0  0  0  0  0  0  0  0  0  0  0  0  # atno 10765 bound_to 10752
  140.6861  134.4092  157.5223 H   0  0  0  0  0  0  0  0  0  0  0  0  # atno 11005 bound_to 11000
  146.3433  139.9252  142.8761 LP  0  0  0  0  0  0  0  0  0  0  0  0  # atno 17320 bound_to 7965
  145.2276  140.9960  143.4009 LP  0  0  0  0  0  0  0  0  0  0  0  0  # atno 17321 bound_to 7965
  140.7569  143.6036  150.8675 LP  0  0  0  0  0  0  0  0  0  0  0  0  # atno 17342 bound_to 10162
  139.9691  143.6077  152.2979 LP  0  0  0  0  0  0  0  0  0  0  0  0  # atno 17343 bound_to 10162
  157.7328  131.0596  150.5609 LP  0  0  0  0  0  0  0  0  0  0  0  0  # atno 17370 bound_to 10713
  156.5719  130.4282  149.6015 LP  0  0  0  0  0  0  0  0  0  0  0  0  # atno 17371 bound_to 10713
  139.8937  134.8724  156.2211 LP  0  0  0  0  0  0  0  0  0  0  0  0  # atno 17394 bound_to 11000
  141.0279  133.7005  156.1379 LP  0  0  0  0  0  0  0  0  0  0  0  0  # atno 17395 bound_to 11000

$$$$
