AV-unprocessed.smi:3193|AV-procd|sdf|12202|dock3
  -GOLD-   2272018 33D 1   1.00000     0.00000
 Structure written by MMmdl.
 40 41  0  0  0  0  0  0  0  0  2 V2000
  146.7270  133.7949  152.6823 C   0  0  0  0  0  0  0  0  0  0  0  0
  146.3918  134.0306  151.1952 C   0  0  1  0  0  0  0  0  0  0  0  0
  146.1934  132.6993  150.4396 C   0  0  0  0  0  0  0  0  0  0  0  0
  144.8666  132.0116  150.8030 C   0  0  0  0  0  0  0  0  0  0  0  0
  143.6742  132.9519  150.5767 C   0  0  0  0  0  0  0  0  0  0  0  0
  143.8517  134.2778  151.3332 C   0  0  0  0  0  0  0  0  0  0  0  0
  145.1804  134.9719  150.9567 C   0  0  1  0  0  0  0  0  0  0  0  0
  145.3459  136.3408  151.6473 C   0  0  0  0  0  0  0  0  0  0  0  0
  146.3492  137.1795  150.9611 N   0  3  0  0  0  0  0  0  0  0  0  0
  146.5020  138.5278  151.5410 C   0  0  0  0  0  0  0  0  0  0  0  0
  146.7280  138.4540  153.0571 C   0  0  0  0  0  0  0  0  0  0  0  0
  147.3859  139.6455  153.5535 N   0  0  0  0  0  0  0  0  0  0  0  0
  146.9276  140.9536  153.4686 C   0  0  0  0  0  0  0  0  0  0  0  0
  147.8768  141.7427  154.0784 C   0  0  0  0  0  0  0  0  0  0  0  0
  148.9201  140.9456  154.5435 N   0  0  0  0  0  0  0  0  0  0  0  0
  148.5601  139.7172  154.1955 C   0  0  0  0  0  0  0  0  0  0  0  0
  145.8904  133.3623  153.2302 H   0  0  0  0  0  0  0  0  0  0  0  0
  147.0075  134.7215  153.1828 H   0  0  0  0  0  0  0  0  0  0  0  0
  147.5713  133.1130  152.7855 H   0  0  0  0  0  0  0  0  0  0  0  0
  147.2687  134.5107  150.7583 H   0  0  0  0  0  0  0  0  0  0  0  0
  146.2092  132.8913  149.3657 H   0  0  0  0  0  0  0  0  0  0  0  0
  147.0278  132.0248  150.6348 H   0  0  0  0  0  0  0  0  0  0  0  0
  144.7434  131.1084  150.2047 H   0  0  0  0  0  0  0  0  0  0  0  0
  144.8871  131.6868  151.8436 H   0  0  0  0  0  0  0  0  0  0  0  0
  143.5676  133.1527  149.5099 H   0  0  0  0  0  0  0  0  0  0  0  0
  142.7513  132.4641  150.8918 H   0  0  0  0  0  0  0  0  0  0  0  0
  143.0073  134.9287  151.1053 H   0  0  0  0  0  0  0  0  0  0  0  0
  143.8115  134.0963  152.4076 H   0  0  0  0  0  0  0  0  0  0  0  0
  145.1496  135.1631  149.8822 H   0  0  0  0  0  0  0  0  0  0  0  0
  144.3949  136.8738  151.6799 H   0  0  0  0  0  0  0  0  0  0  0  0
  145.6690  136.1950  152.6791 H   0  0  0  0  0  0  0  0  0  0  0  0
  147.2419  136.7091  151.0028 H   0  0  0  0  0  0  0  0  0  0  0  0
  147.3420  139.0323  151.0615 H   0  0  0  0  0  0  0  0  0  0  0  0
  145.6073  139.1138  151.3254 H   0  0  0  0  0  0  0  0  0  0  0  0
  145.7781  138.3376  153.5811 H   0  0  0  0  0  0  0  0  0  0  0  0
  147.3409  137.5884  153.3119 H   0  0  0  0  0  0  0  0  0  0  0  0
  145.9912  141.2100  152.9953 H   0  0  0  0  0  0  0  0  0  0  0  0
  147.8889  142.8137  154.2176 H   0  0  0  0  0  0  0  0  0  0  0  0
  149.1642  138.8489  154.4153 H   0  0  0  0  0  0  0  0  0  0  0  0
  146.0781  137.2736  149.9925 H   0  0  0  0  0  0  0  0  0  0  0  0
  1  2  1  0  0  0  0
  1 17  1  0  0  0  0
  1 18  1  0  0  0  0
  1 19  1  0  0  0  0
  2  7  1  0  0  0  0
  2  3  1  0  0  0  0
  2 20  1  0  0  0  0
  3  4  1  0  0  0  0
  3 21  1  0  0  0  0
  3 22  1  0  0  0  0
  4  5  1  0  0  0  0
  4 23  1  0  0  0  0
  4 24  1  0  0  0  0
  5  6  1  0  0  0  0
  5 25  1  0  0  0  0
  5 26  1  0  0  0  0
  6  7  1  0  0  0  0
  6 27  1  0  0  0  0
  6 28  1  0  0  0  0
  7  8  1  0  0  0  0
  7 29  1  0  0  0  0
  8  9  1  0  0  0  0
  8 30  1  0  0  0  0
  8 31  1  0  0  0  0
  9 10  1  0  0  0  0
  9 32  1  0  0  0  0
  9 40  1  0  0  0  0
 10 11  1  0  0  0  0
 10 33  1  0  0  0  0
 10 34  1  0  0  0  0
 11 12  1  0  0  0  0
 11 35  1  0  0  0  0
 11 36  1  0  0  0  0
 12 16  1  0  0  0  0
 12 13  1  0  0  0  0
 13 14  2  0  0  0  0
 13 37  1  0  0  0  0
 14 15  1  0  0  0  0
 14 38  1  0  0  0  0
 15 16  2  0  0  0  0
 16 39  1  0  0  0  0
M  CHG  1   9   1
M  END
> <s_m_source_file>
AV-unprocessed.smi

> <i_m_source_file_index>
3193

> <i_lp_mmshare_version>
43012

> <i_f3d_flags>
0

> <s_epik_input>
W0NIM11bQ0BASF0xW0NIMl1bQ0gyXVtDSDJdW0NIMl1bQ0BIXTFbQ0gyXVtOSF1bQ0gyXVtDSDJdbjJbY0hdW2NIXW5bY0hdMg==

> <s_epik_cmdline>
J2VwaWtfcHl0aG9uJywgJy1waCcsICc3LjAnLCAnLXRuJywgJzgnLCAnLW1hJywgJzIwMCcsICctbWV0YWxfYmluZGluZycsICctaW1hZScsICc8aW5maWxlLm1hZT4nLCAnLW9tYWUnLCAnPG91dGZpbGUubWFlPic=

> <r_lp_tautomer_probability>
1

> <r_epik_Ionization_Penalty>
0.0503046

> <r_epik_Ionization_Penalty_Charging>
0.0503046

> <r_epik_Ionization_Penalty_Neutral>
0

> <r_epik_State_Penalty>
0.0981804

> <r_epik_Charging_Adjusted_Penalty>
0.148485

> <i_epik_Tot_Q>
1

> <i_epik_Tot_abs_Q>
1

> <r_epik_Metal_State_Penalty>
0.000105854

> <b_epik_Metal_Only>
0

> <s_lp_Force_Field>
OPLS_2005

> <r_lp_Energy>
20.219

> <b_lp_Chiralities_Consistent>
1

> <s_lp_Variant>
AV-unprocessed.smi:3193-2

> <Gold.Version>
5.8.1

> <Gold.Id.Protein>
6NUR|6NUR_protein|mol2

> <Gold.PLP.Fitness>
48.8922

> <Gold.PLP.PLP>
-37.3167

> <Gold.PLP.part.hbond>
-1.9667

> <Gold.PLP.part.metal>
0.0000

> <Gold.PLP.part.buried>
-2.9238

> <Gold.PLP.part.nonpolar>
-33.4447

> <Gold.PLP.part.repulsive>
0.2575

> <Gold.PLP.ligand.clash>
0.0000

> <Gold.PLP.ligand.torsion>
0.2658

> <Gold.PLP.Chemscore.Hbond>
2.0000

> <Gold.PLP.Chemscore.CHOScore>
1.9988

> <Gold.PLP.Chemscore.Metal>
0.0000

> <Gold.Chemscore.Hbonds>
donor molecule, donor type, donor heavy atom, donor atom, acceptor molecule, acceptor atom, score
      L1  H     9    32       P1  7948  2.00
      L1  C    13    37       P1 10175  0.88
      L1  C    14    38       P1  8028  0.95

> <Gold.PLP.Chemscore.Internal.Correction>
0.1108

> <Gold.Rescore>
     Score         DG    S(hbond)    S(metal)    S(lipo)     H(rot)  DE(clash)    DE(int)     intcor
     13.97     -14.31       0.99        0.00      88.58       1.89       0.11       0.23       ----

> <Gold.Chemscore.Fitness>
13.9690

> <Gold.Chemscore.DG>
-14.3103

> <Gold.Chemscore.ZeroCoef>
-5.4800

> <Gold.Chemscore.Hbond>
0.9892

> <Gold.Chemscore.Metal>
0.0000

> <Gold.Chemscore.Lipo>
88.5770

> <Gold.Chemscore.Internal_Hbond>
0.0000

> <Gold.Chemscore.DEClash>
0.1130

> <Gold.Chemscore.DEInternal>
0.2283

> <Gold.Chemscore.Rot>
1.8895

> <Gold.Chemscore.Internal.Correction>
   9.000000E+99

> <Gold.Chemscore.Hbonds>
donor molecule, donor type, donor heavy atom, donor atom, acceptor molecule, acceptor atom, score
      L1  H     9    32       P1  7948  0.98

> <Gold.Chemscore.Hbond.Weighted>
-3.3038

> <Gold.Chemscore.Metal.Weighted>
-0.0000

> <Gold.Chemscore.Lipo.Weighted>
-10.3635

> <Gold.Chemscore.Internal_Hbond.Weighted>
0.0000

> <Gold.Chemscore.DEClash.Weighted>
0.1130

> <Gold.Chemscore.DEInternal.Weighted>
0.2283

> <Gold.Chemscore.Rot.Weighted>
4.8371

> <Gold.Chemscore.Internal.Correction.Weighted>
   9.000000E+99

> <Gold.Protein.RotatedTorsions>
[ 6907 6896 6895 6894 ] final  -96.83 input  -60.11 | X-H torsion
[ 7974 7965 7964 7962 ] final  162.58 input  175.53 | X-H torsion
[ 8008 7997 7996 7995 ] final  -84.26 input   59.86 | X-H torsion
[ 10167 10162 10161 10158 ] final  145.19 input  -65.29 | X-H torsion
[ 10718 10713 10712 10709 ] final   76.85 input   66.30 | X-H torsion
[ 10763 10752 10751 10750 ] final  173.48 input  -60.55 | X-H torsion
[ 11005 11000 10999 10996 ] final -126.00 input  -57.11 | X-H torsion

> <Gold.Protein.ActiveResidues>
 VAL166  LYS551  ARG553  GLY616  TRP617  ASP618  TYR619  PRO620  LYS621  CYS622 
 ASP623  PHE694  ASN695  SER759  ASP760  ASP761  ALA762  ILE779  LEU786  VAL792 
 PHE793  MET794  SER795  GLU796  ALA797  LYS798  CYS799  TRP800  GLU811  SER814 

> <Gold.Protein.RotatedAtoms>
  150.6999  134.1443  159.4116 H   0  0  0  0  0  0  0  0  0  0  0  0  # atno 6907 bound_to 6896
  151.9427  135.0204  160.0546 H   0  0  0  0  0  0  0  0  0  0  0  0  # atno 6908 bound_to 6896
  152.2080  133.4855  159.5131 H   0  0  0  0  0  0  0  0  0  0  0  0  # atno 6909 bound_to 6896
  144.7630  139.8061  143.6326 H   0  0  0  0  0  0  0  0  0  0  0  0  # atno 7974 bound_to 7965
  154.6279  140.0607  156.9696 H   0  0  0  0  0  0  0  0  0  0  0  0  # atno 8008 bound_to 7997
  155.1713  140.3291  155.4374 H   0  0  0  0  0  0  0  0  0  0  0  0  # atno 8009 bound_to 7997
  156.2467  140.1913  156.6815 H   0  0  0  0  0  0  0  0  0  0  0  0  # atno 8010 bound_to 7997
  139.4931  144.5919  151.6663 H   0  0  0  0  0  0  0  0  0  0  0  0  # atno 10167 bound_to 10162
  157.6689  130.9793  150.1556 H   0  0  0  0  0  0  0  0  0  0  0  0  # atno 10718 bound_to 10713
  154.4406  135.2762  155.1850 H   0  0  0  0  0  0  0  0  0  0  0  0  # atno 10763 bound_to 10752
  154.3718  135.6107  153.5747 H   0  0  0  0  0  0  0  0  0  0  0  0  # atno 10764 bound_to 10752
  152.9840  135.5859  154.4733 H   0  0  0  0  0  0  0  0  0  0  0  0  # atno 10765 bound_to 10752
  140.9717  134.0796  157.3862 H   0  0  0  0  0  0  0  0  0  0  0  0  # atno 11005 bound_to 11000
  146.1711  139.4861  142.9927 LP  0  0  0  0  0  0  0  0  0  0  0  0  # atno 17320 bound_to 7965
  145.6560  141.0252  143.1735 LP  0  0  0  0  0  0  0  0  0  0  0  0  # atno 17321 bound_to 7965
  140.5548  144.0366  150.6143 LP  0  0  0  0  0  0  0  0  0  0  0  0  # atno 17342 bound_to 10162
  140.3432  143.3007  152.0566 LP  0  0  0  0  0  0  0  0  0  0  0  0  # atno 17343 bound_to 10162
  156.2344  130.3685  149.8408 LP  0  0  0  0  0  0  0  0  0  0  0  0  # atno 17370 bound_to 10713
  156.6225  130.8632  151.3478 LP  0  0  0  0  0  0  0  0  0  0  0  0  # atno 17371 bound_to 10713
  139.8915  135.0119  156.6793 LP  0  0  0  0  0  0  0  0  0  0  0  0  # atno 17394 bound_to 11000
  140.7319  133.9052  155.8217 LP  0  0  0  0  0  0  0  0  0  0  0  0  # atno 17395 bound_to 11000

$$$$
