#       Name:                AV-unprocessed.smi:2310
#       Creating user name   scv26
#       Creation time:       Fri Mar 27 12:47:57 2020


#       File generated by GOLD software.
#

@<TRIPOS>MOLECULE
AV-unprocessed.smi:2310
    50    51     1
SMALL
NO_CHARGES


@<TRIPOS>ATOM
      1 ****        -4.1517  -1.6644   3.9186 C.3            1 S1                 0.0000
      2 ****        -4.5951  -2.4173   2.6556 C.3            1 S1                 0.0000
      3 ****        -4.1633  -1.7381   1.3401 C.3            1 S1                 0.0000
      4 ****        -4.6774  -2.4913   0.0990 C.3            1 S1                 0.0000
      5 ****        -6.1432  -2.6079   0.0443 C.1            1 S1                 0.0000
      6 ****        -7.2956  -2.6998   0.0014 N.1            1 S1                 0.0000
      7 ****        -2.7072  -1.6229   1.2876 N.am           1 S1                 0.0000
      8 ****        -2.0291  -0.7391   0.5419 C.2            1 S1                 0.0000
      9 ****        -2.5702   0.0674  -0.2140 O.2            1 S1                 0.0000
     10 ****        -0.7027  -0.8671   0.7193 N.am           1 S1                 0.0000
     11 ****         0.3484  -0.1273   0.1073 C.ar           1 S1                 0.0000
     12 ****         0.1752   1.1979  -0.3675 C.ar           1 S1                 0.0000
     13 ****         1.2616   1.8833  -0.9463 C.ar           1 S1                 0.0000
     14 ****         2.5175   1.2428  -1.0351 C.ar           1 S1                 0.0000
     15 ****         3.6608   1.8358  -1.5889 N.3            1 S1                 0.0000
     16 ****         3.5553   2.1578  -3.0022 C.3            1 S1                 0.0000
     17 ****         4.6911   3.1449  -3.2863 C.3            1 S1                 0.0000
     18 ****         5.0626   3.7251  -1.9164 C.3            1 S1                 0.0000
     19 ****         4.0990   3.0566  -0.9331 C.3            1 S1                 0.0000
     20 ****         2.6471  -0.0137  -0.5589 N.pl3          1 S1                 1.0000
     21 ****         1.6364  -0.7132   0.0039 C.ar           1 S1                 0.0000
     22 ****         1.9767  -2.1138   0.4865 C.3            1 S1                 0.0000
     23 ****        -4.5256  -2.1611   4.8141 H              1 S1                 0.0000
     24 ****        -4.5340  -0.6433   3.9220 H              1 S1                 0.0000
     25 ****        -3.0657  -1.6167   4.0003 H              1 S1                 0.0000
     26 ****        -4.2071  -3.4361   2.6880 H              1 S1                 0.0000
     27 ****        -5.6813  -2.5082   2.6777 H              1 S1                 0.0000
     28 ****        -4.5906  -0.7334   1.3300 H              1 S1                 0.0000
     29 ****        -4.3611  -1.9885  -0.8152 H              1 S1                 0.0000
     30 ****        -4.2651  -3.5002   0.0678 H              1 S1                 0.0000
     31 ****        -2.1822  -2.2528   1.8767 H              1 S1                 0.0000
     32 ****        -0.4070  -1.6330   1.3068 H              1 S1                 0.0000
     33 ****        -0.7699   1.7119  -0.2859 H              1 S1                 0.0000
     34 ****         1.1258   2.8909  -1.3111 H              1 S1                 0.0000
     35 ****         3.6416   1.2608  -3.6161 H              1 S1                 0.0000
     36 ****         2.5923   2.6222  -3.2186 H              1 S1                 0.0000
     37 ****         5.5493   2.6256  -3.7149 H              1 S1                 0.0000
     38 ****         4.3831   3.9159  -3.9932 H              1 S1                 0.0000
     39 ****         6.0933   3.4656  -1.6717 H              1 S1                 0.0000
     40 ****         4.9785   4.8118  -1.8873 H              1 S1                 0.0000
     41 ****         3.2515   3.7140  -0.7355 H              1 S1                 0.0000
     42 ****         4.5847   2.8389   0.0185 H              1 S1                 0.0000
     43 ****         1.1266  -2.6354   0.9245 H              1 S1                 0.0000
     44 ****         2.7624  -2.0677   1.2410 H              1 S1                 0.0000
     45 ****         2.3419  -2.7163  -0.3457 H              1 S1                 0.0000
     46 ****         3.5617  -0.4608  -0.6269 H              1 S1                 0.0000
     47 ****        -8.2917  -2.7792  -0.0357 LP             1 S1                 0.0000
     48 ****        -3.5667   0.0857  -0.2952 LP             1 S1                 0.0000
     49 ****        -2.0133   0.7044  -0.7471 LP             1 S1                 0.0000
     50 ****         4.3303   1.1071  -1.4449 LP             1 S1                 0.0000
@<TRIPOS>BOND
    1    1    2 1     
    2    1   23 1     
    3    1   24 1     
    4    1   25 1     
    5    2    3 1     
    6    2   26 1     
    7    2   27 1     
    8    3    4 1     
    9    3    7 1     
   10    3   28 1     
   11    4    5 1     
   12    4   29 1     
   13    4   30 1     
   14    5    6 3     
   15    7    8 am    
   16    7   31 1     
   17    8    9 2     
   18    8   10 am    
   19   10   11 1     
   20   10   32 1     
   21   11   21 ar    
   22   11   12 ar    
   23   12   13 ar    
   24   12   33 1     
   25   13   14 ar    
   26   13   34 1     
   27   14   15 1     
   28   14   20 ar    
   29   15   19 1     
   30   15   16 1     
   31   16   17 1     
   32   16   35 1     
   33   16   36 1     
   34   17   18 1     
   35   17   37 1     
   36   17   38 1     
   37   18   19 1     
   38   18   39 1     
   39   18   40 1     
   40   19   41 1     
   41   19   42 1     
   42   20   21 ar    
   43   20   46 1     
   44   21   22 1     
   45   22   43 1     
   46   22   44 1     
   47   22   45 1     
   48    6   47 1     
   49    9   48 1     
   50    9   49 1     
   51   15   50 1     
@<TRIPOS>SUBSTRUCTURE
      1 S1             1
@<TRIPOS>SET
LONE_PAIRS      STATIC     ATOMS    <user>   **** ""
4 47 48 49 50
DONOR_HYDROGENS      STATIC     ATOMS    <user>   **** ""
3 31 32 46
ATOM$BLUE        STATIC     ATOMS    COLORGROUP SYSTEM
4 47 48 49 50
ATOM$RED        STATIC     ATOMS    COLORGROUP SYSTEM
3 31 32 46
