AV-unprocessed.smi:2931|AV-procd|sdf|11245|dock2
  -GOLD-   2272016143D 1   1.00000     0.00000
 Structure written by MMmdl.
 42 43  0  0  0  0  0  0  0  0  2 V2000
  145.7547  129.8311  151.9332 C   0  0  0  0  0  0  0  0  0  0  0  0
  145.4861  131.2732  151.7467 N   0  3  2  0  0  0  0  0  0  0  0  0
  145.2545  131.6264  150.3239 C   0  0  0  0  0  0  0  0  0  0  0  0
  144.8496  133.1031  150.1825 C   0  0  0  0  0  0  0  0  0  0  0  0
  145.8989  134.0263  150.8175 C   0  0  0  0  0  0  0  0  0  0  0  0
  146.1482  133.6173  152.2802 C   0  0  2  0  0  0  0  0  0  0  0  0
  147.2037  134.4331  152.8727 N   0  0  0  0  0  0  0  0  0  0  0  0
  147.6099  134.3550  154.1474 C   0  0  0  0  0  0  0  0  0  0  0  0
  147.1178  133.5935  154.9800 O   0  0  0  0  0  0  0  0  0  0  0  0
  148.6280  135.1913  154.3979 N   0  0  0  0  0  0  0  0  0  0  0  0
  149.3463  135.2918  155.6666 C   0  0  0  0  0  0  0  0  0  0  0  0
  150.8077  135.7419  155.4738 C   0  0  0  0  0  0  0  0  0  0  0  0
  150.9594  137.2326  155.2220 C   0  0  0  0  0  0  0  0  0  0  0  0
  152.0398  137.9478  155.7778 C   0  0  0  0  0  0  0  0  0  0  0  0
  152.1529  139.3234  155.4935 C   0  0  0  0  0  0  0  0  0  0  0  0
  151.2746  139.9949  154.7177 N   0  0  0  0  0  0  0  0  0  0  0  0
  150.2385  139.3048  154.1947 C   0  0  0  0  0  0  0  0  0  0  0  0
  150.0357  137.9276  154.4136 C   0  0  0  0  0  0  0  0  0  0  0  0
  146.5285  132.1273  152.3690 C   0  0  0  0  0  0  0  0  0  0  0  0
  146.6780  129.5365  151.4325 H   0  0  0  0  0  0  0  0  0  0  0  0
  144.9388  129.2318  151.5280 H   0  0  0  0  0  0  0  0  0  0  0  0
  145.8481  129.5910  152.9929 H   0  0  0  0  0  0  0  0  0  0  0  0
  146.1582  131.4274  149.7455 H   0  0  0  0  0  0  0  0  0  0  0  0
  144.4680  130.9925  149.9124 H   0  0  0  0  0  0  0  0  0  0  0  0
  144.7194  133.3559  149.1299 H   0  0  0  0  0  0  0  0  0  0  0  0
  143.8825  133.2649  150.6608 H   0  0  0  0  0  0  0  0  0  0  0  0
  146.8284  133.9679  150.2495 H   0  0  0  0  0  0  0  0  0  0  0  0
  145.5634  135.0626  150.7622 H   0  0  0  0  0  0  0  0  0  0  0  0
  145.2257  133.7601  152.8474 H   0  0  0  0  0  0  0  0  0  0  0  0
  147.6700  135.0914  152.2655 H   0  0  0  0  0  0  0  0  0  0  0  0
  148.9557  135.7796  153.6458 H   0  0  0  0  0  0  0  0  0  0  0  0
  148.8239  136.0111  156.2973 H   0  0  0  0  0  0  0  0  0  0  0  0
  149.3161  134.3423  156.2038 H   0  0  0  0  0  0  0  0  0  0  0  0
  151.3936  135.4665  156.3517 H   0  0  0  0  0  0  0  0  0  0  0  0
  151.2490  135.2015  154.6357 H   0  0  0  0  0  0  0  0  0  0  0  0
  152.7726  137.4533  156.3982 H   0  0  0  0  0  0  0  0  0  0  0  0
  152.9721  139.8991  155.8981 H   0  0  0  0  0  0  0  0  0  0  0  0
  149.5515  139.8665  153.5790 H   0  0  0  0  0  0  0  0  0  0  0  0
  149.1944  137.4200  153.9653 H   0  0  0  0  0  0  0  0  0  0  0  0
  146.6495  131.8432  153.4154 H   0  0  0  0  0  0  0  0  0  0  0  0
  147.4867  131.9476  151.8779 H   0  0  0  0  0  0  0  0  0  0  0  0
  144.6242  131.4695  152.2357 H   0  0  0  0  0  0  0  0  0  0  0  0
  1  2  1  0  0  0  0
  1 20  1  0  0  0  0
  1 21  1  0  0  0  0
  1 22  1  0  0  0  0
  2 19  1  0  0  0  0
  2  3  1  0  0  0  0
  2 42  1  0  0  0  0
  3  4  1  0  0  0  0
  3 23  1  0  0  0  0
  3 24  1  0  0  0  0
  4  5  1  0  0  0  0
  4 25  1  0  0  0  0
  4 26  1  0  0  0  0
  5  6  1  0  0  0  0
  5 27  1  0  0  0  0
  5 28  1  0  0  0  0
  6  7  1  0  0  0  0
  6 19  1  0  0  0  0
  6 29  1  0  0  0  0
  7  8  1  0  0  0  0
  7 30  1  0  0  0  0
  8  9  2  0  0  0  0
  8 10  1  0  0  0  0
 10 11  1  0  0  0  0
 10 31  1  0  0  0  0
 11 12  1  0  0  0  0
 11 32  1  0  0  0  0
 11 33  1  0  0  0  0
 12 13  1  0  0  0  0
 12 34  1  0  0  0  0
 12 35  1  0  0  0  0
 13 18  1  0  0  0  0
 13 14  2  0  0  0  0
 14 15  1  0  0  0  0
 14 36  1  0  0  0  0
 15 16  2  0  0  0  0
 15 37  1  0  0  0  0
 16 17  1  0  0  0  0
 17 18  2  0  0  0  0
 17 38  1  0  0  0  0
 18 39  1  0  0  0  0
 19 40  1  0  0  0  0
 19 41  1  0  0  0  0
M  CHG  1   2   1
M  END
> <s_m_source_file>
AV-unprocessed.smi

> <i_m_source_file_index>
2931

> <i_lp_mmshare_version>
43012

> <i_f3d_flags>
0

> <s_epik_input>
W0NIM11OMVtDSDJdW0NIMl1bQ0gyXVtDQEhdKFtDSDJdMSlbTkhdQyg9TylbTkhdW0NIMl1bQ0gyXWMyW2NIXVtjSF1uW2NIXVtjSF0y

> <s_epik_cmdline>
J2VwaWtfcHl0aG9uJywgJy1waCcsICc3LjAnLCAnLXRuJywgJzgnLCAnLW1hJywgJzIwMCcsICctbWV0YWxfYmluZGluZycsICctaW1hZScsICc8aW5maWxlLm1hZT4nLCAnLW9tYWUnLCAnPG91dGZpbGUubWFlPic=

> <r_epik_Ionization_Penalty>
0.0573876

> <r_epik_Ionization_Penalty_Charging>
0.00229982

> <r_epik_Ionization_Penalty_Neutral>
0.0550878

> <r_epik_State_Penalty>
0.0473925

> <r_epik_Charging_Adjusted_Penalty>
0.0496923

> <i_epik_Tot_Q>
1

> <i_epik_Tot_abs_Q>
1

> <r_epik_Metal_State_Penalty>
0.0433388

> <b_epik_Metal_Only>
0

> <s_lp_Force_Field>
OPLS_2005

> <r_lp_Energy>
13.2125

> <b_lp_Chiralities_Consistent>
1

> <s_lp_Variant>
AV-unprocessed.smi:2931-4

> <Gold.Version>
5.8.1

> <Gold.Id.Protein>
6NUR|6NUR_protein|mol2

> <Gold.PLP.Fitness>
42.9561

> <Gold.PLP.PLP>
-32.5796

> <Gold.PLP.part.hbond>
-3.0000

> <Gold.PLP.part.metal>
0.0000

> <Gold.PLP.part.buried>
-2.7433

> <Gold.PLP.part.nonpolar>
-26.8601

> <Gold.PLP.part.repulsive>
0.1324

> <Gold.PLP.ligand.clash>
0.0000

> <Gold.PLP.ligand.torsion>
0.5725

> <Gold.PLP.Chemscore.Hbond>
2.9920

> <Gold.PLP.Chemscore.CHOScore>
0.8404

> <Gold.PLP.Chemscore.Metal>
0.0000

> <Gold.Chemscore.Hbonds>
donor molecule, donor type, donor heavy atom, donor atom, acceptor molecule, acceptor atom, score
      L1  H     7    30       P1  7948  1.00
      L1  H    10    31       P1  7948  1.00
      P1  H  7989  7998       L1    16  1.00
      L1  C    17    38       P1  7957  0.92

> <Gold.PLP.Chemscore.Internal.Correction>
0.0242

> <Gold.Rescore>
     Score         DG    S(hbond)    S(metal)    S(lipo)     H(rot)  DE(clash)    DE(int)     intcor
     19.46     -20.16       2.38        0.00      91.73       1.56       0.07       0.62       ----

> <Gold.Chemscore.Fitness>
19.4610

> <Gold.Chemscore.DG>
-20.1552

> <Gold.Chemscore.ZeroCoef>
-5.4800

> <Gold.Chemscore.Hbond>
2.3754

> <Gold.Chemscore.Metal>
0.0000

> <Gold.Chemscore.Lipo>
91.7350

> <Gold.Chemscore.Internal_Hbond>
0.0000

> <Gold.Chemscore.DEClash>
0.0733

> <Gold.Chemscore.DEInternal>
0.6209

> <Gold.Chemscore.Rot>
1.5592

> <Gold.Chemscore.Internal.Correction>
   9.000000E+99

> <Gold.Chemscore.Hbonds>
donor molecule, donor type, donor heavy atom, donor atom, acceptor molecule, acceptor atom, score
      L1  H     7    30       P1  7948  0.93
      L1  H    10    31       P1  7948  0.88
      P1  H  7989  7998       L1    16  0.24

> <Gold.Chemscore.Hbond.Weighted>
-7.9338

> <Gold.Chemscore.Metal.Weighted>
-0.0000

> <Gold.Chemscore.Lipo.Weighted>
-10.7330

> <Gold.Chemscore.Internal_Hbond.Weighted>
0.0000

> <Gold.Chemscore.DEClash.Weighted>
0.0733

> <Gold.Chemscore.DEInternal.Weighted>
0.6209

> <Gold.Chemscore.Rot.Weighted>
3.9915

> <Gold.Chemscore.Internal.Correction.Weighted>
   9.000000E+99

> <Gold.Protein.RotatedTorsions>
[ 6907 6896 6895 6894 ] final   14.31 input  -60.11 | X-H torsion
[ 7974 7965 7964 7962 ] final -135.22 input  175.53 | X-H torsion
[ 8008 7997 7996 7995 ] final   41.58 input   59.86 | X-H torsion
[ 10167 10162 10161 10158 ] final  -92.18 input  -65.29 | X-H torsion
[ 10718 10713 10712 10709 ] final -166.88 input   66.30 | X-H torsion
[ 10763 10752 10751 10750 ] final -111.00 input  -60.55 | X-H torsion
[ 11005 11000 10999 10996 ] final   36.30 input  -57.11 | X-H torsion

> <Gold.Protein.ActiveResidues>
 VAL166  LYS551  ARG553  GLY616  TRP617  ASP618  TYR619  PRO620  LYS621  CYS622 
 ASP623  PHE694  ASN695  SER759  ASP760  ASP761  ALA762  ILE779  LEU786  VAL792 
 PHE793  MET794  SER795  GLU796  ALA797  LYS798  CYS799  TRP800  GLU811  SER814 

> <Gold.Protein.RotatedAtoms>
  151.8003  135.0711  160.0399 H   0  0  0  0  0  0  0  0  0  0  0  0  # atno 6907 bound_to 6896
  152.3094  133.5732  159.5679 H   0  0  0  0  0  0  0  0  0  0  0  0  # atno 6908 bound_to 6896
  150.7312  134.0091  159.3705 H   0  0  0  0  0  0  0  0  0  0  0  0  # atno 6909 bound_to 6896
  144.9033  140.6800  143.5071 H   0  0  0  0  0  0  0  0  0  0  0  0  # atno 7974 bound_to 7965
  155.2720  140.3366  155.4264 H   0  0  0  0  0  0  0  0  0  0  0  0  # atno 8008 bound_to 7997
  156.2128  140.1777  156.7698 H   0  0  0  0  0  0  0  0  0  0  0  0  # atno 8009 bound_to 7997
  154.5711  140.0670  156.8949 H   0  0  0  0  0  0  0  0  0  0  0  0  # atno 8010 bound_to 7997
  140.3374  143.2961  151.9874 H   0  0  0  0  0  0  0  0  0  0  0  0  # atno 10167 bound_to 10162
  156.6743  130.9096  151.3048 H   0  0  0  0  0  0  0  0  0  0  0  0  # atno 10718 bound_to 10713
  154.8277  135.4543  154.0971 H   0  0  0  0  0  0  0  0  0  0  0  0  # atno 10763 bound_to 10752
  153.2271  135.6901  153.7939 H   0  0  0  0  0  0  0  0  0  0  0  0  # atno 10764 bound_to 10752
  153.7335  135.3323  155.3267 H   0  0  0  0  0  0  0  0  0  0  0  0  # atno 10765 bound_to 10752
  140.2339  134.3495  155.7952 H   0  0  0  0  0  0  0  0  0  0  0  0  # atno 11005 bound_to 11000
  145.3579  139.1689  143.4399 LP  0  0  0  0  0  0  0  0  0  0  0  0  # atno 17320 bound_to 7965
  146.3120  140.3638  142.8667 LP  0  0  0  0  0  0  0  0  0  0  0  0  # atno 17321 bound_to 7965
  139.4846  144.6185  151.7300 LP  0  0  0  0  0  0  0  0  0  0  0  0  # atno 17342 bound_to 10162
  140.5341  144.0684  150.6064 LP  0  0  0  0  0  0  0  0  0  0  0  0  # atno 17343 bound_to 10162
  157.7066  130.9392  150.0951 LP  0  0  0  0  0  0  0  0  0  0  0  0  # atno 17370 bound_to 10713
  156.1915  130.3655  149.8904 LP  0  0  0  0  0  0  0  0  0  0  0  0  # atno 17371 bound_to 10713
  141.2216  133.7261  156.8776 LP  0  0  0  0  0  0  0  0  0  0  0  0  # atno 17394 bound_to 11000
  140.1722  134.9092  157.2847 LP  0  0  0  0  0  0  0  0  0  0  0  0  # atno 17395 bound_to 11000

$$$$
