#       Name:                AV-unprocessed.smi:574
#       Creating user name   scv26
#       Creation time:       Thu Mar 26 23:48:35 2020


#       File generated by GOLD software.
#

@<TRIPOS>MOLECULE
AV-unprocessed.smi:574
    48    49     1
SMALL
NO_CHARGES


@<TRIPOS>ATOM
      1 ****        -2.7522   0.4712   2.6619 C.3            1 S1                 0.0000
      2 ****        -2.7620  -1.0400   2.4581 C.2            1 S1                 0.0000
      3 ****        -3.8277  -1.6550   2.4308 O.2            1 S1                 0.0000
      4 ****        -1.5653  -1.6240   2.3087 N.am           1 S1                 0.0000
      5 ****        -1.3510  -3.0436   2.0448 C.3            1 S1                 0.0000
      6 ****         0.1504  -3.3828   1.9986 C.3            1 S1                 0.0000
      7 ****         0.7981  -2.6080   0.9427 N.pl3          1 S1                -1.0000
      8 ****         2.0923  -2.1789   0.9803 C.2            1 S1                 0.0000
      9 ****         2.9973  -2.4973   1.7593 O.2            1 S1                 0.0000
     10 ****         2.3855  -1.1589  -0.0963 C.ar           1 S1                 0.0000
     11 ****         1.4140  -0.2549  -0.3811 N.ar           1 S1                 0.0000
     12 ****         1.6410   0.6759  -1.3119 C.ar           1 S1                 0.0000
     13 ****         0.6082   1.5840  -1.5791 N.pl3          1 S1                 0.0000
     14 ****         0.8304   2.8119  -2.3453 C.3            1 S1                 0.0000
     15 ****        -0.4283   3.1914  -3.1434 C.3            1 S1                 0.0000
     16 ****        -1.5429   3.2940  -2.2656 O.3            1 S1                 0.0000
     17 ****        -1.8194   2.0545  -1.6249 C.3            1 S1                 0.0000
     18 ****        -0.6140   1.6276  -0.7711 C.3            1 S1                 0.0000
     19 ****         2.7799   0.8013  -2.0027 N.ar           1 S1                 0.0000
     20 ****         3.7660  -0.0825  -1.7435 C.ar           1 S1                 0.0000
     21 ****         3.6267  -1.1049  -0.7847 C.ar           1 S1                 0.0000
     22 ****         4.9260  -2.2206  -0.5337 Cl             1 S1                 0.0000
     23 ****        -2.4648   0.9750   1.7387 H              1 S1                 0.0000
     24 ****        -2.0430   0.7486   3.4425 H              1 S1                 0.0000
     25 ****        -3.7396   0.8297   2.9548 H              1 S1                 0.0000
     26 ****        -0.7382  -1.0442   2.3279 H              1 S1                 0.0000
     27 ****        -1.8355  -3.6334   2.8242 H              1 S1                 0.0000
     28 ****        -1.8275  -3.3118   1.1003 H              1 S1                 0.0000
     29 ****         0.5821  -3.1876   2.9815 H              1 S1                 0.0000
     30 ****         0.2659  -4.4541   1.8326 H              1 S1                 0.0000
     31 ****         1.0879   3.6121  -1.6506 H              1 S1                 0.0000
     32 ****         1.6636   2.7189  -3.0413 H              1 S1                 0.0000
     33 ****        -0.2808   4.1498  -3.6413 H              1 S1                 0.0000
     34 ****        -0.6306   2.4557  -3.9235 H              1 S1                 0.0000
     35 ****        -2.7011   2.1698  -0.9944 H              1 S1                 0.0000
     36 ****        -2.0581   1.2920  -2.3682 H              1 S1                 0.0000
     37 ****        -0.8442   0.6624  -0.3201 H              1 S1                 0.0000
     38 ****        -0.4657   2.3317   0.0484 H              1 S1                 0.0000
     39 ****         4.6767   0.0250  -2.3140 H              1 S1                 0.0000
     40 ****        -4.6915  -1.1637   2.5425 LP             1 S1                 0.0000
     41 ****        -3.8298  -2.6460   2.2969 LP             1 S1                 0.0000
     42 ****         0.2545  -2.3761   0.1360 LP             1 S1                 0.0000
     43 ****         2.8201  -3.1589   2.4879 LP             1 S1                 0.0000
     44 ****         3.9068  -2.0933   1.6611 LP             1 S1                 0.0000
     45 ****         0.5381  -0.2853   0.1005 LP             1 S1                 0.0000
     46 ****        -2.3459   3.5738  -2.7918 LP             1 S1                 0.0000
     47 ****        -1.3447   3.9829  -1.5683 LP             1 S1                 0.0000
     48 ****         2.8960   1.5228  -2.6853 LP             1 S1                 0.0000
@<TRIPOS>BOND
    1    1    2 1     
    2    1   23 1     
    3    1   24 1     
    4    1   25 1     
    5    2    3 2     
    6    2    4 am    
    7    4    5 1     
    8    4   26 1     
    9    5    6 1     
   10    5   27 1     
   11    5   28 1     
   12    6    7 1     
   13    6   29 1     
   14    6   30 1     
   15    7    8 1     
   16    8    9 2     
   17    8   10 1     
   18   10   21 ar    
   19   10   11 ar    
   20   11   12 ar    
   21   12   13 1     
   22   12   19 ar    
   23   13   18 1     
   24   13   14 1     
   25   14   15 1     
   26   14   31 1     
   27   14   32 1     
   28   15   16 1     
   29   15   33 1     
   30   15   34 1     
   31   16   17 1     
   32   17   18 1     
   33   17   35 1     
   34   17   36 1     
   35   18   37 1     
   36   18   38 1     
   37   19   20 ar    
   38   20   21 ar    
   39   20   39 1     
   40   21   22 1     
   41    3   40 1     
   42    3   41 1     
   43    7   42 1     
   44    9   43 1     
   45    9   44 1     
   46   11   45 1     
   47   16   46 1     
   48   16   47 1     
   49   19   48 1     
@<TRIPOS>SUBSTRUCTURE
      1 S1             1
@<TRIPOS>SET
LONE_PAIRS      STATIC     ATOMS    <user>   **** ""
9 40 41 42 43 44 45 46 47 48
DONOR_HYDROGENS      STATIC     ATOMS    <user>   **** ""
1 26
ATOM$BLUE        STATIC     ATOMS    COLORGROUP SYSTEM
9 40 41 42 43 44 45 46 47 48
ATOM$RED        STATIC     ATOMS    COLORGROUP SYSTEM
1 26
