AV-unprocessed.smi:1721|AV-procd|sdf|6939|dock2
  -GOLD-   22720 8143D 1   1.00000     0.00000
 Structure written by MMmdl.
 44 46  0  0  0  0  0  0  0  0  2 V2000
  152.1280  138.5489  154.6439 C   0  0  0  0  0  0  0  0  0  0  0  0
  150.7825  138.2742  154.2688 O   0  0  0  0  0  0  0  0  0  0  0  0
  149.8412  139.2764  154.4091 C   0  0  0  0  0  0  0  0  0  0  0  0
  150.2645  140.5127  154.7732 N   0  0  0  0  0  0  0  0  0  0  0  0
  149.3465  141.4910  154.9145 C   0  0  0  0  0  0  0  0  0  0  0  0
  147.9694  141.2901  154.7094 C   0  0  0  0  0  0  0  0  0  0  0  0
  147.5277  140.0088  154.3312 C   0  0  0  0  0  0  0  0  0  0  0  0
  148.4811  138.9753  154.1630 C   0  0  0  0  0  0  0  0  0  0  0  0
  148.1415  137.6427  153.8005 N   0  0  0  0  0  0  0  0  0  0  0  0
  147.0956  136.9064  154.2113 C   0  0  0  0  0  0  0  0  0  0  0  0
  146.2304  137.2757  155.0047 O   0  0  0  0  0  0  0  0  0  0  0  0
  147.0873  135.7038  153.6185 N   0  0  0  0  0  0  0  0  0  0  0  0
  146.0829  134.6630  153.8344 C   0  0  2  0  0  0  0  0  0  0  0  0
  146.6958  133.3209  154.2796 C   0  0  0  0  0  0  0  0  0  0  0  0
  145.9040  132.2580  153.5109 C   0  0  0  0  0  0  0  0  0  0  0  0
  145.5882  132.9334  152.2470 N   0  3  1  0  0  0  0  0  0  0  0  0
  144.6138  132.3024  151.3338 C   0  0  0  0  0  0  0  0  0  0  0  0
  144.5952  133.1004  150.0121 C   0  0  0  0  0  0  0  0  0  0  0  0
  144.3692  134.6119  150.2436 C   0  0  0  0  0  0  0  0  0  0  0  0
  145.3361  135.1817  151.3041 C   0  0  0  0  0  0  0  0  0  0  0  0
  145.2407  134.3258  152.5802 C   0  0  2  0  0  0  0  0  0  0  0  0
  152.7382  137.6624  154.4722 H   0  0  0  0  0  0  0  0  0  0  0  0
  152.2034  138.8025  155.7023 H   0  0  0  0  0  0  0  0  0  0  0  0
  152.5502  139.3609  154.0501 H   0  0  0  0  0  0  0  0  0  0  0  0
  149.7210  142.4611  155.2058 H   0  0  0  0  0  0  0  0  0  0  0  0
  147.2670  142.0995  154.8435 H   0  0  0  0  0  0  0  0  0  0  0  0
  146.4709  139.8419  154.1921 H   0  0  0  0  0  0  0  0  0  0  0  0
  148.7203  137.2332  153.0817 H   0  0  0  0  0  0  0  0  0  0  0  0
  147.8361  135.4891  152.9761 H   0  0  0  0  0  0  0  0  0  0  0  0
  145.4022  134.9936  154.6217 H   0  0  0  0  0  0  0  0  0  0  0  0
  147.7456  133.2673  153.9866 H   0  0  0  0  0  0  0  0  0  0  0  0
  146.6488  133.1746  155.3593 H   0  0  0  0  0  0  0  0  0  0  0  0
  146.4722  131.3407  153.3536 H   0  0  0  0  0  0  0  0  0  0  0  0
  144.9810  132.0095  154.0373 H   0  0  0  0  0  0  0  0  0  0  0  0
  144.9019  131.2677  151.1447 H   0  0  0  0  0  0  0  0  0  0  0  0
  143.6241  132.2849  151.7929 H   0  0  0  0  0  0  0  0  0  0  0  0
  145.5465  132.9591  149.4974 H   0  0  0  0  0  0  0  0  0  0  0  0
  143.8267  132.7051  149.3470 H   0  0  0  0  0  0  0  0  0  0  0  0
  144.4800  135.1555  149.3051 H   0  0  0  0  0  0  0  0  0  0  0  0
  143.3415  134.7740  150.5715 H   0  0  0  0  0  0  0  0  0  0  0  0
  146.3571  135.1807  150.9198 H   0  0  0  0  0  0  0  0  0  0  0  0
  145.0755  136.2188  151.5165 H   0  0  0  0  0  0  0  0  0  0  0  0
  144.1979  134.3318  152.9057 H   0  0  0  0  0  0  0  0  0  0  0  0
  146.4626  132.9797  151.7435 H   0  0  0  0  0  0  0  0  0  0  0  0
  1  2  1  0  0  0  0
  1 22  1  0  0  0  0
  1 23  1  0  0  0  0
  1 24  1  0  0  0  0
  2  3  1  0  0  0  0
  3  8  1  0  0  0  0
  3  4  2  0  0  0  0
  4  5  1  0  0  0  0
  5  6  2  0  0  0  0
  5 25  1  0  0  0  0
  6  7  1  0  0  0  0
  6 26  1  0  0  0  0
  7  8  2  0  0  0  0
  7 27  1  0  0  0  0
  8  9  1  0  0  0  0
  9 10  1  0  0  0  0
  9 28  1  0  0  0  0
 10 11  2  0  0  0  0
 10 12  1  0  0  0  0
 12 13  1  0  0  0  0
 12 29  1  0  0  0  0
 13 21  1  0  0  0  0
 13 14  1  0  0  0  0
 13 30  1  0  0  0  0
 14 15  1  0  0  0  0
 14 31  1  0  0  0  0
 14 32  1  0  0  0  0
 15 16  1  0  0  0  0
 15 33  1  0  0  0  0
 15 34  1  0  0  0  0
 16 21  1  0  0  0  0
 16 17  1  0  0  0  0
 16 44  1  0  0  0  0
 17 18  1  0  0  0  0
 17 35  1  0  0  0  0
 17 36  1  0  0  0  0
 18 19  1  0  0  0  0
 18 37  1  0  0  0  0
 18 38  1  0  0  0  0
 19 20  1  0  0  0  0
 19 39  1  0  0  0  0
 19 40  1  0  0  0  0
 20 21  1  0  0  0  0
 20 41  1  0  0  0  0
 20 42  1  0  0  0  0
 21 43  1  0  0  0  0
M  CHG  1  16   1
M  END
> <s_m_source_file>
AV-unprocessed.smi

> <i_m_source_file_index>
1721

> <i_lp_mmshare_version>
43012

> <i_f3d_flags>
0

> <s_epik_input>
W0NIM11PYzFuW2NIXVtjSF1bY0hdYzFbTkhdQyg9TylbTkhdW0NASF0oW0NIMl1bQ0gyXTIpW0NAQEhdKE4yMylbQ0gyXVtDSDJdW0NIMl1bQ0gyXTM=

> <s_epik_cmdline>
J2VwaWtfcHl0aG9uJywgJy1waCcsICc3LjAnLCAnLXRuJywgJzgnLCAnLW1hJywgJzIwMCcsICctbWV0YWxfYmluZGluZycsICctaW1hZScsICc8aW5maWxlLm1hZT4nLCAnLW9tYWUnLCAnPG91dGZpbGUubWFlPic=

> <r_lp_tautomer_probability>
1

> <r_epik_Ionization_Penalty>
0.00104793

> <r_epik_Ionization_Penalty_Charging>
0.000974069

> <r_epik_Ionization_Penalty_Neutral>
7.38649e-05

> <r_epik_State_Penalty>
0.000633842

> <r_epik_Charging_Adjusted_Penalty>
0.00160791

> <i_epik_Tot_Q>
1

> <i_epik_Tot_abs_Q>
1

> <r_epik_Metal_State_Penalty>
-0

> <b_epik_Metal_Only>
0

> <s_lp_Force_Field>
OPLS_2005

> <r_lp_Energy>
43.7376

> <b_lp_Chiralities_Consistent>
1

> <s_lp_Variant>
AV-unprocessed.smi:1721-5

> <Gold.Version>
5.8.1

> <Gold.Id.Protein>
6NUR|6NUR_protein|mol2

> <Gold.PLP.Fitness>
42.0764

> <Gold.PLP.PLP>
-31.3022

> <Gold.PLP.part.hbond>
-2.9819

> <Gold.PLP.part.metal>
0.0000

> <Gold.PLP.part.buried>
-5.3754

> <Gold.PLP.part.nonpolar>
-24.6278

> <Gold.PLP.part.repulsive>
0.3571

> <Gold.PLP.ligand.clash>
0.0000

> <Gold.PLP.ligand.torsion>
0.3735

> <Gold.PLP.Chemscore.Hbond>
2.8400

> <Gold.PLP.Chemscore.CHOScore>
1.0000

> <Gold.PLP.Chemscore.Metal>
0.0000

> <Gold.Chemscore.Hbonds>
donor molecule, donor type, donor heavy atom, donor atom, acceptor molecule, acceptor atom, score
      L1  H     9    28       P1  7948  1.00
      L1  H    12    29       P1  7948  0.88
      P1  H  7989  7998       L1     4  0.96
      L1  C     5    25       P1  8028  1.00

> <Gold.PLP.Chemscore.Internal.Correction>
0.0012

> <Gold.Rescore>
     Score         DG    S(hbond)    S(metal)    S(lipo)     H(rot)  DE(clash)    DE(int)     intcor
     17.89     -18.53       2.37        0.00      71.31       1.25       0.21       0.43       ----

> <Gold.Chemscore.Fitness>
17.8947

> <Gold.Chemscore.DG>
-18.5325

> <Gold.Chemscore.ZeroCoef>
-5.4800

> <Gold.Chemscore.Hbond>
2.3659

> <Gold.Chemscore.Metal>
0.0000

> <Gold.Chemscore.Lipo>
71.3142

> <Gold.Chemscore.Internal_Hbond>
0.0000

> <Gold.Chemscore.DEClash>
0.2117

> <Gold.Chemscore.DEInternal>
0.4261

> <Gold.Chemscore.Rot>
1.2474

> <Gold.Chemscore.Internal.Correction>
   9.000000E+99

> <Gold.Chemscore.Hbonds>
donor molecule, donor type, donor heavy atom, donor atom, acceptor molecule, acceptor atom, score
      L1  H     9    28       P1  7948  0.95
      L1  H    12    29       P1  7948  0.87
      P1  H  7989  7998       L1     4  0.32

> <Gold.Chemscore.Hbond.Weighted>
-7.9022

> <Gold.Chemscore.Metal.Weighted>
-0.0000

> <Gold.Chemscore.Lipo.Weighted>
-8.3438

> <Gold.Chemscore.Internal_Hbond.Weighted>
0.0000

> <Gold.Chemscore.DEClash.Weighted>
0.2117

> <Gold.Chemscore.DEInternal.Weighted>
0.4261

> <Gold.Chemscore.Rot.Weighted>
3.1934

> <Gold.Chemscore.Internal.Correction.Weighted>
   9.000000E+99

> <Gold.Protein.RotatedTorsions>
[ 6907 6896 6895 6894 ] final -150.11 input  -60.11 | X-H torsion
[ 7974 7965 7964 7962 ] final   20.84 input  175.53 | X-H torsion
[ 8008 7997 7996 7995 ] final  -65.30 input   59.86 | X-H torsion
[ 10167 10162 10161 10158 ] final   28.93 input  -65.29 | X-H torsion
[ 10718 10713 10712 10709 ] final  -57.45 input   66.30 | X-H torsion
[ 10763 10752 10751 10750 ] final   -8.52 input  -60.55 | X-H torsion
[ 11005 11000 10999 10996 ] final   39.92 input  -57.11 | X-H torsion

> <Gold.Protein.ActiveResidues>
 VAL166  LYS551  ARG553  GLY616  TRP617  ASP618  TYR619  PRO620  LYS621  CYS622 
 ASP623  PHE694  ASN695  SER759  ASP760  ASP761  ALA762  ILE779  LEU786  VAL792 
 PHE793  MET794  SER795  GLU796  ALA797  LYS798  CYS799  TRP800  GLU811  SER814 

> <Gold.Protein.RotatedAtoms>
  151.1939  133.4651  159.2595 H   0  0  0  0  0  0  0  0  0  0  0  0  # atno 6907 bound_to 6896
  151.1137  135.0041  159.8516 H   0  0  0  0  0  0  0  0  0  0  0  0  # atno 6908 bound_to 6896
  152.5452  134.1856  159.8706 H   0  0  0  0  0  0  0  0  0  0  0  0  # atno 6909 bound_to 6896
  146.2095  139.8112  142.8699 H   0  0  0  0  0  0  0  0  0  0  0  0  # atno 7974 bound_to 7965
  154.4663  140.0936  156.7029 H   0  0  0  0  0  0  0  0  0  0  0  0  # atno 8008 bound_to 7997
  155.4849  140.3469  155.4327 H   0  0  0  0  0  0  0  0  0  0  0  0  # atno 8009 bound_to 7997
  156.0962  140.1410  156.9516 H   0  0  0  0  0  0  0  0  0  0  0  0  # atno 8010 bound_to 7997
  140.4810  144.0616  150.6265 H   0  0  0  0  0  0  0  0  0  0  0  0  # atno 10167 bound_to 10162
  156.1209  130.4166  150.0443 H   0  0  0  0  0  0  0  0  0  0  0  0  # atno 10718 bound_to 10713
  153.4417  135.7014  153.6165 H   0  0  0  0  0  0  0  0  0  0  0  0  # atno 10763 bound_to 10752
  153.4537  135.3752  155.2299 H   0  0  0  0  0  0  0  0  0  0  0  0  # atno 10764 bound_to 10752
  154.8727  135.4003  154.3816 H   0  0  0  0  0  0  0  0  0  0  0  0  # atno 10765 bound_to 10752
  140.1981  134.3904  155.8111 H   0  0  0  0  0  0  0  0  0  0  0  0  # atno 11005 bound_to 11000
  145.3194  141.0240  143.3509 LP  0  0  0  0  0  0  0  0  0  0  0  0  # atno 17320 bound_to 7965
  144.8878  139.4816  143.6692 LP  0  0  0  0  0  0  0  0  0  0  0  0  # atno 17321 bound_to 7965
  140.3858  143.2778  152.0118 LP  0  0  0  0  0  0  0  0  0  0  0  0  # atno 17342 bound_to 10162
  139.4833  144.6118  151.7420 LP  0  0  0  0  0  0  0  0  0  0  0  0  # atno 17343 bound_to 10162
  156.8381  130.9416  151.3633 LP  0  0  0  0  0  0  0  0  0  0  0  0  # atno 17370 bound_to 10713
  157.6393  130.8792  149.9417 LP  0  0  0  0  0  0  0  0  0  0  0  0  # atno 17371 bound_to 10713
  141.2227  133.7080  156.8210 LP  0  0  0  0  0  0  0  0  0  0  0  0  # atno 17394 bound_to 11000
  140.2085  134.8845  157.3248 LP  0  0  0  0  0  0  0  0  0  0  0  0  # atno 17395 bound_to 11000

$$$$
