AV-unprocessed.smi:181|AV-procd|sdf|1453|dock9
  -GOLD-   2262019253D 1   1.00000     0.00000
 Structure written by MMmdl.
 50 53  0  0  0  0  0  0  0  0  1 V2000
  150.7808  137.3057  154.5417 C   0  0  0  0  0  0  0  0  0  0  0  0
  151.1755  138.6955  155.0552 C   0  0  0  0  0  0  0  0  0  0  0  0
  150.2715  139.1625  156.1055 N   0  0  0  0  0  0  0  0  0  0  0  0
  150.1890  138.3414  157.1776 C   0  0  0  0  0  0  0  0  0  0  0  0
  151.3070  138.0296  157.8818 N   0  0  0  0  0  0  0  0  0  0  0  0
  151.2215  137.2225  158.9437 C   0  0  0  0  0  0  0  0  0  0  0  0
  150.1395  136.6374  159.4632 N   0  0  0  0  0  0  0  0  0  0  0  0
  149.0151  136.9617  158.7618 C   0  0  0  0  0  0  0  0  0  0  0  0
  148.9520  137.8029  157.6169 C   0  0  0  0  0  0  0  0  0  0  0  0
  147.6415  137.9063  157.1692 N   0  0  0  0  0  0  0  0  0  0  0  0
  146.9648  137.1672  158.0061 C   0  0  0  0  0  0  0  0  0  0  0  0
  147.7102  136.5658  158.9959 N   0  0  0  0  0  0  0  0  0  0  0  0
  147.2166  135.6965  160.0526 C   0  0  0  0  0  0  0  0  0  0  0  0
  146.8364  136.4447  161.3541 C   0  0  0  0  0  0  0  0  0  0  0  0
  146.1350  135.5337  162.1832 O   0  0  0  0  0  0  0  0  0  0  0  0
  148.1054  136.9031  162.1000 C   0  0  0  0  0  0  0  0  0  0  0  0
  147.7775  137.7971  163.3089 C   0  0  0  0  0  0  0  0  0  0  0  0
  146.9934  138.9086  162.8932 O   0  0  0  0  0  0  0  0  0  0  0  0
  145.7323  138.5230  162.3600 C   0  0  0  0  0  0  0  0  0  0  0  0
  145.9295  137.6683  161.0955 C   0  0  0  0  0  0  0  0  0  0  0  0
  149.1290  140.0247  155.7604 C   0  0  2  0  0  0  0  0  0  0  0  0
  148.7743  140.0301  154.2589 C   0  0  0  0  0  0  0  0  0  0  0  0
  148.2063  141.4337  154.0024 C   0  0  0  0  0  0  0  0  0  0  0  0
  148.7395  142.2395  155.0852 N   0  0  0  0  0  0  0  0  0  0  0  0
  149.2781  141.5143  156.0652 C   0  0  0  0  0  0  0  0  0  0  0  0
  149.8010  141.9632  157.0831 O   0  0  0  0  0  0  0  0  0  0  0  0
  151.4549  136.9817  153.7486 H   0  0  0  0  0  0  0  0  0  0  0  0
  149.7688  137.3126  154.1356 H   0  0  0  0  0  0  0  0  0  0  0  0
  150.8193  136.5573  155.3329 H   0  0  0  0  0  0  0  0  0  0  0  0
  152.1949  138.6655  155.4397 H   0  0  0  0  0  0  0  0  0  0  0  0
  151.1917  139.3907  154.2132 H   0  0  0  0  0  0  0  0  0  0  0  0
  152.1532  137.0179  159.4501 H   0  0  0  0  0  0  0  0  0  0  0  0
  145.8944  137.0426  157.9277 H   0  0  0  0  0  0  0  0  0  0  0  0
  146.3586  135.1436  159.6672 H   0  0  0  0  0  0  0  0  0  0  0  0
  147.9855  134.9517  160.2620 H   0  0  0  0  0  0  0  0  0  0  0  0
  145.2296  135.5185  161.9131 H   0  0  0  0  0  0  0  0  0  0  0  0
  148.6944  136.0423  162.4195 H   0  0  0  0  0  0  0  0  0  0  0  0
  148.7402  137.4693  161.4169 H   0  0  0  0  0  0  0  0  0  0  0  0
  147.2527  137.2362  164.0839 H   0  0  0  0  0  0  0  0  0  0  0  0
  148.6990  138.1674  163.7581 H   0  0  0  0  0  0  0  0  0  0  0  0
  145.1555  137.9842  163.1132 H   0  0  0  0  0  0  0  0  0  0  0  0
  145.1668  139.4223  162.1153 H   0  0  0  0  0  0  0  0  0  0  0  0
  146.3809  138.2928  160.3234 H   0  0  0  0  0  0  0  0  0  0  0  0
  144.9576  137.3584  160.7097 H   0  0  0  0  0  0  0  0  0  0  0  0
  148.2570  139.6845  156.3195 H   0  0  0  0  0  0  0  0  0  0  0  0
  149.6501  139.8921  153.6249 H   0  0  0  0  0  0  0  0  0  0  0  0
  148.0629  139.2448  154.0013 H   0  0  0  0  0  0  0  0  0  0  0  0
  148.5037  141.8267  153.0299 H   0  0  0  0  0  0  0  0  0  0  0  0
  147.1171  141.4350  154.0581 H   0  0  0  0  0  0  0  0  0  0  0  0
  148.7170  143.2489  155.0750 H   0  0  0  0  0  0  0  0  0  0  0  0
  1  2  1  0  0  0  0
  1 27  1  0  0  0  0
  1 28  1  0  0  0  0
  1 29  1  0  0  0  0
  2  3  1  0  0  0  0
  2 30  1  0  0  0  0
  2 31  1  0  0  0  0
  3  4  1  0  0  0  0
  3 21  1  0  0  0  0
  4  9  1  0  0  0  0
  4  5  2  0  0  0  0
  5  6  1  0  0  0  0
  6  7  2  0  0  0  0
  6 32  1  0  0  0  0
  7  8  1  0  0  0  0
  8 12  1  0  0  0  0
  8  9  2  0  0  0  0
  9 10  1  0  0  0  0
 10 11  2  0  0  0  0
 11 12  1  0  0  0  0
 11 33  1  0  0  0  0
 12 13  1  0  0  0  0
 13 14  1  0  0  0  0
 13 34  1  0  0  0  0
 13 35  1  0  0  0  0
 14 20  1  0  0  0  0
 14 15  1  0  0  0  0
 14 16  1  0  0  0  0
 15 36  1  0  0  0  0
 16 17  1  0  0  0  0
 16 37  1  0  0  0  0
 16 38  1  0  0  0  0
 17 18  1  0  0  0  0
 17 39  1  0  0  0  0
 17 40  1  0  0  0  0
 18 19  1  0  0  0  0
 19 20  1  0  0  0  0
 19 41  1  0  0  0  0
 19 42  1  0  0  0  0
 20 43  1  0  0  0  0
 20 44  1  0  0  0  0
 21 25  1  0  0  0  0
 21 22  1  0  0  0  0
 21 45  1  0  0  0  0
 22 23  1  0  0  0  0
 22 46  1  0  0  0  0
 22 47  1  0  0  0  0
 23 24  1  0  0  0  0
 23 48  1  0  0  0  0
 23 49  1  0  0  0  0
 24 25  1  0  0  0  0
 24 50  1  0  0  0  0
 25 26  2  0  0  0  0
M  END
> <s_m_source_file>
AV-unprocessed.smi

> <i_m_source_file_index>
181

> <i_lp_mmshare_version>
43012

> <i_f3d_flags>
0

> <s_epik_input>
Tz1DMVtOSF1bQ0gyXVtDSDJdW0NASF0xTihbQ0gyXVtDSDNdKWMobltjSF1uMiljKGMyMyluW2NIXW4zW0NIMl1DNChbT0hdKVtDSDJdW0NIMl1PW0NIMl1bQ0gyXTQ=

> <s_epik_cmdline>
J2VwaWtfcHl0aG9uJywgJy1waCcsICc3LjAnLCAnLXRuJywgJzgnLCAnLW1hJywgJzIwMCcsICctbWV0YWxfYmluZGluZycsICctaW1hZScsICc8aW5maWxlLm1hZT4nLCAnLW9tYWUnLCAnPG91dGZpbGUubWFlPic=

> <r_lp_tautomer_probability>
1

> <r_epik_Ionization_Penalty>
0.000985257

> <r_epik_Ionization_Penalty_Charging>
0

> <r_epik_Ionization_Penalty_Neutral>
0.000985257

> <r_epik_State_Penalty>
0.000517047

> <r_epik_Charging_Adjusted_Penalty>
0.000517047

> <i_epik_Tot_Q>
0

> <i_epik_Tot_abs_Q>
0

> <r_epik_Metal_State_Penalty>
-0

> <b_epik_Metal_Only>
0

> <s_lp_Force_Field>
OPLS_2005

> <r_lp_Energy>
35.7055

> <b_lp_Chiralities_Consistent>
1

> <s_lp_Variant>
AV-unprocessed.smi:181-1

> <Gold.Version>
5.8.1

> <Gold.Id.Protein>
6NUR|6NUR_protein|mol2

> <Gold.PLP.Fitness>
40.8184

> <Gold.PLP.PLP>
-36.3490

> <Gold.PLP.part.hbond>
-3.0443

> <Gold.PLP.part.metal>
0.0000

> <Gold.PLP.part.buried>
-4.2244

> <Gold.PLP.part.nonpolar>
-28.9410

> <Gold.PLP.part.repulsive>
0.2878

> <Gold.PLP.ligand.clash>
0.0000

> <Gold.PLP.ligand.torsion>
1.7754

> <Gold.PLP.Chemscore.Hbond>
2.2536

> <Gold.PLP.Chemscore.CHOScore>
0.0000

> <Gold.PLP.Chemscore.Metal>
0.0000

> <Gold.Chemscore.Hbonds>
donor molecule, donor type, donor heavy atom, donor atom, acceptor molecule, acceptor atom, score
      L1  H    24    50       P1  8028  1.00
      P1  H  6896  6908       L1     7  0.75

> <Gold.PLP.Chemscore.Internal.Correction>
1.2595

> <Gold.Rescore>
     Score         DG    S(hbond)    S(metal)    S(lipo)     H(rot)  DE(clash)    DE(int)     intcor
     10.53     -13.65       1.82        0.00      72.43       2.49       0.22       2.90       ----

> <Gold.Chemscore.Fitness>
10.5333

> <Gold.Chemscore.DG>
-13.6512

> <Gold.Chemscore.ZeroCoef>
-5.4800

> <Gold.Chemscore.Hbond>
1.8176

> <Gold.Chemscore.Metal>
0.0000

> <Gold.Chemscore.Lipo>
72.4284

> <Gold.Chemscore.Internal_Hbond>
0.0000

> <Gold.Chemscore.DEClash>
0.2164

> <Gold.Chemscore.DEInternal>
2.9016

> <Gold.Chemscore.Rot>
2.4897

> <Gold.Chemscore.Internal.Correction>
   9.000000E+99

> <Gold.Chemscore.Hbonds>
donor molecule, donor type, donor heavy atom, donor atom, acceptor molecule, acceptor atom, score
      L1  H    24    50       P1  8028  0.97
      P1  H  6896  6908       L1     7  0.09

> <Gold.Chemscore.Hbond.Weighted>
-6.0706

> <Gold.Chemscore.Metal.Weighted>
-0.0000

> <Gold.Chemscore.Lipo.Weighted>
-8.4741

> <Gold.Chemscore.Internal_Hbond.Weighted>
0.0000

> <Gold.Chemscore.DEClash.Weighted>
0.2164

> <Gold.Chemscore.DEInternal.Weighted>
2.9016

> <Gold.Chemscore.Rot.Weighted>
6.3735

> <Gold.Chemscore.Internal.Correction.Weighted>
   9.000000E+99

> <Gold.Protein.RotatedTorsions>
[ 6907 6896 6895 6894 ] final -157.30 input  -60.11 | X-H torsion
[ 7974 7965 7964 7962 ] final   83.27 input  175.53 | X-H torsion
[ 8008 7997 7996 7995 ] final   21.42 input   59.86 | X-H torsion
[ 10167 10162 10161 10158 ] final  -62.59 input  -65.29 | X-H torsion
[ 10718 10713 10712 10709 ] final  122.13 input   66.30 | X-H torsion
[ 10763 10752 10751 10750 ] final -109.38 input  -60.55 | X-H torsion
[ 11005 11000 10999 10996 ] final -108.17 input  -57.11 | X-H torsion

> <Gold.Protein.ActiveResidues>
 VAL166  LYS551  ARG553  GLY616  TRP617  ASP618  TYR619  PRO620  LYS621  CYS622 
 ASP623  PHE694  ASN695  SER759  ASP760  ASP761  ALA762  ILE779  LEU786  VAL792 
 PHE793  MET794  SER795  GLU796  ALA797  LYS798  CYS799  TRP800  GLU811  SER814 

> <Gold.Protein.RotatedAtoms>
  151.3007  133.4123  159.2639 H   0  0  0  0  0  0  0  0  0  0  0  0  # atno 6907 bound_to 6896
  151.0198  134.9461  159.8063 H   0  0  0  0  0  0  0  0  0  0  0  0  # atno 6908 bound_to 6896
  152.5321  134.2970  159.9117 H   0  0  0  0  0  0  0  0  0  0  0  0  # atno 6909 bound_to 6896
  145.6141  139.2373  143.2175 H   0  0  0  0  0  0  0  0  0  0  0  0  # atno 7974 bound_to 7965
  154.9503  140.3065  155.5078 H   0  0  0  0  0  0  0  0  0  0  0  0  # atno 8008 bound_to 7997
  156.2988  140.2320  156.4518 H   0  0  0  0  0  0  0  0  0  0  0  0  # atno 8009 bound_to 7997
  154.8061  140.0431  157.1297 H   0  0  0  0  0  0  0  0  0  0  0  0  # atno 8010 bound_to 7997
  140.5929  143.2345  151.6100 H   0  0  0  0  0  0  0  0  0  0  0  0  # atno 10167 bound_to 10162
  157.5766  131.1079  150.8268 H   0  0  0  0  0  0  0  0  0  0  0  0  # atno 10718 bound_to 10713
  154.8190  135.4603  154.0724 H   0  0  0  0  0  0  0  0  0  0  0  0  # atno 10763 bound_to 10752
  153.2093  135.6879  153.8140 H   0  0  0  0  0  0  0  0  0  0  0  0  # atno 10764 bound_to 10752
  153.7596  135.3286  155.3312 H   0  0  0  0  0  0  0  0  0  0  0  0  # atno 10765 bound_to 10752
  141.0916  133.9045  157.2063 H   0  0  0  0  0  0  0  0  0  0  0  0  # atno 11005 bound_to 11000
  146.1482  140.6963  142.9335 LP  0  0  0  0  0  0  0  0  0  0  0  0  # atno 17320 bound_to 7965
  144.7258  140.4519  143.6974 LP  0  0  0  0  0  0  0  0  0  0  0  0  # atno 17321 bound_to 7965
  139.5239  144.3120  152.0985 LP  0  0  0  0  0  0  0  0  0  0  0  0  # atno 17342 bound_to 10162
  140.2287  144.4391  150.6309 LP  0  0  0  0  0  0  0  0  0  0  0  0  # atno 17343 bound_to 10162
  156.8726  130.5151  149.5296 LP  0  0  0  0  0  0  0  0  0  0  0  0  # atno 17370 bound_to 10713
  156.0810  130.5821  150.9563 LP  0  0  0  0  0  0  0  0  0  0  0  0  # atno 17371 bound_to 10713
  139.9743  135.0119  156.9590 LP  0  0  0  0  0  0  0  0  0  0  0  0  # atno 17394 bound_to 11000
  140.5239  134.0880  155.7299 LP  0  0  0  0  0  0  0  0  0  0  0  0  # atno 17395 bound_to 11000

$$$$
