AV-unprocessed.smi:1760|AV-procd|sdf|7090|dock8
  -GOLD-   22720 8303D 1   1.00000     0.00000
 Structure written by MMmdl.
 44 46  0  0  0  0  0  0  0  0  2 V2000
  149.8986  137.5386  156.0313 O   0  0  0  0  0  0  0  0  0  0  0  0
  149.7522  137.2812  154.8367 C   0  0  0  0  0  0  0  0  0  0  0  0
  149.7800  136.0533  154.2866 N   0  0  0  0  0  0  0  0  0  0  0  0
  149.9963  134.8077  154.9000 C   0  0  0  0  0  0  0  0  0  0  0  0
  149.2721  133.6841  154.6567 C   0  0  0  0  0  0  0  0  0  0  0  0
  149.5461  132.4278  155.3344 C   0  0  0  0  0  0  0  0  0  0  0  0
  148.7868  131.1557  154.9904 C   0  0  0  0  0  0  0  0  0  0  0  0
  149.6104  130.2057  154.5456 F   0  0  0  0  0  0  0  0  0  0  0  0
  148.1660  130.6923  156.0742 F   0  0  0  0  0  0  0  0  0  0  0  0
  147.8680  131.3857  154.0523 F   0  0  0  0  0  0  0  0  0  0  0  0
  150.5621  132.4311  156.2169 C   0  0  0  0  0  0  0  0  0  0  0  0
  151.2952  133.5877  156.4912 N   0  0  0  0  0  0  0  0  0  0  0  0
  151.0829  134.7815  155.8932 C   0  0  0  0  0  0  0  0  0  0  0  0
  151.7744  135.7558  156.1883 O   0  0  0  0  0  0  0  0  0  0  0  0
  149.5151  138.2150  153.9038 N   0  0  0  0  0  0  0  0  0  0  0  0
  149.3807  139.6498  154.1436 C   0  0  2  0  0  0  0  0  0  0  0  0
  150.4221  140.1079  155.1780 C   0  0  0  0  0  0  0  0  0  0  0  0
  150.2359  141.5951  155.5340 C   0  0  0  0  0  0  0  0  0  0  0  0
  148.8566  141.8895  156.0012 N   0  3  2  0  0  0  0  0  0  0  0  0
  148.5877  141.4076  157.3766 C   0  0  0  0  0  0  0  0  0  0  0  0
  147.7476  142.3572  158.1983 C   0  0  0  0  0  0  0  0  0  0  0  0
  149.2350  142.2502  158.4508 C   0  0  0  0  0  0  0  0  0  0  0  0
  147.8298  141.4617  155.0162 C   0  0  0  0  0  0  0  0  0  0  0  0
  147.9638  139.9717  154.6477 C   0  0  0  0  0  0  0  0  0  0  0  0
  152.0300  133.5132  157.1800 H   0  0  0  0  0  0  0  0  0  0  0  0
  149.5750  136.0004  153.2994 H   0  0  0  0  0  0  0  0  0  0  0  0
  148.4494  133.6929  153.9607 H   0  0  0  0  0  0  0  0  0  0  0  0
  150.8924  131.5627  156.7677 H   0  0  0  0  0  0  0  0  0  0  0  0
  149.4063  137.9051  152.9491 H   0  0  0  0  0  0  0  0  0  0  0  0
  149.5499  140.2098  153.2220 H   0  0  0  0  0  0  0  0  0  0  0  0
  150.3457  139.4999  156.0804 H   0  0  0  0  0  0  0  0  0  0  0  0
  151.4282  139.9488  154.7879 H   0  0  0  0  0  0  0  0  0  0  0  0
  150.9592  141.8990  156.2914 H   0  0  0  0  0  0  0  0  0  0  0  0
  150.4384  142.2067  154.6538 H   0  0  0  0  0  0  0  0  0  0  0  0
  148.4875  140.3325  157.5107 H   0  0  0  0  0  0  0  0  0  0  0  0
  147.3829  143.2667  157.7241 H   0  0  0  0  0  0  0  0  0  0  0  0
  147.0835  141.9234  158.9431 H   0  0  0  0  0  0  0  0  0  0  0  0
  149.5508  141.7457  159.3618 H   0  0  0  0  0  0  0  0  0  0  0  0
  149.8579  143.0887  158.1445 H   0  0  0  0  0  0  0  0  0  0  0  0
  146.8320  141.6702  155.4036 H   0  0  0  0  0  0  0  0  0  0  0  0
  147.9424  142.0692  154.1172 H   0  0  0  0  0  0  0  0  0  0  0  0
  147.2303  139.7174  153.8817 H   0  0  0  0  0  0  0  0  0  0  0  0
  147.7257  139.3541  155.5146 H   0  0  0  0  0  0  0  0  0  0  0  0
  148.7891  142.8959  156.0561 H   0  0  0  0  0  0  0  0  0  0  0  0
  1  2  2  0  0  0  0
  2  3  1  0  0  0  0
  2 15  1  0  0  0  0
  3  4  1  0  0  0  0
  3 26  1  0  0  0  0
  4 13  1  0  0  0  0
  4  5  2  0  0  0  0
  5  6  1  0  0  0  0
  5 27  1  0  0  0  0
  6  7  1  0  0  0  0
  6 11  2  0  0  0  0
  7  8  1  0  0  0  0
  7  9  1  0  0  0  0
  7 10  1  0  0  0  0
 11 12  1  0  0  0  0
 11 28  1  0  0  0  0
 12 25  1  0  0  0  0
 12 13  1  0  0  0  0
 13 14  2  0  0  0  0
 15 16  1  0  0  0  0
 15 29  1  0  0  0  0
 16 24  1  0  0  0  0
 16 17  1  0  0  0  0
 16 30  1  0  0  0  0
 17 18  1  0  0  0  0
 17 31  1  0  0  0  0
 17 32  1  0  0  0  0
 18 19  1  0  0  0  0
 18 33  1  0  0  0  0
 18 34  1  0  0  0  0
 19 20  1  0  0  0  0
 19 23  1  0  0  0  0
 19 44  1  0  0  0  0
 20 22  1  0  0  0  0
 20 21  1  0  0  0  0
 20 35  1  0  0  0  0
 21 22  1  0  0  0  0
 21 36  1  0  0  0  0
 21 37  1  0  0  0  0
 22 38  1  0  0  0  0
 22 39  1  0  0  0  0
 23 24  1  0  0  0  0
 23 40  1  0  0  0  0
 23 41  1  0  0  0  0
 24 42  1  0  0  0  0
 24 43  1  0  0  0  0
M  CHG  1  19   1
M  END
> <s_m_source_file>
AV-unprocessed.smi

> <i_m_source_file_index>
1760

> <i_lp_mmshare_version>
43012

> <i_f3d_flags>
0

> <s_epik_input>
W0NIMl0xW0NIMl1bQ0hdMU4oW0NIMl1bQ0gyXTIpW0NIMl1bQ0gyXVtDSF0yW05IXUMoPU8pW05IXWMzW2NIXWMoQyhGKShGKUYpW2NIXVtuSF1jMz1P

> <s_epik_cmdline>
J2VwaWtfcHl0aG9uJywgJy1waCcsICc3LjAnLCAnLXRuJywgJzgnLCAnLW1hJywgJzIwMCcsICctbWV0YWxfYmluZGluZycsICctaW1hZScsICc8aW5maWxlLm1hZT4nLCAnLW9tYWUnLCAnPG91dGZpbGUubWFlPic=

> <r_lp_tautomer_probability>
0.999

> <r_epik_Ionization_Penalty>
0.131122

> <r_epik_Ionization_Penalty_Charging>
0.131104

> <r_epik_Ionization_Penalty_Neutral>
1.84439e-05

> <r_epik_State_Penalty>
0.116042

> <r_epik_Charging_Adjusted_Penalty>
0.247146

> <i_epik_Tot_Q>
1

> <i_epik_Tot_abs_Q>
1

> <r_epik_Metal_State_Penalty>
0.492282

> <b_epik_Metal_Only>
0

> <s_lp_Force_Field>
OPLS_2005

> <r_lp_Energy>
39.2626

> <b_lp_Chiralities_Consistent>
1

> <s_lp_Variant>
AV-unprocessed.smi:1760-2

> <Gold.Version>
5.8.1

> <Gold.Id.Protein>
6NUR|6NUR_protein|mol2

> <Gold.PLP.Fitness>
44.2196

> <Gold.PLP.PLP>
-30.9743

> <Gold.PLP.part.hbond>
-4.7753

> <Gold.PLP.part.metal>
0.0000

> <Gold.PLP.part.buried>
-1.3763

> <Gold.PLP.part.nonpolar>
-26.4674

> <Gold.PLP.part.repulsive>
0.3344

> <Gold.PLP.ligand.clash>
0.0000

> <Gold.PLP.ligand.torsion>
1.3024

> <Gold.PLP.Chemscore.Hbond>
4.8480

> <Gold.PLP.Chemscore.CHOScore>
0.0000

> <Gold.PLP.Chemscore.Metal>
0.0000

> <Gold.Chemscore.Hbonds>
donor molecule, donor type, donor heavy atom, donor atom, acceptor molecule, acceptor atom, score
      L1  H     3    26       P1  7948  0.95
      L1  H    15    29       P1  7948  0.85
      L1  H    19    44       P1  8028  2.00
      P1  H 10752 10763       L1    14  0.90

> <Gold.PLP.Chemscore.Internal.Correction>
1.3061

> <Gold.Rescore>
     Score         DG    S(hbond)    S(metal)    S(lipo)     H(rot)  DE(clash)    DE(int)     intcor
     16.00     -21.41       3.75        0.00      57.15       1.29       0.07       5.34       ----

> <Gold.Chemscore.Fitness>
15.9954

> <Gold.Chemscore.DG>
-21.4055

> <Gold.Chemscore.ZeroCoef>
-5.4800

> <Gold.Chemscore.Hbond>
3.7529

> <Gold.Chemscore.Metal>
0.0000

> <Gold.Chemscore.Lipo>
57.1520

> <Gold.Chemscore.Internal_Hbond>
0.0000

> <Gold.Chemscore.DEClash>
0.0749

> <Gold.Chemscore.DEInternal>
5.3353

> <Gold.Chemscore.Rot>
1.2875

> <Gold.Chemscore.Internal.Correction>
   9.000000E+99

> <Gold.Chemscore.Hbonds>
donor molecule, donor type, donor heavy atom, donor atom, acceptor molecule, acceptor atom, score
      L1  H     3    26       P1  7948  0.20
      L1  H    15    29       P1  7948  0.72
      L1  H    19    44       P1  8028  1.00
      P1  H 10752 10763       L1    14  0.18

> <Gold.Chemscore.Hbond.Weighted>
-12.5347

> <Gold.Chemscore.Metal.Weighted>
-0.0000

> <Gold.Chemscore.Lipo.Weighted>
-6.6868

> <Gold.Chemscore.Internal_Hbond.Weighted>
0.0000

> <Gold.Chemscore.DEClash.Weighted>
0.0749

> <Gold.Chemscore.DEInternal.Weighted>
5.3353

> <Gold.Chemscore.Rot.Weighted>
3.2960

> <Gold.Chemscore.Internal.Correction.Weighted>
   9.000000E+99

> <Gold.Protein.RotatedTorsions>
[ 6907 6896 6895 6894 ] final -171.95 input  -60.11 | X-H torsion
[ 7974 7965 7964 7962 ] final   96.37 input  175.53 | X-H torsion
[ 8008 7997 7996 7995 ] final   95.57 input   59.86 | X-H torsion
[ 10167 10162 10161 10158 ] final   18.48 input  -65.29 | X-H torsion
[ 10718 10713 10712 10709 ] final -148.08 input   66.30 | X-H torsion
[ 10763 10752 10751 10750 ] final   90.51 input  -60.55 | X-H torsion
[ 11005 11000 10999 10996 ] final  -25.77 input  -57.11 | X-H torsion

> <Gold.Protein.ActiveResidues>
 VAL166  LYS551  ARG553  GLY616  TRP617  ASP618  TYR619  PRO620  LYS621  CYS622 
 ASP623  PHE694  ASN695  SER759  ASP760  ASP761  ALA762  ILE779  LEU786  VAL792 
 PHE793  MET794  SER795  GLU796  ALA797  LYS798  CYS799  TRP800  GLU811  SER814 

> <Gold.Protein.RotatedAtoms>
  151.5321  133.3447  159.2919 H   0  0  0  0  0  0  0  0  0  0  0  0  # atno 6907 bound_to 6896
  150.8587  134.7935  159.7077 H   0  0  0  0  0  0  0  0  0  0  0  0  # atno 6908 bound_to 6896
  152.4613  134.5186  159.9827 H   0  0  0  0  0  0  0  0  0  0  0  0  # atno 6909 bound_to 6896
  145.4398  139.2302  143.3098 H   0  0  0  0  0  0  0  0  0  0  0  0  # atno 7974 bound_to 7965
  156.0703  140.3284  155.7568 H   0  0  0  0  0  0  0  0  0  0  0  0  # atno 8008 bound_to 7997
  155.5315  140.0594  157.2905 H   0  0  0  0  0  0  0  0  0  0  0  0  # atno 8009 bound_to 7997
  154.4527  140.1926  156.0489 H   0  0  0  0  0  0  0  0  0  0  0  0  # atno 8010 bound_to 7997
  140.5650  143.9267  150.6670 H   0  0  0  0  0  0  0  0  0  0  0  0  # atno 10167 bound_to 10162
  156.4157  130.8004  151.2224 H   0  0  0  0  0  0  0  0  0  0  0  0  # atno 10718 bound_to 10713
  153.1983  135.4431  155.0235 H   0  0  0  0  0  0  0  0  0  0  0  0  # atno 10763 bound_to 10752
  154.8132  135.3303  154.7251 H   0  0  0  0  0  0  0  0  0  0  0  0  # atno 10764 bound_to 10752
  153.7698  135.6985  153.4964 H   0  0  0  0  0  0  0  0  0  0  0  0  # atno 10765 bound_to 10752
  140.8968  133.7551  156.0491 H   0  0  0  0  0  0  0  0  0  0  0  0  # atno 11005 bound_to 11000
  146.2562  140.5145  142.8872 LP  0  0  0  0  0  0  0  0  0  0  0  0  # atno 17320 bound_to 7965
  144.8129  140.6417  143.6403 LP  0  0  0  0  0  0  0  0  0  0  0  0  # atno 17321 bound_to 7965
  140.2727  143.3444  152.1223 LP  0  0  0  0  0  0  0  0  0  0  0  0  # atno 17342 bound_to 10162
  139.5088  144.6857  151.5893 LP  0  0  0  0  0  0  0  0  0  0  0  0  # atno 17343 bound_to 10162
  157.7508  131.0243  150.3873 LP  0  0  0  0  0  0  0  0  0  0  0  0  # atno 17370 bound_to 10713
  156.4180  130.3947  149.6844 LP  0  0  0  0  0  0  0  0  0  0  0  0  # atno 17371 bound_to 10713
  140.8279  134.3212  157.5359 LP  0  0  0  0  0  0  0  0  0  0  0  0  # atno 17394 bound_to 11000
  139.8736  134.9347  156.3613 LP  0  0  0  0  0  0  0  0  0  0  0  0  # atno 17395 bound_to 11000

$$$$
