#       Name:                AV-unprocessed.smi:113
#       Creating user name   scv26
#       Creation time:       Thu Mar 26 18:22:08 2020


#       File generated by GOLD software.
#

@<TRIPOS>MOLECULE
AV-unprocessed.smi:113
    63    66     1
SMALL
NO_CHARGES


@<TRIPOS>ATOM
      1 ****        -1.0063  -0.8813  -4.0350 C.3            1 S1                 0.0000
      2 ****        -1.7511  -1.4268  -2.8351 C.ar           1 S1                 0.0000
      3 ****        -1.5853  -0.8927  -1.5426 C.ar           1 S1                 0.0000
      4 ****        -2.3079  -1.4396  -0.4532 C.ar           1 S1                 0.0000
      5 ****        -2.1443  -0.8827   0.9651 C.3            1 S1                 0.0000
      6 ****        -1.1913   0.2041   1.1406 N.am           1 S1                 0.0000
      7 ****        -1.6642   1.5307   0.9941 C.2            1 S1                 0.0000
      8 ****        -2.8419   1.7675   0.7168 O.2            1 S1                 0.0000
      9 ****        -0.6524   2.5748   1.1722 C.2            1 S1                 0.0000
     10 ****        -1.0892   4.0253   1.0402 C.3            1 S1                 0.0000
     11 ****         0.6301   2.2312   1.4416 C.2            1 S1                 0.0000
     12 ****         1.0701   0.9219   1.5618 N.am           1 S1                 0.0000
     13 ****         2.5217   0.5801   1.8403 C.3            1 S1                 0.0000
     14 ****         3.2596   0.2743   0.5365 C.3            1 S1                 0.0000
     15 ****         3.7680   1.6467   0.1483 C.3            1 S1                 0.0000
     16 ****         4.8705   1.5605  -0.7323 O.3            1 S1                 0.0000
     17 ****         4.0708   2.2957   1.5115 C.3            1 S1                 0.0000
     18 ****         5.4930   2.0677   2.0625 C.3            1 S1                 0.0000
     19 ****         6.4083   2.9674   1.4733 O.3            1 S1                 0.0000
     20 ****         3.1652   1.6738   2.4279 O.3            1 S1                 0.0000
     21 ****         0.1541  -0.1378   1.4009 C.2            1 S1                 0.0000
     22 ****         0.5255  -1.3123   1.4654 O.2            1 S1                 0.0000
     23 ****        -3.1938  -2.5224  -0.7077 C.ar           1 S1                 0.0000
     24 ****        -3.9591  -3.1275   0.3180 C.2            1 S1                 0.0000
     25 ****        -4.8285  -4.1968   0.0259 C.2            1 S1                 0.0000
     26 ****        -4.9451  -4.6774  -1.2916 C.2            1 S1                 0.0000
     27 ****        -4.1904  -4.0888  -2.3231 C.2            1 S1                 0.0000
     28 ****        -3.3212  -3.0182  -2.0335 C.ar           1 S1                 0.0000
     29 ****        -2.6016  -2.4556  -3.0276 N.pl3          1 S1                 1.0000
     30 ****        -0.1710  -0.2530  -3.7240 H              1 S1                 0.0000
     31 ****        -1.6742  -0.2806  -4.6528 H              1 S1                 0.0000
     32 ****        -0.6094  -1.6941  -4.6441 H              1 S1                 0.0000
     33 ****        -0.9035  -0.0670  -1.4035 H              1 S1                 0.0000
     34 ****        -3.1067  -0.5387   1.3474 H              1 S1                 0.0000
     35 ****        -1.8528  -1.6799   1.6508 H              1 S1                 0.0000
     36 ****        -0.2617   4.7160   1.2049 H              1 S1                 0.0000
     37 ****        -1.8661   4.2579   1.7694 H              1 S1                 0.0000
     38 ****        -1.4870   4.2143   0.0426 H              1 S1                 0.0000
     39 ****         1.3407   3.0348   1.5590 H              1 S1                 0.0000
     40 ****         2.5026  -0.2519   2.5461 H              1 S1                 0.0000
     41 ****         4.0861  -0.4017   0.7608 H              1 S1                 0.0000
     42 ****         2.6159  -0.1911  -0.2109 H              1 S1                 0.0000
     43 ****         2.9690   2.2006  -0.3460 H              1 S1                 0.0000
     44 ****         5.2106   2.4311  -0.8740 H              1 S1                 0.0000
     45 ****         3.8589   3.3654   1.4846 H              1 S1                 0.0000
     46 ****         5.5073   2.2495   3.1374 H              1 S1                 0.0000
     47 ****         5.8229   1.0398   1.9092 H              1 S1                 0.0000
     48 ****         7.2643   2.8081   1.8408 H              1 S1                 0.0000
     49 ****        -3.8972  -2.7859   1.3401 H              1 S1                 0.0000
     50 ****        -5.4089  -4.6493   0.8170 H              1 S1                 0.0000
     51 ****        -5.6141  -5.4969  -1.5103 H              1 S1                 0.0000
     52 ****        -4.2841  -4.4622  -3.3327 H              1 S1                 0.0000
     53 ****        -2.7072  -2.8264  -3.9717 H              1 S1                 0.0000
     54 ****        -3.4870   1.0140   0.5901 LP             1 S1                 0.0000
     55 ****        -3.1520   2.7131   0.6185 LP             1 S1                 0.0000
     56 ****         4.5763   1.1675  -1.6035 LP             1 S1                 0.0000
     57 ****         5.5801   0.9828  -0.3288 LP             1 S1                 0.0000
     58 ****         6.1283   3.9079   1.6659 LP             1 S1                 0.0000
     59 ****         6.4338   2.8231   0.4841 LP             1 S1                 0.0000
     60 ****         3.6757   1.3602   3.2285 LP             1 S1                 0.0000
     61 ****         2.4781   2.3426   2.7117 LP             1 S1                 0.0000
     62 ****        -0.1329  -2.0530   1.3318 LP             1 S1                 0.0000
     63 ****         1.4851  -1.5238   1.6512 LP             1 S1                 0.0000
@<TRIPOS>BOND
    1    1    2 1     
    2    1   30 1     
    3    1   31 1     
    4    1   32 1     
    5    2   29 ar    
    6    2    3 ar    
    7    3    4 ar    
    8    3   33 1     
    9    4    5 1     
   10    4   23 ar    
   11    5    6 1     
   12    5   34 1     
   13    5   35 1     
   14    6   21 am    
   15    6    7 am    
   16    7    8 2     
   17    7    9 1     
   18    9   10 1     
   19    9   11 2     
   20   10   36 1     
   21   10   37 1     
   22   10   38 1     
   23   11   12 1     
   24   11   39 1     
   25   12   13 1     
   26   12   21 am    
   27   13   20 1     
   28   13   14 1     
   29   13   40 1     
   30   14   15 1     
   31   14   41 1     
   32   14   42 1     
   33   15   16 1     
   34   15   17 1     
   35   15   43 1     
   36   16   44 1     
   37   17   18 1     
   38   17   20 1     
   39   17   45 1     
   40   18   19 1     
   41   18   46 1     
   42   18   47 1     
   43   19   48 1     
   44   21   22 2     
   45   23   28 ar    
   46   23   24 1     
   47   24   25 2     
   48   24   49 1     
   49   25   26 1     
   50   25   50 1     
   51   26   27 2     
   52   26   51 1     
   53   27   28 1     
   54   27   52 1     
   55   28   29 ar    
   56   29   53 1     
   57    8   54 1     
   58    8   55 1     
   59   16   56 1     
   60   16   57 1     
   61   19   58 1     
   62   19   59 1     
   63   20   60 1     
   64   20   61 1     
   65   22   62 1     
   66   22   63 1     
@<TRIPOS>SUBSTRUCTURE
      1 S1             1
@<TRIPOS>SET
LONE_PAIRS      STATIC     ATOMS    <user>   **** ""
10 54 55 56 57 58 59 60 61 62 63
DONOR_HYDROGENS      STATIC     ATOMS    <user>   **** ""
3 44 48 53
ATOM$BLUE        STATIC     ATOMS    COLORGROUP SYSTEM
10 54 55 56 57 58 59 60 61 62 63
ATOM$RED        STATIC     ATOMS    COLORGROUP SYSTEM
3 44 48 53
