#       Name:                AV-unprocessed.smi:2735
#       Creating user name   scv26
#       Creation time:       Fri Mar 27 14:59:06 2020


#       File generated by GOLD software.
#

@<TRIPOS>MOLECULE
AV-unprocessed.smi:2735
    49    49     1
SMALL
NO_CHARGES


@<TRIPOS>ATOM
      1 ****        -1.7573   2.2730   2.9945 C.3            1 S1                 0.0000
      2 ****        -1.8947   1.4881   1.7233 C.2            1 S1                 0.0000
      3 ****        -2.4535   0.1930   1.5448 C.2            1 S1                 0.0000
      4 ****        -2.3170  -0.0528   0.2077 C.2            1 S1                 0.0000
      5 ****        -2.6947  -1.2629  -0.5829 C.3            1 S1                 0.0000
      6 ****        -1.7213   1.0662  -0.3533 N.pl3          1 S1                 0.0000
      7 ****        -1.2958   1.2864  -1.7372 C.3            1 S1                 0.0000
      8 ****        -1.7096   2.6799  -2.2548 C.3            1 S1                 0.0000
      9 ****         0.2124   1.0142  -1.8774 C.2            1 S1                 0.0000
     10 ****         0.9805   1.8847  -2.2886 O.2            1 S1                 0.0000
     11 ****         0.6186  -0.2118  -1.5130 N.am           1 S1                 0.0000
     12 ****         1.9975  -0.6896  -1.4743 C.3            1 S1                 0.0000
     13 ****         2.1256  -1.7340  -0.3383 C.3            1 S1                 0.0000
     14 ****         1.7188  -1.2330   1.0687 C.3            1 S1                 0.0000
     15 ****         2.5657  -0.0402   1.5415 C.3            1 S1                 0.0000
     16 ****         1.7839  -2.3785   2.0898 C.3            1 S1                 0.0000
     17 ****         2.3452  -1.3729  -2.8065 C.2            1 S1                 0.0000
     18 ****         3.4202  -1.0380  -3.3504 O.co2          1 S1                 0.0000
     19 ****         1.5411  -2.2205  -3.2570 O.co2          1 S1                -1.0000
     20 ****        -1.4569   2.0033   0.5875 N.2            1 S1                 0.0000
     21 ****         2.6877   0.1382  -1.3035 H              1 S1                 0.0000
     22 ****        -1.7357   1.6129   3.8615 H              1 S1                 0.0000
     23 ****        -2.5928   2.9613   3.1210 H              1 S1                 0.0000
     24 ****        -0.8370   2.8581   3.0039 H              1 S1                 0.0000
     25 ****        -2.8797  -0.4631   2.2892 H              1 S1                 0.0000
     26 ****        -3.1380  -2.0241   0.0592 H              1 S1                 0.0000
     27 ****        -1.8215  -1.7024  -1.0653 H              1 S1                 0.0000
     28 ****        -3.4219  -1.0120  -1.3552 H              1 S1                 0.0000
     29 ****        -1.8042   0.5531  -2.3635 H              1 S1                 0.0000
     30 ****        -1.4655   2.7950  -3.3114 H              1 S1                 0.0000
     31 ****        -1.2110   3.4835  -1.7110 H              1 S1                 0.0000
     32 ****        -2.7849   2.8283  -2.1515 H              1 S1                 0.0000
     33 ****        -0.0861  -0.8665  -1.2085 H              1 S1                 0.0000
     34 ****         1.5137  -2.6059  -0.5779 H              1 S1                 0.0000
     35 ****         3.1545  -2.0957  -0.3012 H              1 S1                 0.0000
     36 ****         0.6794  -0.9046   1.0353 H              1 S1                 0.0000
     37 ****         3.6278  -0.2866   1.5507 H              1 S1                 0.0000
     38 ****         2.2850   0.2631   2.5506 H              1 S1                 0.0000
     39 ****         2.4273   0.8288   0.8983 H              1 S1                 0.0000
     40 ****         2.7999  -2.7609   2.1927 H              1 S1                 0.0000
     41 ****         1.1441  -3.2091   1.7904 H              1 S1                 0.0000
     42 ****         1.4511  -2.0480   3.0741 H              1 S1                 0.0000
     43 ****         0.6270   2.7864  -2.5379 LP             1 S1                 0.0000
     44 ****         1.9577   1.6899  -2.3733 LP             1 S1                 0.0000
     45 ****         3.6950  -1.4579  -4.2154 LP             1 S1                 0.0000
     46 ****         4.0051  -0.3502  -2.9205 LP             1 S1                 0.0000
     47 ****         1.7387  -2.6889  -4.1181 LP             1 S1                 0.0000
     48 ****         0.7013  -2.4289  -2.7557 LP             1 S1                 0.0000
     49 ****        -1.0234   2.8942   0.4521 LP             1 S1                 0.0000
@<TRIPOS>BOND
    1    1    2 1     
    2    1   22 1     
    3    1   23 1     
    4    1   24 1     
    5    2   20 2     
    6    2    3 1     
    7    3    4 2     
    8    3   25 1     
    9    4    5 1     
   10    4    6 1     
   11    5   26 1     
   12    5   27 1     
   13    5   28 1     
   14    6    7 1     
   15    6   20 1     
   16    7    8 1     
   17    7    9 1     
   18    7   29 1     
   19    8   30 1     
   20    8   31 1     
   21    8   32 1     
   22    9   10 2     
   23    9   11 am    
   24   11   12 1     
   25   11   33 1     
   26   12   21 1     
   27   12   13 1     
   28   12   17 1     
   29   13   14 1     
   30   13   34 1     
   31   13   35 1     
   32   14   15 1     
   33   14   16 1     
   34   14   36 1     
   35   15   37 1     
   36   15   38 1     
   37   15   39 1     
   38   16   40 1     
   39   16   41 1     
   40   16   42 1     
   41   17   18 ar    
   42   17   19 ar    
   43   10   43 1     
   44   10   44 1     
   45   18   45 1     
   46   18   46 1     
   47   19   47 1     
   48   19   48 1     
   49   20   49 1     
@<TRIPOS>SUBSTRUCTURE
      1 S1             1
@<TRIPOS>SET
LONE_PAIRS      STATIC     ATOMS    <user>   **** ""
7 43 44 45 46 47 48 49
DONOR_HYDROGENS      STATIC     ATOMS    <user>   **** ""
1 33
ATOM$BLUE        STATIC     ATOMS    COLORGROUP SYSTEM
7 43 44 45 46 47 48 49
ATOM$RED        STATIC     ATOMS    COLORGROUP SYSTEM
1 33
