AV-unprocessed.smi:1144|AV-procd|sdf|4879|dock6
  -GOLD-   22720 3453D 1   1.00000     0.00000
 Structure written by MMmdl.
 35 36  0  0  0  0  0  0  0  0  2 V2000
  146.8084  140.5612  152.6263 C   0  0  0  0  0  0  0  0  0  0  0  0
  148.0600  140.0947  153.2598 N   0  3  2  0  0  0  0  0  0  0  0  0
  147.9548  138.7126  153.7804 C   0  0  0  0  0  0  0  0  0  0  0  0
  149.2917  138.2733  154.3991 C   0  0  0  0  0  0  0  0  0  0  0  0
  149.6692  139.1957  155.4138 O   0  0  0  0  0  0  0  0  0  0  0  0
  149.8760  140.5104  154.9047 C   0  0  2  0  0  0  0  0  0  0  0  0
  150.3570  141.4023  156.0573 C   0  0  0  0  0  0  0  0  0  0  0  0
  151.5595  140.8717  156.6816 N   0  0  0  0  0  0  0  0  0  0  0  0
  152.0700  141.3264  157.8823 C   0  0  0  0  0  0  0  0  0  0  0  0
  152.9311  140.5058  158.4873 N   0  0  0  0  0  0  0  0  0  0  0  0
  153.4443  140.9167  159.6672 C   0  0  0  0  0  0  0  0  0  0  0  0
  153.0932  142.1555  160.2389 C   0  0  0  0  0  0  0  0  0  0  0  0
  152.1749  142.9439  159.5100 C   0  0  0  0  0  0  0  0  0  0  0  0
  151.7072  144.3054  160.0017 C   0  0  0  0  0  0  0  0  0  0  0  0
  152.1492  144.5598  161.2341 F   0  0  0  0  0  0  0  0  0  0  0  0
  152.1597  145.2568  159.1850 F   0  0  0  0  0  0  0  0  0  0  0  0
  150.3746  144.3459  160.0128 F   0  0  0  0  0  0  0  0  0  0  0  0
  151.6661  142.5206  158.3295 N   0  0  0  0  0  0  0  0  0  0  0  0
  148.5480  141.0190  154.3093 C   0  0  0  0  0  0  0  0  0  0  0  0
  145.9931  140.6004  153.3501 H   0  0  0  0  0  0  0  0  0  0  0  0
  146.5151  139.8923  151.8165 H   0  0  0  0  0  0  0  0  0  0  0  0
  146.9396  141.5582  152.2044 H   0  0  0  0  0  0  0  0  0  0  0  0
  147.1631  138.6616  154.5297 H   0  0  0  0  0  0  0  0  0  0  0  0
  147.6775  138.0337  152.9732 H   0  0  0  0  0  0  0  0  0  0  0  0
  149.1934  137.2817  154.8409 H   0  0  0  0  0  0  0  0  0  0  0  0
  150.0723  138.2073  153.6393 H   0  0  0  0  0  0  0  0  0  0  0  0
  150.6398  140.4886  154.1244 H   0  0  0  0  0  0  0  0  0  0  0  0
  150.5787  142.4017  155.6809 H   0  0  0  0  0  0  0  0  0  0  0  0
  149.5717  141.5080  156.8069 H   0  0  0  0  0  0  0  0  0  0  0  0
  151.9814  140.0440  156.2861 H   0  0  0  0  0  0  0  0  0  0  0  0
  154.1395  140.2522  160.1587 H   0  0  0  0  0  0  0  0  0  0  0  0
  153.5092  142.4749  161.1829 H   0  0  0  0  0  0  0  0  0  0  0  0
  148.6886  142.0129  153.8822 H   0  0  0  0  0  0  0  0  0  0  0  0
  147.7945  141.1108  155.0935 H   0  0  0  0  0  0  0  0  0  0  0  0
  148.7638  140.0793  152.5354 H   0  0  0  0  0  0  0  0  0  0  0  0
  1  2  1  0  0  0  0
  1 20  1  0  0  0  0
  1 21  1  0  0  0  0
  1 22  1  0  0  0  0
  2 19  1  0  0  0  0
  2  3  1  0  0  0  0
  2 35  1  0  0  0  0
  3  4  1  0  0  0  0
  3 23  1  0  0  0  0
  3 24  1  0  0  0  0
  4  5  1  0  0  0  0
  4 25  1  0  0  0  0
  4 26  1  0  0  0  0
  5  6  1  0  0  0  0
  6  7  1  0  0  0  0
  6 19  1  0  0  0  0
  6 27  1  0  0  0  0
  7  8  1  0  0  0  0
  7 28  1  0  0  0  0
  7 29  1  0  0  0  0
  8  9  1  0  0  0  0
  8 30  1  0  0  0  0
  9 18  1  0  0  0  0
  9 10  2  0  0  0  0
 10 11  1  0  0  0  0
 11 12  2  0  0  0  0
 11 31  1  0  0  0  0
 12 13  1  0  0  0  0
 12 32  1  0  0  0  0
 13 14  1  0  0  0  0
 13 18  2  0  0  0  0
 14 15  1  0  0  0  0
 14 16  1  0  0  0  0
 14 17  1  0  0  0  0
 19 33  1  0  0  0  0
 19 34  1  0  0  0  0
M  CHG  1   2   1
M  END
> <s_m_source_file>
AV-unprocessed.smi

> <i_m_source_file_index>
1144

> <i_lp_mmshare_version>
43012

> <i_f3d_flags>
0

> <s_epik_input>
W0NIM11OMVtDSDJdW0NIMl1PW0NASF0oW0NIMl0xKVtDSDJdW05IXWMybltjSF1bY0hdYyhuMilDKEYpKEYpRg==

> <s_epik_cmdline>
J2VwaWtfcHl0aG9uJywgJy1waCcsICc3LjAnLCAnLXRuJywgJzgnLCAnLW1hJywgJzIwMCcsICctbWV0YWxfYmluZGluZycsICctaW1hZScsICc8aW5maWxlLm1hZT4nLCAnLW9tYWUnLCAnPG91dGZpbGUubWFlPic=

> <r_lp_tautomer_probability>
1

> <r_epik_Ionization_Penalty>
0.178506

> <r_epik_Ionization_Penalty_Charging>
0.178504

> <r_epik_Ionization_Penalty_Neutral>
2.47225e-06

> <r_epik_State_Penalty>
0.167974

> <r_epik_Charging_Adjusted_Penalty>
0.346478

> <i_epik_Tot_Q>
1

> <i_epik_Tot_abs_Q>
1

> <r_epik_Metal_State_Penalty>
0.167974

> <b_epik_Metal_Only>
0

> <s_lp_Force_Field>
OPLS_2005

> <r_lp_Energy>
9.23753

> <b_lp_Chiralities_Consistent>
1

> <s_lp_Variant>
AV-unprocessed.smi:1144-4

> <Gold.Version>
5.8.1

> <Gold.Id.Protein>
6NUR|6NUR_protein|mol2

> <Gold.PLP.Fitness>
43.1563

> <Gold.PLP.PLP>
-39.3356

> <Gold.PLP.part.hbond>
-1.9188

> <Gold.PLP.part.metal>
0.0000

> <Gold.PLP.part.buried>
-1.8428

> <Gold.PLP.part.nonpolar>
-34.7280

> <Gold.PLP.part.repulsive>
0.3061

> <Gold.PLP.ligand.clash>
0.0000

> <Gold.PLP.ligand.torsion>
0.2894

> <Gold.PLP.Chemscore.Hbond>
1.4641

> <Gold.PLP.Chemscore.CHOScore>
0.0000

> <Gold.PLP.Chemscore.Metal>
0.0000

> <Gold.Chemscore.Hbonds>
donor molecule, donor type, donor heavy atom, donor atom, acceptor molecule, acceptor atom, score
      L1  H     2    35       P1  7957  1.00
      P1  H  7997  8009       L1    10  0.38

> <Gold.PLP.Chemscore.Internal.Correction>
0.0072

> <Gold.Rescore>
     Score         DG    S(hbond)    S(metal)    S(lipo)     H(rot)  DE(clash)    DE(int)     intcor
     14.86     -16.06       1.46        0.00      78.05       1.34       1.07       0.13       ----

> <Gold.Chemscore.Fitness>
14.8634

> <Gold.Chemscore.DG>
-16.0561

> <Gold.Chemscore.ZeroCoef>
-5.4800

> <Gold.Chemscore.Hbond>
1.4580

> <Gold.Chemscore.Metal>
0.0000

> <Gold.Chemscore.Lipo>
78.0464

> <Gold.Chemscore.Internal_Hbond>
0.0000

> <Gold.Chemscore.DEClash>
1.0668

> <Gold.Chemscore.DEInternal>
0.1260

> <Gold.Chemscore.Rot>
1.3379

> <Gold.Chemscore.Internal.Correction>
   9.000000E+99

> <Gold.Chemscore.Hbonds>
donor molecule, donor type, donor heavy atom, donor atom, acceptor molecule, acceptor atom, score
      L1  H     2    35       P1  7957  0.99
      P1  H  7997  8009       L1    10  0.18

> <Gold.Chemscore.Hbond.Weighted>
-4.8697

> <Gold.Chemscore.Metal.Weighted>
-0.0000

> <Gold.Chemscore.Lipo.Weighted>
-9.1314

> <Gold.Chemscore.Internal_Hbond.Weighted>
0.0000

> <Gold.Chemscore.DEClash.Weighted>
1.0668

> <Gold.Chemscore.DEInternal.Weighted>
0.1260

> <Gold.Chemscore.Rot.Weighted>
3.4250

> <Gold.Chemscore.Internal.Correction.Weighted>
   9.000000E+99

> <Gold.Protein.RotatedTorsions>
[ 6907 6896 6895 6894 ] final  119.02 input  -60.11 | X-H torsion
[ 7974 7965 7964 7962 ] final  -23.32 input  175.53 | X-H torsion
[ 8008 7997 7996 7995 ] final  157.54 input   59.86 | X-H torsion
[ 10167 10162 10161 10158 ] final -130.66 input  -65.29 | X-H torsion
[ 10718 10713 10712 10709 ] final   34.74 input   66.30 | X-H torsion
[ 10763 10752 10751 10750 ] final -113.12 input  -60.55 | X-H torsion
[ 11005 11000 10999 10996 ] final  -93.01 input  -57.11 | X-H torsion

> <Gold.Protein.ActiveResidues>
 VAL166  LYS551  ARG553  GLY616  TRP617  ASP618  TYR619  PRO620  LYS621  CYS622 
 ASP623  PHE694  ASN695  SER759  ASP760  ASP761  ALA762  ILE779  LEU786  VAL792 
 PHE793  MET794  SER795  GLU796  ALA797  LYS798  CYS799  TRP800  GLU811  SER814 

> <Gold.Protein.RotatedAtoms>
  152.4502  133.7614  159.6748 H   0  0  0  0  0  0  0  0  0  0  0  0  # atno 6907 bound_to 6896
  150.8412  133.7923  159.3066 H   0  0  0  0  0  0  0  0  0  0  0  0  # atno 6908 bound_to 6896
  151.5548  135.1069  160.0010 H   0  0  0  0  0  0  0  0  0  0  0  0  # atno 6909 bound_to 6896
  146.1623  140.4600  142.8566 H   0  0  0  0  0  0  0  0  0  0  0  0  # atno 7974 bound_to 7965
  156.2358  140.1882  156.7123 H   0  0  0  0  0  0  0  0  0  0  0  0  # atno 8008 bound_to 7997
  154.6104  140.0623  156.9513 H   0  0  0  0  0  0  0  0  0  0  0  0  # atno 8009 bound_to 7997
  155.2026  140.3293  155.4343 H   0  0  0  0  0  0  0  0  0  0  0  0  # atno 8010 bound_to 7997
  139.9270  143.6316  152.2539 H   0  0  0  0  0  0  0  0  0  0  0  0  # atno 10167 bound_to 10162
  157.3141  130.7414  149.6743 H   0  0  0  0  0  0  0  0  0  0  0  0  # atno 10718 bound_to 10713
  154.8382  135.4465  154.1301 H   0  0  0  0  0  0  0  0  0  0  0  0  # atno 10763 bound_to 10752
  153.2513  135.6927  153.7682 H   0  0  0  0  0  0  0  0  0  0  0  0  # atno 10764 bound_to 10752
  153.6993  135.3374  155.3196 H   0  0  0  0  0  0  0  0  0  0  0  0  # atno 10765 bound_to 10752
  141.1508  133.7859  157.0100 H   0  0  0  0  0  0  0  0  0  0  0  0  # atno 11005 bound_to 11000
  144.8044  140.6272  143.6457 LP  0  0  0  0  0  0  0  0  0  0  0  0  # atno 17320 bound_to 7965
  145.4557  139.1518  143.3894 LP  0  0  0  0  0  0  0  0  0  0  0  0  # atno 17321 bound_to 7965
  139.6814  144.7655  151.1602 LP  0  0  0  0  0  0  0  0  0  0  0  0  # atno 17342 bound_to 10162
  140.7647  143.5720  150.8986 LP  0  0  0  0  0  0  0  0  0  0  0  0  # atno 17343 bound_to 10162
  155.9680  130.4242  150.4600 LP  0  0  0  0  0  0  0  0  0  0  0  0  # atno 17370 bound_to 10713
  157.2604  131.0565  151.2324 LP  0  0  0  0  0  0  0  0  0  0  0  0  # atno 17371 bound_to 10713
  140.0884  134.9607  157.1737 LP  0  0  0  0  0  0  0  0  0  0  0  0  # atno 17394 bound_to 11000
  140.3480  134.2630  155.7202 LP  0  0  0  0  0  0  0  0  0  0  0  0  # atno 17395 bound_to 11000

$$$$
