AV-unprocessed.smi:1952|AV-procd|sdf|7885|dock8
  -GOLD-   2272010 33D 1   1.00000     0.00000
 Structure written by MMmdl.
 40 41  0  0  0  0  0  0  0  0  2 V2000
  151.9296  140.6496  156.8769 C   0  0  0  0  0  0  0  0  0  0  0  0
  151.7858  139.3819  156.1068 C   0  0  0  0  0  0  0  0  0  0  0  0
  150.6992  138.6776  155.6695 C   0  0  0  0  0  0  0  0  0  0  0  0
  151.2848  137.5708  154.9996 C   0  0  0  0  0  0  0  0  0  0  0  0
  150.4760  136.5779  154.3901 N   0  0  0  0  0  0  0  0  0  0  0  0
  150.1071  135.3936  154.9066 C   0  0  0  0  0  0  0  0  0  0  0  0
  150.4383  134.9688  156.0136 O   0  0  0  0  0  0  0  0  0  0  0  0
  149.3121  134.7186  154.0627 N   0  0  0  0  0  0  0  0  0  0  0  0
  148.7594  133.3811  154.2835 C   0  0  2  0  0  0  0  0  0  0  0  0
  149.9170  132.3881  154.4561 C   0  0  0  0  0  0  0  0  0  0  0  0
  147.8249  132.9534  153.1273 C   0  0  0  0  0  0  0  0  0  0  0  0
  146.9895  134.0653  152.6068 N   0  3  0  0  0  0  0  0  0  0  0  0
  146.0132  133.6277  151.5821 C   0  0  0  0  0  0  0  0  0  0  0  0
  145.2375  134.8378  151.0339 C   0  0  0  0  0  0  0  0  0  0  0  0
  144.5991  135.5241  152.1038 O   0  0  0  0  0  0  0  0  0  0  0  0
  145.5349  136.0193  153.0538 C   0  0  0  0  0  0  0  0  0  0  0  0
  146.3095  134.8434  153.6709 C   0  0  0  0  0  0  0  0  0  0  0  0
  152.6085  137.5939  155.0296 N   0  0  0  0  0  0  0  0  0  0  0  0
  152.9365  138.7560  155.7378 O   0  0  0  0  0  0  0  0  0  0  0  0
  150.9744  140.9564  157.3034 H   0  0  0  0  0  0  0  0  0  0  0  0
  152.2865  141.4537  156.2333 H   0  0  0  0  0  0  0  0  0  0  0  0
  152.6406  140.5286  157.6942 H   0  0  0  0  0  0  0  0  0  0  0  0
  149.6557  138.9195  155.8070 H   0  0  0  0  0  0  0  0  0  0  0  0
  150.1427  136.7948  153.4622 H   0  0  0  0  0  0  0  0  0  0  0  0
  149.0953  135.1514  153.1763 H   0  0  0  0  0  0  0  0  0  0  0  0
  148.2013  133.3778  155.2206 H   0  0  0  0  0  0  0  0  0  0  0  0
  149.5446  131.3830  154.6573 H   0  0  0  0  0  0  0  0  0  0  0  0
  150.5577  132.6726  155.2914 H   0  0  0  0  0  0  0  0  0  0  0  0
  150.5381  132.3391  153.5610 H   0  0  0  0  0  0  0  0  0  0  0  0
  148.4447  132.5629  152.3185 H   0  0  0  0  0  0  0  0  0  0  0  0
  147.1793  132.1298  153.4366 H   0  0  0  0  0  0  0  0  0  0  0  0
  146.5320  133.1260  150.7644 H   0  0  0  0  0  0  0  0  0  0  0  0
  145.3228  132.9042  152.0188 H   0  0  0  0  0  0  0  0  0  0  0  0
  145.9026  135.5159  150.4967 H   0  0  0  0  0  0  0  0  0  0  0  0
  144.4789  134.5072  150.3242 H   0  0  0  0  0  0  0  0  0  0  0  0
  146.2151  136.7291  152.5797 H   0  0  0  0  0  0  0  0  0  0  0  0
  144.9966  136.5636  153.8298 H   0  0  0  0  0  0  0  0  0  0  0  0
  145.6271  134.1957  154.2234 H   0  0  0  0  0  0  0  0  0  0  0  0
  147.0356  135.2259  154.3875 H   0  0  0  0  0  0  0  0  0  0  0  0
  147.6215  134.7013  152.1405 H   0  0  0  0  0  0  0  0  0  0  0  0
  1  2  1  0  0  0  0
  1 20  1  0  0  0  0
  1 21  1  0  0  0  0
  1 22  1  0  0  0  0
  2 19  1  0  0  0  0
  2  3  2  0  0  0  0
  3  4  1  0  0  0  0
  3 23  1  0  0  0  0
  4  5  1  0  0  0  0
  4 18  2  0  0  0  0
  5  6  1  0  0  0  0
  5 24  1  0  0  0  0
  6  7  2  0  0  0  0
  6  8  1  0  0  0  0
  8  9  1  0  0  0  0
  8 25  1  0  0  0  0
  9 10  1  0  0  0  0
  9 11  1  0  0  0  0
  9 26  1  0  0  0  0
 10 27  1  0  0  0  0
 10 28  1  0  0  0  0
 10 29  1  0  0  0  0
 11 12  1  0  0  0  0
 11 30  1  0  0  0  0
 11 31  1  0  0  0  0
 12 17  1  0  0  0  0
 12 13  1  0  0  0  0
 12 40  1  0  0  0  0
 13 14  1  0  0  0  0
 13 32  1  0  0  0  0
 13 33  1  0  0  0  0
 14 15  1  0  0  0  0
 14 34  1  0  0  0  0
 14 35  1  0  0  0  0
 15 16  1  0  0  0  0
 16 17  1  0  0  0  0
 16 36  1  0  0  0  0
 16 37  1  0  0  0  0
 17 38  1  0  0  0  0
 17 39  1  0  0  0  0
 18 19  1  0  0  0  0
M  CHG  1  12   1
M  END
> <s_m_source_file>
AV-unprocessed.smi

> <i_m_source_file_index>
1952

> <i_lp_mmshare_version>
43012

> <i_f3d_flags>
0

> <s_epik_input>
W0NIM11jMVtjSF1jKG5vMSlbTkhdQyg9TylbTkhdW0NASF0oW0NIM10pW0NIMl1OMltDSDJdW0NIMl1PW0NIMl1bQ0gyXTI=

> <s_epik_cmdline>
J2VwaWtfcHl0aG9uJywgJy1waCcsICc3LjAnLCAnLXRuJywgJzgnLCAnLW1hJywgJzIwMCcsICctbWV0YWxfYmluZGluZycsICctaW1hZScsICc8aW5maWxlLm1hZT4nLCAnLW9tYWUnLCAnPG91dGZpbGUubWFlPic=

> <r_epik_Ionization_Penalty>
0.707079

> <r_epik_Ionization_Penalty_Charging>
0.707039

> <r_epik_Ionization_Penalty_Neutral>
4.01892e-05

> <r_epik_State_Penalty>
0.730276

> <r_epik_Charging_Adjusted_Penalty>
1.43732

> <i_epik_Tot_Q>
1

> <i_epik_Tot_abs_Q>
1

> <r_epik_Metal_State_Penalty>
0.744847

> <b_epik_Metal_Only>
0

> <s_lp_Force_Field>
OPLS_2005

> <r_lp_Energy>
19.2222

> <b_lp_Chiralities_Consistent>
1

> <s_lp_Variant>
AV-unprocessed.smi:1952-3

> <Gold.Version>
5.8.1

> <Gold.Id.Protein>
6NUR|6NUR_protein|mol2

> <Gold.PLP.Fitness>
42.3158

> <Gold.PLP.PLP>
-29.0967

> <Gold.PLP.part.hbond>
-5.9319

> <Gold.PLP.part.metal>
0.0000

> <Gold.PLP.part.buried>
-5.1812

> <Gold.PLP.part.nonpolar>
-19.6635

> <Gold.PLP.part.repulsive>
0.3118

> <Gold.PLP.ligand.clash>
0.0000

> <Gold.PLP.ligand.torsion>
0.9845

> <Gold.PLP.Chemscore.Hbond>
5.0490

> <Gold.PLP.Chemscore.CHOScore>
0.0000

> <Gold.PLP.Chemscore.Metal>
0.0000

> <Gold.Chemscore.Hbonds>
donor molecule, donor type, donor heavy atom, donor atom, acceptor molecule, acceptor atom, score
      L1  H     5    24       P1  7948  0.72
      L1  H     8    25       P1  7948  0.90
      L1  H    12    40       P1  7948  2.00
      P1  H  7997  8008       L1    19  0.98
      P1  H 10752 10765       L1    18  0.44

> <Gold.PLP.Chemscore.Internal.Correction>
0.0411

> <Gold.Rescore>
     Score         DG    S(hbond)    S(metal)    S(lipo)     H(rot)  DE(clash)    DE(int)     intcor
     13.82     -16.12       2.80        0.00      46.10       1.61       0.04       2.27       ----

> <Gold.Chemscore.Fitness>
13.8153

> <Gold.Chemscore.DG>
-16.1178

> <Gold.Chemscore.ZeroCoef>
-5.4800

> <Gold.Chemscore.Hbond>
2.8023

> <Gold.Chemscore.Metal>
0.0000

> <Gold.Chemscore.Lipo>
46.1032

> <Gold.Chemscore.Internal_Hbond>
0.0000

> <Gold.Chemscore.DEClash>
0.0354

> <Gold.Chemscore.DEInternal>
2.2671

> <Gold.Chemscore.Rot>
1.6078

> <Gold.Chemscore.Internal.Correction>
   9.000000E+99

> <Gold.Chemscore.Hbonds>
donor molecule, donor type, donor heavy atom, donor atom, acceptor molecule, acceptor atom, score
      L1  H     5    24       P1  7948  0.08
      L1  H     8    25       P1  7948  0.18
      L1  H    12    40       P1  7948  0.67
      P1  H  7997  8008       L1    19  0.45
      P1  H 10752 10765       L1    18  0.10

> <Gold.Chemscore.Hbond.Weighted>
-9.3595

> <Gold.Chemscore.Metal.Weighted>
-0.0000

> <Gold.Chemscore.Lipo.Weighted>
-5.3941

> <Gold.Chemscore.Internal_Hbond.Weighted>
0.0000

> <Gold.Chemscore.DEClash.Weighted>
0.0354

> <Gold.Chemscore.DEInternal.Weighted>
2.2671

> <Gold.Chemscore.Rot.Weighted>
4.1158

> <Gold.Chemscore.Internal.Correction.Weighted>
   9.000000E+99

> <Gold.Protein.RotatedTorsions>
[ 6907 6896 6895 6894 ] final  125.72 input  -60.11 | X-H torsion
[ 7974 7965 7964 7962 ] final  152.31 input  175.53 | X-H torsion
[ 8008 7997 7996 7995 ] final  -25.13 input   59.86 | X-H torsion
[ 10167 10162 10161 10158 ] final -124.86 input  -65.29 | X-H torsion
[ 10718 10713 10712 10709 ] final    8.40 input   66.30 | X-H torsion
[ 10763 10752 10751 10750 ] final  165.54 input  -60.55 | X-H torsion
[ 11005 11000 10999 10996 ] final  -53.48 input  -57.11 | X-H torsion

> <Gold.Protein.ActiveResidues>
 VAL166  LYS551  ARG553  GLY616  TRP617  ASP618  TYR619  PRO620  LYS621  CYS622 
 ASP623  PHE694  ASN695  SER759  ASP760  ASP761  ALA762  ILE779  LEU786  VAL792 
 PHE793  MET794  SER795  GLU796  ALA797  LYS798  CYS799  TRP800  GLU811  SER814 

> <Gold.Protein.RotatedAtoms>
  152.3967  133.6757  159.6281 H   0  0  0  0  0  0  0  0  0  0  0  0  # atno 6907 bound_to 6896
  150.7865  133.8862  159.3309 H   0  0  0  0  0  0  0  0  0  0  0  0  # atno 6908 bound_to 6896
  151.6637  135.0987  160.0236 H   0  0  0  0  0  0  0  0  0  0  0  0  # atno 6909 bound_to 6896
  144.8231  139.6651  143.6091 H   0  0  0  0  0  0  0  0  0  0  0  0  # atno 7974 bound_to 7965
  154.4492  140.1935  156.0571 H   0  0  0  0  0  0  0  0  0  0  0  0  # atno 8008 bound_to 7997
  156.0611  140.3296  155.7435 H   0  0  0  0  0  0  0  0  0  0  0  0  # atno 8009 bound_to 7997
  155.5411  140.0586  157.2860 H   0  0  0  0  0  0  0  0  0  0  0  0  # atno 8010 bound_to 7997
  139.9883  143.5669  152.2352 H   0  0  0  0  0  0  0  0  0  0  0  0  # atno 10167 bound_to 10162
  156.9510  130.5897  149.5657 H   0  0  0  0  0  0  0  0  0  0  0  0  # atno 10718 bound_to 10713
  154.3255  135.2755  155.2498 H   0  0  0  0  0  0  0  0  0  0  0  0  # atno 10763 bound_to 10752
  154.4833  135.5853  153.6408 H   0  0  0  0  0  0  0  0  0  0  0  0  # atno 10764 bound_to 10752
  152.9872  135.6116  154.3443 H   0  0  0  0  0  0  0  0  0  0  0  0  # atno 10765 bound_to 10752
  141.0978  133.6622  156.4178 H   0  0  0  0  0  0  0  0  0  0  0  0  # atno 11005 bound_to 11000
  146.2537  139.6255  142.9409 LP  0  0  0  0  0  0  0  0  0  0  0  0  # atno 17320 bound_to 7965
  145.5059  141.0436  143.2514 LP  0  0  0  0  0  0  0  0  0  0  0  0  # atno 17321 bound_to 7965
  139.6359  144.7650  151.2439 LP  0  0  0  0  0  0  0  0  0  0  0  0  # atno 17342 bound_to 10162
  140.7464  143.6399  150.8344 LP  0  0  0  0  0  0  0  0  0  0  0  0  # atno 17343 bound_to 10162
  156.0363  130.5450  150.8661 LP  0  0  0  0  0  0  0  0  0  0  0  0  # atno 17370 bound_to 10713
  157.5722  131.0946  150.9401 LP  0  0  0  0  0  0  0  0  0  0  0  0  # atno 17371 bound_to 10713
  140.5097  134.6407  157.5280 LP  0  0  0  0  0  0  0  0  0  0  0  0  # atno 17394 bound_to 11000
  139.9820  134.7122  155.9843 LP  0  0  0  0  0  0  0  0  0  0  0  0  # atno 17395 bound_to 11000

$$$$
