AV-unprocessed.smi:168|AV-procd|sdf|1397|dock9
  -GOLD-   2262019143D 1   1.00000     0.00000
 Structure written by MMmdl.
 62 66  0  0  0  0  0  0  0  0  1 V2000
  146.6037  137.8925  157.6589 C   0  0  0  0  0  0  0  0  0  0  0  0
  147.4754  139.1342  157.4232 C   0  0  0  0  0  0  0  0  0  0  0  0
  146.7235  140.3960  157.9023 C   0  0  0  0  0  0  0  0  0  0  0  0
  148.0282  139.1712  155.9729 C   0  0  1  0  0  0  0  0  0  0  0  0
  147.0633  139.7676  155.0456 N   0  0  0  0  0  0  0  0  0  0  0  0
  146.7880  139.0425  153.8389 C   0  0  0  0  0  0  0  0  0  0  0  0
  147.1046  139.6123  152.6440 N   0  0  0  0  0  0  0  0  0  0  0  0
  146.8558  138.9968  151.4856 C   0  0  0  0  0  0  0  0  0  0  0  0
  146.2844  137.8115  151.2803 N   0  0  0  0  0  0  0  0  0  0  0  0
  145.9349  137.2296  152.4611 C   0  0  0  0  0  0  0  0  0  0  0  0
  146.1380  137.7724  153.7645 C   0  0  0  0  0  0  0  0  0  0  0  0
  145.6168  136.8981  154.7112 N   0  0  0  0  0  0  0  0  0  0  0  0
  145.1396  135.9045  154.0149 C   0  0  0  0  0  0  0  0  0  0  0  0
  145.3157  136.0065  152.6550 N   0  0  0  0  0  0  0  0  0  0  0  0
  144.8498  135.0844  151.6602 C   0  0  0  0  0  0  0  0  0  0  0  0
  144.2724  133.7216  152.0554 C   0  0  0  0  0  0  0  0  0  0  0  0
  144.9177  133.0718  150.8111 C   0  0  0  0  0  0  0  0  0  0  0  0
  145.6614  131.7532  151.0734 C   0  0  0  0  0  0  0  0  0  0  0  0
  146.5409  131.4367  150.0132 O   0  0  0  0  0  0  0  0  0  0  0  0
  144.0096  132.8440  149.5818 C   0  0  0  0  0  0  0  0  0  0  0  0
  143.2506  131.6547  149.6598 O   0  0  0  0  0  0  0  0  0  0  0  0
  145.8295  134.3188  150.7654 C   0  0  0  0  0  0  0  0  0  0  0  0
  147.8582  140.9865  154.9059 C   0  0  0  0  0  0  0  0  0  0  0  0
  149.0598  140.2200  155.4753 C   0  0  0  0  0  0  0  0  0  0  0  0
  150.0547  139.7202  154.4040 C   0  0  0  0  0  0  0  0  0  0  0  0
  151.1586  138.8139  154.9736 C   0  0  0  0  0  0  0  0  0  0  0  0
  151.9562  139.5382  156.0631 C   0  0  0  0  0  0  0  0  0  0  0  0
  151.0235  140.1017  157.1407 C   0  0  0  0  0  0  0  0  0  0  0  0
  149.9116  140.9685  156.5216 C   0  0  0  0  0  0  0  0  0  0  0  0
  145.6945  137.9286  157.0581 H   0  0  0  0  0  0  0  0  0  0  0  0
  146.3057  137.8133  158.7047 H   0  0  0  0  0  0  0  0  0  0  0  0
  147.1407  136.9788  157.4037 H   0  0  0  0  0  0  0  0  0  0  0  0
  148.3257  139.0168  158.0935 H   0  0  0  0  0  0  0  0  0  0  0  0
  145.8056  140.5563  157.3361 H   0  0  0  0  0  0  0  0  0  0  0  0
  147.3224  141.3002  157.8244 H   0  0  0  0  0  0  0  0  0  0  0  0
  146.4385  140.2976  158.9500 H   0  0  0  0  0  0  0  0  0  0  0  0
  148.3678  138.1860  155.6567 H   0  0  0  0  0  0  0  0  0  0  0  0
  147.1577  139.5314  150.5972 H   0  0  0  0  0  0  0  0  0  0  0  0
  144.6455  135.0640  154.4803 H   0  0  0  0  0  0  0  0  0  0  0  0
  144.1346  135.6426  151.0548 H   0  0  0  0  0  0  0  0  0  0  0  0
  144.6928  133.3472  152.9903 H   0  0  0  0  0  0  0  0  0  0  0  0
  143.1827  133.6853  152.0774 H   0  0  0  0  0  0  0  0  0  0  0  0
  146.2303  131.7984  152.0026 H   0  0  0  0  0  0  0  0  0  0  0  0
  144.9610  130.9244  151.1816 H   0  0  0  0  0  0  0  0  0  0  0  0
  147.3774  131.1943  150.3795 H   0  0  0  0  0  0  0  0  0  0  0  0
  143.3123  133.6733  149.4593 H   0  0  0  0  0  0  0  0  0  0  0  0
  144.5963  132.7936  148.6644 H   0  0  0  0  0  0  0  0  0  0  0  0
  142.3339  131.8810  149.6221 H   0  0  0  0  0  0  0  0  0  0  0  0
  145.9635  134.7538  149.7744 H   0  0  0  0  0  0  0  0  0  0  0  0
  146.7938  134.1607  151.2512 H   0  0  0  0  0  0  0  0  0  0  0  0
  148.0179  141.3682  153.8976 H   0  0  0  0  0  0  0  0  0  0  0  0
  147.4982  141.7768  155.5643 H   0  0  0  0  0  0  0  0  0  0  0  0
  149.5333  139.1738  153.6184 H   0  0  0  0  0  0  0  0  0  0  0  0
  150.5169  140.5710  153.9016 H   0  0  0  0  0  0  0  0  0  0  0  0
  150.7156  137.9059  155.3842 H   0  0  0  0  0  0  0  0  0  0  0  0
  151.8282  138.4962  154.1741 H   0  0  0  0  0  0  0  0  0  0  0  0
  152.6841  138.8613  156.5108 H   0  0  0  0  0  0  0  0  0  0  0  0
  152.5251  140.3534  155.6142 H   0  0  0  0  0  0  0  0  0  0  0  0
  150.5858  139.2790  157.7054 H   0  0  0  0  0  0  0  0  0  0  0  0
  151.5991  140.6914  157.8547 H   0  0  0  0  0  0  0  0  0  0  0  0
  150.3677  141.8457  156.0606 H   0  0  0  0  0  0  0  0  0  0  0  0
  149.2941  141.3649  157.3239 H   0  0  0  0  0  0  0  0  0  0  0  0
  1  2  1  0  0  0  0
  1 30  1  0  0  0  0
  1 31  1  0  0  0  0
  1 32  1  0  0  0  0
  2  3  1  0  0  0  0
  2  4  1  0  0  0  0
  2 33  1  0  0  0  0
  3 34  1  0  0  0  0
  3 35  1  0  0  0  0
  3 36  1  0  0  0  0
  4 24  1  0  0  0  0
  4  5  1  0  0  0  0
  4 37  1  0  0  0  0
  5  6  1  0  0  0  0
  5 23  1  0  0  0  0
  6 11  1  0  0  0  0
  6  7  2  0  0  0  0
  7  8  1  0  0  0  0
  8  9  2  0  0  0  0
  8 38  1  0  0  0  0
  9 10  1  0  0  0  0
 10 14  1  0  0  0  0
 10 11  2  0  0  0  0
 11 12  1  0  0  0  0
 12 13  2  0  0  0  0
 13 14  1  0  0  0  0
 13 39  1  0  0  0  0
 14 15  1  0  0  0  0
 15 22  1  0  0  0  0
 15 16  1  0  0  0  0
 15 40  1  0  0  0  0
 16 17  1  0  0  0  0
 16 41  1  0  0  0  0
 16 42  1  0  0  0  0
 17 18  1  0  0  0  0
 17 20  1  0  0  0  0
 17 22  1  0  0  0  0
 18 19  1  0  0  0  0
 18 43  1  0  0  0  0
 18 44  1  0  0  0  0
 19 45  1  0  0  0  0
 20 21  1  0  0  0  0
 20 46  1  0  0  0  0
 20 47  1  0  0  0  0
 21 48  1  0  0  0  0
 22 49  1  0  0  0  0
 22 50  1  0  0  0  0
 23 24  1  0  0  0  0
 23 51  1  0  0  0  0
 23 52  1  0  0  0  0
 24 29  1  0  0  0  0
 24 25  1  0  0  0  0
 25 26  1  0  0  0  0
 25 53  1  0  0  0  0
 25 54  1  0  0  0  0
 26 27  1  0  0  0  0
 26 55  1  0  0  0  0
 26 56  1  0  0  0  0
 27 28  1  0  0  0  0
 27 57  1  0  0  0  0
 27 58  1  0  0  0  0
 28 29  1  0  0  0  0
 28 59  1  0  0  0  0
 28 60  1  0  0  0  0
 29 61  1  0  0  0  0
 29 62  1  0  0  0  0
M  END
> <s_m_source_file>
AV-unprocessed.smi

> <i_m_source_file_index>
168

> <i_lp_mmshare_version>
43012

> <i_f3d_flags>
0

> <s_epik_input>
W0NIMl0xW0NIMl1bQ0gyXVtDSDJdW0NIMl1DMTJbQ0BIXShbQ0hdKFtDSDNdKVtDSDNdKU4oW0NIMl0yKWMobltjSF1uMyljKGMzNCluW2NIXW40W0NIXShbQ0gyXTUpW0NIMl1DNShbQ0gyXVtPSF0pW0NIMl1bT0hd

> <s_epik_cmdline>
J2VwaWtfcHl0aG9uJywgJy1waCcsICc3LjAnLCAnLXRuJywgJzgnLCAnLW1hJywgJzIwMCcsICctbWV0YWxfYmluZGluZycsICctaW1hZScsICc8aW5maWxlLm1hZT4nLCAnLW9tYWUnLCAnPG91dGZpbGUubWFlPic=

> <r_lp_tautomer_probability>
1

> <r_epik_Ionization_Penalty>
0.00324652

> <r_epik_Ionization_Penalty_Charging>
0

> <r_epik_Ionization_Penalty_Neutral>
0.00324652

> <r_epik_State_Penalty>
0.00223464

> <r_epik_Charging_Adjusted_Penalty>
0.00223464

> <i_epik_Tot_Q>
0

> <i_epik_Tot_abs_Q>
0

> <r_epik_Metal_State_Penalty>
-0

> <b_epik_Metal_Only>
0

> <s_lp_Force_Field>
OPLS_2005

> <r_lp_Energy>
69.202

> <b_lp_Chiralities_Consistent>
1

> <s_lp_Variant>
AV-unprocessed.smi:168-2

> <Gold.Version>
5.8.1

> <Gold.Id.Protein>
6NUR|6NUR_protein|mol2

> <Gold.PLP.Fitness>
47.7273

> <Gold.PLP.PLP>
-40.1280

> <Gold.PLP.part.hbond>
-3.0417

> <Gold.PLP.part.metal>
0.0000

> <Gold.PLP.part.buried>
-4.7390

> <Gold.PLP.part.nonpolar>
-36.1982

> <Gold.PLP.part.repulsive>
3.8785

> <Gold.PLP.ligand.clash>
0.0000

> <Gold.PLP.ligand.torsion>
0.6528

> <Gold.PLP.Chemscore.Hbond>
2.3778

> <Gold.PLP.Chemscore.CHOScore>
0.3341

> <Gold.PLP.Chemscore.Metal>
0.0000

> <Gold.Chemscore.Hbonds>
donor molecule, donor type, donor heavy atom, donor atom, acceptor molecule, acceptor atom, score
      L1  H    19    45       P1 10747  1.00
      L1  H    21    48       P1 10952  0.30
      P1  H 10785 10796       L1    21  0.95
      L1  C     8    38       P1  7957  0.44

> <Gold.PLP.Chemscore.Internal.Correction>
0.7690

> <Gold.Rescore>
     Score         DG    S(hbond)    S(metal)    S(lipo)     H(rot)  DE(clash)    DE(int)     intcor
     12.41     -14.98       2.02        0.00      91.71       3.12       2.07       0.50       ----

> <Gold.Chemscore.Fitness>
12.4148

> <Gold.Chemscore.DG>
-14.9816

> <Gold.Chemscore.ZeroCoef>
-5.4800

> <Gold.Chemscore.Hbond>
2.0221

> <Gold.Chemscore.Metal>
0.0000

> <Gold.Chemscore.Lipo>
91.7101

> <Gold.Chemscore.Internal_Hbond>
0.0000

> <Gold.Chemscore.DEClash>
2.0704

> <Gold.Chemscore.DEInternal>
0.4963

> <Gold.Chemscore.Rot>
3.1181

> <Gold.Chemscore.Internal.Correction>
   9.000000E+99

> <Gold.Chemscore.Hbonds>
donor molecule, donor type, donor heavy atom, donor atom, acceptor molecule, acceptor atom, score
      L1  H    19    45       P1 10747  0.96
      L1  H    21    48       P1 10952  0.31
      P1  H 10785 10796       L1    21  0.21

> <Gold.Chemscore.Hbond.Weighted>
-6.7538

> <Gold.Chemscore.Metal.Weighted>
-0.0000

> <Gold.Chemscore.Lipo.Weighted>
-10.7301

> <Gold.Chemscore.Internal_Hbond.Weighted>
0.0000

> <Gold.Chemscore.DEClash.Weighted>
2.0704

> <Gold.Chemscore.DEInternal.Weighted>
0.4963

> <Gold.Chemscore.Rot.Weighted>
7.9823

> <Gold.Chemscore.Internal.Correction.Weighted>
   9.000000E+99

> <Gold.Protein.RotatedTorsions>
[ 6907 6896 6895 6894 ] final   76.09 input  -60.11 | X-H torsion
[ 7974 7965 7964 7962 ] final -140.25 input  175.53 | X-H torsion
[ 8008 7997 7996 7995 ] final  -70.02 input   59.86 | X-H torsion
[ 10167 10162 10161 10158 ] final  170.53 input  -65.29 | X-H torsion
[ 10718 10713 10712 10709 ] final  168.65 input   66.30 | X-H torsion
[ 10763 10752 10751 10750 ] final -167.98 input  -60.55 | X-H torsion
[ 11005 11000 10999 10996 ] final  -65.67 input  -57.11 | X-H torsion

> <Gold.Protein.ActiveResidues>
 VAL166  LYS551  ARG553  GLY616  TRP617  ASP618  TYR619  PRO620  LYS621  CYS622 
 ASP623  PHE694  ASN695  SER759  ASP760  ASP761  ALA762  ILE779  LEU786  VAL792 
 PHE793  MET794  SER795  GLU796  ALA797  LYS798  CYS799  TRP800  GLU811  SER814 

> <Gold.Protein.RotatedAtoms>
  152.5057  134.4021  159.9419 H   0  0  0  0  0  0  0  0  0  0  0  0  # atno 6907 bound_to 6896
  151.3986  133.3759  159.2737 H   0  0  0  0  0  0  0  0  0  0  0  0  # atno 6908 bound_to 6896
  150.9379  134.8811  159.7652 H   0  0  0  0  0  0  0  0  0  0  0  0  # atno 6909 bound_to 6896
  144.8612  140.6222  143.5327 H   0  0  0  0  0  0  0  0  0  0  0  0  # atno 7974 bound_to 7965
  154.4981  140.0842  156.7740 H   0  0  0  0  0  0  0  0  0  0  0  0  # atno 8008 bound_to 7997
  155.4067  140.3439  155.4242 H   0  0  0  0  0  0  0  0  0  0  0  0  # atno 8009 bound_to 7997
  156.1421  140.1532  156.8892 H   0  0  0  0  0  0  0  0  0  0  0  0  # atno 8010 bound_to 7997
  139.5021  144.3586  151.9849 H   0  0  0  0  0  0  0  0  0  0  0  0  # atno 10167 bound_to 10162
  157.0340  131.0267  151.2735 H   0  0  0  0  0  0  0  0  0  0  0  0  # atno 10718 bound_to 10713
  154.6676  135.2934  154.9785 H   0  0  0  0  0  0  0  0  0  0  0  0  # atno 10763 bound_to 10752
  154.0823  135.6603  153.4843 H   0  0  0  0  0  0  0  0  0  0  0  0  # atno 10764 bound_to 10752
  153.0467  135.5200  154.7656 H   0  0  0  0  0  0  0  0  0  0  0  0  # atno 10765 bound_to 10752
  141.1461  133.6685  156.6022 H   0  0  0  0  0  0  0  0  0  0  0  0  # atno 11005 bound_to 11000
  145.4309  139.1549  143.4022 LP  0  0  0  0  0  0  0  0  0  0  0  0  # atno 17320 bound_to 7965
  146.2861  140.4425  142.8757 LP  0  0  0  0  0  0  0  0  0  0  0  0  # atno 17321 bound_to 7965
  140.3022  144.3633  150.6057 LP  0  0  0  0  0  0  0  0  0  0  0  0  # atno 17342 bound_to 10162
  140.5864  143.2170  151.7333 LP  0  0  0  0  0  0  0  0  0  0  0  0  # atno 17343 bound_to 10162
  157.5156  130.7965  149.7752 LP  0  0  0  0  0  0  0  0  0  0  0  0  # atno 17370 bound_to 10713
  156.0060  130.3855  150.2430 LP  0  0  0  0  0  0  0  0  0  0  0  0  # atno 17371 bound_to 10713
  140.3680  134.7631  157.4579 LP  0  0  0  0  0  0  0  0  0  0  0  0  # atno 17394 bound_to 11000
  140.0733  134.5832  155.8618 LP  0  0  0  0  0  0  0  0  0  0  0  0  # atno 17395 bound_to 11000

$$$$
