AV-unprocessed.smi:1588|AV-procd|sdf|6389|dock2
  -GOLD-   22720 7 23D 1   1.00000     0.00000
 Structure written by MMmdl.
 37 38  0  0  0  0  0  0  0  0  2 V2000
  144.0312  132.8205  149.8673 C   0  0  0  0  0  0  0  0  0  0  0  0
  143.3448  132.4508  151.1894 C   0  0  0  0  0  0  0  0  0  0  0  0
  143.9860  133.1072  152.3526 N   0  3  1  0  0  0  0  0  0  0  0  0
  145.4555  132.9292  152.4495 C   0  0  0  0  0  0  0  0  0  0  0  0
  146.0491  134.3032  152.7871 C   0  0  0  0  0  0  0  0  0  0  0  0
  144.8603  135.1190  153.2899 C   0  0  1  0  0  0  0  0  0  0  0  0
  145.0545  136.6437  153.1755 C   0  0  0  0  0  0  0  0  0  0  0  0
  146.4622  137.0260  153.2194 N   0  0  0  0  0  0  0  0  0  0  0  0
  146.9516  138.0793  153.8890 C   0  0  0  0  0  0  0  0  0  0  0  0
  146.2520  138.8518  154.5443 O   0  0  0  0  0  0  0  0  0  0  0  0
  148.2826  138.1785  153.7403 N   0  0  0  0  0  0  0  0  0  0  0  0
  149.1384  139.1649  154.2929 C   0  0  0  0  0  0  0  0  0  0  0  0
  150.5527  139.0523  154.3802 C   0  0  0  0  0  0  0  0  0  0  0  0
  151.0892  140.1253  154.9437 N   0  0  0  0  0  0  0  0  0  0  0  0
  150.0308  140.9203  155.2196 N   0  0  0  0  0  0  0  0  0  0  0  0
  148.8231  140.3763  154.8419 C   0  0  0  0  0  0  0  0  0  0  0  0
  143.7082  134.5542  152.4580 C   0  0  0  0  0  0  0  0  0  0  0  0
  150.1473  141.8209  155.6621 H   0  0  0  0  0  0  0  0  0  0  0  0
  143.5702  132.2911  149.0331 H   0  0  0  0  0  0  0  0  0  0  0  0
  145.0884  132.5540  149.8841 H   0  0  0  0  0  0  0  0  0  0  0  0
  143.9575  133.8877  149.6579 H   0  0  0  0  0  0  0  0  0  0  0  0
  142.2846  132.7057  151.1545 H   0  0  0  0  0  0  0  0  0  0  0  0
  143.4034  131.3696  151.3226 H   0  0  0  0  0  0  0  0  0  0  0  0
  145.6668  132.2075  153.2391 H   0  0  0  0  0  0  0  0  0  0  0  0
  145.8887  132.5442  151.5254 H   0  0  0  0  0  0  0  0  0  0  0  0
  146.8558  134.2439  153.5184 H   0  0  0  0  0  0  0  0  0  0  0  0
  146.4563  134.7546  151.8812 H   0  0  0  0  0  0  0  0  0  0  0  0
  144.6908  134.8533  154.3347 H   0  0  0  0  0  0  0  0  0  0  0  0
  144.6017  137.0136  152.2540 H   0  0  0  0  0  0  0  0  0  0  0  0
  144.5427  137.1502  153.9943 H   0  0  0  0  0  0  0  0  0  0  0  0
  147.1104  136.4405  152.7134 H   0  0  0  0  0  0  0  0  0  0  0  0
  148.7318  137.4803  153.1658 H   0  0  0  0  0  0  0  0  0  0  0  0
  151.1943  138.2452  154.0588 H   0  0  0  0  0  0  0  0  0  0  0  0
  147.8845  140.8879  154.9969 H   0  0  0  0  0  0  0  0  0  0  0  0
  143.7121  135.0029  151.4629 H   0  0  0  0  0  0  0  0  0  0  0  0
  142.7332  134.7409  152.9091 H   0  0  0  0  0  0  0  0  0  0  0  0
  143.5952  132.6899  153.1855 H   0  0  0  0  0  0  0  0  0  0  0  0
  1  2  1  0  0  0  0
  1 19  1  0  0  0  0
  1 20  1  0  0  0  0
  1 21  1  0  0  0  0
  2  3  1  0  0  0  0
  2 22  1  0  0  0  0
  2 23  1  0  0  0  0
  3 17  1  0  0  0  0
  3  4  1  0  0  0  0
  3 37  1  0  0  0  0
  4  5  1  0  0  0  0
  4 24  1  0  0  0  0
  4 25  1  0  0  0  0
  5  6  1  0  0  0  0
  5 26  1  0  0  0  0
  5 27  1  0  0  0  0
  6  7  1  0  0  0  0
  6 17  1  0  0  0  0
  6 28  1  0  0  0  0
  7  8  1  0  0  0  0
  7 29  1  0  0  0  0
  7 30  1  0  0  0  0
  8  9  1  0  0  0  0
  8 31  1  0  0  0  0
  9 10  2  0  0  0  0
  9 11  1  0  0  0  0
 11 12  1  0  0  0  0
 11 32  1  0  0  0  0
 12 16  2  0  0  0  0
 12 13  1  0  0  0  0
 13 14  2  0  0  0  0
 13 33  1  0  0  0  0
 14 15  1  0  0  0  0
 15 18  1  0  0  0  0
 15 16  1  0  0  0  0
 16 34  1  0  0  0  0
 17 35  1  0  0  0  0
 17 36  1  0  0  0  0
M  CHG  1   3   1
M  END
> <s_m_source_file>
AV-unprocessed.smi

> <i_m_source_file_index>
1588

> <i_lp_mmshare_version>
43012

> <i_f3d_flags>
0

> <s_epik_input>
W0NIM11bQ0gyXU4xW0NIMl1bQ0gyXVtDQEhdKFtDSDJdMSlbQ0gyXVtOSF1DKD1PKVtOSF1jMltjSF1uW25IXVtjSF0y

> <s_epik_cmdline>
J2VwaWtfcHl0aG9uJywgJy1waCcsICc3LjAnLCAnLXRuJywgJzgnLCAnLW1hJywgJzIwMCcsICctbWV0YWxfYmluZGluZycsICctaW1hZScsICc8aW5maWxlLm1hZT4nLCAnLW9tYWUnLCAnPG91dGZpbGUubWFlPic=

> <r_lp_tautomer_probability>
0.5

> <r_epik_Ionization_Penalty>
0.000628417

> <r_epik_Ionization_Penalty_Charging>
0.000582718

> <r_epik_Ionization_Penalty_Neutral>
4.56984e-05

> <r_epik_State_Penalty>
0.000366292

> <r_epik_Charging_Adjusted_Penalty>
0.00094901

> <i_epik_Tot_Q>
1

> <i_epik_Tot_abs_Q>
1

> <r_epik_Metal_State_Penalty>
-0

> <b_epik_Metal_Only>
0

> <s_lp_Force_Field>
OPLS_2005

> <r_lp_Energy>
30.3182

> <b_lp_Chiralities_Consistent>
1

> <s_lp_Variant>
AV-unprocessed.smi:1588-1

> <Gold.Version>
5.8.1

> <Gold.Id.Protein>
6NUR|6NUR_protein|mol2

> <Gold.PLP.Fitness>
37.6656

> <Gold.PLP.PLP>
-24.4603

> <Gold.PLP.part.hbond>
-3.9387

> <Gold.PLP.part.metal>
0.0000

> <Gold.PLP.part.buried>
-5.4838

> <Gold.PLP.part.nonpolar>
-17.1028

> <Gold.PLP.part.repulsive>
0.6294

> <Gold.PLP.ligand.clash>
0.0000

> <Gold.PLP.ligand.torsion>
0.7077

> <Gold.PLP.Chemscore.Hbond>
4.8600

> <Gold.PLP.Chemscore.CHOScore>
0.0000

> <Gold.PLP.Chemscore.Metal>
0.0000

> <Gold.Chemscore.Hbonds>
donor molecule, donor type, donor heavy atom, donor atom, acceptor molecule, acceptor atom, score
      L1  H     3    37       P1 10957  1.89
      L1  H     8    31       P1  7948  0.97
      L1  H    11    32       P1  7948  1.00
      P1  H  7989  7998       L1    14  0.85

> <Gold.PLP.Chemscore.Internal.Correction>
0.0407

> <Gold.Rescore>
     Score         DG    S(hbond)    S(metal)    S(lipo)     H(rot)  DE(clash)    DE(int)     intcor
     15.61     -17.26       2.85        0.00      53.66       1.58       0.03       1.61       ----

> <Gold.Chemscore.Fitness>
15.6133

> <Gold.Chemscore.DG>
-17.2588

> <Gold.Chemscore.ZeroCoef>
-5.4800

> <Gold.Chemscore.Hbond>
2.8542

> <Gold.Chemscore.Metal>
0.0000

> <Gold.Chemscore.Lipo>
53.6625

> <Gold.Chemscore.Internal_Hbond>
0.0000

> <Gold.Chemscore.DEClash>
0.0324

> <Gold.Chemscore.DEInternal>
1.6131

> <Gold.Chemscore.Rot>
1.5753

> <Gold.Chemscore.Internal.Correction>
   9.000000E+99

> <Gold.Chemscore.Hbonds>
donor molecule, donor type, donor heavy atom, donor atom, acceptor molecule, acceptor atom, score
      L1  H     3    37       P1 10957  0.27
      L1  H     8    31       P1  7948  0.86
      L1  H    11    32       P1  7948  1.00
      P1  H  7989  7998       L1    14  0.04

> <Gold.Chemscore.Hbond.Weighted>
-9.5330

> <Gold.Chemscore.Metal.Weighted>
-0.0000

> <Gold.Chemscore.Lipo.Weighted>
-6.2785

> <Gold.Chemscore.Internal_Hbond.Weighted>
0.0000

> <Gold.Chemscore.DEClash.Weighted>
0.0324

> <Gold.Chemscore.DEInternal.Weighted>
1.6131

> <Gold.Chemscore.Rot.Weighted>
4.0328

> <Gold.Chemscore.Internal.Correction.Weighted>
   9.000000E+99

> <Gold.Protein.RotatedTorsions>
[ 6907 6896 6895 6894 ] final  -39.29 input  -60.11 | X-H torsion
[ 7974 7965 7964 7962 ] final  -72.83 input  175.53 | X-H torsion
[ 8008 7997 7996 7995 ] final   36.14 input   59.86 | X-H torsion
[ 10167 10162 10161 10158 ] final   43.71 input  -65.29 | X-H torsion
[ 10718 10713 10712 10709 ] final   62.28 input   66.30 | X-H torsion
[ 10763 10752 10751 10750 ] final  -66.24 input  -60.55 | X-H torsion
[ 11005 11000 10999 10996 ] final  -44.69 input  -57.11 | X-H torsion

> <Gold.Protein.ActiveResidues>
 VAL166  LYS551  ARG553  GLY616  TRP617  ASP618  TYR619  PRO620  LYS621  CYS622 
 ASP623  PHE694  ASN695  SER759  ASP760  ASP761  ALA762  ILE779  LEU786  VAL792 
 PHE793  MET794  SER795  GLU796  ALA797  LYS798  CYS799  TRP800  GLU811  SER814 

> <Gold.Protein.RotatedAtoms>
  150.9921  134.9253  159.7905 H   0  0  0  0  0  0  0  0  0  0  0  0  # atno 6907 bound_to 6896
  152.5254  134.3268  159.9178 H   0  0  0  0  0  0  0  0  0  0  0  0  # atno 6908 bound_to 6896
  151.3274  133.3973  159.2694 H   0  0  0  0  0  0  0  0  0  0  0  0  # atno 6909 bound_to 6896
  145.6600  140.9255  143.0939 H   0  0  0  0  0  0  0  0  0  0  0  0  # atno 7974 bound_to 7965
  155.1825  140.3301  155.4372 H   0  0  0  0  0  0  0  0  0  0  0  0  # atno 8008 bound_to 7997
  156.2471  140.1924  156.6873 H   0  0  0  0  0  0  0  0  0  0  0  0  # atno 8009 bound_to 7997
  154.6261  140.0589  156.9661 H   0  0  0  0  0  0  0  0  0  0  0  0  # atno 8010 bound_to 7997
  140.3416  144.2463  150.6155 H   0  0  0  0  0  0  0  0  0  0  0  0  # atno 10167 bound_to 10162
  157.5889  130.9041  149.9567 H   0  0  0  0  0  0  0  0  0  0  0  0  # atno 10718 bound_to 10713
  154.3569  135.6124  153.5671 H   0  0  0  0  0  0  0  0  0  0  0  0  # atno 10763 bound_to 10752
  152.9795  135.5806  154.4678 H   0  0  0  0  0  0  0  0  0  0  0  0  # atno 10764 bound_to 10752
  154.4409  135.2850  155.1825 H   0  0  0  0  0  0  0  0  0  0  0  0  # atno 10765 bound_to 10752
  141.0467  133.6758  156.2907 H   0  0  0  0  0  0  0  0  0  0  0  0  # atno 11005 bound_to 11000
  144.7092  139.8437  143.7420 LP  0  0  0  0  0  0  0  0  0  0  0  0  # atno 17320 bound_to 7965
  146.1133  139.4141  143.0274 LP  0  0  0  0  0  0  0  0  0  0  0  0  # atno 17321 bound_to 7965
  140.5304  143.2245  151.8248 LP  0  0  0  0  0  0  0  0  0  0  0  0  # atno 17342 bound_to 10162
  139.4839  144.4728  151.9404 LP  0  0  0  0  0  0  0  0  0  0  0  0  # atno 17343 bound_to 10162
  156.0941  130.3661  150.0339 LP  0  0  0  0  0  0  0  0  0  0  0  0  # atno 17370 bound_to 10713
  156.8465  130.9444  151.3628 LP  0  0  0  0  0  0  0  0  0  0  0  0  # atno 17371 bound_to 10713
  140.6134  134.5435  157.5537 LP  0  0  0  0  0  0  0  0  0  0  0  0  # atno 17394 bound_to 11000
  139.9317  134.7951  156.0913 LP  0  0  0  0  0  0  0  0  0  0  0  0  # atno 17395 bound_to 11000

$$$$
