AV-unprocessed.smi:2855|AV-procd|sdf|10990|dock4
  -GOLD-   2272015443D 1   1.00000     0.00000
 Structure written by MMmdl.
 46 47  0  0  0  0  0  0  0  0  2 V2000
  147.6104  135.9051  163.0339 C   0  0  0  0  0  0  0  0  0  0  0  0
  147.3636  134.5710  162.3072 C   0  0  1  0  0  0  0  0  0  0  0  0
  145.9130  134.0773  162.4453 C   0  0  0  0  0  0  0  0  0  0  0  0
  144.9323  134.9051  161.5999 C   0  0  0  0  0  0  0  0  0  0  0  0
  145.3312  134.9341  160.1049 C   0  0  1  0  0  0  0  0  0  0  0  0
  144.3035  135.6963  159.2146 C   0  0  0  0  0  0  0  0  0  0  0  0
  144.2277  137.2088  159.4956 C   0  0  0  0  0  0  0  0  0  0  0  0
  142.9008  135.0658  159.2653 C   0  0  0  0  0  0  0  0  0  0  0  0
  146.7969  135.4306  159.9455 C   0  0  2  0  0  0  0  0  0  0  0  0
  147.2409  135.3183  158.5564 N   0  0  0  0  0  0  0  0  0  0  0  0
  148.5016  135.4414  158.1129 C   0  0  0  0  0  0  0  0  0  0  0  0
  149.4574  135.7006  158.8451 O   0  0  0  0  0  0  0  0  0  0  0  0
  148.6916  135.2722  156.5991 C   0  0  0  0  0  0  0  0  0  0  0  0
  149.2935  136.4479  155.9494 N   0  0  0  0  0  0  0  0  0  0  0  0
  148.5282  137.6260  155.8917 C   0  0  0  0  0  0  0  0  0  0  0  0
  148.9956  138.7493  155.3147 C   0  0  0  0  0  0  0  0  0  0  0  0
  150.3350  138.7243  154.7401 C   0  0  0  0  0  0  0  0  0  0  0  0
  150.7767  139.7401  154.2066 O   0  0  0  0  0  0  0  0  0  0  0  0
  151.0400  137.5583  154.8245 N   0  5  0  0  0  0  0  0  0  0  0  0
  150.5520  136.4235  155.4152 C   0  0  0  0  0  0  0  0  0  0  0  0
  151.2051  135.3813  155.4805 O   0  0  0  0  0  0  0  0  0  0  0  0
  147.7713  134.6162  160.8229 C   0  0  0  0  0  0  0  0  0  0  0  0
  147.0151  136.7176  162.6179 H   0  0  0  0  0  0  0  0  0  0  0  0
  148.6583  136.1982  162.9658 H   0  0  0  0  0  0  0  0  0  0  0  0
  147.3622  135.8238  164.0926 H   0  0  0  0  0  0  0  0  0  0  0  0
  148.0036  133.8353  162.7962 H   0  0  0  0  0  0  0  0  0  0  0  0
  145.8586  133.0345  162.1302 H   0  0  0  0  0  0  0  0  0  0  0  0
  145.6084  134.0924  163.4922 H   0  0  0  0  0  0  0  0  0  0  0  0
  143.9356  134.4825  161.7206 H   0  0  0  0  0  0  0  0  0  0  0  0
  144.8819  135.9180  161.9980 H   0  0  0  0  0  0  0  0  0  0  0  0
  145.3227  133.8974  159.7630 H   0  0  0  0  0  0  0  0  0  0  0  0
  144.6230  135.5891  158.1784 H   0  0  0  0  0  0  0  0  0  0  0  0
  143.8447  137.4169  160.4943 H   0  0  0  0  0  0  0  0  0  0  0  0
  143.5619  137.7001  158.7857 H   0  0  0  0  0  0  0  0  0  0  0  0
  145.2007  137.6896  159.4028 H   0  0  0  0  0  0  0  0  0  0  0  0
  142.4320  135.1919  160.2410 H   0  0  0  0  0  0  0  0  0  0  0  0
  142.9385  133.9985  159.0457 H   0  0  0  0  0  0  0  0  0  0  0  0
  142.2418  135.5260  158.5286 H   0  0  0  0  0  0  0  0  0  0  0  0
  146.8532  136.4691  160.2717 H   0  0  0  0  0  0  0  0  0  0  0  0
  146.5274  135.1124  157.8728 H   0  0  0  0  0  0  0  0  0  0  0  0
  149.3025  134.3883  156.4048 H   0  0  0  0  0  0  0  0  0  0  0  0
  147.7185  135.0495  156.1596 H   0  0  0  0  0  0  0  0  0  0  0  0
  147.5499  137.5621  156.3449 H   0  0  0  0  0  0  0  0  0  0  0  0
  148.3954  139.6466  155.2798 H   0  0  0  0  0  0  0  0  0  0  0  0
  148.7820  135.0166  160.7294 H   0  0  0  0  0  0  0  0  0  0  0  0
  147.8192  133.5932  160.4460 H   0  0  0  0  0  0  0  0  0  0  0  0
  1  2  1  0  0  0  0
  1 23  1  0  0  0  0
  1 24  1  0  0  0  0
  1 25  1  0  0  0  0
  2 22  1  0  0  0  0
  2  3  1  0  0  0  0
  2 26  1  0  0  0  0
  3  4  1  0  0  0  0
  3 27  1  0  0  0  0
  3 28  1  0  0  0  0
  4  5  1  0  0  0  0
  4 29  1  0  0  0  0
  4 30  1  0  0  0  0
  5  6  1  0  0  0  0
  5  9  1  0  0  0  0
  5 31  1  0  0  0  0
  6  7  1  0  0  0  0
  6  8  1  0  0  0  0
  6 32  1  0  0  0  0
  7 33  1  0  0  0  0
  7 34  1  0  0  0  0
  7 35  1  0  0  0  0
  8 36  1  0  0  0  0
  8 37  1  0  0  0  0
  8 38  1  0  0  0  0
  9 10  1  0  0  0  0
  9 22  1  0  0  0  0
  9 39  1  0  0  0  0
 10 11  1  0  0  0  0
 10 40  1  0  0  0  0
 11 12  2  0  0  0  0
 11 13  1  0  0  0  0
 13 14  1  0  0  0  0
 13 41  1  0  0  0  0
 13 42  1  0  0  0  0
 14 20  1  0  0  0  0
 14 15  1  0  0  0  0
 15 16  2  0  0  0  0
 15 43  1  0  0  0  0
 16 17  1  0  0  0  0
 16 44  1  0  0  0  0
 17 18  2  0  0  0  0
 17 19  1  0  0  0  0
 19 20  1  0  0  0  0
 20 21  2  0  0  0  0
 22 45  1  0  0  0  0
 22 46  1  0  0  0  0
M  CHG  1  19  -1
M  END
> <s_m_source_file>
AV-unprocessed.smi

> <i_m_source_file_index>
2855

> <i_lp_mmshare_version>
43012

> <i_f3d_flags>
0

> <s_epik_input>
W0NIM11bQ0BASF0xW0NIMl1bQ0gyXVtDQEBIXShbQ0hdKFtDSDNdKVtDSDNdKVtDQEhdKFtDSDJdMSlbTkhdQyg9TylbQ0gyXW4yW2NIXVtjSF1jKD1PKVtuSF1jMj1P

> <s_epik_cmdline>
J2VwaWtfcHl0aG9uJywgJy1waCcsICc3LjAnLCAnLXRuJywgJzgnLCAnLW1hJywgJzIwMCcsICctbWV0YWxfYmluZGluZycsICctaW1hZScsICc8aW5maWxlLm1hZT4nLCAnLW9tYWUnLCAnPG91dGZpbGUubWFlPic=

> <r_lp_tautomer_probability>
0.999537

> <r_epik_Ionization_Penalty>
3.12102

> <r_epik_Ionization_Penalty_Charging>
2.9581e-08

> <r_epik_Ionization_Penalty_Neutral>
3.12102

> <r_epik_State_Penalty>
3.12011

> <r_epik_Charging_Adjusted_Penalty>
3.12011

> <i_epik_Tot_Q>
-1

> <i_epik_Tot_abs_Q>
1

> <r_epik_Metal_State_Penalty>
0.463583

> <b_epik_Metal_Only>
1

> <s_lp_Force_Field>
OPLS_2005

> <r_lp_Energy>
25.2964

> <b_lp_Chiralities_Consistent>
1

> <s_lp_Variant>
AV-unprocessed.smi:2855-14

> <Gold.Version>
5.8.1

> <Gold.Id.Protein>
6NUR|6NUR_protein|mol2

> <Gold.PLP.Fitness>
34.4073

> <Gold.PLP.PLP>
-25.8397

> <Gold.PLP.part.hbond>
-3.0000

> <Gold.PLP.part.metal>
0.0000

> <Gold.PLP.part.buried>
-5.1711

> <Gold.PLP.part.nonpolar>
-18.8495

> <Gold.PLP.part.repulsive>
0.9068

> <Gold.PLP.ligand.clash>
0.0000

> <Gold.PLP.ligand.torsion>
0.2487

> <Gold.PLP.Chemscore.Hbond>
3.0000

> <Gold.PLP.Chemscore.CHOScore>
0.0000

> <Gold.PLP.Chemscore.Metal>
0.0000

> <Gold.Chemscore.Hbonds>
donor molecule, donor type, donor heavy atom, donor atom, acceptor molecule, acceptor atom, score
      P1  H  6896  6908       L1    12  1.00
      P1  H  7989  7998       L1    18  1.00
      P1  H 10752 10763       L1    21  0.86

> <Gold.PLP.Chemscore.Internal.Correction>
0.0649

> <Gold.Rescore>
     Score         DG    S(hbond)    S(metal)    S(lipo)     H(rot)  DE(clash)    DE(int)     intcor
     15.67     -17.34       2.98        0.00      55.86       1.81       0.00       1.67       ----

> <Gold.Chemscore.Fitness>
15.6681

> <Gold.Chemscore.DG>
-17.3422

> <Gold.Chemscore.ZeroCoef>
-5.4800

> <Gold.Chemscore.Hbond>
2.9820

> <Gold.Chemscore.Metal>
0.0000

> <Gold.Chemscore.Lipo>
55.8616

> <Gold.Chemscore.Internal_Hbond>
0.0000

> <Gold.Chemscore.DEClash>
0.0000

> <Gold.Chemscore.DEInternal>
1.6741

> <Gold.Chemscore.Rot>
1.8100

> <Gold.Chemscore.Internal.Correction>
   9.000000E+99

> <Gold.Chemscore.Hbonds>
donor molecule, donor type, donor heavy atom, donor atom, acceptor molecule, acceptor atom, score
      P1  H  6896  6908       L1    12  1.00
      P1  H  7989  7998       L1    18  0.97
      P1  H 10752 10763       L1    21  0.80

> <Gold.Chemscore.Hbond.Weighted>
-9.9598

> <Gold.Chemscore.Metal.Weighted>
-0.0000

> <Gold.Chemscore.Lipo.Weighted>
-6.5358

> <Gold.Chemscore.Internal_Hbond.Weighted>
0.0000

> <Gold.Chemscore.DEClash.Weighted>
0.0000

> <Gold.Chemscore.DEInternal.Weighted>
1.6741

> <Gold.Chemscore.Rot.Weighted>
4.6335

> <Gold.Chemscore.Internal.Correction.Weighted>
   9.000000E+99

> <Gold.Protein.RotatedTorsions>
[ 6907 6896 6895 6894 ] final -179.89 input  -60.11 | X-H torsion
[ 7974 7965 7964 7962 ] final   76.52 input  175.53 | X-H torsion
[ 8008 7997 7996 7995 ] final   65.88 input   59.86 | X-H torsion
[ 10167 10162 10161 10158 ] final  -93.76 input  -65.29 | X-H torsion
[ 10718 10713 10712 10709 ] final   25.83 input   66.30 | X-H torsion
[ 10763 10752 10751 10750 ] final   91.72 input  -60.55 | X-H torsion
[ 11005 11000 10999 10996 ] final  -39.81 input  -57.11 | X-H torsion

> <Gold.Protein.ActiveResidues>
 VAL166  LYS551  ARG553  GLY616  TRP617  ASP618  TYR619  PRO620  LYS621  CYS622 
 ASP623  PHE694  ASN695  SER759  ASP760  ASP761  ALA762  ILE779  LEU786  VAL792 
 PHE793  MET794  SER795  GLU796  ALA797  LYS798  CYS799  TRP800  GLU811  SER814 

> <Gold.Protein.RotatedAtoms>
  151.6608  133.3317  159.3173 H   0  0  0  0  0  0  0  0  0  0  0  0  # atno 6907 bound_to 6896
  150.7914  134.6945  159.6525 H   0  0  0  0  0  0  0  0  0  0  0  0  # atno 6908 bound_to 6896
  152.3995  134.6314  160.0128 H   0  0  0  0  0  0  0  0  0  0  0  0  # atno 6909 bound_to 6896
  145.7017  139.2585  143.1701 H   0  0  0  0  0  0  0  0  0  0  0  0  # atno 7974 bound_to 7965
  155.6687  140.3497  155.4810 H   0  0  0  0  0  0  0  0  0  0  0  0  # atno 8008 bound_to 7997
  155.9707  140.1155  157.0838 H   0  0  0  0  0  0  0  0  0  0  0  0  # atno 8009 bound_to 7997
  154.4165  140.1157  156.5289 H   0  0  0  0  0  0  0  0  0  0  0  0  # atno 8010 bound_to 7997
  140.3214  143.3047  152.0042 H   0  0  0  0  0  0  0  0  0  0  0  0  # atno 10167 bound_to 10162
  157.1987  130.6880  149.6179 H   0  0  0  0  0  0  0  0  0  0  0  0  # atno 10718 bound_to 10713
  153.2113  135.4387  155.0383 H   0  0  0  0  0  0  0  0  0  0  0  0  # atno 10763 bound_to 10752
  154.8202  135.3334  154.7064 H   0  0  0  0  0  0  0  0  0  0  0  0  # atno 10764 bound_to 10752
  153.7502  135.6999  153.5003 H   0  0  0  0  0  0  0  0  0  0  0  0  # atno 10765 bound_to 10752
  141.0129  133.6899  156.2236 H   0  0  0  0  0  0  0  0  0  0  0  0  # atno 11005 bound_to 11000
  146.0792  140.7783  142.9650 LP  0  0  0  0  0  0  0  0  0  0  0  0  # atno 17320 bound_to 7965
  144.6966  140.3462  143.7190 LP  0  0  0  0  0  0  0  0  0  0  0  0  # atno 17321 bound_to 7965
  139.4873  144.6308  151.7074 LP  0  0  0  0  0  0  0  0  0  0  0  0  # atno 17342 bound_to 10162
  140.5480  144.0472  150.6115 LP  0  0  0  0  0  0  0  0  0  0  0  0  # atno 17343 bound_to 10162
  155.9703  130.4590  150.6020 LP  0  0  0  0  0  0  0  0  0  0  0  0  # atno 17370 bound_to 10713
  157.3789  131.0777  151.1494 LP  0  0  0  0  0  0  0  0  0  0  0  0  # atno 17371 bound_to 10713
  140.6704  134.4874  157.5587 LP  0  0  0  0  0  0  0  0  0  0  0  0  # atno 17394 bound_to 11000
  139.9100  134.8365  156.1563 LP  0  0  0  0  0  0  0  0  0  0  0  0  # atno 17395 bound_to 11000

$$$$
