#       Name:                AV-unprocessed.smi:3295
#       Creating user name   scv26
#       Creation time:       Fri Mar 27 18:57:11 2020


#       File generated by GOLD software.
#

@<TRIPOS>MOLECULE
AV-unprocessed.smi:3295
    42    43     1
SMALL
NO_CHARGES


@<TRIPOS>ATOM
      1 ****        -4.0538  -0.5029  -1.5381 C.3            1 S1                 0.0000
      2 ****        -3.9261   0.9302  -1.0516 C.ar           1 S1                 0.0000
      3 ****        -5.0592   1.7719  -1.0393 C.ar           1 S1                 0.0000
      4 ****        -5.0327   3.0533  -0.6194 N.ar           1 S1                 0.0000
      5 ****        -3.8556   3.5473  -0.1845 C.ar           1 S1                 0.0000
      6 ****        -2.6634   2.7979  -0.1537 C.ar           1 S1                 0.0000
      7 ****        -2.6879   1.4571  -0.6090 C.ar           1 S1                 0.0000
      8 ****        -1.5459   0.6058  -0.6055 N.am           1 S1                 0.0000
      9 ****        -0.2428   0.9372  -0.6010 C.2            1 S1                 0.0000
     10 ****         0.2031   2.0843  -0.5974 O.2            1 S1                 0.0000
     11 ****         0.5309  -0.1572  -0.6191 N.am           1 S1                 0.0000
     12 ****         1.9913  -0.1586  -0.6028 C.3            1 S1                 0.0000
     13 ****         2.5849  -0.3318   0.8192 C.3            1 S1                 0.0000
     14 ****         2.4627   0.8981   1.5068 O.3            1 S1                 0.0000
     15 ****         1.9841  -1.4898   1.6326 C.3            1 S1                 0.0000
     16 ****         2.7273  -2.7374   1.1449 C.3            1 S1                 0.0000
     17 ****         4.0972  -2.2471   0.6504 C.3            1 S1                 0.0000
     18 ****         4.0704  -0.7152   0.7530 C.3            1 S1                 0.0000
     19 ****        -5.0744  -0.7259  -1.8503 H              1 S1                 0.0000
     20 ****        -3.7844  -1.2001  -0.7444 H              1 S1                 0.0000
     21 ****        -3.3952  -0.6761  -2.3896 H              1 S1                 0.0000
     22 ****        -6.0190   1.4077  -1.3753 H              1 S1                 0.0000
     23 ****        -3.8647   4.5720   0.1565 H              1 S1                 0.0000
     24 ****        -1.7669   3.2611   0.2278 H              1 S1                 0.0000
     25 ****        -1.7474  -0.3801  -0.6823 H              1 S1                 0.0000
     26 ****         0.0784  -1.0592  -0.6286 H              1 S1                 0.0000
     27 ****         2.2980  -0.9951  -1.2313 H              1 S1                 0.0000
     28 ****         2.3942   0.7334  -1.0862 H              1 S1                 0.0000
     29 ****         2.8540   0.8056   2.3618 H              1 S1                 0.0000
     30 ****         2.2052  -1.3462   2.6916 H              1 S1                 0.0000
     31 ****         0.9014  -1.5834   1.5480 H              1 S1                 0.0000
     32 ****         2.8169  -3.4881   1.9306 H              1 S1                 0.0000
     33 ****         2.1815  -3.1936   0.3182 H              1 S1                 0.0000
     34 ****         4.9130  -2.6641   1.2419 H              1 S1                 0.0000
     35 ****         4.2530  -2.5587  -0.3830 H              1 S1                 0.0000
     36 ****         4.5998  -0.2298  -0.0679 H              1 S1                 0.0000
     37 ****         4.5735  -0.4222   1.6762 H              1 S1                 0.0000
     38 ****        -5.8580   3.6180  -0.6302 LP             1 S1                 0.0000
     39 ****        -0.4230   2.8641  -0.5977 LP             1 S1                 0.0000
     40 ****         1.1914   2.2365  -0.5942 LP             1 S1                 0.0000
     41 ****         1.4961   1.1359   1.6026 LP             1 S1                 0.0000
     42 ****         2.9340   1.6176   0.9967 LP             1 S1                 0.0000
@<TRIPOS>BOND
    1    1    2 1     
    2    1   19 1     
    3    1   20 1     
    4    1   21 1     
    5    2    7 ar    
    6    2    3 ar    
    7    3    4 ar    
    8    3   22 1     
    9    4    5 ar    
   10    5    6 ar    
   11    5   23 1     
   12    6    7 ar    
   13    6   24 1     
   14    7    8 1     
   15    8    9 am    
   16    8   25 1     
   17    9   10 2     
   18    9   11 am    
   19   11   12 1     
   20   11   26 1     
   21   12   13 1     
   22   12   27 1     
   23   12   28 1     
   24   13   18 1     
   25   13   14 1     
   26   13   15 1     
   27   14   29 1     
   28   15   16 1     
   29   15   30 1     
   30   15   31 1     
   31   16   17 1     
   32   16   32 1     
   33   16   33 1     
   34   17   18 1     
   35   17   34 1     
   36   17   35 1     
   37   18   36 1     
   38   18   37 1     
   39    4   38 1     
   40   10   39 1     
   41   10   40 1     
   42   14   41 1     
   43   14   42 1     
@<TRIPOS>SUBSTRUCTURE
      1 S1             1
@<TRIPOS>SET
LONE_PAIRS      STATIC     ATOMS    <user>   **** ""
5 38 39 40 41 42
DONOR_HYDROGENS      STATIC     ATOMS    <user>   **** ""
3 25 26 29
ATOM$BLUE        STATIC     ATOMS    COLORGROUP SYSTEM
5 38 39 40 41 42
ATOM$RED        STATIC     ATOMS    COLORGROUP SYSTEM
3 25 26 29
