AV-unprocessed.smi:878|AV-procd|sdf|4032|dock1
  -GOLD-   22720 1523D 1   1.00000     0.00000
 Structure written by MMmdl.
 32 33  0  0  0  0  0  0  0  0  2 V2000
  151.3601  144.8434  158.0908 C   0  0  0  0  0  0  0  0  0  0  0  0
  151.5145  145.0105  159.8900 S   0  0  0  0  0  0  0  0  0  0  0  0
  152.3889  143.5986  160.5022 C   0  0  0  0  0  0  0  0  0  0  0  0
  152.9465  142.6396  159.6304 C   0  0  0  0  0  0  0  0  0  0  0  0
  153.6336  141.5251  160.1507 C   0  0  0  0  0  0  0  0  0  0  0  0
  153.7743  141.3563  161.5510 C   0  0  0  0  0  0  0  0  0  0  0  0
  154.4323  140.3010  162.1434 O   0  0  0  0  0  0  0  0  0  0  0  0
  155.0261  139.3179  161.3067 C   0  0  0  0  0  0  0  0  0  0  0  0
  154.0006  138.2120  161.0095 C   0  0  0  0  0  0  0  0  0  0  0  0
  153.3575  138.4009  159.7012 N   0  0  0  0  0  0  0  0  0  0  0  0
  151.9575  138.2946  159.6492 C   0  0  0  0  0  0  0  0  0  0  0  0
  151.2703  138.4435  158.5002 C   0  0  0  0  0  0  0  0  0  0  0  0
  149.5484  138.3042  158.4669 Cl  0  0  0  0  0  0  0  0  0  0  0  0
  152.0258  138.7238  157.2809 C   0  0  0  0  0  0  0  0  0  0  0  0
  151.4296  138.8686  156.2146 O   0  0  0  0  0  0  0  0  0  0  0  0
  153.3842  138.8132  157.3836 N   0  5  0  0  0  0  0  0  0  0  0  0
  154.0654  138.6568  158.5606 C   0  0  0  0  0  0  0  0  0  0  0  0
  155.2921  138.7391  158.6246 O   0  0  0  0  0  0  0  0  0  0  0  0
  153.2139  142.3218  162.4113 C   0  0  0  0  0  0  0  0  0  0  0  0
  152.5231  143.4338  161.8938 C   0  0  0  0  0  0  0  0  0  0  0  0
  150.8810  145.7296  157.6748 H   0  0  0  0  0  0  0  0  0  0  0  0
  150.7524  143.9756  157.8345 H   0  0  0  0  0  0  0  0  0  0  0  0
  152.3429  144.7362  157.6315 H   0  0  0  0  0  0  0  0  0  0  0  0
  152.8553  142.7388  158.5603 H   0  0  0  0  0  0  0  0  0  0  0  0
  154.0469  140.8131  159.4527 H   0  0  0  0  0  0  0  0  0  0  0  0
  155.3761  139.7651  160.3747 H   0  0  0  0  0  0  0  0  0  0  0  0
  155.8870  138.8781  161.8119 H   0  0  0  0  0  0  0  0  0  0  0  0
  154.5053  137.2448  161.0211 H   0  0  0  0  0  0  0  0  0  0  0  0
  153.2668  138.1546  161.8147 H   0  0  0  0  0  0  0  0  0  0  0  0
  151.4813  138.0813  160.5952 H   0  0  0  0  0  0  0  0  0  0  0  0
  153.3124  142.2056  163.4807 H   0  0  0  0  0  0  0  0  0  0  0  0
  152.0979  144.1611  162.5696 H   0  0  0  0  0  0  0  0  0  0  0  0
  1  2  1  0  0  0  0
  1 21  1  0  0  0  0
  1 22  1  0  0  0  0
  1 23  1  0  0  0  0
  2  3  1  0  0  0  0
  3 20  1  0  0  0  0
  3  4  2  0  0  0  0
  4  5  1  0  0  0  0
  4 24  1  0  0  0  0
  5  6  2  0  0  0  0
  5 25  1  0  0  0  0
  6  7  1  0  0  0  0
  6 19  1  0  0  0  0
  7  8  1  0  0  0  0
  8  9  1  0  0  0  0
  8 26  1  0  0  0  0
  8 27  1  0  0  0  0
  9 10  1  0  0  0  0
  9 28  1  0  0  0  0
  9 29  1  0  0  0  0
 10 17  1  0  0  0  0
 10 11  1  0  0  0  0
 11 12  2  0  0  0  0
 11 30  1  0  0  0  0
 12 13  1  0  0  0  0
 12 14  1  0  0  0  0
 14 15  2  0  0  0  0
 14 16  1  0  0  0  0
 16 17  1  0  0  0  0
 17 18  2  0  0  0  0
 19 20  2  0  0  0  0
 19 31  1  0  0  0  0
 20 32  1  0  0  0  0
M  CHG  1  16  -1
M  END
> <s_m_source_file>
AV-unprocessed.smi

> <i_m_source_file_index>
878

> <i_lp_mmshare_version>
43012

> <i_f3d_flags>
0

> <s_epik_input>
W0NIM11TYzFbY0hdW2NIXWMoW2NIXVtjSF0xKU9bQ0gyXVtDSDJdbjJbY0hdYyhDbCljKD1PKVtuSF1jMj1P

> <s_epik_cmdline>
J2VwaWtfcHl0aG9uJywgJy1waCcsICc3LjAnLCAnLXRuJywgJzgnLCAnLW1hJywgJzIwMCcsICctbWV0YWxfYmluZGluZycsICctaW1hZScsICc8aW5maWxlLm1hZT4nLCAnLW9tYWUnLCAnPG91dGZpbGUubWFlPic=

> <r_lp_tautomer_probability>
1

> <r_epik_Ionization_Penalty>
1.65349

> <r_epik_Ionization_Penalty_Charging>
1.22116e-08

> <r_epik_Ionization_Penalty_Neutral>
1.65349

> <r_epik_State_Penalty>
1.75578

> <r_epik_Charging_Adjusted_Penalty>
1.75578

> <i_epik_Tot_Q>
-1

> <i_epik_Tot_abs_Q>
1

> <r_epik_Metal_State_Penalty>
0.0107816

> <b_epik_Metal_Only>
0

> <s_lp_Force_Field>
OPLS_2005

> <r_lp_Energy>
23.8138

> <b_lp_Chiralities_Consistent>
1

> <s_lp_Variant>
AV-unprocessed.smi:878-2

> <Gold.Version>
5.8.1

> <Gold.Id.Protein>
6NUR|6NUR_protein|mol2

> <Gold.PLP.Fitness>
48.2730

> <Gold.PLP.PLP>
-42.3723

> <Gold.PLP.part.hbond>
-1.8799

> <Gold.PLP.part.metal>
0.0000

> <Gold.PLP.part.buried>
-3.8523

> <Gold.PLP.part.nonpolar>
-35.9534

> <Gold.PLP.part.repulsive>
0.0090

> <Gold.PLP.ligand.clash>
0.0000

> <Gold.PLP.ligand.torsion>
0.6165

> <Gold.PLP.Chemscore.Hbond>
2.3680

> <Gold.PLP.Chemscore.CHOScore>
0.0000

> <Gold.PLP.Chemscore.Metal>
0.0000

> <Gold.Chemscore.Hbonds>
donor molecule, donor type, donor heavy atom, donor atom, acceptor molecule, acceptor atom, score
      P1  H  7997  8008       L1    18  0.20
      P1  H  7997  8009       L1    16  1.90

> <Gold.PLP.Chemscore.Internal.Correction>
0.0296

> <Gold.Rescore>
     Score         DG    S(hbond)    S(metal)    S(lipo)     H(rot)  DE(clash)    DE(int)     intcor
     14.03     -14.71       0.12        0.00     117.07       1.91       0.17       0.52       ----

> <Gold.Chemscore.Fitness>
14.0259

> <Gold.Chemscore.DG>
-14.7105

> <Gold.Chemscore.ZeroCoef>
-5.4800

> <Gold.Chemscore.Hbond>
0.1246

> <Gold.Chemscore.Metal>
0.0000

> <Gold.Chemscore.Lipo>
117.0685

> <Gold.Chemscore.Internal_Hbond>
0.0000

> <Gold.Chemscore.DEClash>
0.1685

> <Gold.Chemscore.DEInternal>
0.5161

> <Gold.Chemscore.Rot>
1.9073

> <Gold.Chemscore.Internal.Correction>
   9.000000E+99

> <Gold.Chemscore.Hbonds>
donor molecule, donor type, donor heavy atom, donor atom, acceptor molecule, acceptor atom, score
      P1  H  7997  8008       L1    18  0.14
      P1  H  7997  8009       L1    16  0.21

> <Gold.Chemscore.Hbond.Weighted>
-0.4161

> <Gold.Chemscore.Metal.Weighted>
-0.0000

> <Gold.Chemscore.Lipo.Weighted>
-13.6970

> <Gold.Chemscore.Internal_Hbond.Weighted>
0.0000

> <Gold.Chemscore.DEClash.Weighted>
0.1685

> <Gold.Chemscore.DEInternal.Weighted>
0.5161

> <Gold.Chemscore.Rot.Weighted>
4.8826

> <Gold.Chemscore.Internal.Correction.Weighted>
   9.000000E+99

> <Gold.Protein.RotatedTorsions>
[ 6907 6896 6895 6894 ] final  157.81 input  -60.11 | X-H torsion
[ 7974 7965 7964 7962 ] final   40.70 input  175.53 | X-H torsion
[ 8008 7997 7996 7995 ] final  179.74 input   59.86 | X-H torsion
[ 10167 10162 10161 10158 ] final  -30.67 input  -65.29 | X-H torsion
[ 10718 10713 10712 10709 ] final   27.42 input   66.30 | X-H torsion
[ 10763 10752 10751 10750 ] final -179.28 input  -60.55 | X-H torsion
[ 11005 11000 10999 10996 ] final   65.94 input  -57.11 | X-H torsion

> <Gold.Protein.ActiveResidues>
 VAL166  LYS551  ARG553  GLY616  TRP617  ASP618  TYR619  PRO620  LYS621  CYS622 
 ASP623  PHE694  ASN695  SER759  ASP760  ASP761  ALA762  ILE779  LEU786  VAL792 
 PHE793  MET794  SER795  GLU796  ALA797  LYS798  CYS799  TRP800  GLU811  SER814 

> <Gold.Protein.RotatedAtoms>
  152.0096  133.3856  159.4213 H   0  0  0  0  0  0  0  0  0  0  0  0  # atno 6907 bound_to 6896
  150.6901  134.3745  159.5016 H   0  0  0  0  0  0  0  0  0  0  0  0  # atno 6908 bound_to 6896
  152.1504  134.8992  160.0599 H   0  0  0  0  0  0  0  0  0  0  0  0  # atno 6909 bound_to 6896
  146.0884  139.5503  142.9492 H   0  0  0  0  0  0  0  0  0  0  0  0  # atno 7974 bound_to 7965
  156.0400  140.1301  157.0166 H   0  0  0  0  0  0  0  0  0  0  0  0  # atno 8008 bound_to 7997
  154.4387  140.1032  156.6293 H   0  0  0  0  0  0  0  0  0  0  0  0  # atno 8009 bound_to 7997
  155.5681  140.3466  155.4510 H   0  0  0  0  0  0  0  0  0  0  0  0  # atno 8010 bound_to 7997
  140.7246  143.3831  151.1565 H   0  0  0  0  0  0  0  0  0  0  0  0  # atno 10167 bound_to 10162
  157.2200  130.6974  149.6266 H   0  0  0  0  0  0  0  0  0  0  0  0  # atno 10718 bound_to 10713
  154.5370  135.2803  155.1129 H   0  0  0  0  0  0  0  0  0  0  0  0  # atno 10763 bound_to 10752
  154.2627  135.6318  153.5284 H   0  0  0  0  0  0  0  0  0  0  0  0  # atno 10764 bound_to 10752
  152.9970  135.5609  154.5899 H   0  0  0  0  0  0  0  0  0  0  0  0  # atno 10765 bound_to 10752
  139.9863  134.6663  156.0170 H   0  0  0  0  0  0  0  0  0  0  0  0  # atno 11005 bound_to 11000
  145.6086  141.0343  143.1979 LP  0  0  0  0  0  0  0  0  0  0  0  0  # atno 17320 bound_to 7965
  144.7342  139.7635  143.7335 LP  0  0  0  0  0  0  0  0  0  0  0  0  # atno 17321 bound_to 7965
  139.7423  143.8905  152.3053 LP  0  0  0  0  0  0  0  0  0  0  0  0  # atno 17342 bound_to 10162
  139.8731  144.7058  150.8965 LP  0  0  0  0  0  0  0  0  0  0  0  0  # atno 17343 bound_to 10162
  155.9683  130.4523  150.5769 LP  0  0  0  0  0  0  0  0  0  0  0  0  # atno 17370 bound_to 10713
  157.3586  131.0746  151.1655 LP  0  0  0  0  0  0  0  0  0  0  0  0  # atno 17371 bound_to 10713
  141.1527  133.6546  156.4064 LP  0  0  0  0  0  0  0  0  0  0  0  0  # atno 17394 bound_to 11000
  140.4996  134.6498  157.5243 LP  0  0  0  0  0  0  0  0  0  0  0  0  # atno 17395 bound_to 11000

$$$$
