AV-unprocessed.smi:1088|AV-procd|sdf|4730|dock2
  -GOLD-   22720 3263D 1   1.00000     0.00000
 Structure written by MMmdl.
 48 49  0  0  0  0  0  0  0  0  2 V2000
  139.7481  136.0237  154.3939 C   0  0  0  0  0  0  0  0  0  0  0  0
  140.8999  135.2033  154.3074 O   0  0  0  0  0  0  0  0  0  0  0  0
  141.8235  135.6649  153.3362 C   0  0  0  0  0  0  0  0  0  0  0  0
  143.2025  135.0589  153.6327 C   0  0  0  0  0  0  0  0  0  0  0  0
  144.0014  134.8666  152.3972 N   0  3  2  0  0  0  0  0  0  0  0  0
  144.5981  133.5225  152.2170 C   0  0  0  0  0  0  0  0  0  0  0  0
  145.8868  133.7184  151.4061 C   0  0  0  0  0  0  0  0  0  0  0  0
  145.8901  135.1966  151.0188 C   0  0  0  0  0  0  0  0  0  0  0  0
  145.0581  135.8684  152.1177 C   0  0  2  0  0  0  0  0  0  0  0  0
  145.8985  136.2438  153.3673 C   0  0  0  0  0  0  0  0  0  0  0  0
  146.8352  137.3276  153.0960 N   0  0  0  0  0  0  0  0  0  0  0  0
  146.9667  138.4458  153.8294 C   0  0  0  0  0  0  0  0  0  0  0  0
  146.2960  138.6598  154.8384 O   0  0  0  0  0  0  0  0  0  0  0  0
  147.9889  139.5003  153.3720 C   0  0  0  0  0  0  0  0  0  0  0  0
  149.2412  139.5200  154.1432 N   0  0  0  0  0  0  0  0  0  0  0  0
  150.1273  138.4637  154.0331 C   0  0  0  0  0  0  0  0  0  0  0  0
  151.2887  138.3909  154.7190 C   0  0  0  0  0  0  0  0  0  0  0  0
  151.6852  139.4531  155.6355 C   0  0  0  0  0  0  0  0  0  0  0  0
  152.7236  139.4153  156.2965 O   0  0  0  0  0  0  0  0  0  0  0  0
  150.7693  140.5295  155.7165 N   0  0  0  0  0  0  0  0  0  0  0  0
  151.0650  141.6276  156.6133 C   0  0  0  0  0  0  0  0  0  0  0  0
  149.5485  140.5920  155.0085 C   0  0  0  0  0  0  0  0  0  0  0  0
  148.7644  141.5342  155.1434 O   0  0  0  0  0  0  0  0  0  0  0  0
  139.0723  135.6272  155.1515 H   0  0  0  0  0  0  0  0  0  0  0  0
  139.2108  136.0509  153.4451 H   0  0  0  0  0  0  0  0  0  0  0  0
  140.0102  137.0437  154.6778 H   0  0  0  0  0  0  0  0  0  0  0  0
  141.4955  135.3513  152.3443 H   0  0  0  0  0  0  0  0  0  0  0  0
  141.8676  136.7547  153.3315 H   0  0  0  0  0  0  0  0  0  0  0  0
  143.7412  135.7232  154.3098 H   0  0  0  0  0  0  0  0  0  0  0  0
  143.0829  134.1060  154.1496 H   0  0  0  0  0  0  0  0  0  0  0  0
  144.8292  133.0634  153.1794 H   0  0  0  0  0  0  0  0  0  0  0  0
  143.8918  132.8737  151.6981 H   0  0  0  0  0  0  0  0  0  0  0  0
  146.7533  133.4959  152.0302 H   0  0  0  0  0  0  0  0  0  0  0  0
  145.9333  133.0665  150.5332 H   0  0  0  0  0  0  0  0  0  0  0  0
  146.8957  135.6027  150.9066 H   0  0  0  0  0  0  0  0  0  0  0  0
  145.3846  135.3183  150.0597 H   0  0  0  0  0  0  0  0  0  0  0  0
  144.5835  136.7696  151.7274 H   0  0  0  0  0  0  0  0  0  0  0  0
  145.2589  136.5442  154.1981 H   0  0  0  0  0  0  0  0  0  0  0  0
  146.4719  135.3844  153.7161 H   0  0  0  0  0  0  0  0  0  0  0  0
  147.4293  137.2252  152.2858 H   0  0  0  0  0  0  0  0  0  0  0  0
  148.2154  139.3154  152.3210 H   0  0  0  0  0  0  0  0  0  0  0  0
  147.5131  140.4822  153.3942 H   0  0  0  0  0  0  0  0  0  0  0  0
  149.8764  137.6490  153.3692 H   0  0  0  0  0  0  0  0  0  0  0  0
  151.9323  137.5329  154.5907 H   0  0  0  0  0  0  0  0  0  0  0  0
  150.8141  142.5618  156.1081 H   0  0  0  0  0  0  0  0  0  0  0  0
  152.1264  141.6480  156.8602 H   0  0  0  0  0  0  0  0  0  0  0  0
  150.4568  141.4795  157.5066 H   0  0  0  0  0  0  0  0  0  0  0  0
  143.3505  134.9711  151.6314 H   0  0  0  0  0  0  0  0  0  0  0  0
  1  2  1  0  0  0  0
  1 24  1  0  0  0  0
  1 25  1  0  0  0  0
  1 26  1  0  0  0  0
  2  3  1  0  0  0  0
  3  4  1  0  0  0  0
  3 27  1  0  0  0  0
  3 28  1  0  0  0  0
  4  5  1  0  0  0  0
  4 29  1  0  0  0  0
  4 30  1  0  0  0  0
  5  9  1  0  0  0  0
  5  6  1  0  0  0  0
  5 48  1  0  0  0  0
  6  7  1  0  0  0  0
  6 31  1  0  0  0  0
  6 32  1  0  0  0  0
  7  8  1  0  0  0  0
  7 33  1  0  0  0  0
  7 34  1  0  0  0  0
  8  9  1  0  0  0  0
  8 35  1  0  0  0  0
  8 36  1  0  0  0  0
  9 10  1  0  0  0  0
  9 37  1  0  0  0  0
 10 11  1  0  0  0  0
 10 38  1  0  0  0  0
 10 39  1  0  0  0  0
 11 12  1  0  0  0  0
 11 40  1  0  0  0  0
 12 13  2  0  0  0  0
 12 14  1  0  0  0  0
 14 15  1  0  0  0  0
 14 41  1  0  0  0  0
 14 42  1  0  0  0  0
 15 22  1  0  0  0  0
 15 16  1  0  0  0  0
 16 17  2  0  0  0  0
 16 43  1  0  0  0  0
 17 18  1  0  0  0  0
 17 44  1  0  0  0  0
 18 19  2  0  0  0  0
 18 20  1  0  0  0  0
 20 21  1  0  0  0  0
 20 22  1  0  0  0  0
 21 45  1  0  0  0  0
 21 46  1  0  0  0  0
 21 47  1  0  0  0  0
 22 23  2  0  0  0  0
M  CHG  1   5   1
M  END
> <s_m_source_file>
AV-unprocessed.smi

> <i_m_source_file_index>
1088

> <i_lp_mmshare_version>
43012

> <i_f3d_flags>
0

> <s_epik_input>
W0NIM11PW0NIMl1bQ0gyXU4xW0NIMl1bQ0gyXVtDSDJdW0NASF0xW0NIMl1bTkhdQyg9TylbQ0gyXW4yW2NIXVtjSF1jKD1PKW4oW0NIM10pYzI9Tw==

> <s_epik_cmdline>
J2VwaWtfcHl0aG9uJywgJy1waCcsICc3LjAnLCAnLXRuJywgJzgnLCAnLW1hJywgJzIwMCcsICctbWV0YWxfYmluZGluZycsICctaW1hZScsICc8aW5maWxlLm1hZT4nLCAnLW9tYWUnLCAnPG91dGZpbGUubWFlPic=

> <r_lp_tautomer_probability>
1

> <r_epik_Ionization_Penalty>
0.0127388

> <r_epik_Ionization_Penalty_Charging>
0.0127387

> <r_epik_Ionization_Penalty_Neutral>
8.26414e-08

> <r_epik_State_Penalty>
0.00987716

> <r_epik_Charging_Adjusted_Penalty>
0.0226159

> <i_epik_Tot_Q>
1

> <i_epik_Tot_abs_Q>
1

> <r_epik_Metal_State_Penalty>
0.00987836

> <b_epik_Metal_Only>
0

> <s_lp_Force_Field>
OPLS_2005

> <r_lp_Energy>
40.6263

> <b_lp_Chiralities_Consistent>
1

> <s_lp_Variant>
AV-unprocessed.smi:1088-3

> <Gold.Version>
5.8.1

> <Gold.Id.Protein>
6NUR|6NUR_protein|mol2

> <Gold.PLP.Fitness>
47.5474

> <Gold.PLP.PLP>
-38.8573

> <Gold.PLP.part.hbond>
-3.0000

> <Gold.PLP.part.metal>
0.0000

> <Gold.PLP.part.buried>
-3.0907

> <Gold.PLP.part.nonpolar>
-33.5389

> <Gold.PLP.part.repulsive>
0.7002

> <Gold.PLP.ligand.clash>
0.0000

> <Gold.PLP.ligand.torsion>
1.3089

> <Gold.PLP.Chemscore.Hbond>
2.7042

> <Gold.PLP.Chemscore.CHOScore>
1.0000

> <Gold.PLP.Chemscore.Metal>
0.0000

> <Gold.Chemscore.Hbonds>
donor molecule, donor type, donor heavy atom, donor atom, acceptor molecule, acceptor atom, score
      L1  H    11    40       P1  7948  0.74
      P1  H  7997  8008       L1    19  1.00
      P1  H 11000 11005       L1     2  0.66
      L1  C    16    43       P1  7948  1.00

> <Gold.PLP.Chemscore.Internal.Correction>
0.1955

> <Gold.Rescore>
     Score         DG    S(hbond)    S(metal)    S(lipo)     H(rot)  DE(clash)    DE(int)     intcor
     12.42     -15.21       2.51        0.00      67.73       2.57       1.35       1.44       ----

> <Gold.Chemscore.Fitness>
12.4154

> <Gold.Chemscore.DG>
-15.2056

> <Gold.Chemscore.ZeroCoef>
-5.4800

> <Gold.Chemscore.Hbond>
2.5084

> <Gold.Chemscore.Metal>
0.0000

> <Gold.Chemscore.Lipo>
67.7312

> <Gold.Chemscore.Internal_Hbond>
0.0000

> <Gold.Chemscore.DEClash>
1.3548

> <Gold.Chemscore.DEInternal>
1.4354

> <Gold.Chemscore.Rot>
2.5692

> <Gold.Chemscore.Internal.Correction>
   9.000000E+99

> <Gold.Chemscore.Hbonds>
donor molecule, donor type, donor heavy atom, donor atom, acceptor molecule, acceptor atom, score
      L1  H    11    40       P1  7948  0.74
      P1  H  7997  8008       L1    19  1.00
      P1  H 11000 11005       L1     2  0.07

> <Gold.Chemscore.Hbond.Weighted>
-8.3782

> <Gold.Chemscore.Metal.Weighted>
-0.0000

> <Gold.Chemscore.Lipo.Weighted>
-7.9246

> <Gold.Chemscore.Internal_Hbond.Weighted>
0.0000

> <Gold.Chemscore.DEClash.Weighted>
1.3548

> <Gold.Chemscore.DEInternal.Weighted>
1.4354

> <Gold.Chemscore.Rot.Weighted>
6.5772

> <Gold.Chemscore.Internal.Correction.Weighted>
   9.000000E+99

> <Gold.Protein.RotatedTorsions>
[ 6907 6896 6895 6894 ] final -171.97 input  -60.11 | X-H torsion
[ 7974 7965 7964 7962 ] final  -47.93 input  175.53 | X-H torsion
[ 8008 7997 7996 7995 ] final  -42.25 input   59.86 | X-H torsion
[ 10167 10162 10161 10158 ] final  -71.10 input  -65.29 | X-H torsion
[ 10718 10713 10712 10709 ] final   14.90 input   66.30 | X-H torsion
[ 10763 10752 10751 10750 ] final   47.81 input  -60.55 | X-H torsion
[ 11005 11000 10999 10996 ] final   19.27 input  -57.11 | X-H torsion

> <Gold.Protein.ActiveResidues>
 VAL166  LYS551  ARG553  GLY616  TRP617  ASP618  TYR619  PRO620  LYS621  CYS622 
 ASP623  PHE694  ASN695  SER759  ASP760  ASP761  ALA762  ILE779  LEU786  VAL792 
 PHE793  MET794  SER795  GLU796  ALA797  LYS798  CYS799  TRP800  GLU811  SER814 

> <Gold.Protein.RotatedAtoms>
  151.5325  133.3446  159.2920 H   0  0  0  0  0  0  0  0  0  0  0  0  # atno 6907 bound_to 6896
  150.8585  134.7933  159.7075 H   0  0  0  0  0  0  0  0  0  0  0  0  # atno 6908 bound_to 6896
  152.4611  134.5190  159.9828 H   0  0  0  0  0  0  0  0  0  0  0  0  # atno 6909 bound_to 6896
  145.9565  140.7521  142.9478 H   0  0  0  0  0  0  0  0  0  0  0  0  # atno 7974 bound_to 7965
  154.4000  140.1478  156.3324 H   0  0  0  0  0  0  0  0  0  0  0  0  # atno 8008 bound_to 7997
  155.8431  140.3461  155.5623 H   0  0  0  0  0  0  0  0  0  0  0  0  # atno 8009 bound_to 7997
  155.8065  140.0878  157.1918 H   0  0  0  0  0  0  0  0  0  0  0  0  # atno 8010 bound_to 7997
  140.5300  143.2322  151.7279 H   0  0  0  0  0  0  0  0  0  0  0  0  # atno 10167 bound_to 10162
  157.0457  130.6249  149.5759 H   0  0  0  0  0  0  0  0  0  0  0  0  # atno 10718 bound_to 10713
  152.9796  135.5964  154.3823 H   0  0  0  0  0  0  0  0  0  0  0  0  # atno 10763 bound_to 10752
  154.3487  135.2767  155.2386 H   0  0  0  0  0  0  0  0  0  0  0  0  # atno 10764 bound_to 10752
  154.4435  135.6007  153.6200 H   0  0  0  0  0  0  0  0  0  0  0  0  # atno 10765 bound_to 10752
  140.4156  134.1573  155.7669 H   0  0  0  0  0  0  0  0  0  0  0  0  # atno 11005 bound_to 11000
  144.6806  140.2520  143.7330 LP  0  0  0  0  0  0  0  0  0  0  0  0  # atno 17320 bound_to 7965
  145.8099  139.1999  143.1999 LP  0  0  0  0  0  0  0  0  0  0  0  0  # atno 17321 bound_to 7965
  139.4951  144.4128  152.0062 LP  0  0  0  0  0  0  0  0  0  0  0  0  # atno 17342 bound_to 10162
  140.3230  144.3406  150.6005 LP  0  0  0  0  0  0  0  0  0  0  0  0  # atno 17343 bound_to 10162
  156.0023  130.5105  150.7709 LP  0  0  0  0  0  0  0  0  0  0  0  0  # atno 17370 bound_to 10713
  157.5069  131.0923  151.0246 LP  0  0  0  0  0  0  0  0  0  0  0  0  # atno 17371 bound_to 10713
  141.1804  133.8425  157.1277 LP  0  0  0  0  0  0  0  0  0  0  0  0  # atno 17394 bound_to 11000
  140.0236  134.9934  157.0642 LP  0  0  0  0  0  0  0  0  0  0  0  0  # atno 17395 bound_to 11000

$$$$
