AV-unprocessed.smi:1112|AV-procd|sdf|4796|dock3
  -GOLD-   22720 3343D 1   1.00000     0.00000
 Structure written by MMmdl.
 49 51  0  0  0  0  0  0  0  0  1 V2000
  149.4422  133.7301  155.7378 O   0  0  0  0  0  0  0  0  0  0  0  0
  149.3146  134.3828  154.7022 C   0  0  0  0  0  0  0  0  0  0  0  0
  149.7302  135.6502  154.5652 N   0  0  0  0  0  0  0  0  0  0  0  0
  150.4238  136.4410  155.5813 C   0  0  0  0  0  0  0  0  0  0  0  0
  151.2049  137.6415  154.9819 C   0  0  0  0  0  0  0  0  0  0  0  0
  152.0368  137.1101  153.9676 O   0  0  0  0  0  0  0  0  0  0  0  0
  150.2547  138.6404  154.2777 C   0  0  0  0  0  0  0  0  0  0  0  0
  149.4384  139.4894  155.2712 C   0  0  0  0  0  0  0  0  0  0  0  0
  150.3477  140.2070  156.2810 C   0  0  0  0  0  0  0  0  0  0  0  0
  151.2759  139.2166  156.9998 C   0  0  0  0  0  0  0  0  0  0  0  0
  152.1023  138.4021  155.9902 C   0  0  0  0  0  0  0  0  0  0  0  0
  148.7381  133.9391  153.5726 N   0  0  0  0  0  0  0  0  0  0  0  0
  148.1856  132.6541  153.2993 C   0  0  0  0  0  0  0  0  0  0  0  0
  148.7044  131.4571  153.8516 C   0  0  0  0  0  0  0  0  0  0  0  0
  148.1100  130.2286  153.5094 C   0  0  0  0  0  0  0  0  0  0  0  0
  147.0223  130.2372  152.6184 C   0  0  0  0  0  0  0  0  0  0  0  0
  146.5256  131.3651  152.0717 N   0  0  0  0  0  0  0  0  0  0  0  0
  147.0935  132.5519  152.3990 C   0  0  0  0  0  0  0  0  0  0  0  0
  146.5590  133.7131  151.8122 N   0  0  0  0  0  0  0  0  0  0  0  0
  145.9205  134.6427  152.7291 C   0  0  0  0  0  0  0  0  0  0  0  0
  145.1108  135.5938  151.8447 C   0  0  0  0  0  0  0  0  0  0  0  0
  144.8902  134.8239  150.5368 C   0  0  0  0  0  0  0  0  0  0  0  0
  145.6031  133.4845  150.7415 C   0  0  0  0  0  0  0  0  0  0  0  0
  149.5753  136.1040  153.6769 H   0  0  0  0  0  0  0  0  0  0  0  0
  149.6839  136.7949  156.3003 H   0  0  0  0  0  0  0  0  0  0  0  0
  151.0965  135.8015  156.1524 H   0  0  0  0  0  0  0  0  0  0  0  0
  151.4898  136.8112  153.2572 H   0  0  0  0  0  0  0  0  0  0  0  0
  150.8376  139.3177  153.6512 H   0  0  0  0  0  0  0  0  0  0  0  0
  149.5803  138.1123  153.6023 H   0  0  0  0  0  0  0  0  0  0  0  0
  148.8451  140.2236  154.7259 H   0  0  0  0  0  0  0  0  0  0  0  0
  148.7239  138.8626  155.8043 H   0  0  0  0  0  0  0  0  0  0  0  0
  150.9471  140.9571  155.7635 H   0  0  0  0  0  0  0  0  0  0  0  0
  149.7415  140.7457  157.0099 H   0  0  0  0  0  0  0  0  0  0  0  0
  151.9425  139.7565  157.6728 H   0  0  0  0  0  0  0  0  0  0  0  0
  150.6851  138.5481  157.6258 H   0  0  0  0  0  0  0  0  0  0  0  0
  152.7748  137.7242  156.5160 H   0  0  0  0  0  0  0  0  0  0  0  0
  152.7516  139.0905  155.4466 H   0  0  0  0  0  0  0  0  0  0  0  0
  148.6214  134.6208  152.8370 H   0  0  0  0  0  0  0  0  0  0  0  0
  149.5537  131.4537  154.5169 H   0  0  0  0  0  0  0  0  0  0  0  0
  148.4834  129.3004  153.9159 H   0  0  0  0  0  0  0  0  0  0  0  0
  146.5429  129.3131  152.3306 H   0  0  0  0  0  0  0  0  0  0  0  0
  145.2565  134.1135  153.4140 H   0  0  0  0  0  0  0  0  0  0  0  0
  146.6607  135.1788  153.3236 H   0  0  0  0  0  0  0  0  0  0  0  0
  144.1732  135.8839  152.3199 H   0  0  0  0  0  0  0  0  0  0  0  0
  145.6795  136.5034  151.6481 H   0  0  0  0  0  0  0  0  0  0  0  0
  143.8324  134.6830  150.3128 H   0  0  0  0  0  0  0  0  0  0  0  0
  145.3365  135.3691  149.7044 H   0  0  0  0  0  0  0  0  0  0  0  0
  146.1050  133.1536  149.8317 H   0  0  0  0  0  0  0  0  0  0  0  0
  144.8834  132.7161  151.0277 H   0  0  0  0  0  0  0  0  0  0  0  0
  1  2  2  0  0  0  0
  2  3  1  0  0  0  0
  2 12  1  0  0  0  0
  3  4  1  0  0  0  0
  3 24  1  0  0  0  0
  4  5  1  0  0  0  0
  4 25  1  0  0  0  0
  4 26  1  0  0  0  0
  5 11  1  0  0  0  0
  5  6  1  0  0  0  0
  5  7  1  0  0  0  0
  6 27  1  0  0  0  0
  7  8  1  0  0  0  0
  7 28  1  0  0  0  0
  7 29  1  0  0  0  0
  8  9  1  0  0  0  0
  8 30  1  0  0  0  0
  8 31  1  0  0  0  0
  9 10  1  0  0  0  0
  9 32  1  0  0  0  0
  9 33  1  0  0  0  0
 10 11  1  0  0  0  0
 10 34  1  0  0  0  0
 10 35  1  0  0  0  0
 11 36  1  0  0  0  0
 11 37  1  0  0  0  0
 12 13  1  0  0  0  0
 12 38  1  0  0  0  0
 13 18  1  0  0  0  0
 13 14  2  0  0  0  0
 14 15  1  0  0  0  0
 14 39  1  0  0  0  0
 15 16  2  0  0  0  0
 15 40  1  0  0  0  0
 16 17  1  0  0  0  0
 16 41  1  0  0  0  0
 17 18  2  0  0  0  0
 18 19  1  0  0  0  0
 19 23  1  0  0  0  0
 19 20  1  0  0  0  0
 20 21  1  0  0  0  0
 20 42  1  0  0  0  0
 20 43  1  0  0  0  0
 21 22  1  0  0  0  0
 21 44  1  0  0  0  0
 21 45  1  0  0  0  0
 22 23  1  0  0  0  0
 22 46  1  0  0  0  0
 22 47  1  0  0  0  0
 23 48  1  0  0  0  0
 23 49  1  0  0  0  0
M  END
> <s_m_source_file>
AV-unprocessed.smi

> <i_m_source_file_index>
1112

> <i_lp_mmshare_version>
43012

> <i_f3d_flags>
0

> <s_epik_input>
W0NIMl0xW0NIMl1bQ0gyXVtDSDJdW0NIMl1DMShbT0hdKVtDSDJdW05IXUMoPU8pW05IXWMyW2NIXVtjSF1bY0hdbmMyTjNbQ0gyXVtDSDJdW0NIMl1bQ0gyXTM=

> <s_epik_cmdline>
J2VwaWtfcHl0aG9uJywgJy1waCcsICc3LjAnLCAnLXRuJywgJzgnLCAnLW1hJywgJzIwMCcsICctbWV0YWxfYmluZGluZycsICctaW1hZScsICc8aW5maWxlLm1hZT4nLCAnLW9tYWUnLCAnPG91dGZpbGUubWFlPic=

> <r_lp_tautomer_probability>
1

> <r_epik_Ionization_Penalty>
0.100401

> <r_epik_Ionization_Penalty_Charging>
0

> <r_epik_Ionization_Penalty_Neutral>
0.100401

> <r_epik_State_Penalty>
0.0898606

> <r_epik_Charging_Adjusted_Penalty>
0.0898606

> <i_epik_Tot_Q>
0

> <i_epik_Tot_abs_Q>
0

> <r_epik_Metal_State_Penalty>
0.0767935

> <b_epik_Metal_Only>
0

> <s_lp_Force_Field>
OPLS_2005

> <r_lp_Energy>
45.6108

> <b_lp_Chiralities_Consistent>
1

> <s_lp_Variant>
AV-unprocessed.smi:1112-1

> <Gold.Version>
5.8.1

> <Gold.Id.Protein>
6NUR|6NUR_protein|mol2

> <Gold.PLP.Fitness>
51.0340

> <Gold.PLP.PLP>
-40.4853

> <Gold.PLP.part.hbond>
-4.4282

> <Gold.PLP.part.metal>
0.0000

> <Gold.PLP.part.buried>
-3.9560

> <Gold.PLP.part.nonpolar>
-33.3533

> <Gold.PLP.part.repulsive>
0.3800

> <Gold.PLP.ligand.clash>
0.0000

> <Gold.PLP.ligand.torsion>
0.5165

> <Gold.PLP.Chemscore.Hbond>
3.8500

> <Gold.PLP.Chemscore.CHOScore>
0.0000

> <Gold.PLP.Chemscore.Metal>
0.0000

> <Gold.Chemscore.Hbonds>
donor molecule, donor type, donor heavy atom, donor atom, acceptor molecule, acceptor atom, score
      L1  H     3    24       P1  7948  1.00
      L1  H     6    27       P1  7949  1.00
      L1  H    12    38       P1  7948  0.85
      P1  H 10752 10765       L1     6  0.85

> <Gold.PLP.Chemscore.Internal.Correction>
0.0316

> <Gold.Rescore>
     Score         DG    S(hbond)    S(metal)    S(lipo)     H(rot)  DE(clash)    DE(int)     intcor
     18.65     -20.10       2.92        0.00      83.04       1.89       0.03       1.42       ----

> <Gold.Chemscore.Fitness>
18.6489

> <Gold.Chemscore.DG>
-20.1042

> <Gold.Chemscore.ZeroCoef>
-5.4800

> <Gold.Chemscore.Hbond>
2.9158

> <Gold.Chemscore.Metal>
0.0000

> <Gold.Chemscore.Lipo>
83.0352

> <Gold.Chemscore.Internal_Hbond>
0.0000

> <Gold.Chemscore.DEClash>
0.0310

> <Gold.Chemscore.DEInternal>
1.4243

> <Gold.Chemscore.Rot>
1.8866

> <Gold.Chemscore.Internal.Correction>
   9.000000E+99

> <Gold.Chemscore.Hbonds>
donor molecule, donor type, donor heavy atom, donor atom, acceptor molecule, acceptor atom, score
      L1  H     3    24       P1  7948  0.44
      L1  H     6    27       P1  7949  0.84
      L1  H    12    38       P1  7948  0.14
      P1  H 10752 10765       L1     6  0.14

> <Gold.Chemscore.Hbond.Weighted>
-9.7388

> <Gold.Chemscore.Metal.Weighted>
-0.0000

> <Gold.Chemscore.Lipo.Weighted>
-9.7151

> <Gold.Chemscore.Internal_Hbond.Weighted>
0.0000

> <Gold.Chemscore.DEClash.Weighted>
0.0310

> <Gold.Chemscore.DEInternal.Weighted>
1.4243

> <Gold.Chemscore.Rot.Weighted>
4.8297

> <Gold.Chemscore.Internal.Correction.Weighted>
   9.000000E+99

> <Gold.Protein.RotatedTorsions>
[ 6907 6896 6895 6894 ] final  144.91 input  -60.11 | X-H torsion
[ 7974 7965 7964 7962 ] final -143.85 input  175.53 | X-H torsion
[ 8008 7997 7996 7995 ] final  165.40 input   59.86 | X-H torsion
[ 10167 10162 10161 10158 ] final  127.55 input  -65.29 | X-H torsion
[ 10718 10713 10712 10709 ] final  144.23 input   66.30 | X-H torsion
[ 10763 10752 10751 10750 ] final  150.15 input  -60.55 | X-H torsion
[ 11005 11000 10999 10996 ] final   94.19 input  -57.11 | X-H torsion

> <Gold.Protein.ActiveResidues>
 VAL166  LYS551  ARG553  GLY616  TRP617  ASP618  TYR619  PRO620  LYS621  CYS622 
 ASP623  PHE694  ASN695  SER759  ASP760  ASP761  ALA762  ILE779  LEU786  VAL792 
 PHE793  MET794  SER795  GLU796  ALA797  LYS798  CYS799  TRP800  GLU811  SER814 

> <Gold.Protein.RotatedAtoms>
  152.1876  133.4750  159.4990 H   0  0  0  0  0  0  0  0  0  0  0  0  # atno 6907 bound_to 6896
  150.6945  134.1754  159.4237 H   0  0  0  0  0  0  0  0  0  0  0  0  # atno 6908 bound_to 6896
  151.9667  135.0096  160.0601 H   0  0  0  0  0  0  0  0  0  0  0  0  # atno 6909 bound_to 6896
  144.8339  140.5783  143.5497 H   0  0  0  0  0  0  0  0  0  0  0  0  # atno 7974 bound_to 7965
  156.1803  140.1671  156.8285 H   0  0  0  0  0  0  0  0  0  0  0  0  # atno 8008 bound_to 7997
  154.5353  140.0748  156.8450 H   0  0  0  0  0  0  0  0  0  0  0  0  # atno 8009 bound_to 7997
  155.3323  140.3380  155.4242 H   0  0  0  0  0  0  0  0  0  0  0  0  # atno 8010 bound_to 7997
  139.5572  144.6857  151.4146 H   0  0  0  0  0  0  0  0  0  0  0  0  # atno 10167 bound_to 10162
  157.3597  131.0963  151.0927 H   0  0  0  0  0  0  0  0  0  0  0  0  # atno 10718 bound_to 10713
  154.0828  135.2858  155.3287 H   0  0  0  0  0  0  0  0  0  0  0  0  # atno 10763 bound_to 10752
  154.6672  135.5313  153.8096 H   0  0  0  0  0  0  0  0  0  0  0  0  # atno 10764 bound_to 10752
  153.0442  135.6548  154.1002 H   0  0  0  0  0  0  0  0  0  0  0  0  # atno 10765 bound_to 10752
  139.8801  134.8831  156.3827 H   0  0  0  0  0  0  0  0  0  0  0  0  # atno 11005 bound_to 11000
  145.4836  139.1493  143.3748 LP  0  0  0  0  0  0  0  0  0  0  0  0  # atno 17320 bound_to 7965
  146.2640  140.4972  142.8842 LP  0  0  0  0  0  0  0  0  0  0  0  0  # atno 17321 bound_to 7965
  140.6847  143.8001  150.7170 LP  0  0  0  0  0  0  0  0  0  0  0  0  # atno 17342 bound_to 10162
  140.1465  143.4395  152.2159 LP  0  0  0  0  0  0  0  0  0  0  0  0  # atno 17343 bound_to 10162
  157.2071  130.6421  149.5760 LP  0  0  0  0  0  0  0  0  0  0  0  0  # atno 17370 bound_to 10713
  155.9735  130.4672  150.6316 LP  0  0  0  0  0  0  0  0  0  0  0  0  # atno 17371 bound_to 10713
  140.9387  133.7529  156.0118 LP  0  0  0  0  0  0  0  0  0  0  0  0  # atno 17394 bound_to 11000
  140.8245  134.3251  157.5370 LP  0  0  0  0  0  0  0  0  0  0  0  0  # atno 17395 bound_to 11000

$$$$
