AV-unprocessed.smi:1900|AV-procd|sdf|7709|dock2
  -GOLD-   22720 9443D 1   1.00000     0.00000
 Structure written by MMmdl.
 44 45  0  0  0  0  0  0  0  0  2 V2000
  150.3211  135.4643  154.5771 C   0  0  0  0  0  0  0  0  0  0  0  0
  150.3845  136.7125  155.4753 C   0  0  2  0  0  0  0  0  0  0  0  0
  149.2059  137.6834  155.2648 C   0  0  0  0  0  0  0  0  0  0  0  0
  149.3400  138.4242  153.9878 N   0  3  1  0  0  0  0  0  0  0  0  0
  148.1862  139.3232  153.7353 C   0  0  0  0  0  0  0  0  0  0  0  0
  146.8336  138.6076  153.8909 C   0  0  0  0  0  0  0  0  0  0  0  0
  146.1766  138.3111  152.5321 C   0  0  0  0  0  0  0  0  0  0  0  0
  146.5249  136.9842  152.0363 N   0  0  0  0  0  0  0  0  0  0  0  0
  145.6659  135.9622  151.9116 C   0  0  0  0  0  0  0  0  0  0  0  0
  144.4675  136.0459  152.1811 O   0  0  0  0  0  0  0  0  0  0  0  0
  146.2815  134.8562  151.4624 N   0  0  0  0  0  0  0  0  0  0  0  0
  145.6980  133.5877  151.2154 C   0  0  0  0  0  0  0  0  0  0  0  0
  146.4164  132.3624  151.1642 C   0  0  0  0  0  0  0  0  0  0  0  0
  145.6113  131.3394  150.9155 N   0  0  0  0  0  0  0  0  0  0  0  0
  144.3860  131.9003  150.8052 N   0  0  0  0  0  0  0  0  0  0  0  0
  144.3906  133.2666  150.9802 C   0  0  0  0  0  0  0  0  0  0  0  0
  150.6522  139.1127  153.9303 C   0  0  0  0  0  0  0  0  0  0  0  0
  151.7992  138.1032  154.1177 C   0  0  1  0  0  0  0  0  0  0  0  0
  153.1681  138.7916  154.1556 C   0  0  0  0  0  0  0  0  0  0  0  0
  151.6246  137.4077  155.3493 O   0  0  0  0  0  0  0  0  0  0  0  0
  143.5652  131.3437  150.6132 H   0  0  0  0  0  0  0  0  0  0  0  0
  149.4256  134.8803  154.7912 H   0  0  0  0  0  0  0  0  0  0  0  0
  151.1826  134.8183  154.7479 H   0  0  0  0  0  0  0  0  0  0  0  0
  150.2964  135.7161  153.5174 H   0  0  0  0  0  0  0  0  0  0  0  0
  150.3417  136.3595  156.5061 H   0  0  0  0  0  0  0  0  0  0  0  0
  148.2645  137.1328  155.2849 H   0  0  0  0  0  0  0  0  0  0  0  0
  149.1696  138.3998  156.0871 H   0  0  0  0  0  0  0  0  0  0  0  0
  148.2147  140.1466  154.4506 H   0  0  0  0  0  0  0  0  0  0  0  0
  148.2754  139.7722  152.7449 H   0  0  0  0  0  0  0  0  0  0  0  0
  146.9657  137.6726  154.4343 H   0  0  0  0  0  0  0  0  0  0  0  0
  146.1625  139.2226  154.4919 H   0  0  0  0  0  0  0  0  0  0  0  0
  145.0915  138.3624  152.6242 H   0  0  0  0  0  0  0  0  0  0  0  0
  146.4613  139.0660  151.7972 H   0  0  0  0  0  0  0  0  0  0  0  0
  147.4920  136.8261  151.7926 H   0  0  0  0  0  0  0  0  0  0  0  0
  147.2736  134.9242  151.2887 H   0  0  0  0  0  0  0  0  0  0  0  0
  147.4733  132.1852  151.2982 H   0  0  0  0  0  0  0  0  0  0  0  0
  143.4901  133.8596  150.9220 H   0  0  0  0  0  0  0  0  0  0  0  0
  150.7758  139.6184  152.9735 H   0  0  0  0  0  0  0  0  0  0  0  0
  150.6950  139.8812  154.7041 H   0  0  0  0  0  0  0  0  0  0  0  0
  151.8017  137.3933  153.2903 H   0  0  0  0  0  0  0  0  0  0  0  0
  153.3608  139.3340  153.2296 H   0  0  0  0  0  0  0  0  0  0  0  0
  153.9681  138.0624  154.2852 H   0  0  0  0  0  0  0  0  0  0  0  0
  153.2302  139.5033  154.9794 H   0  0  0  0  0  0  0  0  0  0  0  0
  149.3344  137.7301  153.2541 H   0  0  0  0  0  0  0  0  0  0  0  0
  1  2  1  0  0  0  0
  1 22  1  0  0  0  0
  1 23  1  0  0  0  0
  1 24  1  0  0  0  0
  2 20  1  0  0  0  0
  2  3  1  0  0  0  0
  2 25  1  0  0  0  0
  3  4  1  0  0  0  0
  3 26  1  0  0  0  0
  3 27  1  0  0  0  0
  4  5  1  0  0  0  0
  4 17  1  0  0  0  0
  4 44  1  0  0  0  0
  5  6  1  0  0  0  0
  5 28  1  0  0  0  0
  5 29  1  0  0  0  0
  6  7  1  0  0  0  0
  6 30  1  0  0  0  0
  6 31  1  0  0  0  0
  7  8  1  0  0  0  0
  7 32  1  0  0  0  0
  7 33  1  0  0  0  0
  8  9  1  0  0  0  0
  8 34  1  0  0  0  0
  9 10  2  0  0  0  0
  9 11  1  0  0  0  0
 11 12  1  0  0  0  0
 11 35  1  0  0  0  0
 12 16  2  0  0  0  0
 12 13  1  0  0  0  0
 13 14  2  0  0  0  0
 13 36  1  0  0  0  0
 14 15  1  0  0  0  0
 15 21  1  0  0  0  0
 15 16  1  0  0  0  0
 16 37  1  0  0  0  0
 17 18  1  0  0  0  0
 17 38  1  0  0  0  0
 17 39  1  0  0  0  0
 18 19  1  0  0  0  0
 18 20  1  0  0  0  0
 18 40  1  0  0  0  0
 19 41  1  0  0  0  0
 19 42  1  0  0  0  0
 19 43  1  0  0  0  0
M  CHG  1   4   1
M  END
> <s_m_source_file>
AV-unprocessed.smi

> <i_m_source_file_index>
1900

> <i_lp_mmshare_version>
43012

> <i_f3d_flags>
0

> <s_epik_input>
W0NIM11bQ0BASF0xW0NIMl1OKFtDSDJdW0NASF0oTzEpW0NIM10pW0NIMl1bQ0gyXVtDSDJdW05IXUMoPU8pW05IXWMyW2NIXW5bbkhdW2NIXTI=

> <s_epik_cmdline>
J2VwaWtfcHl0aG9uJywgJy1waCcsICc3LjAnLCAnLXRuJywgJzgnLCAnLW1hJywgJzIwMCcsICctbWV0YWxfYmluZGluZycsICctaW1hZScsICc8aW5maWxlLm1hZT4nLCAnLW9tYWUnLCAnPG91dGZpbGUubWFlPic=

> <r_lp_tautomer_probability>
0.5

> <r_epik_Ionization_Penalty>
0.270543

> <r_epik_Ionization_Penalty_Charging>
0.270496

> <r_epik_Ionization_Penalty_Neutral>
4.67091e-05

> <r_epik_State_Penalty>
0.262618

> <r_epik_Charging_Adjusted_Penalty>
0.533114

> <i_epik_Tot_Q>
1

> <i_epik_Tot_abs_Q>
1

> <r_epik_Metal_State_Penalty>
0.262618

> <b_epik_Metal_Only>
0

> <s_lp_Force_Field>
OPLS_2005

> <r_lp_Energy>
21.2497

> <b_lp_Chiralities_Consistent>
1

> <s_lp_Variant>
AV-unprocessed.smi:1900-1

> <Gold.Version>
5.8.1

> <Gold.Id.Protein>
6NUR|6NUR_protein|mol2

> <Gold.PLP.Fitness>
46.8662

> <Gold.PLP.PLP>
-31.9361

> <Gold.PLP.part.hbond>
-2.8893

> <Gold.PLP.part.metal>
0.0000

> <Gold.PLP.part.buried>
-4.4138

> <Gold.PLP.part.nonpolar>
-26.2432

> <Gold.PLP.part.repulsive>
1.2853

> <Gold.PLP.ligand.clash>
0.0000

> <Gold.PLP.ligand.torsion>
0.6885

> <Gold.PLP.Chemscore.Hbond>
3.4290

> <Gold.PLP.Chemscore.CHOScore>
1.9978

> <Gold.PLP.Chemscore.Metal>
0.0000

> <Gold.Chemscore.Hbonds>
donor molecule, donor type, donor heavy atom, donor atom, acceptor molecule, acceptor atom, score
      L1  H     4    44       P1  7948  1.89
      L1  H     8    34       P1  7948  1.00
      L1  H    11    35       P1  7948  0.57
      L1  C    13    36       P1 10747  1.00
      L1  C    16    37       P1 10186  0.11

> <Gold.PLP.Chemscore.Internal.Correction>
0.0268

> <Gold.Rescore>
     Score         DG    S(hbond)    S(metal)    S(lipo)     H(rot)  DE(clash)    DE(int)     intcor
     15.80     -16.94       2.24        0.00      76.32       1.93       0.37       0.77       ----

> <Gold.Chemscore.Fitness>
15.8048

> <Gold.Chemscore.DG>
-16.9429

> <Gold.Chemscore.ZeroCoef>
-5.4800

> <Gold.Chemscore.Hbond>
2.2415

> <Gold.Chemscore.Metal>
0.0000

> <Gold.Chemscore.Lipo>
76.3182

> <Gold.Chemscore.Internal_Hbond>
0.0000

> <Gold.Chemscore.DEClash>
0.3713

> <Gold.Chemscore.DEInternal>
0.7668

> <Gold.Chemscore.Rot>
1.9347

> <Gold.Chemscore.Internal.Correction>
   9.000000E+99

> <Gold.Chemscore.Hbonds>
donor molecule, donor type, donor heavy atom, donor atom, acceptor molecule, acceptor atom, score
      L1  H     4    44       P1  7948  0.87
      L1  H     8    34       P1  7948  0.95
      L1  H    11    35       P1  7948  0.31

> <Gold.Chemscore.Hbond.Weighted>
-7.4865

> <Gold.Chemscore.Metal.Weighted>
-0.0000

> <Gold.Chemscore.Lipo.Weighted>
-8.9292

> <Gold.Chemscore.Internal_Hbond.Weighted>
0.0000

> <Gold.Chemscore.DEClash.Weighted>
0.3713

> <Gold.Chemscore.DEInternal.Weighted>
0.7668

> <Gold.Chemscore.Rot.Weighted>
4.9528

> <Gold.Chemscore.Internal.Correction.Weighted>
   9.000000E+99

> <Gold.Protein.RotatedTorsions>
[ 6907 6896 6895 6894 ] final  -87.75 input  -60.11 | X-H torsion
[ 7974 7965 7964 7962 ] final   82.61 input  175.53 | X-H torsion
[ 8008 7997 7996 7995 ] final -123.83 input   59.86 | X-H torsion
[ 10167 10162 10161 10158 ] final  -99.88 input  -65.29 | X-H torsion
[ 10718 10713 10712 10709 ] final -157.03 input   66.30 | X-H torsion
[ 10763 10752 10751 10750 ] final  123.04 input  -60.55 | X-H torsion
[ 11005 11000 10999 10996 ] final -112.01 input  -57.11 | X-H torsion

> <Gold.Protein.ActiveResidues>
 VAL166  LYS551  ARG553  GLY616  TRP617  ASP618  TYR619  PRO620  LYS621  CYS622 
 ASP623  PHE694  ASN695  SER759  ASP760  ASP761  ALA762  ILE779  LEU786  VAL792 
 PHE793  MET794  SER795  GLU796  ALA797  LYS798  CYS799  TRP800  GLU811  SER814 

> <Gold.Protein.RotatedAtoms>
  150.6867  134.2848  159.4641 H   0  0  0  0  0  0  0  0  0  0  0  0  # atno 6907 bound_to 6896
  152.0759  134.9501  160.0583 H   0  0  0  0  0  0  0  0  0  0  0  0  # atno 6908 bound_to 6896
  152.0873  133.4148  159.4565 H   0  0  0  0  0  0  0  0  0  0  0  0  # atno 6909 bound_to 6896
  145.6228  139.2389  143.2129 H   0  0  0  0  0  0  0  0  0  0  0  0  # atno 7974 bound_to 7965
  155.1869  140.0412  157.2893 H   0  0  0  0  0  0  0  0  0  0  0  0  # atno 8008 bound_to 7997
  154.6165  140.2490  155.7574 H   0  0  0  0  0  0  0  0  0  0  0  0  # atno 8009 bound_to 7997
  156.2409  140.2904  156.0453 H   0  0  0  0  0  0  0  0  0  0  0  0  # atno 8010 bound_to 7997
  140.2578  143.3428  152.0654 H   0  0  0  0  0  0  0  0  0  0  0  0  # atno 10167 bound_to 10162
  156.5347  130.8536  151.2728 H   0  0  0  0  0  0  0  0  0  0  0  0  # atno 10718 bound_to 10713
  153.6393  135.3382  155.3066 H   0  0  0  0  0  0  0  0  0  0  0  0  # atno 10763 bound_to 10752
  154.8563  135.4314  154.2022 H   0  0  0  0  0  0  0  0  0  0  0  0  # atno 10764 bound_to 10752
  153.2937  135.7019  153.7343 H   0  0  0  0  0  0  0  0  0  0  0  0  # atno 10765 bound_to 10752
  141.0700  133.9395  157.2503 H   0  0  0  0  0  0  0  0  0  0  0  0  # atno 11005 bound_to 11000
  146.1418  140.7047  142.9363 LP  0  0  0  0  0  0  0  0  0  0  0  0  # atno 17320 bound_to 7965
  144.7224  140.4417  143.6998 LP  0  0  0  0  0  0  0  0  0  0  0  0  # atno 17321 bound_to 7965
  139.5026  144.6738  151.6178 LP  0  0  0  0  0  0  0  0  0  0  0  0  # atno 17342 bound_to 10162
  140.5990  143.9644  150.6373 LP  0  0  0  0  0  0  0  0  0  0  0  0  # atno 17343 bound_to 10162
  157.7416  130.9873  150.2455 LP  0  0  0  0  0  0  0  0  0  0  0  0  # atno 17370 bound_to 10713
  156.3027  130.3761  149.7735 LP  0  0  0  0  0  0  0  0  0  0  0  0  # atno 17371 bound_to 10713
  139.9514  135.0174  156.9005 LP  0  0  0  0  0  0  0  0  0  0  0  0  # atno 17394 bound_to 11000
  140.5693  134.0459  155.7425 LP  0  0  0  0  0  0  0  0  0  0  0  0  # atno 17395 bound_to 11000

$$$$
