AV-unprocessed.smi:1697|AV-procd|sdf|6811|dock9
  -GOLD-   22720 7593D 1   1.00000     0.00000
 Structure written by MMmdl.
 53 55  0  0  0  0  0  0  0  0  1 V2000
  151.4683  130.1436  164.8372 C   0  0  0  0  0  0  0  0  0  0  0  0
  152.3086  131.3090  164.3103 C   0  0  0  0  0  0  0  0  0  0  0  0
  153.5211  131.3677  165.0470 O   0  0  0  0  0  0  0  0  0  0  0  0
  154.3271  132.5054  164.7657 C   0  0  0  0  0  0  0  0  0  0  0  0
  153.6300  133.8140  165.1855 C   0  0  0  0  0  0  0  0  0  0  0  0
  154.4361  135.0319  164.7033 C   0  0  0  0  0  0  0  0  0  0  0  0
  154.6475  135.0361  163.2553 N   0  0  0  0  0  0  0  0  0  0  0  0
  155.3569  136.2494  162.8433 C   0  0  0  0  0  0  0  0  0  0  0  0
  154.5166  137.5417  162.8309 C   0  0  2  0  0  0  0  0  0  0  0  0
  153.4348  137.3491  161.9420 O   0  0  0  0  0  0  0  0  0  0  0  0
  155.3250  138.7754  162.3826 C   0  0  0  0  0  0  0  0  0  0  0  0
  155.0089  139.1715  161.0227 N   0  0  0  0  0  0  0  0  0  0  0  0
  155.2940  138.5048  159.8877 C   0  0  0  0  0  0  0  0  0  0  0  0
  154.8999  139.0568  158.7434 N   0  0  0  0  0  0  0  0  0  0  0  0
  154.2932  140.2194  159.1883 C   0  0  0  0  0  0  0  0  0  0  0  0
  153.6631  141.2594  158.4701 C   0  0  0  0  0  0  0  0  0  0  0  0
  153.1042  142.3695  159.1430 C   0  0  0  0  0  0  0  0  0  0  0  0
  152.4373  143.4657  158.3311 C   0  0  0  0  0  0  0  0  0  0  0  0
  153.1718  142.4514  160.5574 C   0  0  0  0  0  0  0  0  0  0  0  0
  152.5828  143.6364  161.3021 C   0  0  0  0  0  0  0  0  0  0  0  0
  153.7943  141.4197  161.2902 C   0  0  0  0  0  0  0  0  0  0  0  0
  154.3465  140.3210  160.6089 C   0  0  0  0  0  0  0  0  0  0  0  0
  155.3497  133.8126  162.8553 C   0  0  0  0  0  0  0  0  0  0  0  0
  154.5869  132.5375  163.2517 C   0  0  0  0  0  0  0  0  0  0  0  0
  150.5238  130.0703  164.2981 H   0  0  0  0  0  0  0  0  0  0  0  0
  151.2405  130.2721  165.8956 H   0  0  0  0  0  0  0  0  0  0  0  0
  151.9953  129.1963  164.7195 H   0  0  0  0  0  0  0  0  0  0  0  0
  152.5063  131.1658  163.2482 H   0  0  0  0  0  0  0  0  0  0  0  0
  151.7540  132.2418  164.4210 H   0  0  0  0  0  0  0  0  0  0  0  0
  155.2879  132.4167  165.2765 H   0  0  0  0  0  0  0  0  0  0  0  0
  152.6253  133.8499  164.7620 H   0  0  0  0  0  0  0  0  0  0  0  0
  153.5153  133.8627  166.2678 H   0  0  0  0  0  0  0  0  0  0  0  0
  153.9079  135.9390  164.9992 H   0  0  0  0  0  0  0  0  0  0  0  0
  155.3983  135.0557  165.2172 H   0  0  0  0  0  0  0  0  0  0  0  0
  156.2032  136.4102  163.5129 H   0  0  0  0  0  0  0  0  0  0  0  0
  155.7883  136.0919  161.8533 H   0  0  0  0  0  0  0  0  0  0  0  0
  154.0824  137.7209  163.8139 H   0  0  0  0  0  0  0  0  0  0  0  0
  153.6193  137.8173  161.1420 H   0  0  0  0  0  0  0  0  0  0  0  0
  155.1154  139.6244  163.0345 H   0  0  0  0  0  0  0  0  0  0  0  0
  156.3965  138.5837  162.4563 H   0  0  0  0  0  0  0  0  0  0  0  0
  155.8155  137.5586  159.9028 H   0  0  0  0  0  0  0  0  0  0  0  0
  153.6130  141.1971  157.3930 H   0  0  0  0  0  0  0  0  0  0  0  0
  152.9766  144.4059  158.4469 H   0  0  0  0  0  0  0  0  0  0  0  0
  151.4079  143.6136  158.6579 H   0  0  0  0  0  0  0  0  0  0  0  0
  152.4179  143.2195  157.2691 H   0  0  0  0  0  0  0  0  0  0  0  0
  152.7761  143.5686  162.3731 H   0  0  0  0  0  0  0  0  0  0  0  0
  151.5030  143.6786  161.1579 H   0  0  0  0  0  0  0  0  0  0  0  0
  153.0179  144.5694  160.9435 H   0  0  0  0  0  0  0  0  0  0  0  0
  153.8510  141.4667  162.3678 H   0  0  0  0  0  0  0  0  0  0  0  0
  155.4896  133.7928  161.7757 H   0  0  0  0  0  0  0  0  0  0  0  0
  156.3467  133.7949  163.2981 H   0  0  0  0  0  0  0  0  0  0  0  0
  155.1519  131.6552  162.9497 H   0  0  0  0  0  0  0  0  0  0  0  0
  153.6396  132.4996  162.7121 H   0  0  0  0  0  0  0  0  0  0  0  0
  1  2  1  0  0  0  0
  1 25  1  0  0  0  0
  1 26  1  0  0  0  0
  1 27  1  0  0  0  0
  2  3  1  0  0  0  0
  2 28  1  0  0  0  0
  2 29  1  0  0  0  0
  3  4  1  0  0  0  0
  4 24  1  0  0  0  0
  4  5  1  0  0  0  0
  4 30  1  0  0  0  0
  5  6  1  0  0  0  0
  5 31  1  0  0  0  0
  5 32  1  0  0  0  0
  6  7  1  0  0  0  0
  6 33  1  0  0  0  0
  6 34  1  0  0  0  0
  7  8  1  0  0  0  0
  7 23  1  0  0  0  0
  8  9  1  0  0  0  0
  8 35  1  0  0  0  0
  8 36  1  0  0  0  0
  9 10  1  0  0  0  0
  9 11  1  0  0  0  0
  9 37  1  0  0  0  0
 10 38  1  0  0  0  0
 11 12  1  0  0  0  0
 11 39  1  0  0  0  0
 11 40  1  0  0  0  0
 12 22  1  0  0  0  0
 12 13  1  0  0  0  0
 13 14  2  0  0  0  0
 13 41  1  0  0  0  0
 14 15  1  0  0  0  0
 15 22  2  0  0  0  0
 15 16  1  0  0  0  0
 16 17  2  0  0  0  0
 16 42  1  0  0  0  0
 17 18  1  0  0  0  0
 17 19  1  0  0  0  0
 18 43  1  0  0  0  0
 18 44  1  0  0  0  0
 18 45  1  0  0  0  0
 19 20  1  0  0  0  0
 19 21  2  0  0  0  0
 20 46  1  0  0  0  0
 20 47  1  0  0  0  0
 20 48  1  0  0  0  0
 21 22  1  0  0  0  0
 21 49  1  0  0  0  0
 23 24  1  0  0  0  0
 23 50  1  0  0  0  0
 23 51  1  0  0  0  0
 24 52  1  0  0  0  0
 24 53  1  0  0  0  0
M  END
> <s_m_source_file>
AV-unprocessed.smi

> <i_m_source_file_index>
1697

> <i_lp_mmshare_version>
43012

> <i_f3d_flags>
0

> <s_epik_input>
W0NIM11bQ0gyXU9bQ0hdMVtDSDJdW0NIMl1OKFtDSDJdW0NIMl0xKVtDSDJdW0NASF0oW09IXSlbQ0gyXW4oW2NIXW4yKWMoYzIzKVtjSF1jKFtDSDNdKWMoW2NIXTMpW0NIM10=

> <s_epik_cmdline>
J2VwaWtfcHl0aG9uJywgJy1waCcsICc3LjAnLCAnLXRuJywgJzgnLCAnLW1hJywgJzIwMCcsICctbWV0YWxfYmluZGluZycsICctaW1hZScsICc8aW5maWxlLm1hZT4nLCAnLW9tYWUnLCAnPG91dGZpbGUubWFlPic=

> <r_epik_Ionization_Penalty>
1.9836

> <r_epik_Ionization_Penalty_Charging>
0

> <r_epik_Ionization_Penalty_Neutral>
1.9836

> <r_epik_State_Penalty>
2.07269

> <r_epik_Charging_Adjusted_Penalty>
2.07269

> <i_epik_Tot_Q>
0

> <i_epik_Tot_abs_Q>
0

> <r_epik_Metal_State_Penalty>
2.00215

> <b_epik_Metal_Only>
0

> <s_lp_Force_Field>
OPLS_2005

> <r_lp_Energy>
30.2153

> <b_lp_Chiralities_Consistent>
1

> <s_lp_Variant>
AV-unprocessed.smi:1697-9

> <Gold.Version>
5.8.1

> <Gold.Id.Protein>
6NUR|6NUR_protein|mol2

> <Gold.PLP.Fitness>
49.5639

> <Gold.PLP.PLP>
-48.1593

> <Gold.PLP.part.hbond>
-1.0000

> <Gold.PLP.part.metal>
0.0000

> <Gold.PLP.part.buried>
-3.9056

> <Gold.PLP.part.nonpolar>
-43.0559

> <Gold.PLP.part.repulsive>
0.0157

> <Gold.PLP.ligand.clash>
0.0000

> <Gold.PLP.ligand.torsion>
0.8522

> <Gold.PLP.Chemscore.Hbond>
1.0000

> <Gold.PLP.Chemscore.CHOScore>
0.0000

> <Gold.PLP.Chemscore.Metal>
0.0000

> <Gold.Chemscore.Hbonds>
donor molecule, donor type, donor heavy atom, donor atom, acceptor molecule, acceptor atom, score
      P1  H  7997  8010       L1    14  0.05

> <Gold.PLP.Chemscore.Internal.Correction>
0.1090

> <Gold.Rescore>
     Score         DG    S(hbond)    S(metal)    S(lipo)     H(rot)  DE(clash)    DE(int)     intcor
     19.25     -20.17       0.94        0.00     146.80       2.19       0.23       0.69       ----

> <Gold.Chemscore.Fitness>
19.2471

> <Gold.Chemscore.DG>
-20.1653

> <Gold.Chemscore.ZeroCoef>
-5.4800

> <Gold.Chemscore.Hbond>
0.9362

> <Gold.Chemscore.Metal>
0.0000

> <Gold.Chemscore.Lipo>
146.8004

> <Gold.Chemscore.Internal_Hbond>
0.0000

> <Gold.Chemscore.DEClash>
0.2264

> <Gold.Chemscore.DEInternal>
0.6918

> <Gold.Chemscore.Rot>
2.1943

> <Gold.Chemscore.Internal.Correction>
   9.000000E+99

> <Gold.Chemscore.Hbond.Weighted>
-3.1271

> <Gold.Chemscore.Metal.Weighted>
-0.0000

> <Gold.Chemscore.Lipo.Weighted>
-17.1757

> <Gold.Chemscore.Internal_Hbond.Weighted>
0.0000

> <Gold.Chemscore.DEClash.Weighted>
0.2264

> <Gold.Chemscore.DEInternal.Weighted>
0.6918

> <Gold.Chemscore.Rot.Weighted>
5.6174

> <Gold.Chemscore.Internal.Correction.Weighted>
   9.000000E+99

> <Gold.Protein.RotatedTorsions>
[ 6907 6896 6895 6894 ] final  -90.29 input  -60.11 | X-H torsion
[ 7974 7965 7964 7962 ] final  -76.97 input  175.53 | X-H torsion
[ 8008 7997 7996 7995 ] final    4.25 input   59.86 | X-H torsion
[ 10167 10162 10161 10158 ] final  157.26 input  -65.29 | X-H torsion
[ 10718 10713 10712 10709 ] final -144.16 input   66.30 | X-H torsion
[ 10763 10752 10751 10750 ] final  122.10 input  -60.55 | X-H torsion
[ 11005 11000 10999 10996 ] final -160.32 input  -57.11 | X-H torsion

> <Gold.Protein.ActiveResidues>
 VAL166  LYS551  ARG553  GLY616  TRP617  ASP618  TYR619  PRO620  LYS621  CYS622 
 ASP623  PHE694  ASN695  SER759  ASP760  ASP761  ALA762  ILE779  LEU786  VAL792 
 PHE793  MET794  SER795  GLU796  ALA797  LYS798  CYS799  TRP800  GLU811  SER814 

> <Gold.Protein.RotatedAtoms>
  150.6880  134.2455  159.4489 H   0  0  0  0  0  0  0  0  0  0  0  0  # atno 6907 bound_to 6896
  152.0396  134.9716  160.0583 H   0  0  0  0  0  0  0  0  0  0  0  0  # atno 6908 bound_to 6896
  152.1223  133.4326  159.4718 H   0  0  0  0  0  0  0  0  0  0  0  0  # atno 6909 bound_to 6896
  145.6058  140.9398  143.1216 H   0  0  0  0  0  0  0  0  0  0  0  0  # atno 7974 bound_to 7965
  154.7136  140.2697  155.6606 H   0  0  0  0  0  0  0  0  0  0  0  0  # atno 8008 bound_to 7997
  156.2803  140.2748  156.1710 H   0  0  0  0  0  0  0  0  0  0  0  0  # atno 8009 bound_to 7997
  155.0601  140.0371  157.2564 H   0  0  0  0  0  0  0  0  0  0  0  0  # atno 8010 bound_to 7997
  139.4822  144.4934  151.8275 H   0  0  0  0  0  0  0  0  0  0  0  0  # atno 10167 bound_to 10162
  156.3667  130.7766  151.1941 H   0  0  0  0  0  0  0  0  0  0  0  0  # atno 10718 bound_to 10713
  153.6245  135.3407  155.3021 H   0  0  0  0  0  0  0  0  0  0  0  0  # atno 10763 bound_to 10752
  154.8593  135.4281  154.2172 H   0  0  0  0  0  0  0  0  0  0  0  0  # atno 10764 bound_to 10752
  153.3053  135.7027  153.7238 H   0  0  0  0  0  0  0  0  0  0  0  0  # atno 10765 bound_to 10752
  140.6328  134.4633  157.5230 H   0  0  0  0  0  0  0  0  0  0  0  0  # atno 11005 bound_to 11000
  144.7290  139.7784  143.7354 LP  0  0  0  0  0  0  0  0  0  0  0  0  # atno 17320 bound_to 7965
  146.1541  139.4634  143.0030 LP  0  0  0  0  0  0  0  0  0  0  0  0  # atno 17321 bound_to 7965
  140.4420  144.1973  150.5892 LP  0  0  0  0  0  0  0  0  0  0  0  0  # atno 17342 bound_to 10162
  140.4673  143.2426  151.9137 LP  0  0  0  0  0  0  0  0  0  0  0  0  # atno 17343 bound_to 10162
  157.7479  131.0384  150.4502 LP  0  0  0  0  0  0  0  0  0  0  0  0  # atno 17370 bound_to 10713
  156.4722  130.4055  149.6511 LP  0  0  0  0  0  0  0  0  0  0  0  0  # atno 17371 bound_to 10713
  139.9109  134.8346  156.1531 LP  0  0  0  0  0  0  0  0  0  0  0  0  # atno 17394 bound_to 11000
  141.0663  133.6818  156.2050 LP  0  0  0  0  0  0  0  0  0  0  0  0  # atno 17395 bound_to 11000

$$$$
