AV-unprocessed.smi:772|AV-procd|sdf|3687|dock7
  -GOLD-   22720 1103D 1   1.00000     0.00000
 Structure written by MMmdl.
 47 48  0  0  0  0  0  0  0  0  2 V2000
  144.2148  132.0987  150.1204 C   0  0  0  0  0  0  0  0  0  0  0  0
  144.6634  133.4217  150.7033 C   0  0  0  0  0  0  0  0  0  0  0  0
  145.9133  133.5812  151.3386 C   0  0  0  0  0  0  0  0  0  0  0  0
  146.2597  134.8410  151.8691 C   0  0  0  0  0  0  0  0  0  0  0  0
  145.3503  135.9151  151.7551 C   0  0  0  0  0  0  0  0  0  0  0  0
  145.6826  137.2710  152.3526 C   0  0  0  0  0  0  0  0  0  0  0  0
  146.3386  137.1862  153.7447 C   0  0  0  0  0  0  0  0  0  0  0  0
  147.6665  137.7949  153.7738 N   0  0  0  0  0  0  0  0  0  0  0  0
  148.0401  138.8380  154.5364 C   0  0  0  0  0  0  0  0  0  0  0  0
  147.2602  139.3985  155.3079 O   0  0  0  0  0  0  0  0  0  0  0  0
  149.3196  139.2492  154.3479 N   0  0  0  0  0  0  0  0  0  0  0  0
  150.4049  138.4495  153.7580 C   0  0  0  0  0  0  0  0  0  0  0  0
  151.2235  137.8096  154.8894 C   0  0  0  0  0  0  0  0  0  0  0  0
  152.0094  139.0837  155.9230 S   0  0  0  0  0  0  0  0  0  0  0  0
  150.5710  140.1594  156.2649 C   0  0  1  0  0  0  0  0  0  0  0  0
  150.9608  141.4241  157.0713 C   0  0  0  0  0  0  0  0  0  0  0  0
  151.9567  141.1542  158.2150 C   0  0  0  0  0  0  0  0  0  0  0  0
  149.7251  142.1804  157.5880 C   0  0  0  0  0  0  0  0  0  0  0  0
  149.8254  140.4881  154.9518 C   0  0  0  0  0  0  0  0  0  0  0  0
  144.1178  135.6982  151.1018 C   0  0  0  0  0  0  0  0  0  0  0  0
  143.8226  134.4760  150.6085 N   0  3  0  0  0  0  0  0  0  0  0  0
  145.0244  131.3684  150.1346 H   0  0  0  0  0  0  0  0  0  0  0  0
  143.8908  132.2263  149.0872 H   0  0  0  0  0  0  0  0  0  0  0  0
  143.3814  131.6958  150.6966 H   0  0  0  0  0  0  0  0  0  0  0  0
  146.5972  132.7496  151.4263 H   0  0  0  0  0  0  0  0  0  0  0  0
  147.2076  134.9767  152.3693 H   0  0  0  0  0  0  0  0  0  0  0  0
  146.3479  137.7982  151.6679 H   0  0  0  0  0  0  0  0  0  0  0  0
  144.7729  137.8704  152.4106 H   0  0  0  0  0  0  0  0  0  0  0  0
  145.6912  137.6391  154.4974 H   0  0  0  0  0  0  0  0  0  0  0  0
  146.4454  136.1397  154.0305 H   0  0  0  0  0  0  0  0  0  0  0  0
  148.3604  137.3931  153.1603 H   0  0  0  0  0  0  0  0  0  0  0  0
  150.0489  137.6783  153.0749 H   0  0  0  0  0  0  0  0  0  0  0  0
  151.0476  139.0868  153.1490 H   0  0  0  0  0  0  0  0  0  0  0  0
  150.5865  137.1838  155.5155 H   0  0  0  0  0  0  0  0  0  0  0  0
  152.0013  137.1655  154.4793 H   0  0  0  0  0  0  0  0  0  0  0  0
  149.8915  139.5752  156.8874 H   0  0  0  0  0  0  0  0  0  0  0  0
  151.4591  142.1002  156.3755 H   0  0  0  0  0  0  0  0  0  0  0  0
  151.5358  140.4929  158.9723 H   0  0  0  0  0  0  0  0  0  0  0  0
  152.2336  142.0833  158.7141 H   0  0  0  0  0  0  0  0  0  0  0  0
  152.8783  140.7020  157.8505 H   0  0  0  0  0  0  0  0  0  0  0  0
  149.1734  141.5972  158.3255 H   0  0  0  0  0  0  0  0  0  0  0  0
  149.0410  142.4214  156.7739 H   0  0  0  0  0  0  0  0  0  0  0  0
  150.0119  143.1199  158.0614 H   0  0  0  0  0  0  0  0  0  0  0  0
  150.4880  140.9920  154.2477 H   0  0  0  0  0  0  0  0  0  0  0  0
  149.0183  141.1970  155.1428 H   0  0  0  0  0  0  0  0  0  0  0  0
  143.3575  136.4547  150.9735 H   0  0  0  0  0  0  0  0  0  0  0  0
  142.9225  134.3412  150.1473 H   0  0  0  0  0  0  0  0  0  0  0  0
  1  2  1  0  0  0  0
  1 22  1  0  0  0  0
  1 23  1  0  0  0  0
  1 24  1  0  0  0  0
  2 21  1  0  0  0  0
  2  3  2  0  0  0  0
  3  4  1  0  0  0  0
  3 25  1  0  0  0  0
  4  5  2  0  0  0  0
  4 26  1  0  0  0  0
  5  6  1  0  0  0  0
  5 20  1  0  0  0  0
  6  7  1  0  0  0  0
  6 27  1  0  0  0  0
  6 28  1  0  0  0  0
  7  8  1  0  0  0  0
  7 29  1  0  0  0  0
  7 30  1  0  0  0  0
  8  9  1  0  0  0  0
  8 31  1  0  0  0  0
  9 10  2  0  0  0  0
  9 11  1  0  0  0  0
 11 19  1  0  0  0  0
 11 12  1  0  0  0  0
 12 13  1  0  0  0  0
 12 32  1  0  0  0  0
 12 33  1  0  0  0  0
 13 14  1  0  0  0  0
 13 34  1  0  0  0  0
 13 35  1  0  0  0  0
 14 15  1  0  0  0  0
 15 16  1  0  0  0  0
 15 19  1  0  0  0  0
 15 36  1  0  0  0  0
 16 17  1  0  0  0  0
 16 18  1  0  0  0  0
 16 37  1  0  0  0  0
 17 38  1  0  0  0  0
 17 39  1  0  0  0  0
 17 40  1  0  0  0  0
 18 41  1  0  0  0  0
 18 42  1  0  0  0  0
 18 43  1  0  0  0  0
 19 44  1  0  0  0  0
 19 45  1  0  0  0  0
 20 21  2  0  0  0  0
 20 46  1  0  0  0  0
 21 47  1  0  0  0  0
M  CHG  1  21   1
M  END
> <s_m_source_file>
AV-unprocessed.smi

> <i_m_source_file_index>
772

> <i_lp_mmshare_version>
43012

> <i_f3d_flags>
0

> <s_epik_input>
W0NIM11jMVtjSF1bY0hdYyhbY0hdbjEpW0NIMl1bQ0gyXVtOSF1DKD1PKU4yW0NIMl1bQ0gyXVNbQ0BIXShbQ0gyXTIpW0NIXShbQ0gzXSlbQ0gzXQ==

> <s_epik_cmdline>
J2VwaWtfcHl0aG9uJywgJy1waCcsICc3LjAnLCAnLXRuJywgJzgnLCAnLW1hJywgJzIwMCcsICctbWV0YWxfYmluZGluZycsICctaW1hZScsICc8aW5maWxlLm1hZT4nLCAnLW9tYWUnLCAnPG91dGZpbGUubWFlPic=

> <r_epik_Ionization_Penalty>
1.41908

> <r_epik_Ionization_Penalty_Charging>
1.41903

> <r_epik_Ionization_Penalty_Neutral>
4.72921e-05

> <r_epik_State_Penalty>
1.50265

> <r_epik_Charging_Adjusted_Penalty>
2.92168

> <i_epik_Tot_Q>
1

> <i_epik_Tot_abs_Q>
1

> <r_epik_Metal_State_Penalty>
1.55496

> <b_epik_Metal_Only>
0

> <s_lp_Force_Field>
OPLS_2005

> <r_lp_Energy>
32.521

> <b_lp_Chiralities_Consistent>
1

> <s_lp_Variant>
AV-unprocessed.smi:772-3

> <Gold.Version>
5.8.1

> <Gold.Id.Protein>
6NUR|6NUR_protein|mol2

> <Gold.PLP.Fitness>
43.9813

> <Gold.PLP.PLP>
-36.6177

> <Gold.PLP.part.hbond>
-2.0000

> <Gold.PLP.part.metal>
0.0000

> <Gold.PLP.part.buried>
-1.9696

> <Gold.PLP.part.nonpolar>
-32.6999

> <Gold.PLP.part.repulsive>
0.0376

> <Gold.PLP.ligand.clash>
0.0000

> <Gold.PLP.ligand.torsion>
0.8649

> <Gold.PLP.Chemscore.Hbond>
3.0000

> <Gold.PLP.Chemscore.CHOScore>
0.0000

> <Gold.PLP.Chemscore.Metal>
0.0000

> <Gold.Chemscore.Hbonds>
donor molecule, donor type, donor heavy atom, donor atom, acceptor molecule, acceptor atom, score
      L1  H     8    31       P1  7948  1.00
      L1  H    21    47       P1 10186  2.00

> <Gold.PLP.Chemscore.Internal.Correction>
0.0934

> <Gold.Rescore>
     Score         DG    S(hbond)    S(metal)    S(lipo)     H(rot)  DE(clash)    DE(int)     intcor
     19.06     -20.25       1.93        0.00     101.79       1.39       0.35       0.84       ----

> <Gold.Chemscore.Fitness>
19.0562

> <Gold.Chemscore.DG>
-20.2510

> <Gold.Chemscore.ZeroCoef>
-5.4800

> <Gold.Chemscore.Hbond>
1.9261

> <Gold.Chemscore.Metal>
0.0000

> <Gold.Chemscore.Lipo>
101.7854

> <Gold.Chemscore.Internal_Hbond>
0.0000

> <Gold.Chemscore.DEClash>
0.3527

> <Gold.Chemscore.DEInternal>
0.8421

> <Gold.Chemscore.Rot>
1.3949

> <Gold.Chemscore.Internal.Correction>
   9.000000E+99

> <Gold.Chemscore.Hbonds>
donor molecule, donor type, donor heavy atom, donor atom, acceptor molecule, acceptor atom, score
      L1  H     8    31       P1  7948  0.98
      L1  H    21    47       P1 10186  0.85

> <Gold.Chemscore.Hbond.Weighted>
-6.4331

> <Gold.Chemscore.Metal.Weighted>
-0.0000

> <Gold.Chemscore.Lipo.Weighted>
-11.9089

> <Gold.Chemscore.Internal_Hbond.Weighted>
0.0000

> <Gold.Chemscore.DEClash.Weighted>
0.3527

> <Gold.Chemscore.DEInternal.Weighted>
0.8421

> <Gold.Chemscore.Rot.Weighted>
3.5709

> <Gold.Chemscore.Internal.Correction.Weighted>
   9.000000E+99

> <Gold.Protein.RotatedTorsions>
[ 6907 6896 6895 6894 ] final   65.71 input  -60.11 | X-H torsion
[ 7974 7965 7964 7962 ] final   24.03 input  175.53 | X-H torsion
[ 8008 7997 7996 7995 ] final   88.21 input   59.86 | X-H torsion
[ 10167 10162 10161 10158 ] final   56.64 input  -65.29 | X-H torsion
[ 10718 10713 10712 10709 ] final  -77.48 input   66.30 | X-H torsion
[ 10763 10752 10751 10750 ] final   56.07 input  -60.55 | X-H torsion
[ 11005 11000 10999 10996 ] final  123.92 input  -57.11 | X-H torsion

> <Gold.Protein.ActiveResidues>
 VAL166  LYS551  ARG553  GLY616  TRP617  ASP618  TYR619  PRO620  LYS621  CYS622 
 ASP623  PHE694  ASN695  SER759  ASP760  ASP761  ALA762  ILE779  LEU786  VAL792 
 PHE793  MET794  SER795  GLU796  ALA797  LYS798  CYS799  TRP800  GLU811  SER814 

> <Gold.Protein.RotatedAtoms>
  152.4427  134.5557  159.9879 H   0  0  0  0  0  0  0  0  0  0  0  0  # atno 6907 bound_to 6896
  151.5650  133.3392  159.2986 H   0  0  0  0  0  0  0  0  0  0  0  0  # atno 6908 bound_to 6896
  150.8337  134.7634  159.6939 H   0  0  0  0  0  0  0  0  0  0  0  0  # atno 6909 bound_to 6896
  146.1957  139.7661  142.8799 H   0  0  0  0  0  0  0  0  0  0  0  0  # atno 7974 bound_to 7965
  155.9850  140.3374  155.6698 H   0  0  0  0  0  0  0  0  0  0  0  0  # atno 8008 bound_to 7997
  155.6498  140.0704  157.2609 H   0  0  0  0  0  0  0  0  0  0  0  0  # atno 8009 bound_to 7997
  154.4202  140.1728  156.1649 H   0  0  0  0  0  0  0  0  0  0  0  0  # atno 8010 bound_to 7997
  140.2066  144.3933  150.6506 H   0  0  0  0  0  0  0  0  0  0  0  0  # atno 10167 bound_to 10162
  156.0144  130.4492  150.3351 H   0  0  0  0  0  0  0  0  0  0  0  0  # atno 10718 bound_to 10713
  152.9826  135.5689  154.5169 H   0  0  0  0  0  0  0  0  0  0  0  0  # atno 10763 bound_to 10752
  154.4663  135.2783  155.1677 H   0  0  0  0  0  0  0  0  0  0  0  0  # atno 10764 bound_to 10752
  154.3244  135.6262  153.5576 H   0  0  0  0  0  0  0  0  0  0  0  0  # atno 10765 bound_to 10752
  139.9334  134.9640  156.8331 H   0  0  0  0  0  0  0  0  0  0  0  0  # atno 11005 bound_to 11000
  145.3652  141.0333  143.3262 LP  0  0  0  0  0  0  0  0  0  0  0  0  # atno 17320 bound_to 7965
  144.8575  139.5227  143.6828 LP  0  0  0  0  0  0  0  0  0  0  0  0  # atno 17321 bound_to 7965
  140.6353  143.2194  151.6408 LP  0  0  0  0  0  0  0  0  0  0  0  0  # atno 17342 bound_to 10162
  139.5196  144.3248  152.0879 LP  0  0  0  0  0  0  0  0  0  0  0  0  # atno 17343 bound_to 10162
  157.1448  131.0306  151.2911 LP  0  0  0  0  0  0  0  0  0  0  0  0  # atno 17370 bound_to 10713
  157.4441  130.7561  149.7095 LP  0  0  0  0  0  0  0  0  0  0  0  0  # atno 17371 bound_to 10713
  140.6139  134.0056  155.7589 LP  0  0  0  0  0  0  0  0  0  0  0  0  # atno 17394 bound_to 11000
  141.0936  133.9879  157.3197 LP  0  0  0  0  0  0  0  0  0  0  0  0  # atno 17395 bound_to 11000

$$$$
