AV-unprocessed.smi:1360|AV-procd|sdf|5553|dock10
  -GOLD-   22720 5143D 1   1.00000     0.00000
 Structure written by MMmdl.
 36 37  0  0  0  0  0  0  0  0  1 V2000
  153.1045  137.7886  156.5901 C   0  0  0  0  0  0  0  0  0  0  0  0
  151.7684  138.5100  156.3475 C   0  0  2  0  0  0  0  0  0  0  0  0
  151.3403  138.5161  154.8631 C   0  0  0  0  0  0  0  0  0  0  0  0
  150.2342  139.4175  154.5948 N   0  0  0  0  0  0  0  0  0  0  0  0
  148.9956  139.1211  154.0656 C   0  0  0  0  0  0  0  0  0  0  0  0
  148.2934  140.2901  153.9960 C   0  0  0  0  0  0  0  0  0  0  0  0
  149.2009  141.2602  154.5063 C   0  0  0  0  0  0  0  0  0  0  0  0
  150.3623  140.7352  154.8616 N   0  0  0  0  0  0  0  0  0  0  0  0
  151.8671  139.8784  156.8471 N   0  0  0  0  0  0  0  0  0  0  0  0
  152.2236  140.2292  158.0929 C   0  0  0  0  0  0  0  0  0  0  0  0
  152.5032  139.4116  158.9703 O   0  0  0  0  0  0  0  0  0  0  0  0
  152.2739  141.7334  158.3931 C   0  0  1  0  0  0  0  0  0  0  0  0
  150.9103  142.4085  158.1157 C   0  0  0  0  0  0  0  0  0  0  0  0
  150.8551  143.8300  158.6474 C   0  0  0  0  0  0  0  0  0  0  0  0
  151.7347  144.3215  159.5369 C   0  0  0  0  0  0  0  0  0  0  0  0
  152.8810  143.5097  160.1139 C   0  0  0  0  0  0  0  0  0  0  0  0
  152.7221  142.0013  159.8437 C   0  0  0  0  0  0  0  0  0  0  0  0
  153.0454  136.7344  156.3190 H   0  0  0  0  0  0  0  0  0  0  0  0
  153.3885  137.8337  157.6420 H   0  0  0  0  0  0  0  0  0  0  0  0
  153.9094  138.2380  156.0077 H   0  0  0  0  0  0  0  0  0  0  0  0
  151.0076  137.9831  156.9266 H   0  0  0  0  0  0  0  0  0  0  0  0
  152.1769  138.8047  154.2249 H   0  0  0  0  0  0  0  0  0  0  0  0
  151.0457  137.5125  154.5532 H   0  0  0  0  0  0  0  0  0  0  0  0
  148.7188  138.1141  153.7894 H   0  0  0  0  0  0  0  0  0  0  0  0
  147.2857  140.4312  153.6345 H   0  0  0  0  0  0  0  0  0  0  0  0
  149.0516  142.3228  154.6276 H   0  0  0  0  0  0  0  0  0  0  0  0
  151.6531  140.6169  156.1928 H   0  0  0  0  0  0  0  0  0  0  0  0
  153.0142  142.1877  157.7314 H   0  0  0  0  0  0  0  0  0  0  0  0
  150.7226  142.4322  157.0417 H   0  0  0  0  0  0  0  0  0  0  0  0
  150.0897  141.8506  158.5687 H   0  0  0  0  0  0  0  0  0  0  0  0
  150.0509  144.4544  158.2864 H   0  0  0  0  0  0  0  0  0  0  0  0
  151.6494  145.3466  159.8665 H   0  0  0  0  0  0  0  0  0  0  0  0
  153.8081  143.8760  159.6722 H   0  0  0  0  0  0  0  0  0  0  0  0
  152.9473  143.6902  161.1870 H   0  0  0  0  0  0  0  0  0  0  0  0
  151.9835  141.5909  160.5343 H   0  0  0  0  0  0  0  0  0  0  0  0
  153.6615  141.4903  160.0596 H   0  0  0  0  0  0  0  0  0  0  0  0
  1  2  1  0  0  0  0
  1 18  1  0  0  0  0
  1 19  1  0  0  0  0
  1 20  1  0  0  0  0
  2  3  1  0  0  0  0
  2  9  1  0  0  0  0
  2 21  1  0  0  0  0
  3  4  1  0  0  0  0
  3 22  1  0  0  0  0
  3 23  1  0  0  0  0
  4  8  1  0  0  0  0
  4  5  1  0  0  0  0
  5  6  2  0  0  0  0
  5 24  1  0  0  0  0
  6  7  1  0  0  0  0
  6 25  1  0  0  0  0
  7  8  2  0  0  0  0
  7 26  1  0  0  0  0
  9 10  1  0  0  0  0
  9 27  1  0  0  0  0
 10 11  2  0  0  0  0
 10 12  1  0  0  0  0
 12 17  1  0  0  0  0
 12 13  1  0  0  0  0
 12 28  1  0  0  0  0
 13 14  1  0  0  0  0
 13 29  1  0  0  0  0
 13 30  1  0  0  0  0
 14 15  2  0  0  0  0
 14 31  1  0  0  0  0
 15 16  1  0  0  0  0
 15 32  1  0  0  0  0
 16 17  1  0  0  0  0
 16 33  1  0  0  0  0
 16 34  1  0  0  0  0
 17 35  1  0  0  0  0
 17 36  1  0  0  0  0
M  END
> <s_m_source_file>
AV-unprocessed.smi

> <i_m_source_file_index>
1360

> <i_lp_mmshare_version>
43012

> <i_f3d_flags>
0

> <s_epik_input>
bjFbY0hdW2NIXVtjSF1uMVtDSDJdW0NAQEhdKFtDSDNdKVtOSF1DKD1PKVtDQEBIXTJbQ0gyXVtDSF09W0NIXVtDSDJdW0NIMl0y

> <s_epik_cmdline>
J2VwaWtfcHl0aG9uJywgJy1waCcsICc3LjAnLCAnLXRuJywgJzgnLCAnLW1hJywgJzIwMCcsICctbWV0YWxfYmluZGluZycsICctaW1hZScsICc8aW5maWxlLm1hZT4nLCAnLW9tYWUnLCAnPG91dGZpbGUubWFlPic=

> <r_lp_tautomer_probability>
1

> <r_epik_Ionization_Penalty>
0.000315076

> <r_epik_Ionization_Penalty_Charging>
0

> <r_epik_Ionization_Penalty_Neutral>
0.000315076

> <r_epik_State_Penalty>
-0

> <r_epik_Charging_Adjusted_Penalty>
0

> <i_epik_Tot_Q>
0

> <i_epik_Tot_abs_Q>
0

> <r_epik_Metal_State_Penalty>
-0

> <b_epik_Metal_Only>
0

> <s_lp_Force_Field>
OPLS_2005

> <r_lp_Energy>
8.32294

> <b_lp_Chiralities_Consistent>
1

> <s_lp_Variant>
AV-unprocessed.smi:1360-3

> <Gold.Version>
5.8.1

> <Gold.Id.Protein>
6NUR|6NUR_protein|mol2

> <Gold.PLP.Fitness>
40.5792

> <Gold.PLP.PLP>
-35.1605

> <Gold.PLP.part.hbond>
-1.0000

> <Gold.PLP.part.metal>
0.0000

> <Gold.PLP.part.buried>
-3.0479

> <Gold.PLP.part.nonpolar>
-31.0936

> <Gold.PLP.part.repulsive>
0.2104

> <Gold.PLP.ligand.clash>
0.0000

> <Gold.PLP.ligand.torsion>
0.1060

> <Gold.PLP.Chemscore.Hbond>
0.4240

> <Gold.PLP.Chemscore.CHOScore>
1.4427

> <Gold.PLP.Chemscore.Metal>
0.0000

> <Gold.Chemscore.Hbonds>
donor molecule, donor type, donor heavy atom, donor atom, acceptor molecule, acceptor atom, score
      P1  H  7989  7998       L1     8  0.42
      L1  C     5    24       P1  7948  0.61
      L1  C     7    26       P1  8028  0.83

> <Gold.PLP.Chemscore.Internal.Correction>
0.0305

> <Gold.Rescore>
     Score         DG    S(hbond)    S(metal)    S(lipo)     H(rot)  DE(clash)    DE(int)     intcor
     14.56     -15.89       0.71        0.00     101.62       1.51       0.06       1.26       ----

> <Gold.Chemscore.Fitness>
14.5647

> <Gold.Chemscore.DG>
-15.8876

> <Gold.Chemscore.ZeroCoef>
-5.4800

> <Gold.Chemscore.Hbond>
0.7104

> <Gold.Chemscore.Metal>
0.0000

> <Gold.Chemscore.Lipo>
101.6199

> <Gold.Chemscore.Internal_Hbond>
0.0000

> <Gold.Chemscore.DEClash>
0.0585

> <Gold.Chemscore.DEInternal>
1.2644

> <Gold.Chemscore.Rot>
1.5057

> <Gold.Chemscore.Internal.Correction>
   9.000000E+99

> <Gold.Chemscore.Hbonds>
donor molecule, donor type, donor heavy atom, donor atom, acceptor molecule, acceptor atom, score
      P1  H  7989  7998       L1     8  0.02

> <Gold.Chemscore.Hbond.Weighted>
-2.3727

> <Gold.Chemscore.Metal.Weighted>
-0.0000

> <Gold.Chemscore.Lipo.Weighted>
-11.8895

> <Gold.Chemscore.Internal_Hbond.Weighted>
0.0000

> <Gold.Chemscore.DEClash.Weighted>
0.0585

> <Gold.Chemscore.DEInternal.Weighted>
1.2644

> <Gold.Chemscore.Rot.Weighted>
3.8546

> <Gold.Chemscore.Internal.Correction.Weighted>
   9.000000E+99

> <Gold.Protein.RotatedTorsions>
[ 6907 6896 6895 6894 ] final  -80.65 input  -60.11 | X-H torsion
[ 7974 7965 7964 7962 ] final  -74.20 input  175.53 | X-H torsion
[ 8008 7997 7996 7995 ] final -127.00 input   59.86 | X-H torsion
[ 10167 10162 10161 10158 ] final -139.17 input  -65.29 | X-H torsion
[ 10718 10713 10712 10709 ] final   33.24 input   66.30 | X-H torsion
[ 10763 10752 10751 10750 ] final   89.21 input  -60.55 | X-H torsion
[ 11005 11000 10999 10996 ] final -115.71 input  -57.11 | X-H torsion

> <Gold.Protein.ActiveResidues>
 VAL166  LYS551  ARG553  GLY616  TRP617  ASP618  TYR619  PRO620  LYS621  CYS622 
 ASP623  PHE694  ASN695  SER759  ASP760  ASP761  ALA762  ILE779  LEU786  VAL792 
 PHE793  MET794  SER795  GLU796  ALA797  LYS798  CYS799  TRP800  GLU811  SER814 

> <Gold.Protein.RotatedAtoms>
  150.6925  134.3937  159.5087 H   0  0  0  0  0  0  0  0  0  0  0  0  # atno 6907 bound_to 6896
  152.1721  134.8823  160.0542 H   0  0  0  0  0  0  0  0  0  0  0  0  # atno 6908 bound_to 6896
  151.9845  133.3734  159.4157 H   0  0  0  0  0  0  0  0  0  0  0  0  # atno 6909 bound_to 6896
  145.6422  140.9307  143.1029 H   0  0  0  0  0  0  0  0  0  0  0  0  # atno 7974 bound_to 7965
  155.2390  140.0428  157.2972 H   0  0  0  0  0  0  0  0  0  0  0  0  # atno 8008 bound_to 7997
  154.5840  140.2408  155.7983 H   0  0  0  0  0  0  0  0  0  0  0  0  # atno 8009 bound_to 7997
  156.2213  140.2969  155.9968 H   0  0  0  0  0  0  0  0  0  0  0  0  # atno 8010 bound_to 7997
  139.8406  143.7327  152.2663 H   0  0  0  0  0  0  0  0  0  0  0  0  # atno 10167 bound_to 10162
  157.2953  130.7323  149.6635 H   0  0  0  0  0  0  0  0  0  0  0  0  # atno 10718 bound_to 10713
  153.1848  135.4478  155.0074 H   0  0  0  0  0  0  0  0  0  0  0  0  # atno 10763 bound_to 10752
  154.8053  135.3272  154.7449 H   0  0  0  0  0  0  0  0  0  0  0  0  # atno 10764 bound_to 10752
  153.7909  135.6970  153.4927 H   0  0  0  0  0  0  0  0  0  0  0  0  # atno 10765 bound_to 10752
  141.0470  133.9747  157.2901 H   0  0  0  0  0  0  0  0  0  0  0  0  # atno 11005 bound_to 11000
  144.7153  139.8220  143.7401 LP  0  0  0  0  0  0  0  0  0  0  0  0  # atno 17320 bound_to 7965
  146.1271  139.4299  143.0192 LP  0  0  0  0  0  0  0  0  0  0  0  0  # atno 17321 bound_to 7965
  139.7563  144.7520  151.0431 LP  0  0  0  0  0  0  0  0  0  0  0  0  # atno 17342 bound_to 10162
  140.7798  143.4802  151.0028 LP  0  0  0  0  0  0  0  0  0  0  0  0  # atno 17343 bound_to 10162
  155.9669  130.4296  150.4841 LP  0  0  0  0  0  0  0  0  0  0  0  0  # atno 17370 bound_to 10713
  157.2811  131.0607  151.2197 LP  0  0  0  0  0  0  0  0  0  0  0  0  # atno 17371 bound_to 10713
  139.9319  135.0199  156.8430 LP  0  0  0  0  0  0  0  0  0  0  0  0  # atno 17394 bound_to 11000
  140.6128  134.0066  155.7584 LP  0  0  0  0  0  0  0  0  0  0  0  0  # atno 17395 bound_to 11000

$$$$
