AV-unprocessed.smi:1207|AV-procd|sdf|5053|dock4
  -GOLD-   22720 4 83D 1   1.00000     0.00000
 Structure written by MMmdl.
 52 54  0  0  0  0  0  0  0  0  2 V2000
  152.4491  141.3414  158.9188 C   0  0  0  0  0  0  0  0  0  0  0  0
  151.5040  141.0451  157.7675 C   0  0  0  0  0  0  0  0  0  0  0  0
  151.7946  139.9681  156.9003 C   0  0  0  0  0  0  0  0  0  0  0  0
  150.9417  139.6585  155.8188 C   0  0  0  0  0  0  0  0  0  0  0  0
  151.0271  138.6596  154.8645 N   0  0  0  0  0  0  0  0  0  0  0  0
  149.9388  138.8899  154.1364 C   0  0  0  0  0  0  0  0  0  0  0  0
  149.1525  139.9172  154.5110 N   0  0  0  0  0  0  0  0  0  0  0  0
  147.9181  140.3428  153.8775 C   0  0  0  0  0  0  0  0  0  0  0  0
  147.3773  139.2936  152.8876 C   0  0  2  0  0  0  0  0  0  0  0  0
  146.6096  139.9709  151.9136 O   0  0  0  0  0  0  0  0  0  0  0  0
  146.4949  138.2130  153.5515 C   0  0  0  0  0  0  0  0  0  0  0  0
  146.5211  136.9346  152.7975 N   0  3  2  0  0  0  0  0  0  0  0  0
  145.8863  137.0591  151.4642 C   0  0  0  0  0  0  0  0  0  0  0  0
  145.9899  135.7899  153.5822 C   0  0  0  0  0  0  0  0  0  0  0  0
  145.9868  134.5229  152.7681 C   0  0  0  0  0  0  0  0  0  0  0  0
  145.0598  134.1192  151.7637 C   0  0  0  0  0  0  0  0  0  0  0  0
  143.8468  134.8449  151.2555 C   0  0  0  0  0  0  0  0  0  0  0  0
  145.3670  132.9373  151.2575 N   0  0  0  0  0  0  0  0  0  0  0  0
  146.5212  132.5199  151.9266 O   0  0  0  0  0  0  0  0  0  0  0  0
  146.8687  133.4784  152.8213 C   0  0  0  0  0  0  0  0  0  0  0  0
  148.0862  133.2128  153.6411 C   0  0  0  0  0  0  0  0  0  0  0  0
  149.7812  140.4637  155.6253 C   0  0  0  0  0  0  0  0  0  0  0  0
  149.4817  141.5390  156.4806 C   0  0  0  0  0  0  0  0  0  0  0  0
  150.3441  141.8335  157.5575 C   0  0  0  0  0  0  0  0  0  0  0  0
  150.0131  142.9964  158.4760 C   0  0  0  0  0  0  0  0  0  0  0  0
  153.2701  140.6247  158.9541 H   0  0  0  0  0  0  0  0  0  0  0  0
  151.9217  141.2907  159.8715 H   0  0  0  0  0  0  0  0  0  0  0  0
  152.8789  142.3374  158.8126 H   0  0  0  0  0  0  0  0  0  0  0  0
  152.6783  139.3677  157.0600 H   0  0  0  0  0  0  0  0  0  0  0  0
  149.6944  138.2722  153.2844 H   0  0  0  0  0  0  0  0  0  0  0  0
  147.1814  140.5587  154.6522 H   0  0  0  0  0  0  0  0  0  0  0  0
  148.1117  141.2843  153.3608 H   0  0  0  0  0  0  0  0  0  0  0  0
  148.2240  138.8347  152.3778 H   0  0  0  0  0  0  0  0  0  0  0  0
  145.8270  140.3072  152.3238 H   0  0  0  0  0  0  0  0  0  0  0  0
  146.8098  138.0142  154.5763 H   0  0  0  0  0  0  0  0  0  0  0  0
  145.4746  138.5939  153.6207 H   0  0  0  0  0  0  0  0  0  0  0  0
  144.8202  137.2707  151.5568 H   0  0  0  0  0  0  0  0  0  0  0  0
  146.0051  136.1445  150.8836 H   0  0  0  0  0  0  0  0  0  0  0  0
  146.3464  137.8644  150.8906 H   0  0  0  0  0  0  0  0  0  0  0  0
  146.5938  135.6420  154.4770 H   0  0  0  0  0  0  0  0  0  0  0  0
  144.9925  136.0365  153.9485 H   0  0  0  0  0  0  0  0  0  0  0  0
  143.9869  135.9249  151.2904 H   0  0  0  0  0  0  0  0  0  0  0  0
  142.9693  134.6044  151.8557 H   0  0  0  0  0  0  0  0  0  0  0  0
  143.6253  134.5781  150.2215 H   0  0  0  0  0  0  0  0  0  0  0  0
  148.3507  134.0795  154.2463 H   0  0  0  0  0  0  0  0  0  0  0  0
  148.9378  132.9769  153.0028 H   0  0  0  0  0  0  0  0  0  0  0  0
  147.9224  132.3698  154.3124 H   0  0  0  0  0  0  0  0  0  0  0  0
  148.5953  142.1320  156.3113 H   0  0  0  0  0  0  0  0  0  0  0  0
  149.0967  143.5002  158.1674 H   0  0  0  0  0  0  0  0  0  0  0  0
  150.8182  143.7313  158.4669 H   0  0  0  0  0  0  0  0  0  0  0  0
  149.8744  142.6471  159.4993 H   0  0  0  0  0  0  0  0  0  0  0  0
  147.4981  136.7422  152.6260 H   0  0  0  0  0  0  0  0  0  0  0  0
  1  2  1  0  0  0  0
  1 26  1  0  0  0  0
  1 27  1  0  0  0  0
  1 28  1  0  0  0  0
  2 24  1  0  0  0  0
  2  3  2  0  0  0  0
  3  4  1  0  0  0  0
  3 29  1  0  0  0  0
  4 22  2  0  0  0  0
  4  5  1  0  0  0  0
  5  6  2  0  0  0  0
  6  7  1  0  0  0  0
  6 30  1  0  0  0  0
  7  8  1  0  0  0  0
  7 22  1  0  0  0  0
  8  9  1  0  0  0  0
  8 31  1  0  0  0  0
  8 32  1  0  0  0  0
  9 10  1  0  0  0  0
  9 11  1  0  0  0  0
  9 33  1  0  0  0  0
 10 34  1  0  0  0  0
 11 12  1  0  0  0  0
 11 35  1  0  0  0  0
 11 36  1  0  0  0  0
 12 13  1  0  0  0  0
 12 14  1  0  0  0  0
 12 52  1  0  0  0  0
 13 37  1  0  0  0  0
 13 38  1  0  0  0  0
 13 39  1  0  0  0  0
 14 15  1  0  0  0  0
 14 40  1  0  0  0  0
 14 41  1  0  0  0  0
 15 20  2  0  0  0  0
 15 16  1  0  0  0  0
 16 17  1  0  0  0  0
 16 18  2  0  0  0  0
 17 42  1  0  0  0  0
 17 43  1  0  0  0  0
 17 44  1  0  0  0  0
 18 19  1  0  0  0  0
 19 20  1  0  0  0  0
 20 21  1  0  0  0  0
 21 45  1  0  0  0  0
 21 46  1  0  0  0  0
 21 47  1  0  0  0  0
 22 23  1  0  0  0  0
 23 24  2  0  0  0  0
 23 48  1  0  0  0  0
 24 25  1  0  0  0  0
 25 49  1  0  0  0  0
 25 50  1  0  0  0  0
 25 51  1  0  0  0  0
M  CHG  1  12   1
M  END
> <s_m_source_file>
AV-unprocessed.smi

> <i_m_source_file_index>
1207

> <i_lp_mmshare_version>
43012

> <i_f3d_flags>
0

> <s_epik_input>
W0NIM11jKFtjSF0xKWMoW0NIM10pW2NIXWMoYzEyKW4oW2NIXW4yKVtDSDJdW0NASF0oW09IXSlbQ0gyXU4oW0NIM10pW0NIMl1jM2MoW0NIM10pbm9jM1tDSDNd

> <s_epik_cmdline>
J2VwaWtfcHl0aG9uJywgJy1waCcsICc3LjAnLCAnLXRuJywgJzgnLCAnLW1hJywgJzIwMCcsICctbWV0YWxfYmluZGluZycsICctaW1hZScsICc8aW5maWxlLm1hZT4nLCAnLW9tYWUnLCAnPG91dGZpbGUubWFlPic=

> <r_epik_Ionization_Penalty>
0.646518

> <r_epik_Ionization_Penalty_Charging>
0.559419

> <r_epik_Ionization_Penalty_Neutral>
0.0870981

> <r_epik_State_Penalty>
0.661677

> <r_epik_Charging_Adjusted_Penalty>
1.2211

> <i_epik_Tot_Q>
1

> <i_epik_Tot_abs_Q>
1

> <r_epik_Metal_State_Penalty>
0.649158

> <b_epik_Metal_Only>
0

> <s_lp_Force_Field>
OPLS_2005

> <r_lp_Energy>
8.09653

> <b_lp_Chiralities_Consistent>
1

> <s_lp_Variant>
AV-unprocessed.smi:1207-5

> <Gold.Version>
5.8.1

> <Gold.Id.Protein>
6NUR|6NUR_protein|mol2

> <Gold.PLP.Fitness>
50.5158

> <Gold.PLP.PLP>
-38.9842

> <Gold.PLP.part.hbond>
-2.5261

> <Gold.PLP.part.metal>
0.0000

> <Gold.PLP.part.buried>
-0.3689

> <Gold.PLP.part.nonpolar>
-37.0609

> <Gold.PLP.part.repulsive>
0.5104

> <Gold.PLP.ligand.clash>
0.0000

> <Gold.PLP.ligand.torsion>
1.1263

> <Gold.PLP.Chemscore.Hbond>
3.0000

> <Gold.PLP.Chemscore.CHOScore>
1.3875

> <Gold.PLP.Chemscore.Metal>
0.0000

> <Gold.Chemscore.Hbonds>
donor molecule, donor type, donor heavy atom, donor atom, acceptor molecule, acceptor atom, score
      L1  H    10    34       P1 10175  0.71
      L1  H    12    52       P1  7948  2.00
      L1  C     6    30       P1  7948  0.94
      L1  C     6    30       P1  7957  0.23

> <Gold.PLP.Chemscore.Internal.Correction>
0.6217

> <Gold.Rescore>
     Score         DG    S(hbond)    S(metal)    S(lipo)     H(rot)  DE(clash)    DE(int)     intcor
     15.67     -17.00       1.79        0.00     101.09       2.46       0.13       1.20       ----

> <Gold.Chemscore.Fitness>
15.6717

> <Gold.Chemscore.DG>
-17.0028

> <Gold.Chemscore.ZeroCoef>
-5.4800

> <Gold.Chemscore.Hbond>
1.7916

> <Gold.Chemscore.Metal>
0.0000

> <Gold.Chemscore.Lipo>
101.0904

> <Gold.Chemscore.Internal_Hbond>
0.0000

> <Gold.Chemscore.DEClash>
0.1338

> <Gold.Chemscore.DEInternal>
1.1973

> <Gold.Chemscore.Rot>
2.4565

> <Gold.Chemscore.Internal.Correction>
   9.000000E+99

> <Gold.Chemscore.Hbonds>
donor molecule, donor type, donor heavy atom, donor atom, acceptor molecule, acceptor atom, score
      L1  H    10    34       P1 10175  0.37
      L1  H    12    52       P1  7948  1.00

> <Gold.Chemscore.Hbond.Weighted>
-5.9839

> <Gold.Chemscore.Metal.Weighted>
-0.0000

> <Gold.Chemscore.Lipo.Weighted>
-11.8276

> <Gold.Chemscore.Internal_Hbond.Weighted>
0.0000

> <Gold.Chemscore.DEClash.Weighted>
0.1338

> <Gold.Chemscore.DEInternal.Weighted>
1.1973

> <Gold.Chemscore.Rot.Weighted>
6.2887

> <Gold.Chemscore.Internal.Correction.Weighted>
   9.000000E+99

> <Gold.Protein.RotatedTorsions>
[ 6907 6896 6895 6894 ] final    6.51 input  -60.11 | X-H torsion
[ 7974 7965 7964 7962 ] final -167.67 input  175.53 | X-H torsion
[ 8008 7997 7996 7995 ] final  -98.28 input   59.86 | X-H torsion
[ 10167 10162 10161 10158 ] final  -99.32 input  -65.29 | X-H torsion
[ 10718 10713 10712 10709 ] final  171.29 input   66.30 | X-H torsion
[ 10763 10752 10751 10750 ] final -125.24 input  -60.55 | X-H torsion
[ 11005 11000 10999 10996 ] final  115.84 input  -57.11 | X-H torsion

> <Gold.Protein.ActiveResidues>
 VAL166  LYS551  ARG553  GLY616  TRP617  ASP618  TYR619  PRO620  LYS621  CYS622 
 ASP623  PHE694  ASN695  SER759  ASP760  ASP761  ALA762  ILE779  LEU786  VAL792 
 PHE793  MET794  SER795  GLU796  ALA797  LYS798  CYS799  TRP800  GLU811  SER814 

> <Gold.Protein.RotatedAtoms>
  151.6749  135.0970  160.0204 H   0  0  0  0  0  0  0  0  0  0  0  0  # atno 6907 bound_to 6896
  152.3870  133.6620  159.6215 H   0  0  0  0  0  0  0  0  0  0  0  0  # atno 6908 bound_to 6896
  150.7793  133.8935  159.3361 H   0  0  0  0  0  0  0  0  0  0  0  0  # atno 6909 bound_to 6896
  144.7218  140.2484  143.6282 H   0  0  0  0  0  0  0  0  0  0  0  0  # atno 7974 bound_to 7965
  154.7991  140.0456  157.1259 H   0  0  0  0  0  0  0  0  0  0  0  0  # atno 8008 bound_to 7997
  154.9500  140.3064  155.5060 H   0  0  0  0  0  0  0  0  0  0  0  0  # atno 8009 bound_to 7997
  156.2959  140.2290  156.4577 H   0  0  0  0  0  0  0  0  0  0  0  0  # atno 8010 bound_to 7997
  140.2637  143.3390  152.0601 H   0  0  0  0  0  0  0  0  0  0  0  0  # atno 10167 bound_to 10162
  156.9958  131.0161  151.2844 H   0  0  0  0  0  0  0  0  0  0  0  0  # atno 10718 bound_to 10713
  154.8733  135.4036  154.3236 H   0  0  0  0  0  0  0  0  0  0  0  0  # atno 10763 bound_to 10752
  153.4061  135.7019  153.6397 H   0  0  0  0  0  0  0  0  0  0  0  0  # atno 10764 bound_to 10752
  153.5120  135.3705  155.2562 H   0  0  0  0  0  0  0  0  0  0  0  0  # atno 10765 bound_to 10752
  139.9022  134.9590  156.7107 H   0  0  0  0  0  0  0  0  0  0  0  0  # atno 11005 bound_to 11000
  145.8252  139.2061  143.1915 LP  0  0  0  0  0  0  0  0  0  0  0  0  # atno 17320 bound_to 7965
  146.0479  140.8099  142.9796 LP  0  0  0  0  0  0  0  0  0  0  0  0  # atno 17321 bound_to 7965
  139.5009  144.6702  151.6260 LP  0  0  0  0  0  0  0  0  0  0  0  0  # atno 17342 bound_to 10162
  140.5946  143.9720  150.6346 LP  0  0  0  0  0  0  0  0  0  0  0  0  # atno 17343 bound_to 10162
  157.5426  130.8130  149.8047 LP  0  0  0  0  0  0  0  0  0  0  0  0  # atno 17370 bound_to 10713
  156.0190  130.3802  150.2021 LP  0  0  0  0  0  0  0  0  0  0  0  0  # atno 17371 bound_to 10713
  140.7078  133.9250  155.8065 LP  0  0  0  0  0  0  0  0  0  0  0  0  # atno 17394 bound_to 11000
  141.0323  134.0738  157.4000 LP  0  0  0  0  0  0  0  0  0  0  0  0  # atno 17395 bound_to 11000

$$$$
