AV-unprocessed.smi:926|AV-procd|sdf|4186|dock1
  -GOLD-   22720 2 93D 1   1.00000     0.00000
 Structure written by MMmdl.
 37 39  0  0  0  0  0  0  0  0  1 V2000
  155.3092  139.7739  159.1741 O   0  0  0  0  0  0  0  0  0  0  0  0
  154.6028  139.3022  160.0670 C   0  0  0  0  0  0  0  0  0  0  0  0
  154.4207  137.7874  160.2209 C   0  0  0  0  0  0  0  0  0  0  0  0
  153.9952  137.1417  158.9909 N   0  0  0  0  0  0  0  0  0  0  0  0
  154.5822  137.0574  157.7949 C   0  0  0  0  0  0  0  0  0  0  0  0
  153.8458  136.3691  156.9361 N   0  0  0  0  0  0  0  0  0  0  0  0
  152.7344  136.0190  157.6848 N   0  0  0  0  0  0  0  0  0  0  0  0
  152.8176  136.4745  158.9049 N   0  0  0  0  0  0  0  0  0  0  0  0
  153.9543  140.0603  160.9640 N   0  0  0  0  0  0  0  0  0  0  0  0
  153.9923  141.5169  161.0085 C   0  0  0  0  0  0  0  0  0  0  0  0
  153.3173  142.1380  159.7732 C   0  0  0  0  0  0  0  0  0  0  0  0
  151.9740  142.8237  160.0926 C   0  0  1  0  0  0  0  0  0  0  0  0
  152.1025  144.0604  161.0081 C   0  0  0  0  0  0  0  0  0  0  0  0
  151.3109  145.1386  160.2448 C   0  0  1  0  0  0  0  0  0  0  0  0
  152.1279  145.5933  159.0211 C   0  0  0  0  0  0  0  0  0  0  0  0
  152.0058  144.3908  158.0674 C   0  0  0  0  0  0  0  0  0  0  0  0
  151.1746  143.3854  158.8906 C   0  0  2  0  0  0  0  0  0  0  0  0
  150.1988  144.3211  159.5971 C   0  0  0  0  0  0  0  0  0  0  0  0
  155.3637  137.3402  160.5372 H   0  0  0  0  0  0  0  0  0  0  0  0
  153.6873  137.5838  161.0030 H   0  0  0  0  0  0  0  0  0  0  0  0
  155.5383  137.4993  157.5560 H   0  0  0  0  0  0  0  0  0  0  0  0
  153.3947  139.5964  161.6652 H   0  0  0  0  0  0  0  0  0  0  0  0
  153.5195  141.8674  161.9272 H   0  0  0  0  0  0  0  0  0  0  0  0
  155.0357  141.8291  161.0585 H   0  0  0  0  0  0  0  0  0  0  0  0
  153.9903  142.8782  159.3386 H   0  0  0  0  0  0  0  0  0  0  0  0
  153.1798  141.3823  159.0001 H   0  0  0  0  0  0  0  0  0  0  0  0
  151.3424  142.0920  160.5999 H   0  0  0  0  0  0  0  0  0  0  0  0
  151.6527  143.8629  161.9820 H   0  0  0  0  0  0  0  0  0  0  0  0
  153.1372  144.3608  161.1783 H   0  0  0  0  0  0  0  0  0  0  0  0
  150.9733  145.9617  160.8750 H   0  0  0  0  0  0  0  0  0  0  0  0
  151.6928  146.4859  158.5698 H   0  0  0  0  0  0  0  0  0  0  0  0
  153.1643  145.8185  159.2760 H   0  0  0  0  0  0  0  0  0  0  0  0
  151.4642  144.6804  157.1659 H   0  0  0  0  0  0  0  0  0  0  0  0
  152.9714  144.0002  157.7484 H   0  0  0  0  0  0  0  0  0  0  0  0
  150.6983  142.6149  158.2838 H   0  0  0  0  0  0  0  0  0  0  0  0
  149.5557  143.8153  160.3195 H   0  0  0  0  0  0  0  0  0  0  0  0
  149.5785  144.9007  158.9110 H   0  0  0  0  0  0  0  0  0  0  0  0
  1  2  2  0  0  0  0
  2  3  1  0  0  0  0
  2  9  1  0  0  0  0
  3  4  1  0  0  0  0
  3 19  1  0  0  0  0
  3 20  1  0  0  0  0
  4  8  1  0  0  0  0
  4  5  1  0  0  0  0
  5  6  2  0  0  0  0
  5 21  1  0  0  0  0
  6  7  1  0  0  0  0
  7  8  2  0  0  0  0
  9 10  1  0  0  0  0
  9 22  1  0  0  0  0
 10 11  1  0  0  0  0
 10 23  1  0  0  0  0
 10 24  1  0  0  0  0
 11 12  1  0  0  0  0
 11 25  1  0  0  0  0
 11 26  1  0  0  0  0
 12 17  1  0  0  0  0
 12 13  1  0  0  0  0
 12 27  1  0  0  0  0
 13 14  1  0  0  0  0
 13 28  1  0  0  0  0
 13 29  1  0  0  0  0
 14 18  1  0  0  0  0
 14 15  1  0  0  0  0
 14 30  1  0  0  0  0
 15 16  1  0  0  0  0
 15 31  1  0  0  0  0
 15 32  1  0  0  0  0
 16 17  1  0  0  0  0
 16 33  1  0  0  0  0
 16 34  1  0  0  0  0
 17 18  1  0  0  0  0
 17 35  1  0  0  0  0
 18 36  1  0  0  0  0
 18 37  1  0  0  0  0
M  END
> <s_m_source_file>
AV-unprocessed.smi

> <i_m_source_file_index>
926

> <i_lp_mmshare_version>
43012

> <i_f3d_flags>
0

> <s_epik_input>
bjFubltjSF1uMVtDSDJdQyg9TylbTkhdW0NIMl1bQ0gyXVtDQEhdKFtDSDJdW0NASF0yMylbQ0BIXShbQ0gyXTMpW0NIMl1bQ0gyXTI=

> <s_epik_cmdline>
J2VwaWtfcHl0aG9uJywgJy1waCcsICc3LjAnLCAnLXRuJywgJzgnLCAnLW1hJywgJzIwMCcsICctbWV0YWxfYmluZGluZycsICctaW1hZScsICc8aW5maWxlLm1hZT4nLCAnLW9tYWUnLCAnPG91dGZpbGUubWFlPic=

> <r_lp_tautomer_probability>
1

> <r_epik_Ionization_Penalty>
4.22645e-07

> <r_epik_Ionization_Penalty_Charging>
0

> <r_epik_Ionization_Penalty_Neutral>
4.22645e-07

> <r_epik_State_Penalty>
-0

> <r_epik_Charging_Adjusted_Penalty>
0

> <i_epik_Tot_Q>
0

> <i_epik_Tot_abs_Q>
0

> <r_epik_Metal_State_Penalty>
-0

> <b_epik_Metal_Only>
0

> <s_lp_Force_Field>
OPLS_2005

> <r_lp_Energy>
51.6894

> <b_lp_Chiralities_Consistent>
1

> <s_lp_Variant>
AV-unprocessed.smi:926-4

> <Gold.Version>
5.8.1

> <Gold.Id.Protein>
6NUR|6NUR_protein|mol2

> <Gold.PLP.Fitness>
47.6274

> <Gold.PLP.PLP>
-39.8046

> <Gold.PLP.part.hbond>
-4.0000

> <Gold.PLP.part.metal>
0.0000

> <Gold.PLP.part.buried>
-5.0832

> <Gold.PLP.part.nonpolar>
-30.1024

> <Gold.PLP.part.repulsive>
0.0285

> <Gold.PLP.ligand.clash>
0.0000

> <Gold.PLP.ligand.torsion>
0.4328

> <Gold.PLP.Chemscore.Hbond>
2.8640

> <Gold.PLP.Chemscore.CHOScore>
0.0000

> <Gold.PLP.Chemscore.Metal>
0.0000

> <Gold.Chemscore.Hbonds>
donor molecule, donor type, donor heavy atom, donor atom, acceptor molecule, acceptor atom, score
      P1  H  6896  6908       L1     8  0.80
      P1  H  7997  8009       L1     1  1.00
      P1  H 10752 10763       L1     6  1.00

> <Gold.PLP.Chemscore.Internal.Correction>
0.0964

> <Gold.Rescore>
     Score         DG    S(hbond)    S(metal)    S(lipo)     H(rot)  DE(clash)    DE(int)     intcor
     18.97     -19.40       2.50        0.00     103.36       2.54       0.00       0.43       ----

> <Gold.Chemscore.Fitness>
18.9698

> <Gold.Chemscore.DG>
-19.3983

> <Gold.Chemscore.ZeroCoef>
-5.4800

> <Gold.Chemscore.Hbond>
2.4961

> <Gold.Chemscore.Metal>
0.0000

> <Gold.Chemscore.Lipo>
103.3601

> <Gold.Chemscore.Internal_Hbond>
0.0000

> <Gold.Chemscore.DEClash>
0.0000

> <Gold.Chemscore.DEInternal>
0.4285

> <Gold.Chemscore.Rot>
2.5436

> <Gold.Chemscore.Internal.Correction>
   9.000000E+99

> <Gold.Chemscore.Hbonds>
donor molecule, donor type, donor heavy atom, donor atom, acceptor molecule, acceptor atom, score
      P1  H  6896  6908       L1     8  0.35
      P1  H  7997  8009       L1     1  0.98
      P1  H 10752 10763       L1     6  0.48

> <Gold.Chemscore.Hbond.Weighted>
-8.3369

> <Gold.Chemscore.Metal.Weighted>
-0.0000

> <Gold.Chemscore.Lipo.Weighted>
-12.0931

> <Gold.Chemscore.Internal_Hbond.Weighted>
0.0000

> <Gold.Chemscore.DEClash.Weighted>
0.0000

> <Gold.Chemscore.DEInternal.Weighted>
0.4285

> <Gold.Chemscore.Rot.Weighted>
6.5117

> <Gold.Chemscore.Internal.Correction.Weighted>
   9.000000E+99

> <Gold.Protein.RotatedTorsions>
[ 6907 6896 6895 6894 ] final  -96.75 input  -60.11 | X-H torsion
[ 7974 7965 7964 7962 ] final -160.94 input  175.53 | X-H torsion
[ 8008 7997 7996 7995 ] final   96.99 input   59.86 | X-H torsion
[ 10167 10162 10161 10158 ] final  -35.94 input  -65.29 | X-H torsion
[ 10718 10713 10712 10709 ] final  -50.12 input   66.30 | X-H torsion
[ 10763 10752 10751 10750 ] final  126.37 input  -60.55 | X-H torsion
[ 11005 11000 10999 10996 ] final   20.52 input  -57.11 | X-H torsion

> <Gold.Protein.ActiveResidues>
 VAL166  LYS551  ARG553  GLY616  TRP617  ASP618  TYR619  PRO620  LYS621  CYS622 
 ASP623  PHE694  ASN695  SER759  ASP760  ASP761  ALA762  ILE779  LEU786  VAL792 
 PHE793  MET794  SER795  GLU796  ALA797  LYS798  CYS799  TRP800  GLU811  SER814 

> <Gold.Protein.RotatedAtoms>
  150.6997  134.1454  159.4120 H   0  0  0  0  0  0  0  0  0  0  0  0  # atno 6907 bound_to 6896
  151.9438  135.0199  160.0547 H   0  0  0  0  0  0  0  0  0  0  0  0  # atno 6908 bound_to 6896
  152.2071  133.4848  159.5126 H   0  0  0  0  0  0  0  0  0  0  0  0  # atno 6909 bound_to 6896
  144.7409  140.3469  143.6123 H   0  0  0  0  0  0  0  0  0  0  0  0  # atno 7974 bound_to 7965
  156.0854  140.3265  155.7747 H   0  0  0  0  0  0  0  0  0  0  0  0  # atno 8008 bound_to 7997
  155.5084  140.0575  157.2945 H   0  0  0  0  0  0  0  0  0  0  0  0  # atno 8009 bound_to 7997
  154.4606  140.1965  156.0272 H   0  0  0  0  0  0  0  0  0  0  0  0  # atno 8010 bound_to 7997
  140.7154  143.3443  151.2290 H   0  0  0  0  0  0  0  0  0  0  0  0  # atno 10167 bound_to 10162
  156.1830  130.4151  149.9480 H   0  0  0  0  0  0  0  0  0  0  0  0  # atno 10718 bound_to 10713
  153.6923  135.3297  155.3205 H   0  0  0  0  0  0  0  0  0  0  0  0  # atno 10763 bound_to 10752
  154.8436  135.4434  154.1496 H   0  0  0  0  0  0  0  0  0  0  0  0  # atno 10764 bound_to 10752
  153.2541  135.6984  153.7726 H   0  0  0  0  0  0  0  0  0  0  0  0  # atno 10765 bound_to 10752
  140.4017  134.1711  155.7664 H   0  0  0  0  0  0  0  0  0  0  0  0  # atno 11005 bound_to 11000
  145.7317  139.1738  143.2427 LP  0  0  0  0  0  0  0  0  0  0  0  0  # atno 17320 bound_to 7965
  146.1201  140.7319  142.9461 LP  0  0  0  0  0  0  0  0  0  0  0  0  # atno 17321 bound_to 7965
  139.6958  143.9615  152.2882 LP  0  0  0  0  0  0  0  0  0  0  0  0  # atno 17342 bound_to 10162
  139.9292  144.6752  150.8380 LP  0  0  0  0  0  0  0  0  0  0  0  0  # atno 17343 bound_to 10162
  156.7244  130.9019  151.3621 LP  0  0  0  0  0  0  0  0  0  0  0  0  # atno 17370 bound_to 10713
  157.6880  130.9205  150.0438 LP  0  0  0  0  0  0  0  0  0  0  0  0  # atno 17371 bound_to 10713
  141.1854  133.8324  157.1105 LP  0  0  0  0  0  0  0  0  0  0  0  0  # atno 17394 bound_to 11000
  140.0331  134.9891  157.0819 LP  0  0  0  0  0  0  0  0  0  0  0  0  # atno 17395 bound_to 11000

$$$$
