AV-unprocessed.smi:1040|AV-procd|sdf|4527|dock8
  -GOLD-   22720 2543D 1   1.00000     0.00000
 Structure written by MMmdl.
 55 56  0  0  0  0  0  0  0  0  2 V2000
  146.4403  135.4927  157.9151 C   0  0  0  0  0  0  0  0  0  0  0  0
  147.6064  136.2023  158.6228 C   0  0  1  0  0  0  0  0  0  0  0  0
  147.8234  137.5298  158.0520 N   0  0  0  0  0  0  0  0  0  0  0  0
  148.8624  138.3366  158.3069 C   0  0  0  0  0  0  0  0  0  0  0  0
  149.8048  138.0311  159.0373 O   0  0  0  0  0  0  0  0  0  0  0  0
  148.7192  139.5158  157.6810 N   0  0  0  0  0  0  0  0  0  0  0  0
  149.5689  140.6556  157.7482 C   0  0  0  0  0  0  0  0  0  0  0  0
  150.7513  140.6714  158.5308 C   0  0  0  0  0  0  0  0  0  0  0  0
  151.5556  141.8275  158.5574 C   0  0  0  0  0  0  0  0  0  0  0  0
  151.1692  142.9471  157.7982 C   0  0  0  0  0  0  0  0  0  0  0  0
  150.0454  142.8955  157.0531 N   0  3  0  0  0  0  0  0  0  0  0  0
  149.2376  141.8085  156.9869 C   0  0  0  0  0  0  0  0  0  0  0  0
  148.0958  141.8651  156.1641 N   0  0  0  0  0  0  0  0  0  0  0  0
  146.9715  142.6663  156.6463 C   0  0  0  0  0  0  0  0  0  0  0  0
  145.6994  142.3574  155.8382 C   0  0  0  0  0  0  0  0  0  0  0  0
  145.9476  142.5342  154.3312 C   0  0  0  0  0  0  0  0  0  0  0  0
  147.1588  141.6977  153.8870 C   0  0  0  0  0  0  0  0  0  0  0  0
  148.3959  142.0208  154.7422 C   0  0  0  0  0  0  0  0  0  0  0  0
  147.4318  136.2890  160.1438 C   0  0  0  0  0  0  0  0  0  0  0  0
  148.2257  136.9426  160.8222 O   0  0  0  0  0  0  0  0  0  0  0  0
  146.3749  135.6327  160.6553 N   0  0  0  0  0  0  0  0  0  0  0  0
  145.9539  135.5348  162.0582 C   0  0  0  0  0  0  0  0  0  0  0  0
  145.4651  136.9325  162.4770 C   0  0  0  0  0  0  0  0  0  0  0  0
  147.1420  135.1294  162.9561 C   0  0  0  0  0  0  0  0  0  0  0  0
  144.7901  134.5320  162.2087 C   0  0  0  0  0  0  0  0  0  0  0  0
  146.2822  134.4931  158.3216 H   0  0  0  0  0  0  0  0  0  0  0  0
  146.6328  135.3831  156.8476 H   0  0  0  0  0  0  0  0  0  0  0  0
  145.5089  136.0485  158.0301 H   0  0  0  0  0  0  0  0  0  0  0  0
  148.5090  135.6128  158.4479 H   0  0  0  0  0  0  0  0  0  0  0  0
  147.0968  137.8705  157.4391 H   0  0  0  0  0  0  0  0  0  0  0  0
  147.8463  139.6524  157.1927 H   0  0  0  0  0  0  0  0  0  0  0  0
  151.0596  139.8100  159.1037 H   0  0  0  0  0  0  0  0  0  0  0  0
  152.4581  141.8529  159.1506 H   0  0  0  0  0  0  0  0  0  0  0  0
  151.7248  143.8730  157.7582 H   0  0  0  0  0  0  0  0  0  0  0  0
  146.7947  142.4605  157.7029 H   0  0  0  0  0  0  0  0  0  0  0  0
  147.2166  143.7259  156.5594 H   0  0  0  0  0  0  0  0  0  0  0  0
  145.3805  141.3333  156.0378 H   0  0  0  0  0  0  0  0  0  0  0  0
  144.8843  143.0047  156.1629 H   0  0  0  0  0  0  0  0  0  0  0  0
  145.0613  142.2436  153.7663 H   0  0  0  0  0  0  0  0  0  0  0  0
  146.1276  143.5868  154.1098 H   0  0  0  0  0  0  0  0  0  0  0  0
  146.9223  140.6363  153.9748 H   0  0  0  0  0  0  0  0  0  0  0  0
  147.3740  141.8813  152.8340 H   0  0  0  0  0  0  0  0  0  0  0  0
  148.7143  143.0481  154.5610 H   0  0  0  0  0  0  0  0  0  0  0  0
  149.2259  141.3793  154.4452 H   0  0  0  0  0  0  0  0  0  0  0  0
  145.7911  135.1402  159.9947 H   0  0  0  0  0  0  0  0  0  0  0  0
  145.1321  136.9420  163.5155 H   0  0  0  0  0  0  0  0  0  0  0  0
  144.6268  137.2625  161.8620 H   0  0  0  0  0  0  0  0  0  0  0  0
  146.2565  137.6771  162.3810 H   0  0  0  0  0  0  0  0  0  0  0  0
  147.9850  135.8100  162.8310 H   0  0  0  0  0  0  0  0  0  0  0  0
  147.4970  134.1220  162.7389 H   0  0  0  0  0  0  0  0  0  0  0  0
  146.8616  135.1471  164.0099 H   0  0  0  0  0  0  0  0  0  0  0  0
  144.4100  134.5239  163.2307 H   0  0  0  0  0  0  0  0  0  0  0  0
  145.0925  133.5114  161.9743 H   0  0  0  0  0  0  0  0  0  0  0  0
  143.9579  134.7882  161.5519 H   0  0  0  0  0  0  0  0  0  0  0  0
  149.7935  143.7183  156.5054 H   0  0  0  0  0  0  0  0  0  0  0  0
  1  2  1  0  0  0  0
  1 26  1  0  0  0  0
  1 27  1  0  0  0  0
  1 28  1  0  0  0  0
  2  3  1  0  0  0  0
  2 19  1  0  0  0  0
  2 29  1  0  0  0  0
  3  4  1  0  0  0  0
  3 30  1  0  0  0  0
  4  5  2  0  0  0  0
  4  6  1  0  0  0  0
  6  7  1  0  0  0  0
  6 31  1  0  0  0  0
  7 12  1  0  0  0  0
  7  8  2  0  0  0  0
  8  9  1  0  0  0  0
  8 32  1  0  0  0  0
  9 10  2  0  0  0  0
  9 33  1  0  0  0  0
 10 11  1  0  0  0  0
 10 34  1  0  0  0  0
 11 12  2  0  0  0  0
 11 55  1  0  0  0  0
 12 13  1  0  0  0  0
 13 18  1  0  0  0  0
 13 14  1  0  0  0  0
 14 15  1  0  0  0  0
 14 35  1  0  0  0  0
 14 36  1  0  0  0  0
 15 16  1  0  0  0  0
 15 37  1  0  0  0  0
 15 38  1  0  0  0  0
 16 17  1  0  0  0  0
 16 39  1  0  0  0  0
 16 40  1  0  0  0  0
 17 18  1  0  0  0  0
 17 41  1  0  0  0  0
 17 42  1  0  0  0  0
 18 43  1  0  0  0  0
 18 44  1  0  0  0  0
 19 20  2  0  0  0  0
 19 21  1  0  0  0  0
 21 22  1  0  0  0  0
 21 45  1  0  0  0  0
 22 23  1  0  0  0  0
 22 24  1  0  0  0  0
 22 25  1  0  0  0  0
 23 46  1  0  0  0  0
 23 47  1  0  0  0  0
 23 48  1  0  0  0  0
 24 49  1  0  0  0  0
 24 50  1  0  0  0  0
 24 51  1  0  0  0  0
 25 52  1  0  0  0  0
 25 53  1  0  0  0  0
 25 54  1  0  0  0  0
M  CHG  1  11   1
M  END
> <s_m_source_file>
AV-unprocessed.smi

> <i_m_source_file_index>
1040

> <i_lp_mmshare_version>
43012

> <i_f3d_flags>
0

> <s_epik_input>
W0NIM11DKFtDSDNdKShbQ0gzXSlbTkhdQyg9TylbQ0BIXShbQ0gzXSlbTkhdQyg9TylbTkhdYzFbY0hdW2NIXVtjSF1uYzFOMltDSDJdW0NIMl1bQ0gyXVtDSDJdW0NIMl0y

> <s_epik_cmdline>
J2VwaWtfcHl0aG9uJywgJy1waCcsICc3LjAnLCAnLXRuJywgJzgnLCAnLW1hJywgJzIwMCcsICctbWV0YWxfYmluZGluZycsICctaW1hZScsICc8aW5maWxlLm1hZT4nLCAnLW9tYWUnLCAnPG91dGZpbGUubWFlPic=

> <r_lp_tautomer_probability>
0.999994

> <r_epik_Ionization_Penalty>
1.20468

> <r_epik_Ionization_Penalty_Charging>
1.20466

> <r_epik_Ionization_Penalty_Neutral>
1.88859e-05

> <r_epik_State_Penalty>
1.27057

> <r_epik_Charging_Adjusted_Penalty>
2.47523

> <i_epik_Tot_Q>
1

> <i_epik_Tot_abs_Q>
1

> <r_epik_Metal_State_Penalty>
1.34448

> <b_epik_Metal_Only>
0

> <s_lp_Force_Field>
OPLS_2005

> <r_lp_Energy>
27.4215

> <b_lp_Chiralities_Consistent>
1

> <s_lp_Variant>
AV-unprocessed.smi:1040-4

> <Gold.Version>
5.8.1

> <Gold.Id.Protein>
6NUR|6NUR_protein|mol2

> <Gold.PLP.Fitness>
47.0482

> <Gold.PLP.PLP>
-38.8882

> <Gold.PLP.part.hbond>
-3.2598

> <Gold.PLP.part.metal>
0.0000

> <Gold.PLP.part.buried>
-4.9358

> <Gold.PLP.part.nonpolar>
-31.5546

> <Gold.PLP.part.repulsive>
0.3667

> <Gold.PLP.ligand.clash>
0.1987

> <Gold.PLP.ligand.torsion>
0.5089

> <Gold.PLP.Chemscore.Hbond>
3.0000

> <Gold.PLP.Chemscore.CHOScore>
0.0000

> <Gold.PLP.Chemscore.Metal>
0.0000

> <Gold.Chemscore.Hbonds>
donor molecule, donor type, donor heavy atom, donor atom, acceptor molecule, acceptor atom, score
      L1  H    11    55       P1  8028  2.00
      P1  H  6931  6943       L1    20  0.99
      P1  H  6934  6947       L1    20  0.19

> <Gold.PLP.Chemscore.Internal.Correction>
0.3764

> <Gold.Rescore>
     Score         DG    S(hbond)    S(metal)    S(lipo)     H(rot)  DE(clash)    DE(int)     intcor
     14.65     -17.72       1.98        0.00      84.05       1.64       0.02       3.04       ----

> <Gold.Chemscore.Fitness>
14.6541

> <Gold.Chemscore.DG>
-17.7189

> <Gold.Chemscore.ZeroCoef>
-5.4800

> <Gold.Chemscore.Hbond>
1.9793

> <Gold.Chemscore.Metal>
0.0000

> <Gold.Chemscore.Lipo>
84.0457

> <Gold.Chemscore.Internal_Hbond>
0.0000

> <Gold.Chemscore.DEClash>
0.0202

> <Gold.Chemscore.DEInternal>
3.0445

> <Gold.Chemscore.Rot>
1.6428

> <Gold.Chemscore.Internal.Correction>
   9.000000E+99

> <Gold.Chemscore.Hbonds>
donor molecule, donor type, donor heavy atom, donor atom, acceptor molecule, acceptor atom, score
      L1  H    11    55       P1  8028  0.97
      P1  H  6931  6943       L1    20  0.93
      P1  H  6934  6947       L1    20  0.07

> <Gold.Chemscore.Hbond.Weighted>
-6.6110

> <Gold.Chemscore.Metal.Weighted>
-0.0000

> <Gold.Chemscore.Lipo.Weighted>
-9.8333

> <Gold.Chemscore.Internal_Hbond.Weighted>
0.0000

> <Gold.Chemscore.DEClash.Weighted>
0.0202

> <Gold.Chemscore.DEInternal.Weighted>
3.0445

> <Gold.Chemscore.Rot.Weighted>
4.2055

> <Gold.Chemscore.Internal.Correction.Weighted>
   9.000000E+99

> <Gold.Protein.RotatedTorsions>
[ 6907 6896 6895 6894 ] final -127.93 input  -60.11 | X-H torsion
[ 7974 7965 7964 7962 ] final -108.30 input  175.53 | X-H torsion
[ 8008 7997 7996 7995 ] final  -34.66 input   59.86 | X-H torsion
[ 10167 10162 10161 10158 ] final   30.89 input  -65.29 | X-H torsion
[ 10718 10713 10712 10709 ] final   19.82 input   66.30 | X-H torsion
[ 10763 10752 10751 10750 ] final  166.60 input  -60.55 | X-H torsion
[ 11005 11000 10999 10996 ] final -112.26 input  -57.11 | X-H torsion

> <Gold.Protein.ActiveResidues>
 VAL166  LYS551  ARG553  GLY616  TRP617  ASP618  TYR619  PRO620  LYS621  CYS622 
 ASP623  PHE694  ASN695  SER759  ASP760  ASP761  ALA762  ILE779  LEU786  VAL792 
 PHE793  MET794  SER795  GLU796  ALA797  LYS798  CYS799  TRP800  GLU811  SER814 

> <Gold.Protein.RotatedAtoms>
  150.9125  133.6980  159.2851 H   0  0  0  0  0  0  0  0  0  0  0  0  # atno 6907 bound_to 6896
  151.4462  135.1024  159.9694 H   0  0  0  0  0  0  0  0  0  0  0  0  # atno 6908 bound_to 6896
  152.4937  133.8522  159.7262 H   0  0  0  0  0  0  0  0  0  0  0  0  # atno 6909 bound_to 6896
  145.1946  140.9030  143.3405 H   0  0  0  0  0  0  0  0  0  0  0  0  # atno 7974 bound_to 7965
  154.4115  140.1678  156.2085 H   0  0  0  0  0  0  0  0  0  0  0  0  # atno 8008 bound_to 7997
  155.9464  140.3404  155.6347 H   0  0  0  0  0  0  0  0  0  0  0  0  # atno 8009 bound_to 7997
  155.6925  140.0735  157.2433 H   0  0  0  0  0  0  0  0  0  0  0  0  # atno 8010 bound_to 7997
  140.4637  144.0868  150.6219 H   0  0  0  0  0  0  0  0  0  0  0  0  # atno 10167 bound_to 10162
  157.1158  130.6528  149.5910 H   0  0  0  0  0  0  0  0  0  0  0  0  # atno 10718 bound_to 10713
  154.3414  135.2754  155.2420 H   0  0  0  0  0  0  0  0  0  0  0  0  # atno 10763 bound_to 10752
  154.4689  135.5888  153.6311 H   0  0  0  0  0  0  0  0  0  0  0  0  # atno 10764 bound_to 10752
  152.9857  135.6083  154.3616 H   0  0  0  0  0  0  0  0  0  0  0  0  # atno 10765 bound_to 10752
  141.0686  133.9418  157.2530 H   0  0  0  0  0  0  0  0  0  0  0  0  # atno 11005 bound_to 11000
  145.0007  139.3601  143.6169 LP  0  0  0  0  0  0  0  0  0  0  0  0  # atno 17320 bound_to 7965
  146.3429  139.9229  142.8764 LP  0  0  0  0  0  0  0  0  0  0  0  0  # atno 17321 bound_to 7965
  140.4062  143.2679  151.9888 LP  0  0  0  0  0  0  0  0  0  0  0  0  # atno 17342 bound_to 10162
  139.4809  144.5955  151.7698 LP  0  0  0  0  0  0  0  0  0  0  0  0  # atno 17343 bound_to 10162
  155.9840  130.4862  150.6960 LP  0  0  0  0  0  0  0  0  0  0  0  0  # atno 17370 bound_to 10713
  157.4520  131.0873  151.0836 LP  0  0  0  0  0  0  0  0  0  0  0  0  # atno 17371 bound_to 10713
  139.9500  135.0177  156.8967 LP  0  0  0  0  0  0  0  0  0  0  0  0  # atno 17394 bound_to 11000
  140.5722  134.0432  155.7434 LP  0  0  0  0  0  0  0  0  0  0  0  0  # atno 17395 bound_to 11000

$$$$
