#       Name:                AV-unprocessed.smi:524
#       Creating user name   scv26
#       Creation time:       Thu Mar 26 23:28:20 2020


#       File generated by GOLD software.
#

@<TRIPOS>MOLECULE
AV-unprocessed.smi:524
    50    52     1
SMALL
NO_CHARGES


@<TRIPOS>ATOM
      1 ****        -3.3955  -0.2833   1.3314 C.3            1 S1                 0.0000
      2 ****        -1.9894  -0.3857   1.2023 O.3            1 S1                 0.0000
      3 ****        -1.5328  -1.7279   1.2451 C.3            1 S1                 0.0000
      4 ****        -0.0052  -1.7553   1.0997 C.3            1 S1                 0.0000
      5 ****         0.4348  -1.1707  -0.1667 N.pl3          1 S1                 0.0000
      6 ****         0.7967   0.1156  -0.4355 C.2            1 S1                 0.0000
      7 ****         0.8354   1.1129   0.5425 N.pl3          1 S1                 0.0000
      8 ****         0.3354   2.4704   0.3248 C.3            1 S1                 0.0000
      9 ****        -0.5795   2.9296   1.4747 C.3            1 S1                 0.0000
     10 ****         0.1555   2.8544   2.8199 C.3            1 S1                 0.0000
     11 ****         0.7697   1.4600   3.0022 C.3            1 S1                 0.0000
     12 ****         1.6223   1.0852   1.7764 C.3            1 S1                 0.0000
     13 ****         1.0745   0.3556  -1.7190 N.2            1 S1                 0.0000
     14 ****         0.9027  -0.8831  -2.3153 C.2            1 S1                 0.0000
     15 ****         0.5098  -1.8153  -1.4069 C.2            1 S1                 0.0000
     16 ****         0.2098  -3.2232  -1.7533 C.2            1 S1                 0.0000
     17 ****        -0.1703  -4.0218  -0.8995 O.2            1 S1                 0.0000
     18 ****         0.4032  -3.4813  -3.0855 N.pl3          1 S1                -1.0000
     19 ****         0.8087  -2.5701  -4.0367 C.2            1 S1                 0.0000
     20 ****         0.9564  -2.8858  -5.2181 O.2            1 S1                 0.0000
     21 ****         1.0569  -1.2725  -3.6739 N.am           1 S1                 0.0000
     22 ****         1.4792  -0.2795  -4.6658 C.3            1 S1                 0.0000
     23 ****        -3.6911   0.7647   1.2837 H              1 S1                 0.0000
     24 ****        -3.7332  -0.6855   2.2874 H              1 S1                 0.0000
     25 ****        -3.9053  -0.8141   0.5266 H              1 S1                 0.0000
     26 ****        -1.8205  -2.1890   2.1910 H              1 S1                 0.0000
     27 ****        -1.9976  -2.3066   0.4454 H              1 S1                 0.0000
     28 ****         0.4448  -1.2360   1.9383 H              1 S1                 0.0000
     29 ****         0.3697  -2.7747   1.1753 H              1 S1                 0.0000
     30 ****         1.1794   3.1525   0.2150 H              1 S1                 0.0000
     31 ****        -0.2187   2.5090  -0.6137 H              1 S1                 0.0000
     32 ****        -0.9254   3.9476   1.2941 H              1 S1                 0.0000
     33 ****        -1.4698   2.3008   1.5066 H              1 S1                 0.0000
     34 ****         0.9441   3.6074   2.8480 H              1 S1                 0.0000
     35 ****        -0.5260   3.0818   3.6400 H              1 S1                 0.0000
     36 ****         1.3807   1.4356   3.9048 H              1 S1                 0.0000
     37 ****        -0.0244   0.7263   3.1433 H              1 S1                 0.0000
     38 ****         2.0888   0.1099   1.9108 H              1 S1                 0.0000
     39 ****         2.4488   1.7900   1.6771 H              1 S1                 0.0000
     40 ****         2.3915  -0.6025  -5.1694 H              1 S1                 0.0000
     41 ****         1.6816   0.6963  -4.2250 H              1 S1                 0.0000
     42 ****         0.7032  -0.1427  -5.4200 H              1 S1                 0.0000
     43 ****        -1.5615   0.1219   1.9501 LP             1 S1                 0.0000
     44 ****        -1.7181   0.0170   0.3280 LP             1 S1                 0.0000
     45 ****         1.3417   1.2194  -2.1462 LP             1 S1                 0.0000
     46 ****        -0.2819  -3.7245   0.0487 LP             1 S1                 0.0000
     47 ****        -0.3679  -4.9687  -1.1533 LP             1 S1                 0.0000
     48 ****         0.2346  -4.4168  -3.3959 LP             1 S1                 0.0000
     49 ****         0.7809  -3.8260  -5.5102 LP             1 S1                 0.0000
     50 ****         1.2518  -2.2019  -5.8853 LP             1 S1                 0.0000
@<TRIPOS>BOND
    1    1    2 1     
    2    1   23 1     
    3    1   24 1     
    4    1   25 1     
    5    2    3 1     
    6    3    4 1     
    7    3   26 1     
    8    3   27 1     
    9    4    5 1     
   10    4   28 1     
   11    4   29 1     
   12    5   15 1     
   13    5    6 1     
   14    6    7 1     
   15    6   13 2     
   16    7   12 1     
   17    7    8 1     
   18    8    9 1     
   19    8   30 1     
   20    8   31 1     
   21    9   10 1     
   22    9   32 1     
   23    9   33 1     
   24   10   11 1     
   25   10   34 1     
   26   10   35 1     
   27   11   12 1     
   28   11   36 1     
   29   11   37 1     
   30   12   38 1     
   31   12   39 1     
   32   13   14 1     
   33   14   21 1     
   34   14   15 2     
   35   15   16 1     
   36   16   17 2     
   37   16   18 1     
   38   18   19 1     
   39   19   20 2     
   40   19   21 am    
   41   21   22 1     
   42   22   40 1     
   43   22   41 1     
   44   22   42 1     
   45    2   43 1     
   46    2   44 1     
   47   13   45 1     
   48   17   46 1     
   49   17   47 1     
   50   18   48 1     
   51   20   49 1     
   52   20   50 1     
@<TRIPOS>SUBSTRUCTURE
      1 S1             1
@<TRIPOS>SET
LONE_PAIRS      STATIC     ATOMS    <user>   **** ""
8 43 44 45 46 47 48 49 50
ATOM$BLUE        STATIC     ATOMS    COLORGROUP SYSTEM
8 43 44 45 46 47 48 49 50
