#       Name:                AV-unprocessed.smi:78
#       Creating user name   scv26
#       Creation time:       Thu Mar 26 17:12:51 2020


#       File generated by GOLD software.
#

@<TRIPOS>MOLECULE
AV-unprocessed.smi:78
    65    68     1
SMALL
NO_CHARGES


@<TRIPOS>ATOM
      1 ****        -2.4086  -2.5730   1.4523 C.3            1 S1                 0.0000
      2 ****        -2.0586  -1.1052   1.7392 C.3            1 S1                 0.0000
      3 ****        -1.3059  -0.9888   3.0752 C.3            1 S1                 0.0000
      4 ****        -3.3306  -0.2263   1.6942 C.3            1 S1                 0.0000
      5 ****        -3.1321   1.3122   1.8019 C.3            1 S1                 0.0000
      6 ****        -4.5074   1.9912   1.9775 C.2            1 S1                 0.0000
      7 ****        -5.1196   1.8521   3.0346 O.2            1 S1                 0.0000
      8 ****        -5.0159   2.7278   0.9742 N.am           1 S1                 0.0000
      9 ****        -4.3730   2.9983  -0.3101 C.3            1 S1                 0.0000
     10 ****        -3.1675   2.0888  -0.5972 C.3            1 S1                 0.0000
     11 ****        -2.4181   1.8416   0.6296 N.pl3          1 S1                 0.0000
     12 ****        -1.0613   1.8202   0.5976 C.ar           1 S1                 0.0000
     13 ****        -0.3873   2.3041   1.6723 N.ar           1 S1                 0.0000
     14 ****         0.9478   2.2862   1.6971 C.ar           1 S1                 0.0000
     15 ****         1.7924   1.8264   0.7728 N.ar           1 S1                 0.0000
     16 ****         1.1241   1.3303  -0.3074 C.ar           1 S1                 0.0000
     17 ****        -0.2888   1.3012  -0.4823 C.ar           1 S1                 0.0000
     18 ****        -0.5965   0.7245  -1.7085 N.2            1 S1                 0.0000
     19 ****         0.5644   0.4446  -2.2331 C.2            1 S1                 0.0000
     20 ****         1.6535   0.7386  -1.4422 N.pl3          1 S1                 0.0000
     21 ****         3.0442   0.5489  -1.7588 C.3            1 S1                 0.0000
     22 ****         3.5016  -0.5091  -2.7744 C.3            1 S1                 0.0000
     23 ****         3.9027  -1.4484  -1.6151 C.3            1 S1                 0.0000
     24 ****         2.8186  -2.4481  -1.1666 C.3            1 S1                 0.0000
     25 ****         2.5024  -3.3680  -2.1918 O.3            1 S1                 0.0000
     26 ****         5.2142  -2.2428  -1.7698 C.3            1 S1                 0.0000
     27 ****         6.3064  -1.4234  -2.1354 O.3            1 S1                 0.0000
     28 ****         3.9657  -0.1643  -0.7586 C.3            1 S1                 0.0000
     29 ****        -3.0818  -2.9767   2.2092 H              1 S1                 0.0000
     30 ****        -1.5134  -3.1951   1.4371 H              1 S1                 0.0000
     31 ****        -2.8952  -2.6790   0.4823 H              1 S1                 0.0000
     32 ****        -1.3835  -0.7962   0.9443 H              1 S1                 0.0000
     33 ****        -1.9429  -1.2709   3.9141 H              1 S1                 0.0000
     34 ****        -0.9496   0.0247   3.2535 H              1 S1                 0.0000
     35 ****        -0.4318  -1.6403   3.0889 H              1 S1                 0.0000
     36 ****        -3.8741  -0.4448   0.7739 H              1 S1                 0.0000
     37 ****        -3.9877  -0.5600   2.4992 H              1 S1                 0.0000
     38 ****        -2.5835   1.5414   2.7150 H              1 S1                 0.0000
     39 ****        -5.9197   3.1526   1.1233 H              1 S1                 0.0000
     40 ****        -5.1076   2.9226  -1.1121 H              1 S1                 0.0000
     41 ****        -4.0415   4.0369  -0.2876 H              1 S1                 0.0000
     42 ****        -3.5048   1.1332  -0.9995 H              1 S1                 0.0000
     43 ****        -2.5504   2.5583  -1.3641 H              1 S1                 0.0000
     44 ****         1.4041   2.6939   2.5871 H              1 S1                 0.0000
     45 ****         0.6458  -0.0006  -3.2132 H              1 S1                 0.0000
     46 ****         3.4270   1.5371  -2.0169 H              1 S1                 0.0000
     47 ****         2.7295  -0.9072  -3.4313 H              1 S1                 0.0000
     48 ****         4.3518  -0.1619  -3.3636 H              1 S1                 0.0000
     49 ****         3.1386  -3.0038  -0.2846 H              1 S1                 0.0000
     50 ****         1.8980  -1.9383  -0.8831 H              1 S1                 0.0000
     51 ****         1.8288  -3.9506  -1.8754 H              1 S1                 0.0000
     52 ****         5.4738  -2.7483  -0.8391 H              1 S1                 0.0000
     53 ****         5.1162  -3.0168  -2.5314 H              1 S1                 0.0000
     54 ****         7.0745  -1.9674  -2.2199 H              1 S1                 0.0000
     55 ****         4.9551   0.2936  -0.7190 H              1 S1                 0.0000
     56 ****         3.5582  -0.2786   0.2462 H              1 S1                 0.0000
     57 ****        -4.7261   1.3029   3.7718 LP             1 S1                 0.0000
     58 ****        -6.0111   2.2883   3.1572 LP             1 S1                 0.0000
     59 ****        -0.8938   2.6763   2.4501 LP             1 S1                 0.0000
     60 ****         2.7884   1.8434   0.8607 LP             1 S1                 0.0000
     61 ****        -1.5022   0.5612  -2.0998 LP             1 S1                 0.0000
     62 ****         3.3168  -3.8947  -2.4351 LP             1 S1                 0.0000
     63 ****         2.1714  -2.8753  -2.9966 LP             1 S1                 0.0000
     64 ****         6.4594  -0.7309  -1.4304 LP             1 S1                 0.0000
     65 ****         6.1137  -0.9739  -3.0077 LP             1 S1                 0.0000
@<TRIPOS>BOND
    1    1    2 1     
    2    1   29 1     
    3    1   30 1     
    4    1   31 1     
    5    2    3 1     
    6    2    4 1     
    7    2   32 1     
    8    3   33 1     
    9    3   34 1     
   10    3   35 1     
   11    4    5 1     
   12    4   36 1     
   13    4   37 1     
   14    5   11 1     
   15    5    6 1     
   16    5   38 1     
   17    6    7 2     
   18    6    8 am    
   19    8    9 1     
   20    8   39 1     
   21    9   10 1     
   22    9   40 1     
   23    9   41 1     
   24   10   11 1     
   25   10   42 1     
   26   10   43 1     
   27   11   12 1     
   28   12   17 ar    
   29   12   13 ar    
   30   13   14 ar    
   31   14   15 ar    
   32   14   44 1     
   33   15   16 ar    
   34   16   20 1     
   35   16   17 ar    
   36   17   18 1     
   37   18   19 2     
   38   19   20 1     
   39   19   45 1     
   40   20   21 1     
   41   21   28 1     
   42   21   22 1     
   43   21   46 1     
   44   22   23 1     
   45   22   47 1     
   46   22   48 1     
   47   23   24 1     
   48   23   26 1     
   49   23   28 1     
   50   24   25 1     
   51   24   49 1     
   52   24   50 1     
   53   25   51 1     
   54   26   27 1     
   55   26   52 1     
   56   26   53 1     
   57   27   54 1     
   58   28   55 1     
   59   28   56 1     
   60    7   57 1     
   61    7   58 1     
   62   13   59 1     
   63   15   60 1     
   64   18   61 1     
   65   25   62 1     
   66   25   63 1     
   67   27   64 1     
   68   27   65 1     
@<TRIPOS>SUBSTRUCTURE
      1 S1             1
@<TRIPOS>SET
LONE_PAIRS      STATIC     ATOMS    <user>   **** ""
9 57 58 59 60 61 62 63 64 65
DONOR_HYDROGENS      STATIC     ATOMS    <user>   **** ""
3 39 51 54
ATOM$BLUE        STATIC     ATOMS    COLORGROUP SYSTEM
9 57 58 59 60 61 62 63 64 65
ATOM$RED        STATIC     ATOMS    COLORGROUP SYSTEM
3 39 51 54
