AV-unprocessed.smi:2217|AV-procd|sdf|8975|dock9
  -GOLD-   2272012193D 1   1.00000     0.00000
 Structure written by MMmdl.
 45 48  0  0  0  0  0  0  0  0  1 V2000
  153.5734  142.6248  163.7334 C   0  0  0  0  0  0  0  0  0  0  0  0
  152.8549  142.6696  162.4012 C   0  0  0  0  0  0  0  0  0  0  0  0
  153.2502  141.8444  161.3315 C   0  0  0  0  0  0  0  0  0  0  0  0
  152.5505  141.9319  160.1128 C   0  0  0  0  0  0  0  0  0  0  0  0
  151.4734  142.8383  159.9876 C   0  0  0  0  0  0  0  0  0  0  0  0
  150.8535  142.8441  158.7029 N   0  0  0  0  0  0  0  0  0  0  0  0
  150.8602  141.9364  157.7034 C   0  0  0  0  0  0  0  0  0  0  0  0
  151.4786  140.8787  157.8100 O   0  0  0  0  0  0  0  0  0  0  0  0
  150.1602  142.2591  156.6056 N   0  0  0  0  0  0  0  0  0  0  0  0
  150.0962  141.4630  155.3872 C   0  0  1  0  0  0  0  0  0  0  0  0
  150.2698  139.9692  155.6587 C   0  0  2  0  0  0  0  0  0  0  0  0
  151.3238  138.9708  155.3374 C   0  0  0  0  0  0  0  0  0  0  0  0
  150.4010  137.8488  154.7932 C   0  0  0  0  0  0  0  0  0  0  0  0
  149.0882  138.4449  154.6594 O   0  0  0  0  0  0  0  0  0  0  0  0
  149.3575  139.8178  154.4582 C   0  0  1  0  0  0  0  0  0  0  0  0
  148.6281  141.0824  154.9574 C   0  0  0  0  0  0  0  0  0  0  0  0
  147.9719  141.9717  153.8919 C   0  0  0  0  0  0  0  0  0  0  0  0
  146.5236  142.2396  154.3072 C   0  0  0  0  0  0  0  0  0  0  0  0
  146.5108  142.0274  155.8139 C   0  0  0  0  0  0  0  0  0  0  0  0
  147.5298  140.9130  156.0289 C   0  0  0  0  0  0  0  0  0  0  0  0
  151.1029  143.6297  161.0266 N   0  0  0  0  0  0  0  0  0  0  0  0
  151.7725  143.5458  162.1952 C   0  0  0  0  0  0  0  0  0  0  0  0
  154.1996  141.7358  163.8143 H   0  0  0  0  0  0  0  0  0  0  0  0
  152.8558  142.6105  164.5543 H   0  0  0  0  0  0  0  0  0  0  0  0
  154.2082  143.5037  163.8473 H   0  0  0  0  0  0  0  0  0  0  0  0
  154.0760  141.1563  161.4381 H   0  0  0  0  0  0  0  0  0  0  0  0
  152.8432  141.3062  159.2820 H   0  0  0  0  0  0  0  0  0  0  0  0
  150.2673  143.6477  158.5296 H   0  0  0  0  0  0  0  0  0  0  0  0
  149.6750  143.1454  156.5998 H   0  0  0  0  0  0  0  0  0  0  0  0
  150.7260  141.8339  154.5729 H   0  0  0  0  0  0  0  0  0  0  0  0
  149.7779  139.6914  156.5962 H   0  0  0  0  0  0  0  0  0  0  0  0
  152.0144  139.3375  154.5766 H   0  0  0  0  0  0  0  0  0  0  0  0
  151.8911  138.6583  156.2145 H   0  0  0  0  0  0  0  0  0  0  0  0
  150.7557  137.4895  153.8264 H   0  0  0  0  0  0  0  0  0  0  0  0
  150.3486  136.9979  155.4728 H   0  0  0  0  0  0  0  0  0  0  0  0
  149.8566  139.9775  153.4952 H   0  0  0  0  0  0  0  0  0  0  0  0
  148.5042  142.9200  153.8158 H   0  0  0  0  0  0  0  0  0  0  0  0
  148.0077  141.5184  152.9006 H   0  0  0  0  0  0  0  0  0  0  0  0
  146.1792  143.2331  154.0187 H   0  0  0  0  0  0  0  0  0  0  0  0
  145.8669  141.5091  153.8327 H   0  0  0  0  0  0  0  0  0  0  0  0
  146.8484  142.9353  156.3159 H   0  0  0  0  0  0  0  0  0  0  0  0
  145.5220  141.7778  156.1994 H   0  0  0  0  0  0  0  0  0  0  0  0
  147.0355  139.9495  155.9002 H   0  0  0  0  0  0  0  0  0  0  0  0
  147.9072  140.9325  157.0513 H   0  0  0  0  0  0  0  0  0  0  0  0
  151.4344  144.1989  162.9862 H   0  0  0  0  0  0  0  0  0  0  0  0
  1  2  1  0  0  0  0
  1 23  1  0  0  0  0
  1 24  1  0  0  0  0
  1 25  1  0  0  0  0
  2 22  1  0  0  0  0
  2  3  2  0  0  0  0
  3  4  1  0  0  0  0
  3 26  1  0  0  0  0
  4  5  2  0  0  0  0
  4 27  1  0  0  0  0
  5  6  1  0  0  0  0
  5 21  1  0  0  0  0
  6  7  1  0  0  0  0
  6 28  1  0  0  0  0
  7  8  2  0  0  0  0
  7  9  1  0  0  0  0
  9 10  1  0  0  0  0
  9 29  1  0  0  0  0
 10 16  1  0  0  0  0
 10 11  1  0  0  0  0
 10 30  1  0  0  0  0
 11 15  1  0  0  0  0
 11 12  1  0  0  0  0
 11 31  1  0  0  0  0
 12 13  1  0  0  0  0
 12 32  1  0  0  0  0
 12 33  1  0  0  0  0
 13 14  1  0  0  0  0
 13 34  1  0  0  0  0
 13 35  1  0  0  0  0
 14 15  1  0  0  0  0
 15 16  1  0  0  0  0
 15 36  1  0  0  0  0
 16 20  1  0  0  0  0
 16 17  1  0  0  0  0
 17 18  1  0  0  0  0
 17 37  1  0  0  0  0
 17 38  1  0  0  0  0
 18 19  1  0  0  0  0
 18 39  1  0  0  0  0
 18 40  1  0  0  0  0
 19 20  1  0  0  0  0
 19 41  1  0  0  0  0
 19 42  1  0  0  0  0
 20 43  1  0  0  0  0
 20 44  1  0  0  0  0
 21 22  2  0  0  0  0
 22 45  1  0  0  0  0
M  END
> <s_m_source_file>
AV-unprocessed.smi

> <i_m_source_file_index>
2217

> <i_lp_mmshare_version>
43012

> <i_f3d_flags>
0

> <s_epik_input>
W0NIM11jMVtjSF1bY0hdYyhuW2NIXTEpW05IXUMoPU8pW05IXVtDQEBIXTJbQ0BASF0oW0NIMl1bQ0gyXU8zKVtDQEhdM0MyNFtDSDJdW0NIMl1bQ0gyXVtDSDJdNA==

> <s_epik_cmdline>
J2VwaWtfcHl0aG9uJywgJy1waCcsICc3LjAnLCAnLXRuJywgJzgnLCAnLW1hJywgJzIwMCcsICctbWV0YWxfYmluZGluZycsICctaW1hZScsICc8aW5maWxlLm1hZT4nLCAnLW9tYWUnLCAnPG91dGZpbGUubWFlPic=

> <r_lp_tautomer_probability>
1

> <r_epik_Ionization_Penalty>
6.14796e-05

> <r_epik_Ionization_Penalty_Charging>
0

> <r_epik_Ionization_Penalty_Neutral>
6.14796e-05

> <r_epik_State_Penalty>
-0

> <r_epik_Charging_Adjusted_Penalty>
0

> <i_epik_Tot_Q>
0

> <i_epik_Tot_abs_Q>
0

> <r_epik_Metal_State_Penalty>
-0

> <b_epik_Metal_Only>
0

> <s_lp_Force_Field>
OPLS_2005

> <r_lp_Energy>
79.3106

> <b_lp_Chiralities_Consistent>
1

> <s_lp_Variant>
AV-unprocessed.smi:2217-8

> <Gold.Version>
5.8.1

> <Gold.Id.Protein>
6NUR|6NUR_protein|mol2

> <Gold.PLP.Fitness>
45.5897

> <Gold.PLP.PLP>
-47.1453

> <Gold.PLP.part.hbond>
-1.5897

> <Gold.PLP.part.metal>
0.0000

> <Gold.PLP.part.buried>
-2.9304

> <Gold.PLP.part.nonpolar>
-41.8114

> <Gold.PLP.part.repulsive>
0.4298

> <Gold.PLP.ligand.clash>
4.2809

> <Gold.PLP.ligand.torsion>
0.2784

> <Gold.PLP.Chemscore.Hbond>
1.0000

> <Gold.PLP.Chemscore.CHOScore>
0.0000

> <Gold.PLP.Chemscore.Metal>
0.0000

> <Gold.Chemscore.Hbonds>
donor molecule, donor type, donor heavy atom, donor atom, acceptor molecule, acceptor atom, score
      L1  H     9    29       P1  8028  1.00

> <Gold.PLP.Chemscore.Internal.Correction>
0.2821

> <Gold.Rescore>
     Score         DG    S(hbond)    S(metal)    S(lipo)     H(rot)  DE(clash)    DE(int)     intcor
     16.09     -19.64       0.95        0.00     115.89       1.00       0.17       3.38       ----

> <Gold.Chemscore.Fitness>
16.0887

> <Gold.Chemscore.DG>
-19.6385

> <Gold.Chemscore.ZeroCoef>
-5.4800

> <Gold.Chemscore.Hbond>
0.9459

> <Gold.Chemscore.Metal>
0.0000

> <Gold.Chemscore.Lipo>
115.8915

> <Gold.Chemscore.Internal_Hbond>
0.0000

> <Gold.Chemscore.DEClash>
0.1701

> <Gold.Chemscore.DEInternal>
3.3797

> <Gold.Chemscore.Rot>
1.0000

> <Gold.Chemscore.Internal.Correction>
   9.000000E+99

> <Gold.Chemscore.Hbonds>
donor molecule, donor type, donor heavy atom, donor atom, acceptor molecule, acceptor atom, score
      L1  H     9    29       P1  8028  0.94

> <Gold.Chemscore.Hbond.Weighted>
-3.1592

> <Gold.Chemscore.Metal.Weighted>
-0.0000

> <Gold.Chemscore.Lipo.Weighted>
-13.5593

> <Gold.Chemscore.Internal_Hbond.Weighted>
0.0000

> <Gold.Chemscore.DEClash.Weighted>
0.1701

> <Gold.Chemscore.DEInternal.Weighted>
3.3797

> <Gold.Chemscore.Rot.Weighted>
2.5600

> <Gold.Chemscore.Internal.Correction.Weighted>
   9.000000E+99

> <Gold.Protein.RotatedTorsions>
[ 6907 6896 6895 6894 ] final  -89.80 input  -60.11 | X-H torsion
[ 7974 7965 7964 7962 ] final   95.81 input  175.53 | X-H torsion
[ 8008 7997 7996 7995 ] final  -55.94 input   59.86 | X-H torsion
[ 10167 10162 10161 10158 ] final  -61.62 input  -65.29 | X-H torsion
[ 10718 10713 10712 10709 ] final -109.46 input   66.30 | X-H torsion
[ 10763 10752 10751 10750 ] final  -86.57 input  -60.55 | X-H torsion
[ 11005 11000 10999 10996 ] final  -48.74 input  -57.11 | X-H torsion

> <Gold.Protein.ActiveResidues>
 VAL166  LYS551  ARG553  GLY616  TRP617  ASP618  TYR619  PRO620  LYS621  CYS622 
 ASP623  PHE694  ASN695  SER759  ASP760  ASP761  ALA762  ILE779  LEU786  VAL792 
 PHE793  MET794  SER795  GLU796  ALA797  LYS798  CYS799  TRP800  GLU811  SER814 

> <Gold.Protein.RotatedAtoms>
  150.6876  134.2530  159.4518 H   0  0  0  0  0  0  0  0  0  0  0  0  # atno 6907 bound_to 6896
  152.0466  134.9676  160.0583 H   0  0  0  0  0  0  0  0  0  0  0  0  # atno 6908 bound_to 6896
  152.1157  133.4290  159.4689 H   0  0  0  0  0  0  0  0  0  0  0  0  # atno 6909 bound_to 6896
  145.4472  139.2296  143.3059 H   0  0  0  0  0  0  0  0  0  0  0  0  # atno 7974 bound_to 7965
  154.4212  140.1141  156.5557 H   0  0  0  0  0  0  0  0  0  0  0  0  # atno 8008 bound_to 7997
  155.6364  140.3496  155.4681 H   0  0  0  0  0  0  0  0  0  0  0  0  # atno 8009 bound_to 7997
  155.9906  140.1179  157.0631 H   0  0  0  0  0  0  0  0  0  0  0  0  # atno 8010 bound_to 7997
  140.5994  143.2358  151.5964 H   0  0  0  0  0  0  0  0  0  0  0  0  # atno 10167 bound_to 10162
  156.0538  130.5765  150.8102 H   0  0  0  0  0  0  0  0  0  0  0  0  # atno 10718 bound_to 10713
  154.6239  135.5444  153.7605 H   0  0  0  0  0  0  0  0  0  0  0  0  # atno 10763 bound_to 10752
  153.0251  135.6419  154.1400 H   0  0  0  0  0  0  0  0  0  0  0  0  # atno 10764 bound_to 10752
  154.1333  135.2913  155.3159 H   0  0  0  0  0  0  0  0  0  0  0  0  # atno 10765 bound_to 10752
  141.0718  133.6677  156.3485 H   0  0  0  0  0  0  0  0  0  0  0  0  # atno 11005 bound_to 11000
  146.2524  140.5227  142.8888 LP  0  0  0  0  0  0  0  0  0  0  0  0  # atno 17320 bound_to 7965
  144.8084  140.6341  143.6431 LP  0  0  0  0  0  0  0  0  0  0  0  0  # atno 17321 bound_to 7965
  139.5280  144.3000  152.1081 LP  0  0  0  0  0  0  0  0  0  0  0  0  # atno 17342 bound_to 10162
  140.2178  144.4497  150.6356 LP  0  0  0  0  0  0  0  0  0  0  0  0  # atno 17343 bound_to 10162
  157.5489  131.0943  150.9723 LP  0  0  0  0  0  0  0  0  0  0  0  0  # atno 17370 bound_to 10713
  156.9988  130.5591  149.5309 LP  0  0  0  0  0  0  0  0  0  0  0  0  # atno 17371 bound_to 10713
  140.5656  134.5891  157.5445 LP  0  0  0  0  0  0  0  0  0  0  0  0  # atno 17394 bound_to 11000
  139.9531  134.7581  156.0402 LP  0  0  0  0  0  0  0  0  0  0  0  0  # atno 17395 bound_to 11000

$$$$
