AV-unprocessed.smi:1628|AV-procd|sdf|6520|dock5
  -GOLD-   22720 7193D 1   1.00000     0.00000
 Structure written by MMmdl.
 55 57  0  0  0  0  0  0  0  0  2 V2000
  149.3563  135.4260  156.2766 O   0  0  0  0  0  0  0  0  0  0  0  0
  149.1905  135.7562  155.1027 C   0  0  0  0  0  0  0  0  0  0  0  0
  148.7266  134.9215  154.1630 N   0  0  0  0  0  0  0  0  0  0  0  0
  148.3797  133.5275  154.4052 C   0  0  0  0  0  0  0  0  0  0  0  0
  148.5742  132.6912  153.1250 C   0  0  0  0  0  0  0  0  0  0  0  0
  147.3237  132.0623  152.6226 N   0  3  0  0  0  0  0  0  0  0  0  0
  146.3412  133.0517  152.1059 C   0  0  0  0  0  0  0  0  0  0  0  0
  145.3882  132.4600  151.0554 C   0  0  0  0  0  0  0  0  0  0  0  0
  144.5484  131.2653  151.5394 C   0  0  0  0  0  0  0  0  0  0  0  0
  145.3708  129.9705  151.6429 C   0  0  0  0  0  0  0  0  0  0  0  0
  146.2169  129.8126  152.9205 C   0  0  0  0  0  0  0  0  0  0  0  0
  146.7209  131.1047  153.5867 C   0  0  0  0  0  0  0  0  0  0  0  0
  149.4228  136.9802  154.5981 N   0  0  0  0  0  0  0  0  0  0  0  0
  149.9697  138.1153  155.2557 C   0  0  0  0  0  0  0  0  0  0  0  0
  150.3922  137.9704  156.5913 C   0  0  0  0  0  0  0  0  0  0  0  0
  150.9146  139.0853  157.2736 C   0  0  0  0  0  0  0  0  0  0  0  0
  150.9964  140.3287  156.6036 C   0  0  0  0  0  0  0  0  0  0  0  0
  151.5156  141.4619  157.2670 N   0  0  0  0  0  0  0  0  0  0  0  0
  150.6975  142.6700  157.1948 C   0  0  0  0  0  0  0  0  0  0  0  0
  151.5009  143.8909  157.6754 C   0  0  0  0  0  0  0  0  0  0  0  0
  152.0151  143.6484  158.9806 O   0  0  0  0  0  0  0  0  0  0  0  0
  152.8992  142.5331  159.0018 C   0  0  0  0  0  0  0  0  0  0  0  0
  152.1433  141.2646  158.5725 C   0  0  0  0  0  0  0  0  0  0  0  0
  150.5710  140.4717  155.3246 N   0  0  0  0  0  0  0  0  0  0  0  0
  150.0734  139.4000  154.6725 C   0  0  0  0  0  0  0  0  0  0  0  0
  148.6108  135.2721  153.2234 H   0  0  0  0  0  0  0  0  0  0  0  0
  149.0004  133.1389  155.2140 H   0  0  0  0  0  0  0  0  0  0  0  0
  147.3443  133.4832  154.7447 H   0  0  0  0  0  0  0  0  0  0  0  0
  148.9931  133.3166  152.3354 H   0  0  0  0  0  0  0  0  0  0  0  0
  149.3104  131.9060  153.3034 H   0  0  0  0  0  0  0  0  0  0  0  0
  145.7756  133.4941  152.9272 H   0  0  0  0  0  0  0  0  0  0  0  0
  146.8776  133.8759  151.6338 H   0  0  0  0  0  0  0  0  0  0  0  0
  144.7087  133.2507  150.7355 H   0  0  0  0  0  0  0  0  0  0  0  0
  145.9504  132.1800  150.1635 H   0  0  0  0  0  0  0  0  0  0  0  0
  144.0435  131.4899  152.4797 H   0  0  0  0  0  0  0  0  0  0  0  0
  143.7556  131.1002  150.8088 H   0  0  0  0  0  0  0  0  0  0  0  0
  144.6975  129.1152  151.5759 H   0  0  0  0  0  0  0  0  0  0  0  0
  146.0188  129.8904  150.7692 H   0  0  0  0  0  0  0  0  0  0  0  0
  145.6326  129.2660  153.6614 H   0  0  0  0  0  0  0  0  0  0  0  0
  147.0670  129.1688  152.6916 H   0  0  0  0  0  0  0  0  0  0  0  0
  147.4572  130.8126  154.3370 H   0  0  0  0  0  0  0  0  0  0  0  0
  145.9168  131.5851  154.1460 H   0  0  0  0  0  0  0  0  0  0  0  0
  149.1456  137.1285  153.6389 H   0  0  0  0  0  0  0  0  0  0  0  0
  150.3183  137.0163  157.0924 H   0  0  0  0  0  0  0  0  0  0  0  0
  151.2279  138.9777  158.3011 H   0  0  0  0  0  0  0  0  0  0  0  0
  150.3412  142.8577  156.1830 H   0  0  0  0  0  0  0  0  0  0  0  0
  149.8150  142.5340  157.8213 H   0  0  0  0  0  0  0  0  0  0  0  0
  152.3173  144.1147  156.9866 H   0  0  0  0  0  0  0  0  0  0  0  0
  150.8604  144.7726  157.7057 H   0  0  0  0  0  0  0  0  0  0  0  0
  153.7521  142.7183  158.3470 H   0  0  0  0  0  0  0  0  0  0  0  0
  153.2935  142.4113  160.0108 H   0  0  0  0  0  0  0  0  0  0  0  0
  151.3767  141.0195  159.3090 H   0  0  0  0  0  0  0  0  0  0  0  0
  152.8398  140.4262  158.5339 H   0  0  0  0  0  0  0  0  0  0  0  0
  149.7333  139.6019  153.6689 H   0  0  0  0  0  0  0  0  0  0  0  0
  147.6160  131.5121  151.8274 H   0  0  0  0  0  0  0  0  0  0  0  0
  1  2  2  0  0  0  0
  2  3  1  0  0  0  0
  2 13  1  0  0  0  0
  3  4  1  0  0  0  0
  3 26  1  0  0  0  0
  4  5  1  0  0  0  0
  4 27  1  0  0  0  0
  4 28  1  0  0  0  0
  5  6  1  0  0  0  0
  5 29  1  0  0  0  0
  5 30  1  0  0  0  0
  6 12  1  0  0  0  0
  6  7  1  0  0  0  0
  6 55  1  0  0  0  0
  7  8  1  0  0  0  0
  7 31  1  0  0  0  0
  7 32  1  0  0  0  0
  8  9  1  0  0  0  0
  8 33  1  0  0  0  0
  8 34  1  0  0  0  0
  9 10  1  0  0  0  0
  9 35  1  0  0  0  0
  9 36  1  0  0  0  0
 10 11  1  0  0  0  0
 10 37  1  0  0  0  0
 10 38  1  0  0  0  0
 11 12  1  0  0  0  0
 11 39  1  0  0  0  0
 11 40  1  0  0  0  0
 12 41  1  0  0  0  0
 12 42  1  0  0  0  0
 13 14  1  0  0  0  0
 13 43  1  0  0  0  0
 14 25  1  0  0  0  0
 14 15  2  0  0  0  0
 15 16  1  0  0  0  0
 15 44  1  0  0  0  0
 16 17  2  0  0  0  0
 16 45  1  0  0  0  0
 17 18  1  0  0  0  0
 17 24  1  0  0  0  0
 18 23  1  0  0  0  0
 18 19  1  0  0  0  0
 19 20  1  0  0  0  0
 19 46  1  0  0  0  0
 19 47  1  0  0  0  0
 20 21  1  0  0  0  0
 20 48  1  0  0  0  0
 20 49  1  0  0  0  0
 21 22  1  0  0  0  0
 22 23  1  0  0  0  0
 22 50  1  0  0  0  0
 22 51  1  0  0  0  0
 23 52  1  0  0  0  0
 23 53  1  0  0  0  0
 24 25  2  0  0  0  0
 25 54  1  0  0  0  0
M  CHG  1   6   1
M  END
> <s_m_source_file>
AV-unprocessed.smi

> <i_m_source_file_index>
1628

> <i_lp_mmshare_version>
43012

> <i_f3d_flags>
0

> <s_epik_input>
W0NIMl0xW0NIMl1bQ0gyXVtDSDJdW0NIMl1bQ0gyXU4xW0NIMl1bQ0gyXVtOSF1DKD1PKVtOSF1jMltjSF1bY0hdYyhuW2NIXTIpTjNbQ0gyXVtDSDJdT1tDSDJdW0NIMl0z

> <s_epik_cmdline>
J2VwaWtfcHl0aG9uJywgJy1waCcsICc3LjAnLCAnLXRuJywgJzgnLCAnLW1hJywgJzIwMCcsICctbWV0YWxfYmluZGluZycsICctaW1hZScsICc8aW5maWxlLm1hZT4nLCAnLW9tYWUnLCAnPG91dGZpbGUubWFlPic=

> <r_lp_tautomer_probability>
1

> <r_epik_Ionization_Penalty>
0.00380107

> <r_epik_Ionization_Penalty_Charging>
0.00211816

> <r_epik_Ionization_Penalty_Neutral>
0.00168291

> <r_epik_State_Penalty>
-0

> <r_epik_Charging_Adjusted_Penalty>
0.00211816

> <i_epik_Tot_Q>
1

> <i_epik_Tot_abs_Q>
1

> <r_epik_Metal_State_Penalty>
-0

> <b_epik_Metal_Only>
0

> <s_lp_Force_Field>
OPLS_2005

> <r_lp_Energy>
41.9459

> <b_lp_Chiralities_Consistent>
1

> <s_lp_Variant>
AV-unprocessed.smi:1628-1

> <Gold.Version>
5.8.1

> <Gold.Id.Protein>
6NUR|6NUR_protein|mol2

> <Gold.PLP.Fitness>
55.9840

> <Gold.PLP.PLP>
-44.0083

> <Gold.PLP.part.hbond>
-4.0000

> <Gold.PLP.part.metal>
0.0000

> <Gold.PLP.part.buried>
-6.2069

> <Gold.PLP.part.nonpolar>
-34.4845

> <Gold.PLP.part.repulsive>
0.1344

> <Gold.PLP.ligand.clash>
0.0000

> <Gold.PLP.ligand.torsion>
0.7540

> <Gold.PLP.Chemscore.Hbond>
3.3500

> <Gold.PLP.Chemscore.CHOScore>
1.0000

> <Gold.PLP.Chemscore.Metal>
0.0000

> <Gold.Chemscore.Hbonds>
donor molecule, donor type, donor heavy atom, donor atom, acceptor molecule, acceptor atom, score
      L1  H     3    26       P1  7948  1.00
      L1  H     6    55       P1 10747  0.67
      L1  H    13    43       P1  7948  0.86
      P1  H  7989  7998       L1    24  0.21
      L1  C    25    54       P1  7957  0.96

> <Gold.PLP.Chemscore.Internal.Correction>
0.4338

> <Gold.Rescore>
     Score         DG    S(hbond)    S(metal)    S(lipo)     H(rot)  DE(clash)    DE(int)     intcor
     20.64     -22.94       2.22        0.00     120.85       1.60       0.07       2.24       ----

> <Gold.Chemscore.Fitness>
20.6407

> <Gold.Chemscore.DG>
-22.9433

> <Gold.Chemscore.ZeroCoef>
-5.4800

> <Gold.Chemscore.Hbond>
2.2197

> <Gold.Chemscore.Metal>
0.0000

> <Gold.Chemscore.Lipo>
120.8502

> <Gold.Chemscore.Internal_Hbond>
0.0000

> <Gold.Chemscore.DEClash>
0.0674

> <Gold.Chemscore.DEInternal>
2.2352

> <Gold.Chemscore.Rot>
1.5976

> <Gold.Chemscore.Internal.Correction>
   9.000000E+99

> <Gold.Chemscore.Hbonds>
donor molecule, donor type, donor heavy atom, donor atom, acceptor molecule, acceptor atom, score
      L1  H     3    26       P1  7948  0.84
      L1  H     6    55       P1 10747  0.65
      L1  H    13    43       P1  7948  0.82

> <Gold.Chemscore.Hbond.Weighted>
-7.4137

> <Gold.Chemscore.Metal.Weighted>
-0.0000

> <Gold.Chemscore.Lipo.Weighted>
-14.1395

> <Gold.Chemscore.Internal_Hbond.Weighted>
0.0000

> <Gold.Chemscore.DEClash.Weighted>
0.0674

> <Gold.Chemscore.DEInternal.Weighted>
2.2352

> <Gold.Chemscore.Rot.Weighted>
4.0899

> <Gold.Chemscore.Internal.Correction.Weighted>
   9.000000E+99

> <Gold.Protein.RotatedTorsions>
[ 6907 6896 6895 6894 ] final   61.96 input  -60.11 | X-H torsion
[ 7974 7965 7964 7962 ] final   59.10 input  175.53 | X-H torsion
[ 8008 7997 7996 7995 ] final   65.05 input   59.86 | X-H torsion
[ 10167 10162 10161 10158 ] final -145.86 input  -65.29 | X-H torsion
[ 10718 10713 10712 10709 ] final -167.47 input   66.30 | X-H torsion
[ 10763 10752 10751 10750 ] final   84.50 input  -60.55 | X-H torsion
[ 11005 11000 10999 10996 ] final   56.12 input  -57.11 | X-H torsion

> <Gold.Protein.ActiveResidues>
 VAL166  LYS551  ARG553  GLY616  TRP617  ASP618  TYR619  PRO620  LYS621  CYS622 
 ASP623  PHE694  ASN695  SER759  ASP760  ASP761  ALA762  ILE779  LEU786  VAL792 
 PHE793  MET794  SER795  GLU796  ALA797  LYS798  CYS799  TRP800  GLU811  SER814 

> <Gold.Protein.RotatedAtoms>
  152.4132  134.6088  160.0019 H   0  0  0  0  0  0  0  0  0  0  0  0  # atno 6907 bound_to 6896
  151.6259  133.3330  159.3106 H   0  0  0  0  0  0  0  0  0  0  0  0  # atno 6908 bound_to 6896
  150.8022  134.7163  159.6677 H   0  0  0  0  0  0  0  0  0  0  0  0  # atno 6909 bound_to 6896
  145.9109  139.3653  143.0536 H   0  0  0  0  0  0  0  0  0  0  0  0  # atno 7974 bound_to 7965
  155.6556  140.3497  155.4764 H   0  0  0  0  0  0  0  0  0  0  0  0  # atno 8008 bound_to 7997
  155.9811  140.1175  157.0748 H   0  0  0  0  0  0  0  0  0  0  0  0  # atno 8009 bound_to 7997
  154.4192  140.1138  156.5423 H   0  0  0  0  0  0  0  0  0  0  0  0  # atno 8010 bound_to 7997
  139.7766  143.8161  152.2633 H   0  0  0  0  0  0  0  0  0  0  0  0  # atno 10167 bound_to 10162
  156.6829  130.9129  151.3059 H   0  0  0  0  0  0  0  0  0  0  0  0  # atno 10718 bound_to 10713
  153.1387  135.4652  154.9463 H   0  0  0  0  0  0  0  0  0  0  0  0  # atno 10763 bound_to 10752
  154.7728  135.3164  154.8156 H   0  0  0  0  0  0  0  0  0  0  0  0  # atno 10764 bound_to 10752
  153.8683  135.6906  153.4830 H   0  0  0  0  0  0  0  0  0  0  0  0  # atno 10765 bound_to 10752
  140.0554  134.5678  155.9214 H   0  0  0  0  0  0  0  0  0  0  0  0  # atno 11005 bound_to 11000
  145.8673  140.9441  143.0669 LP  0  0  0  0  0  0  0  0  0  0  0  0  # atno 17320 bound_to 7965
  144.6743  140.0608  143.7476 LP  0  0  0  0  0  0  0  0  0  0  0  0  # atno 17321 bound_to 7965
  139.8211  144.7295  150.9571 LP  0  0  0  0  0  0  0  0  0  0  0  0  # atno 17342 bound_to 10162
  140.7816  143.4158  151.0919 LP  0  0  0  0  0  0  0  0  0  0  0  0  # atno 17343 bound_to 10162
  157.7037  130.9361  150.0864 LP  0  0  0  0  0  0  0  0  0  0  0  0  # atno 17370 bound_to 10713
  156.1854  130.3652  149.8979 LP  0  0  0  0  0  0  0  0  0  0  0  0  # atno 17371 bound_to 10713
  141.1949  133.6585  156.5619 LP  0  0  0  0  0  0  0  0  0  0  0  0  # atno 17394 bound_to 11000
  140.3852  134.7488  157.4687 LP  0  0  0  0  0  0  0  0  0  0  0  0  # atno 17395 bound_to 11000

$$$$
