#       Name:                AV-unprocessed.smi:1895
#       Creating user name   scv26
#       Creation time:       Fri Mar 27 09:42:20 2020


#       File generated by GOLD software.
#

@<TRIPOS>MOLECULE
AV-unprocessed.smi:1895
    41    42     1
SMALL
NO_CHARGES


@<TRIPOS>ATOM
      1 ****        -4.7820   1.0548  -1.8465 C.3            1 S1                 0.0000
      2 ****        -3.6978   0.0180  -1.8515 C.2            1 S1                 0.0000
      3 ****        -3.8333  -1.3984  -1.8652 C.2            1 S1                 0.0000
      4 ****        -2.5473  -1.8604  -1.8612 C.2            1 S1                 0.0000
      5 ****        -2.0255  -3.2595  -1.8671 C.3            1 S1                 0.0000
      6 ****        -1.7217  -0.7497  -1.8475 N.pl3          1 S1                 0.0000
      7 ****        -0.2664  -0.6856  -1.8399 C.3            1 S1                 0.0000
      8 ****         0.3338  -0.7894  -0.4317 C.2            1 S1                 0.0000
      9 ****        -0.3558  -1.1164   0.5355 O.2            1 S1                 0.0000
     10 ****         1.6423  -0.5091  -0.3370 N.am           1 S1                 0.0000
     11 ****         2.4228  -0.5375   0.8945 C.3            1 S1                 0.0000
     12 ****         2.2350   0.7490   1.7149 C.3            1 S1                 0.0000
     13 ****         3.0103   0.7584   3.0289 C.3            1 S1                 0.0000
     14 ****         3.0759   2.2391   3.3294 C.3            1 S1                 0.0000
     15 ****         3.2160   2.8556   1.9373 C.3            1 S1                 0.0000
     16 ****         2.7479   1.8759   1.0126 O.3            1 S1                 0.0000
     17 ****        -2.4313   0.4001  -1.8422 N.2            1 S1                 0.0000
     18 ****        -5.7691   0.5924  -1.8457 H              1 S1                 0.0000
     19 ****        -4.7169   1.6958  -2.7260 H              1 S1                 0.0000
     20 ****        -4.7129   1.6903  -0.9633 H              1 S1                 0.0000
     21 ****        -4.7389  -1.9864  -1.8746 H              1 S1                 0.0000
     22 ****        -2.8434  -3.9798  -1.8510 H              1 S1                 0.0000
     23 ****        -1.3995  -3.4447  -0.9940 H              1 S1                 0.0000
     24 ****        -1.4294  -3.4492  -2.7598 H              1 S1                 0.0000
     25 ****         0.1255  -1.4928  -2.4593 H              1 S1                 0.0000
     26 ****         0.0501   0.2507  -2.3028 H              1 S1                 0.0000
     27 ****         2.1329  -0.2448  -1.1789 H              1 S1                 0.0000
     28 ****         2.1450  -1.4095   1.4891 H              1 S1                 0.0000
     29 ****         3.4735  -0.6646   0.6325 H              1 S1                 0.0000
     30 ****         1.1778   0.9243   1.9227 H              1 S1                 0.0000
     31 ****         2.5221   0.1830   3.8160 H              1 S1                 0.0000
     32 ****         4.0163   0.3611   2.8857 H              1 S1                 0.0000
     33 ****         2.1418   2.5649   3.7889 H              1 S1                 0.0000
     34 ****         3.8950   2.5053   3.9982 H              1 S1                 0.0000
     35 ****         2.6471   3.7816   1.8477 H              1 S1                 0.0000
     36 ****         4.2597   3.0767   1.7114 H              1 S1                 0.0000
     37 ****        -1.3268  -1.3204   0.4111 LP             1 S1                 0.0000
     38 ****         0.0556  -1.1780   1.4449 LP             1 S1                 0.0000
     39 ****         2.0236   2.2723   0.4485 LP             1 S1                 0.0000
     40 ****         3.5046   1.5848   0.4272 LP             1 S1                 0.0000
     41 ****        -2.0768   1.3351  -1.8332 LP             1 S1                 0.0000
@<TRIPOS>BOND
    1    1    2 1     
    2    1   18 1     
    3    1   19 1     
    4    1   20 1     
    5    2   17 2     
    6    2    3 1     
    7    3    4 2     
    8    3   21 1     
    9    4    5 1     
   10    4    6 1     
   11    5   22 1     
   12    5   23 1     
   13    5   24 1     
   14    6    7 1     
   15    6   17 1     
   16    7    8 1     
   17    7   25 1     
   18    7   26 1     
   19    8    9 2     
   20    8   10 am    
   21   10   11 1     
   22   10   27 1     
   23   11   12 1     
   24   11   28 1     
   25   11   29 1     
   26   12   16 1     
   27   12   13 1     
   28   12   30 1     
   29   13   14 1     
   30   13   31 1     
   31   13   32 1     
   32   14   15 1     
   33   14   33 1     
   34   14   34 1     
   35   15   16 1     
   36   15   35 1     
   37   15   36 1     
   38    9   37 1     
   39    9   38 1     
   40   16   39 1     
   41   16   40 1     
   42   17   41 1     
@<TRIPOS>SUBSTRUCTURE
      1 S1             1
@<TRIPOS>SET
LONE_PAIRS      STATIC     ATOMS    <user>   **** ""
5 37 38 39 40 41
DONOR_HYDROGENS      STATIC     ATOMS    <user>   **** ""
1 27
ATOM$BLUE        STATIC     ATOMS    COLORGROUP SYSTEM
5 37 38 39 40 41
ATOM$RED        STATIC     ATOMS    COLORGROUP SYSTEM
1 27
