AV-unprocessed.smi:2318|AV-procd|sdf|9275|dock1
  -GOLD-   2272012493D 1   1.00000     0.00000
 Structure written by MMmdl.
 37 38  0  0  0  0  0  0  0  0  1 V2000
  152.5287  143.3174  161.8372 C   0  0  0  0  0  0  0  0  0  0  0  0
  152.0044  143.7512  160.5602 N   0  0  0  0  0  0  0  0  0  0  0  0
  152.2153  144.9472  159.9040 C   0  0  0  0  0  0  0  0  0  0  0  0
  151.5145  144.9002  158.7323 C   0  0  0  0  0  0  0  0  0  0  0  0
  150.9014  143.6175  158.7688 C   0  0  0  0  0  0  0  0  0  0  0  0
  150.0696  143.1840  157.7048 N   0  0  0  0  0  0  0  0  0  0  0  0
  149.4639  141.9919  157.5689 C   0  0  0  0  0  0  0  0  0  0  0  0
  149.5438  141.0612  158.3708 O   0  0  0  0  0  0  0  0  0  0  0  0
  148.7527  141.9387  156.4332 N   0  0  0  0  0  0  0  0  0  0  0  0
  147.9578  140.8009  155.9659 C   0  0  2  0  0  0  0  0  0  0  0  0
  148.9107  139.6656  155.5121 C   0  0  0  0  0  0  0  0  0  0  0  0
  149.6195  138.9146  156.6443 C   0  0  0  0  0  0  0  0  0  0  0  0
  150.7925  138.2007  155.9682 C   0  0  0  0  0  0  0  0  0  0  0  0
  151.1525  139.0464  154.7395 C   0  0  0  0  0  0  0  0  0  0  0  0
  150.0839  140.1423  154.6426 C   0  0  0  0  0  0  0  0  0  0  0  0
  146.9893  141.2889  154.8643 C   0  0  0  0  0  0  0  0  0  0  0  0
  146.2176  140.2787  154.4607 F   0  0  0  0  0  0  0  0  0  0  0  0
  146.2067  142.2651  155.3261 F   0  0  0  0  0  0  0  0  0  0  0  0
  147.6577  141.7362  153.8021 F   0  0  0  0  0  0  0  0  0  0  0  0
  151.1943  142.9273  159.8626 N   0  0  0  0  0  0  0  0  0  0  0  0
  153.1487  144.1010  162.2734 H   0  0  0  0  0  0  0  0  0  0  0  0
  153.1335  142.4203  161.7022 H   0  0  0  0  0  0  0  0  0  0  0  0
  151.7062  143.0962  162.5180 H   0  0  0  0  0  0  0  0  0  0  0  0
  152.8397  145.7240  160.3208 H   0  0  0  0  0  0  0  0  0  0  0  0
  151.4509  145.6639  157.9715 H   0  0  0  0  0  0  0  0  0  0  0  0
  149.9172  143.8565  156.9678 H   0  0  0  0  0  0  0  0  0  0  0  0
  148.7492  142.7572  155.8424 H   0  0  0  0  0  0  0  0  0  0  0  0
  147.3491  140.4172  156.7866 H   0  0  0  0  0  0  0  0  0  0  0  0
  148.3413  138.9370  154.9325 H   0  0  0  0  0  0  0  0  0  0  0  0
  149.9988  139.6236  157.3818 H   0  0  0  0  0  0  0  0  0  0  0  0
  148.9650  138.2124  157.1609 H   0  0  0  0  0  0  0  0  0  0  0  0
  151.6370  138.0754  156.6463 H   0  0  0  0  0  0  0  0  0  0  0  0
  150.4816  137.2056  155.6470 H   0  0  0  0  0  0  0  0  0  0  0  0
  152.1483  139.4820  154.8296 H   0  0  0  0  0  0  0  0  0  0  0  0
  151.1495  138.4246  153.8435 H   0  0  0  0  0  0  0  0  0  0  0  0
  149.7875  140.3361  153.6112 H   0  0  0  0  0  0  0  0  0  0  0  0
  150.4873  141.0729  155.0455 H   0  0  0  0  0  0  0  0  0  0  0  0
  1  2  1  0  0  0  0
  1 21  1  0  0  0  0
  1 22  1  0  0  0  0
  1 23  1  0  0  0  0
  2 20  1  0  0  0  0
  2  3  1  0  0  0  0
  3  4  2  0  0  0  0
  3 24  1  0  0  0  0
  4  5  1  0  0  0  0
  4 25  1  0  0  0  0
  5  6  1  0  0  0  0
  5 20  2  0  0  0  0
  6  7  1  0  0  0  0
  6 26  1  0  0  0  0
  7  8  2  0  0  0  0
  7  9  1  0  0  0  0
  9 10  1  0  0  0  0
  9 27  1  0  0  0  0
 10 11  1  0  0  0  0
 10 16  1  0  0  0  0
 10 28  1  0  0  0  0
 11 15  1  0  0  0  0
 11 12  1  0  0  0  0
 11 29  1  0  0  0  0
 12 13  1  0  0  0  0
 12 30  1  0  0  0  0
 12 31  1  0  0  0  0
 13 14  1  0  0  0  0
 13 32  1  0  0  0  0
 13 33  1  0  0  0  0
 14 15  1  0  0  0  0
 14 34  1  0  0  0  0
 14 35  1  0  0  0  0
 15 36  1  0  0  0  0
 15 37  1  0  0  0  0
 16 17  1  0  0  0  0
 16 18  1  0  0  0  0
 16 19  1  0  0  0  0
M  END
> <s_m_source_file>
AV-unprocessed.smi

> <i_m_source_file_index>
2318

> <i_lp_mmshare_version>
43012

> <i_f3d_flags>
0

> <s_epik_input>
W0NIM11uMVtjSF1bY0hdYyhuMSlbTkhdQyg9TylbTkhdW0NAQEhdKEMoRikoRilGKVtDSF0yW0NIMl1bQ0gyXVtDSDJdW0NIMl0y

> <s_epik_cmdline>
J2VwaWtfcHl0aG9uJywgJy1waCcsICc3LjAnLCAnLXRuJywgJzgnLCAnLW1hJywgJzIwMCcsICctbWV0YWxfYmluZGluZycsICctaW1hZScsICc8aW5maWxlLm1hZT4nLCAnLW9tYWUnLCAnPG91dGZpbGUubWFlPic=

> <r_lp_tautomer_probability>
1

> <r_epik_Ionization_Penalty>
2.39546e-05

> <r_epik_Ionization_Penalty_Charging>
0

> <r_epik_Ionization_Penalty_Neutral>
2.39546e-05

> <r_epik_State_Penalty>
-0

> <r_epik_Charging_Adjusted_Penalty>
0

> <i_epik_Tot_Q>
0

> <i_epik_Tot_abs_Q>
0

> <r_epik_Metal_State_Penalty>
-0

> <b_epik_Metal_Only>
0

> <s_lp_Force_Field>
OPLS_2005

> <r_lp_Energy>
23.9909

> <b_lp_Chiralities_Consistent>
1

> <s_lp_Variant>
AV-unprocessed.smi:2318-1

> <Gold.Version>
5.8.1

> <Gold.Id.Protein>
6NUR|6NUR_protein|mol2

> <Gold.PLP.Fitness>
42.6592

> <Gold.PLP.PLP>
-37.0696

> <Gold.PLP.part.hbond>
-2.8438

> <Gold.PLP.part.metal>
0.0000

> <Gold.PLP.part.buried>
-4.1356

> <Gold.PLP.part.nonpolar>
-30.0180

> <Gold.PLP.part.repulsive>
0.0771

> <Gold.PLP.ligand.clash>
0.0000

> <Gold.PLP.ligand.torsion>
0.3996

> <Gold.PLP.Chemscore.Hbond>
1.9920

> <Gold.PLP.Chemscore.CHOScore>
0.0000

> <Gold.PLP.Chemscore.Metal>
0.0000

> <Gold.Chemscore.Hbonds>
donor molecule, donor type, donor heavy atom, donor atom, acceptor molecule, acceptor atom, score
      L1  H     6    26       P1  8028  1.00
      L1  H     9    27       P1  8028  0.99

> <Gold.PLP.Chemscore.Internal.Correction>
0.4128

> <Gold.Rescore>
     Score         DG    S(hbond)    S(metal)    S(lipo)     H(rot)  DE(clash)    DE(int)     intcor
     13.21     -16.65       1.87        0.00      70.45       1.30       0.27       3.17       ----

> <Gold.Chemscore.Fitness>
13.2145

> <Gold.Chemscore.DG>
-16.6520

> <Gold.Chemscore.ZeroCoef>
-5.4800

> <Gold.Chemscore.Hbond>
1.8738

> <Gold.Chemscore.Metal>
0.0000

> <Gold.Chemscore.Lipo>
70.4471

> <Gold.Chemscore.Internal_Hbond>
0.0000

> <Gold.Chemscore.DEClash>
0.2655

> <Gold.Chemscore.DEInternal>
3.1721

> <Gold.Chemscore.Rot>
1.3003

> <Gold.Chemscore.Internal.Correction>
   9.000000E+99

> <Gold.Chemscore.Hbonds>
donor molecule, donor type, donor heavy atom, donor atom, acceptor molecule, acceptor atom, score
      L1  H     6    26       P1  8028  0.94
      L1  H     9    27       P1  8028  0.93

> <Gold.Chemscore.Hbond.Weighted>
-6.2585

> <Gold.Chemscore.Metal.Weighted>
-0.0000

> <Gold.Chemscore.Lipo.Weighted>
-8.2423

> <Gold.Chemscore.Internal_Hbond.Weighted>
0.0000

> <Gold.Chemscore.DEClash.Weighted>
0.2655

> <Gold.Chemscore.DEInternal.Weighted>
3.1721

> <Gold.Chemscore.Rot.Weighted>
3.3287

> <Gold.Chemscore.Internal.Correction.Weighted>
   9.000000E+99

> <Gold.Protein.RotatedTorsions>
[ 6907 6896 6895 6894 ] final -145.42 input  -60.11 | X-H torsion
[ 7974 7965 7964 7962 ] final -153.99 input  175.53 | X-H torsion
[ 8008 7997 7996 7995 ] final  -36.18 input   59.86 | X-H torsion
[ 10167 10162 10161 10158 ] final  171.69 input  -65.29 | X-H torsion
[ 10718 10713 10712 10709 ] final -127.83 input   66.30 | X-H torsion
[ 10763 10752 10751 10750 ] final  -28.06 input  -60.55 | X-H torsion
[ 11005 11000 10999 10996 ] final  -26.87 input  -57.11 | X-H torsion

> <Gold.Protein.ActiveResidues>
 VAL166  LYS551  ARG553  GLY616  TRP617  ASP618  TYR619  PRO620  LYS621  CYS622 
 ASP623  PHE694  ASN695  SER759  ASP760  ASP761  ALA762  ILE779  LEU786  VAL792 
 PHE793  MET794  SER795  GLU796  ALA797  LYS798  CYS799  TRP800  GLU811  SER814 

> <Gold.Protein.RotatedAtoms>
  151.1275  133.5060  159.2599 H   0  0  0  0  0  0  0  0  0  0  0  0  # atno 6907 bound_to 6896
  151.1794  135.0353  159.8796 H   0  0  0  0  0  0  0  0  0  0  0  0  # atno 6908 bound_to 6896
  152.5458  134.1129  159.8419 H   0  0  0  0  0  0  0  0  0  0  0  0  # atno 6909 bound_to 6896
  144.7712  140.4450  143.5906 H   0  0  0  0  0  0  0  0  0  0  0  0  # atno 7974 bound_to 7965
  154.4078  140.1637  156.2333 H   0  0  0  0  0  0  0  0  0  0  0  0  # atno 8008 bound_to 7997
  155.9264  140.3418  155.6191 H   0  0  0  0  0  0  0  0  0  0  0  0  # atno 8009 bound_to 7997
  155.7159  140.0762  157.2342 H   0  0  0  0  0  0  0  0  0  0  0  0  # atno 8010 bound_to 7997
  139.5054  144.3458  151.9973 H   0  0  0  0  0  0  0  0  0  0  0  0  # atno 10167 bound_to 10162
  156.1893  130.6785  151.0404 H   0  0  0  0  0  0  0  0  0  0  0  0  # atno 10718 bound_to 10713
  153.7422  135.6931  153.4964 H   0  0  0  0  0  0  0  0  0  0  0  0  # atno 10763 bound_to 10752
  153.2061  135.4419  155.0323 H   0  0  0  0  0  0  0  0  0  0  0  0  # atno 10764 bound_to 10752
  154.8216  135.3425  154.6947 H   0  0  0  0  0  0  0  0  0  0  0  0  # atno 10765 bound_to 10752
  140.9068  133.7487  156.0617 H   0  0  0  0  0  0  0  0  0  0  0  0  # atno 11005 bound_to 11000
  145.6318  139.1537  143.2965 LP  0  0  0  0  0  0  0  0  0  0  0  0  # atno 17320 bound_to 7965
  146.1860  140.6421  142.9167 LP  0  0  0  0  0  0  0  0  0  0  0  0  # atno 17321 bound_to 7965
  140.2895  144.3770  150.6093 LP  0  0  0  0  0  0  0  0  0  0  0  0  # atno 17342 bound_to 10162
  140.5957  143.2167  151.7168 LP  0  0  0  0  0  0  0  0  0  0  0  0  # atno 17343 bound_to 10162
  157.6919  131.0807  150.7082 LP  0  0  0  0  0  0  0  0  0  0  0  0  # atno 17370 bound_to 10713
  156.7139  130.4660  149.5540 LP  0  0  0  0  0  0  0  0  0  0  0  0  # atno 17371 bound_to 10713
  140.8161  134.3343  157.5396 LP  0  0  0  0  0  0  0  0  0  0  0  0  # atno 17394 bound_to 11000
  139.8751  134.9282  156.3445 LP  0  0  0  0  0  0  0  0  0  0  0  0  # atno 17395 bound_to 11000

$$$$
