AV-unprocessed.smi:622|AV-procd|sdf|3090|dock3
  -GOLD-   22720 0 13D 1   1.00000     0.00000
 Structure written by MMmdl.
 36 37  0  0  0  0  0  0  0  0  1 V2000
  150.7204  140.7906  156.2065 O   0  0  0  0  0  0  0  0  0  0  0  0
  149.9830  141.7719  156.1165 C   0  0  0  0  0  0  0  0  0  0  0  0
  148.8864  141.8483  155.3429 N   0  0  0  0  0  0  0  0  0  0  0  0
  148.3091  140.8381  154.5273 C   0  0  0  0  0  0  0  0  0  0  0  0
  147.3562  141.0865  153.5100 C   0  0  0  0  0  0  0  0  0  0  0  0
  146.8725  140.0023  152.7527 C   0  0  0  0  0  0  0  0  0  0  0  0
  147.3631  138.7127  153.0348 C   0  0  0  0  0  0  0  0  0  0  0  0
  148.2820  138.4634  153.9915 N   0  0  0  0  0  0  0  0  0  0  0  0
  148.7425  139.5081  154.7124 C   0  0  0  0  0  0  0  0  0  0  0  0
  150.1895  142.9230  156.7730 N   0  0  0  0  0  0  0  0  0  0  0  0
  151.2867  143.2038  157.6975 C   0  0  0  0  0  0  0  0  0  0  0  0
  151.4564  141.9884  158.6288 C   0  0  0  0  0  0  0  0  0  0  0  0
  152.5451  142.1327  159.7063 C   0  0  0  0  0  0  0  0  0  0  0  0
  152.1265  143.0677  160.8523 C   0  0  0  0  0  0  0  0  0  0  0  0
  152.4049  144.5631  160.6207 C   0  0  0  0  0  0  0  0  0  0  0  0
  152.2197  145.0840  159.1847 C   0  0  0  0  0  0  0  0  0  0  0  0
  150.9991  144.5313  158.4301 C   0  0  0  0  0  0  0  0  0  0  0  0
  148.4371  142.7511  155.2964 H   0  0  0  0  0  0  0  0  0  0  0  0
  147.0013  142.0806  153.2868 H   0  0  0  0  0  0  0  0  0  0  0  0
  146.1450  140.1566  151.9696 H   0  0  0  0  0  0  0  0  0  0  0  0
  147.0127  137.8594  152.4731 H   0  0  0  0  0  0  0  0  0  0  0  0
  149.4794  139.2718  155.4662 H   0  0  0  0  0  0  0  0  0  0  0  0
  149.5286  143.6715  156.6250 H   0  0  0  0  0  0  0  0  0  0  0  0
  152.2149  143.3219  157.1356 H   0  0  0  0  0  0  0  0  0  0  0  0
  150.5047  141.7486  159.1053 H   0  0  0  0  0  0  0  0  0  0  0  0
  151.7020  141.1214  158.0138 H   0  0  0  0  0  0  0  0  0  0  0  0
  152.7202  141.1432  160.1302 H   0  0  0  0  0  0  0  0  0  0  0  0
  153.4962  142.4414  159.2710 H   0  0  0  0  0  0  0  0  0  0  0  0
  151.0671  142.9239  161.0675 H   0  0  0  0  0  0  0  0  0  0  0  0
  152.6456  142.7675  161.7633 H   0  0  0  0  0  0  0  0  0  0  0  0
  151.7649  145.1349  161.2940 H   0  0  0  0  0  0  0  0  0  0  0  0
  153.4263  144.7869  160.9307 H   0  0  0  0  0  0  0  0  0  0  0  0
  152.1404  146.1705  159.2346 H   0  0  0  0  0  0  0  0  0  0  0  0
  153.1231  144.8922  158.6048 H   0  0  0  0  0  0  0  0  0  0  0  0
  150.7141  145.2746  157.6838 H   0  0  0  0  0  0  0  0  0  0  0  0
  150.1412  144.4360  159.0970 H   0  0  0  0  0  0  0  0  0  0  0  0
  1  2  2  0  0  0  0
  2  3  1  0  0  0  0
  2 10  1  0  0  0  0
  3  4  1  0  0  0  0
  3 18  1  0  0  0  0
  4  9  1  0  0  0  0
  4  5  2  0  0  0  0
  5  6  1  0  0  0  0
  5 19  1  0  0  0  0
  6  7  2  0  0  0  0
  6 20  1  0  0  0  0
  7  8  1  0  0  0  0
  7 21  1  0  0  0  0
  8  9  2  0  0  0  0
  9 22  1  0  0  0  0
 10 11  1  0  0  0  0
 10 23  1  0  0  0  0
 11 17  1  0  0  0  0
 11 12  1  0  0  0  0
 11 24  1  0  0  0  0
 12 13  1  0  0  0  0
 12 25  1  0  0  0  0
 12 26  1  0  0  0  0
 13 14  1  0  0  0  0
 13 27  1  0  0  0  0
 13 28  1  0  0  0  0
 14 15  1  0  0  0  0
 14 29  1  0  0  0  0
 14 30  1  0  0  0  0
 15 16  1  0  0  0  0
 15 31  1  0  0  0  0
 15 32  1  0  0  0  0
 16 17  1  0  0  0  0
 16 33  1  0  0  0  0
 16 34  1  0  0  0  0
 17 35  1  0  0  0  0
 17 36  1  0  0  0  0
M  END
> <s_m_source_file>
AV-unprocessed.smi

> <i_m_source_file_index>
622

> <i_lp_mmshare_version>
43012

> <i_f3d_flags>
0

> <s_epik_input>
W2NIXTFuW2NIXVtjSF1bY0hdYzFbTkhdQyg9TylbTkhdW0NIXTJbQ0gyXVtDSDJdW0NIMl1bQ0gyXVtDSDJdW0NIMl0y

> <s_epik_cmdline>
J2VwaWtfcHl0aG9uJywgJy1waCcsICc3LjAnLCAnLXRuJywgJzgnLCAnLW1hJywgJzIwMCcsICctbWV0YWxfYmluZGluZycsICctaW1hZScsICc8aW5maWxlLm1hZT4nLCAnLW9tYWUnLCAnPG91dGZpbGUubWFlPic=

> <r_epik_Ionization_Penalty>
0.00494148

> <r_epik_Ionization_Penalty_Charging>
0

> <r_epik_Ionization_Penalty_Neutral>
0.00494148

> <r_epik_State_Penalty>
0.00355757

> <r_epik_Charging_Adjusted_Penalty>
0.00355757

> <i_epik_Tot_Q>
0

> <i_epik_Tot_abs_Q>
0

> <r_epik_Metal_State_Penalty>
-0

> <b_epik_Metal_Only>
0

> <s_lp_Force_Field>
OPLS_2005

> <r_lp_Energy>
17.9389

> <b_lp_Chiralities_Consistent>
1

> <s_lp_Variant>
AV-unprocessed.smi:622-1

> <Gold.Version>
5.8.1

> <Gold.Id.Protein>
6NUR|6NUR_protein|mol2

> <Gold.PLP.Fitness>
42.2209

> <Gold.PLP.PLP>
-35.4541

> <Gold.PLP.part.hbond>
-1.8108

> <Gold.PLP.part.metal>
0.0000

> <Gold.PLP.part.buried>
-2.1624

> <Gold.PLP.part.nonpolar>
-32.3566

> <Gold.PLP.part.repulsive>
0.8132

> <Gold.PLP.ligand.clash>
0.0000

> <Gold.PLP.ligand.torsion>
0.2047

> <Gold.PLP.Chemscore.Hbond>
1.7211

> <Gold.PLP.Chemscore.CHOScore>
0.6666

> <Gold.PLP.Chemscore.Metal>
0.0000

> <Gold.Chemscore.Hbonds>
donor molecule, donor type, donor heavy atom, donor atom, acceptor molecule, acceptor atom, score
      L1  H     3    18       P1  8028  0.79
      L1  H    10    23       P1  8028  0.99
      L1  C     7    21       P1  7948  0.55

> <Gold.PLP.Chemscore.Internal.Correction>
0.0131

> <Gold.Rescore>
     Score         DG    S(hbond)    S(metal)    S(lipo)     H(rot)  DE(clash)    DE(int)     intcor
     18.50     -22.23       1.89        0.00     111.04       1.00       0.66       3.08       ----

> <Gold.Chemscore.Fitness>
18.4961

> <Gold.Chemscore.DG>
-22.2348

> <Gold.Chemscore.ZeroCoef>
-5.4800

> <Gold.Chemscore.Hbond>
1.8932

> <Gold.Chemscore.Metal>
0.0000

> <Gold.Chemscore.Lipo>
111.0397

> <Gold.Chemscore.Internal_Hbond>
0.0000

> <Gold.Chemscore.DEClash>
0.6604

> <Gold.Chemscore.DEInternal>
3.0783

> <Gold.Chemscore.Rot>
1.0000

> <Gold.Chemscore.Internal.Correction>
   9.000000E+99

> <Gold.Chemscore.Hbonds>
donor molecule, donor type, donor heavy atom, donor atom, acceptor molecule, acceptor atom, score
      L1  H     3    18       P1  8028  0.73
      L1  H    10    23       P1  8028  0.90

> <Gold.Chemscore.Hbond.Weighted>
-6.3232

> <Gold.Chemscore.Metal.Weighted>
-0.0000

> <Gold.Chemscore.Lipo.Weighted>
-12.9916

> <Gold.Chemscore.Internal_Hbond.Weighted>
0.0000

> <Gold.Chemscore.DEClash.Weighted>
0.6604

> <Gold.Chemscore.DEInternal.Weighted>
3.0783

> <Gold.Chemscore.Rot.Weighted>
2.5600

> <Gold.Chemscore.Internal.Correction.Weighted>
   9.000000E+99

> <Gold.Protein.RotatedTorsions>
[ 6907 6896 6895 6894 ] final    9.56 input  -60.11 | X-H torsion
[ 7974 7965 7964 7962 ] final  -67.20 input  175.53 | X-H torsion
[ 8008 7997 7996 7995 ] final  -84.47 input   59.86 | X-H torsion
[ 10167 10162 10161 10158 ] final -102.90 input  -65.29 | X-H torsion
[ 10718 10713 10712 10709 ] final  -97.78 input   66.30 | X-H torsion
[ 10763 10752 10751 10750 ] final  169.29 input  -60.55 | X-H torsion
[ 11005 11000 10999 10996 ] final  166.14 input  -57.11 | X-H torsion

> <Gold.Protein.ActiveResidues>
 VAL166  LYS551  ARG553  GLY616  TRP617  ASP618  TYR619  PRO620  LYS621  CYS622 
 ASP623  PHE694  ASN695  SER759  ASP760  ASP761  ALA762  ILE779  LEU786  VAL792 
 PHE793  MET794  SER795  GLU796  ALA797  LYS798  CYS799  TRP800  GLU811  SER814 

> <Gold.Protein.RotatedAtoms>
  151.7241  135.0888  160.0288 H   0  0  0  0  0  0  0  0  0  0  0  0  # atno 6907 bound_to 6896
  152.3583  133.6260  159.6004 H   0  0  0  0  0  0  0  0  0  0  0  0  # atno 6908 bound_to 6896
  150.7586  133.9381  159.3489 H   0  0  0  0  0  0  0  0  0  0  0  0  # atno 6909 bound_to 6896
  145.7321  140.8992  143.0574 H   0  0  0  0  0  0  0  0  0  0  0  0  # atno 7974 bound_to 7965
  154.6301  140.0604  156.9722 H   0  0  0  0  0  0  0  0  0  0  0  0  # atno 8008 bound_to 7997
  155.1679  140.3288  155.4380 H   0  0  0  0  0  0  0  0  0  0  0  0  # atno 8009 bound_to 7997
  156.2478  140.1919  156.6782 H   0  0  0  0  0  0  0  0  0  0  0  0  # atno 8010 bound_to 7997
  140.2257  143.3643  152.0931 H   0  0  0  0  0  0  0  0  0  0  0  0  # atno 10167 bound_to 10162
  156.0092  130.5209  150.6426 H   0  0  0  0  0  0  0  0  0  0  0  0  # atno 10718 bound_to 10713
  154.3811  135.2753  155.2211 H   0  0  0  0  0  0  0  0  0  0  0  0  # atno 10763 bound_to 10752
  154.4317  135.5975  153.6076 H   0  0  0  0  0  0  0  0  0  0  0  0  # atno 10764 bound_to 10752
  152.9834  135.5997  154.4053 H   0  0  0  0  0  0  0  0  0  0  0  0  # atno 10765 bound_to 10752
  140.2634  134.7884  157.3610 H   0  0  0  0  0  0  0  0  0  0  0  0  # atno 11005 bound_to 11000
  144.6890  139.9345  143.7473 LP  0  0  0  0  0  0  0  0  0  0  0  0  # atno 17320 bound_to 7965
  146.0528  139.3527  143.0629 LP  0  0  0  0  0  0  0  0  0  0  0  0  # atno 17321 bound_to 7965
  139.5128  144.6922  151.5728 LP  0  0  0  0  0  0  0  0  0  0  0  0  # atno 17342 bound_to 10162
  140.6222  143.9236  150.6535 LP  0  0  0  0  0  0  0  0  0  0  0  0  # atno 17343 bound_to 10162
  157.4203  131.0836  151.1137 LP  0  0  0  0  0  0  0  0  0  0  0  0  # atno 17370 bound_to 10713
  157.1741  130.6280  149.5650 LP  0  0  0  0  0  0  0  0  0  0  0  0  # atno 17371 bound_to 10713
  140.1443  134.4932  155.8008 LP  0  0  0  0  0  0  0  0  0  0  0  0  # atno 17394 bound_to 11000
  141.2187  133.6837  156.7265 LP  0  0  0  0  0  0  0  0  0  0  0  0  # atno 17395 bound_to 11000

$$$$
