AV-unprocessed.smi:49|AV-procd|sdf|489|dock10
  -GOLD-   2262016353D 1   1.00000     0.00000
 Structure written by MMmdl.
 26 27  0  0  0  0  0  0  0  0  2 V2000
  152.8420  141.6926  159.1497 C   0  0  0  0  0  0  0  0  0  0  0  0
  151.7421  140.6677  158.8557 C   0  0  0  0  0  0  0  0  0  0  0  0
  151.4374  140.5670  157.3771 C   0  0  0  0  0  0  0  0  0  0  0  0
  150.2943  140.9108  156.7919 N   0  0  0  0  0  0  0  0  0  0  0  0
  150.4780  140.7043  155.4801 C   0  0  0  0  0  0  0  0  0  0  0  0
  149.4072  140.9281  154.4285 C   0  0  2  0  0  0  0  0  0  0  0  0
  148.0933  141.4435  155.0285 C   0  0  0  0  0  0  0  0  0  0  0  0
  147.0590  140.9420  154.0322 C   0  0  2  0  0  0  0  0  0  0  0  0
  145.7595  140.8589  154.5778 O   0  0  0  0  0  0  0  0  0  0  0  0
  147.6197  139.5748  153.6501 C   0  0  0  0  0  0  0  0  0  0  0  0
  149.0730  139.7250  153.6562 N   0  0  0  0  0  0  0  0  0  0  0  0
  151.7115  140.2288  155.2438 N   0  0  0  0  0  0  0  0  0  0  0  0
  152.2947  140.1629  156.4234 N   0  5  0  0  0  0  0  0  0  0  0  0
  149.7803  141.6825  153.7349 H   0  0  0  0  0  0  0  0  0  0  0  0
  147.0422  141.5940  153.1575 H   0  0  0  0  0  0  0  0  0  0  0  0
  153.0502  141.7445  160.2184 H   0  0  0  0  0  0  0  0  0  0  0  0
  152.5483  142.6886  158.8170 H   0  0  0  0  0  0  0  0  0  0  0  0
  153.7694  141.4290  158.6404 H   0  0  0  0  0  0  0  0  0  0  0  0
  152.0408  139.6847  159.2207 H   0  0  0  0  0  0  0  0  0  0  0  0
  150.8289  140.9372  159.3871 H   0  0  0  0  0  0  0  0  0  0  0  0
  147.9194  140.9789  156.0011 H   0  0  0  0  0  0  0  0  0  0  0  0
  148.0821  142.5250  155.1665 H   0  0  0  0  0  0  0  0  0  0  0  0
  145.1356  140.8756  153.8683 H   0  0  0  0  0  0  0  0  0  0  0  0
  147.3335  138.8368  154.4007 H   0  0  0  0  0  0  0  0  0  0  0  0
  147.2504  139.2245  152.6861 H   0  0  0  0  0  0  0  0  0  0  0  0
  149.3886  139.8624  152.7019 H   0  0  0  0  0  0  0  0  0  0  0  0
  1  2  1  0  0  0  0
  1 16  1  0  0  0  0
  1 17  1  0  0  0  0
  1 18  1  0  0  0  0
  2  3  1  0  0  0  0
  2 19  1  0  0  0  0
  2 20  1  0  0  0  0
  3 13  1  0  0  0  0
  3  4  2  0  0  0  0
  4  5  1  0  0  0  0
  5  6  1  0  0  0  0
  5 12  2  0  0  0  0
  6 14  1  0  0  0  0
  6 11  1  0  0  0  0
  6  7  1  0  0  0  0
  7  8  1  0  0  0  0
  7 21  1  0  0  0  0
  7 22  1  0  0  0  0
  8 15  1  0  0  0  0
  8  9  1  0  0  0  0
  8 10  1  0  0  0  0
  9 23  1  0  0  0  0
 10 11  1  0  0  0  0
 10 24  1  0  0  0  0
 10 25  1  0  0  0  0
 11 26  1  0  0  0  0
 12 13  1  0  0  0  0
M  CHG  1  13  -1
M  END
> <s_m_source_file>
AV-unprocessed.smi

> <i_m_source_file_index>
49

> <i_lp_mmshare_version>
43012

> <i_f3d_flags>
0

> <s_epik_input>
W0NIM11bQ0gyXWMxbmMobltuSF0xKVtDQEBIXTJbQ0gyXVtDQEBIXShbT0hdKVtDSDJdW05IXTI=

> <s_epik_cmdline>
J2VwaWtfcHl0aG9uJywgJy1waCcsICc3LjAnLCAnLXRuJywgJzgnLCAnLW1hJywgJzIwMCcsICctbWV0YWxfYmluZGluZycsICctaW1hZScsICc8aW5maWxlLm1hZT4nLCAnLW9tYWUnLCAnPG91dGZpbGUubWFlPic=

> <r_lp_tautomer_probability>
0.948284

> <r_epik_Ionization_Penalty>
20.726

> <r_epik_Ionization_Penalty_Charging>
17.6814

> <r_epik_Ionization_Penalty_Neutral>
3.04463

> <r_epik_State_Penalty>
7.95092

> <r_epik_Charging_Adjusted_Penalty>
25.6323

> <i_epik_Tot_Q>
-1

> <i_epik_Tot_abs_Q>
1

> <r_epik_Metal_State_Penalty>
4.146

> <b_epik_Metal_Only>
1

> <s_lp_Force_Field>
OPLS_2005

> <r_lp_Energy>
18.025

> <b_lp_Chiralities_Consistent>
1

> <s_lp_Variant>
AV-unprocessed.smi:49-27

> <Gold.Version>
5.8.1

> <Gold.Id.Protein>
6NUR|6NUR_protein|mol2

> <Gold.PLP.Fitness>
36.1853

> <Gold.PLP.PLP>
-22.6961

> <Gold.PLP.part.hbond>
-4.0000

> <Gold.PLP.part.metal>
0.0000

> <Gold.PLP.part.buried>
-1.3969

> <Gold.PLP.part.nonpolar>
-17.0640

> <Gold.PLP.part.repulsive>
0.0621

> <Gold.PLP.ligand.clash>
0.0000

> <Gold.PLP.ligand.torsion>
0.0280

> <Gold.PLP.Chemscore.Hbond>
4.5105

> <Gold.PLP.Chemscore.CHOScore>
0.0000

> <Gold.PLP.Chemscore.Metal>
0.0000

> <Gold.Chemscore.Hbonds>
donor molecule, donor type, donor heavy atom, donor atom, acceptor molecule, acceptor atom, score
      L1  H     9    23       P1 10175  0.98
      L1  H    11    26       P1  7957  1.00
      P1  H  7989  7998       L1    12  0.49
      P1  H  7997  8009       L1    13  1.98

> <Gold.PLP.Chemscore.Internal.Correction>
0.0137

> <Gold.Rescore>
     Score         DG    S(hbond)    S(metal)    S(lipo)     H(rot)  DE(clash)    DE(int)     intcor
     15.29     -15.44       2.86        0.00      43.42       1.82       0.13       0.02       ----

> <Gold.Chemscore.Fitness>
15.2874

> <Gold.Chemscore.DG>
-15.4409

> <Gold.Chemscore.ZeroCoef>
-5.4800

> <Gold.Chemscore.Hbond>
2.8583

> <Gold.Chemscore.Metal>
0.0000

> <Gold.Chemscore.Lipo>
43.4198

> <Gold.Chemscore.Internal_Hbond>
0.0000

> <Gold.Chemscore.DEClash>
0.1327

> <Gold.Chemscore.DEInternal>
0.0208

> <Gold.Chemscore.Rot>
1.8226

> <Gold.Chemscore.Internal.Correction>
   9.000000E+99

> <Gold.Chemscore.Hbonds>
donor molecule, donor type, donor heavy atom, donor atom, acceptor molecule, acceptor atom, score
      L1  H     9    23       P1 10175  0.83
      L1  H    11    26       P1  7957  0.97
      P1  H  7989  7998       L1    12  0.03
      P1  H  7997  8009       L1    13  0.83

> <Gold.Chemscore.Hbond.Weighted>
-9.5466

> <Gold.Chemscore.Metal.Weighted>
-0.0000

> <Gold.Chemscore.Lipo.Weighted>
-5.0801

> <Gold.Chemscore.Internal_Hbond.Weighted>
0.0000

> <Gold.Chemscore.DEClash.Weighted>
0.1327

> <Gold.Chemscore.DEInternal.Weighted>
0.0208

> <Gold.Chemscore.Rot.Weighted>
4.6658

> <Gold.Chemscore.Internal.Correction.Weighted>
   9.000000E+99

> <Gold.Protein.RotatedTorsions>
[ 6907 6896 6895 6894 ] final  -51.31 input  -60.11 | X-H torsion
[ 7974 7965 7964 7962 ] final  -41.05 input  175.53 | X-H torsion
[ 8008 7997 7996 7995 ] final -163.82 input   59.86 | X-H torsion
[ 10167 10162 10161 10158 ] final   81.78 input  -65.29 | X-H torsion
[ 10718 10713 10712 10709 ] final   57.32 input   66.30 | X-H torsion
[ 10763 10752 10751 10750 ] final  -97.43 input  -60.55 | X-H torsion
[ 11005 11000 10999 10996 ] final  -34.82 input  -57.11 | X-H torsion

> <Gold.Protein.ActiveResidues>
 VAL166  LYS551  ARG553  GLY616  TRP617  ASP618  TYR619  PRO620  LYS621  CYS622 
 ASP623  PHE694  ASN695  SER759  ASP760  ASP761  ALA762  ILE779  LEU786  VAL792 
 PHE793  MET794  SER795  GLU796  ALA797  LYS798  CYS799  TRP800  GLU811  SER814 

> <Gold.Protein.RotatedAtoms>
  150.8623  134.7978  159.7091 H   0  0  0  0  0  0  0  0  0  0  0  0  # atno 6907 bound_to 6896
  152.4656  134.5080  159.9755 H   0  0  0  0  0  0  0  0  0  0  0  0  # atno 6908 bound_to 6896
  151.5182  133.3433  159.2932 H   0  0  0  0  0  0  0  0  0  0  0  0  # atno 6909 bound_to 6896
  146.0247  140.6806  142.9161 H   0  0  0  0  0  0  0  0  0  0  0  0  # atno 7974 bound_to 7965
  155.8268  140.0928  157.1816 H   0  0  0  0  0  0  0  0  0  0  0  0  # atno 8008 bound_to 7997
  154.3979  140.1426  156.3626 H   0  0  0  0  0  0  0  0  0  0  0  0  # atno 8009 bound_to 7997
  155.8208  140.3446  155.5516 H   0  0  0  0  0  0  0  0  0  0  0  0  # atno 8010 bound_to 7997
  139.9357  144.6123  150.8301 H   0  0  0  0  0  0  0  0  0  0  0  0  # atno 10167 bound_to 10162
  157.5505  130.8762  149.8956 H   0  0  0  0  0  0  0  0  0  0  0  0  # atno 10718 bound_to 10713
  154.7327  135.5047  153.8991 H   0  0  0  0  0  0  0  0  0  0  0  0  # atno 10763 bound_to 10752
  153.0965  135.6674  153.9761 H   0  0  0  0  0  0  0  0  0  0  0  0  # atno 10764 bound_to 10752
  153.9558  135.3053  155.3415 H   0  0  0  0  0  0  0  0  0  0  0  0  # atno 10765 bound_to 10752
  140.9747  133.7090  156.1582 H   0  0  0  0  0  0  0  0  0  0  0  0  # atno 11005 bound_to 11000
  144.7004  140.3629  143.7160 LP  0  0  0  0  0  0  0  0  0  0  0  0  # atno 17320 bound_to 7965
  145.7137  139.1691  143.2524 LP  0  0  0  0  0  0  0  0  0  0  0  0  # atno 17321 bound_to 7965
  140.7625  143.3200  151.2644 LP  0  0  0  0  0  0  0  0  0  0  0  0  # atno 17342 bound_to 10162
  139.6746  143.9960  152.2773 LP  0  0  0  0  0  0  0  0  0  0  0  0  # atno 17343 bound_to 10162
  156.0572  130.3706  150.1063 LP  0  0  0  0  0  0  0  0  0  0  0  0  # atno 17370 bound_to 10713
  156.9236  130.9691  151.3544 LP  0  0  0  0  0  0  0  0  0  0  0  0  # atno 17371 bound_to 10713
  140.7277  134.4289  157.5569 LP  0  0  0  0  0  0  0  0  0  0  0  0  # atno 17394 bound_to 11000
  139.8926  134.8752  156.2265 LP  0  0  0  0  0  0  0  0  0  0  0  0  # atno 17395 bound_to 11000

$$$$
