AV-unprocessed.smi:2024|AV-procd|sdf|8193|dock6
  -GOLD-   2272010453D 1   1.00000     0.00000
 Structure written by MMmdl.
 43 44  0  0  0  0  0  0  0  0  1 V2000
  152.5449  139.5207  155.3311 C   0  0  0  0  0  0  0  0  0  0  0  0
  151.2298  139.8276  154.7906 N   0  0  0  0  0  0  0  0  0  0  0  0
  150.5113  140.7783  155.6333 C   0  0  0  0  0  0  0  0  0  0  0  0
  149.1278  141.1147  155.0481 C   0  0  0  0  0  0  0  0  0  0  0  0
  148.2930  139.9119  154.8931 N   0  0  0  0  0  0  0  0  0  0  0  0
  146.8920  140.1743  154.4591 C   0  0  0  0  0  0  0  0  0  0  0  0
  146.3414  141.5264  154.9738 C   0  0  0  0  0  0  0  0  0  0  0  0
  146.7852  140.1978  152.9132 C   0  0  0  0  0  0  0  0  0  0  0  0
  145.9175  139.0652  154.9558 C   0  0  0  0  0  0  0  0  0  0  0  0
  144.6018  139.1356  154.3204 N   0  0  0  0  0  0  0  0  0  0  0  0
  143.5738  138.3067  154.5505 C   0  0  0  0  0  0  0  0  0  0  0  0
  143.6239  137.3602  155.3360 O   0  0  0  0  0  0  0  0  0  0  0  0
  142.5017  138.6529  153.8202 N   0  0  0  0  0  0  0  0  0  0  0  0
  141.2322  138.0249  153.7908 C   0  0  0  0  0  0  0  0  0  0  0  0
  141.1127  136.7887  154.2784 N   0  0  0  0  0  0  0  0  0  0  0  0
  139.8036  136.3089  154.1782 C   0  0  0  0  0  0  0  0  0  0  0  0
  138.9310  137.2013  153.6064 C   0  0  0  0  0  0  0  0  0  0  0  0
  139.7212  138.6914  153.1662 S   0  0  0  0  0  0  0  0  0  0  0  0
  149.0299  138.9512  154.0557 C   0  0  0  0  0  0  0  0  0  0  0  0
  150.4157  138.6251  154.6428 C   0  0  0  0  0  0  0  0  0  0  0  0
  153.1478  140.4255  155.4156 H   0  0  0  0  0  0  0  0  0  0  0  0
  153.0774  138.8269  154.6799 H   0  0  0  0  0  0  0  0  0  0  0  0
  152.4694  139.0687  156.3210 H   0  0  0  0  0  0  0  0  0  0  0  0
  150.3942  140.3735  156.6401 H   0  0  0  0  0  0  0  0  0  0  0  0
  151.0928  141.6956  155.7316 H   0  0  0  0  0  0  0  0  0  0  0  0
  148.6551  141.8317  155.7167 H   0  0  0  0  0  0  0  0  0  0  0  0
  149.2580  141.6150  154.0883 H   0  0  0  0  0  0  0  0  0  0  0  0
  145.3189  141.6873  154.6300 H   0  0  0  0  0  0  0  0  0  0  0  0
  146.9278  142.3734  154.6186 H   0  0  0  0  0  0  0  0  0  0  0  0
  146.3171  141.5733  156.0623 H   0  0  0  0  0  0  0  0  0  0  0  0
  145.7453  140.2021  152.5843 H   0  0  0  0  0  0  0  0  0  0  0  0
  147.2643  139.3281  152.4623 H   0  0  0  0  0  0  0  0  0  0  0  0
  147.2438  141.0867  152.4801 H   0  0  0  0  0  0  0  0  0  0  0  0
  146.3249  138.0734  154.7613 H   0  0  0  0  0  0  0  0  0  0  0  0
  145.8204  139.1064  156.0423 H   0  0  0  0  0  0  0  0  0  0  0  0
  144.4613  139.8916  153.6662 H   0  0  0  0  0  0  0  0  0  0  0  0
  142.6037  139.4563  153.2179 H   0  0  0  0  0  0  0  0  0  0  0  0
  139.5797  135.3164  154.5402 H   0  0  0  0  0  0  0  0  0  0  0  0
  137.8755  137.0726  153.4182 H   0  0  0  0  0  0  0  0  0  0  0  0
  148.4828  138.0146  153.9668 H   0  0  0  0  0  0  0  0  0  0  0  0
  149.1541  139.3426  153.0456 H   0  0  0  0  0  0  0  0  0  0  0  0
  150.9247  137.9147  153.9906 H   0  0  0  0  0  0  0  0  0  0  0  0
  150.2971  138.1315  155.6088 H   0  0  0  0  0  0  0  0  0  0  0  0
  1  2  1  0  0  0  0
  1 21  1  0  0  0  0
  1 22  1  0  0  0  0
  1 23  1  0  0  0  0
  2 20  1  0  0  0  0
  2  3  1  0  0  0  0
  3  4  1  0  0  0  0
  3 24  1  0  0  0  0
  3 25  1  0  0  0  0
  4  5  1  0  0  0  0
  4 26  1  0  0  0  0
  4 27  1  0  0  0  0
  5  6  1  0  0  0  0
  5 19  1  0  0  0  0
  6  7  1  0  0  0  0
  6  8  1  0  0  0  0
  6  9  1  0  0  0  0
  7 28  1  0  0  0  0
  7 29  1  0  0  0  0
  7 30  1  0  0  0  0
  8 31  1  0  0  0  0
  8 32  1  0  0  0  0
  8 33  1  0  0  0  0
  9 10  1  0  0  0  0
  9 34  1  0  0  0  0
  9 35  1  0  0  0  0
 10 11  1  0  0  0  0
 10 36  1  0  0  0  0
 11 12  2  0  0  0  0
 11 13  1  0  0  0  0
 13 14  1  0  0  0  0
 13 37  1  0  0  0  0
 14 18  1  0  0  0  0
 14 15  2  0  0  0  0
 15 16  1  0  0  0  0
 16 17  2  0  0  0  0
 16 38  1  0  0  0  0
 17 18  1  0  0  0  0
 17 39  1  0  0  0  0
 19 20  1  0  0  0  0
 19 40  1  0  0  0  0
 19 41  1  0  0  0  0
 20 42  1  0  0  0  0
 20 43  1  0  0  0  0
M  END
> <s_m_source_file>
AV-unprocessed.smi

> <i_m_source_file_index>
2024

> <i_lp_mmshare_version>
43012

> <i_f3d_flags>
0

> <s_epik_input>
W0NIM11OMVtDSDJdW0NIMl1OKFtDSDJdW0NIMl0xKUMoW0NIM10pKFtDSDNdKVtDSDJdW05IXUMoPU8pW05IXWMybltjSF1bY0hdczI=

> <s_epik_cmdline>
J2VwaWtfcHl0aG9uJywgJy1waCcsICc3LjAnLCAnLXRuJywgJzgnLCAnLW1hJywgJzIwMCcsICctbWV0YWxfYmluZGluZycsICctaW1hZScsICc8aW5maWxlLm1hZT4nLCAnLW9tYWUnLCAnPG91dGZpbGUubWFlPic=

> <r_lp_tautomer_probability>
0.999

> <r_epik_Ionization_Penalty>
3.01774

> <r_epik_Ionization_Penalty_Charging>
0

> <r_epik_Ionization_Penalty_Neutral>
3.01774

> <r_epik_State_Penalty>
2.1369

> <r_epik_Charging_Adjusted_Penalty>
2.1369

> <i_epik_Tot_Q>
0

> <i_epik_Tot_abs_Q>
0

> <r_epik_Metal_State_Penalty>
2.1694

> <b_epik_Metal_Only>
0

> <s_lp_Force_Field>
OPLS_2005

> <r_lp_Energy>
47.9803

> <b_lp_Chiralities_Consistent>
1

> <s_lp_Variant>
AV-unprocessed.smi:2024-3

> <Gold.Version>
5.8.1

> <Gold.Id.Protein>
6NUR|6NUR_protein|mol2

> <Gold.PLP.Fitness>
39.4990

> <Gold.PLP.PLP>
-29.6629

> <Gold.PLP.part.hbond>
-2.6026

> <Gold.PLP.part.metal>
0.0000

> <Gold.PLP.part.buried>
1.8488

> <Gold.PLP.part.nonpolar>
-28.6512

> <Gold.PLP.part.repulsive>
0.2130

> <Gold.PLP.ligand.clash>
0.0000

> <Gold.PLP.ligand.torsion>
1.0082

> <Gold.PLP.Chemscore.Hbond>
2.9360

> <Gold.PLP.Chemscore.CHOScore>
1.0000

> <Gold.PLP.Chemscore.Metal>
0.0000

> <Gold.Chemscore.Hbonds>
donor molecule, donor type, donor heavy atom, donor atom, acceptor molecule, acceptor atom, score
      L1  H    10    36       P1 10175  0.98
      L1  H    13    37       P1 10175  0.96
      P1  H  7989  7998       L1     2  0.95
      L1  C    16    38       P1 11000  1.00

> <Gold.PLP.Chemscore.Internal.Correction>
0.0445

> <Gold.Rescore>
     Score         DG    S(hbond)    S(metal)    S(lipo)     H(rot)  DE(clash)    DE(int)     intcor
     14.06     -17.38       2.08        0.00      76.40       1.56       0.99       2.32       ----

> <Gold.Chemscore.Fitness>
14.0650

> <Gold.Chemscore.DG>
-17.3780

> <Gold.Chemscore.ZeroCoef>
-5.4800

> <Gold.Chemscore.Hbond>
2.0834

> <Gold.Chemscore.Metal>
0.0000

> <Gold.Chemscore.Lipo>
76.4048

> <Gold.Chemscore.Internal_Hbond>
0.0000

> <Gold.Chemscore.DEClash>
0.9889

> <Gold.Chemscore.DEInternal>
2.3241

> <Gold.Chemscore.Rot>
1.5624

> <Gold.Chemscore.Internal.Correction>
   9.000000E+99

> <Gold.Chemscore.Hbonds>
donor molecule, donor type, donor heavy atom, donor atom, acceptor molecule, acceptor atom, score
      L1  H    10    36       P1 10175  0.86
      L1  H    13    37       P1 10175  0.90
      P1  H  7989  7998       L1     2  0.06

> <Gold.Chemscore.Hbond.Weighted>
-6.9584

> <Gold.Chemscore.Metal.Weighted>
-0.0000

> <Gold.Chemscore.Lipo.Weighted>
-8.9394

> <Gold.Chemscore.Internal_Hbond.Weighted>
0.0000

> <Gold.Chemscore.DEClash.Weighted>
0.9889

> <Gold.Chemscore.DEInternal.Weighted>
2.3241

> <Gold.Chemscore.Rot.Weighted>
3.9998

> <Gold.Chemscore.Internal.Correction.Weighted>
   9.000000E+99

> <Gold.Protein.RotatedTorsions>
[ 6907 6896 6895 6894 ] final   95.50 input  -60.11 | X-H torsion
[ 7974 7965 7964 7962 ] final   75.12 input  175.53 | X-H torsion
[ 8008 7997 7996 7995 ] final -116.06 input   59.86 | X-H torsion
[ 10167 10162 10161 10158 ] final  106.80 input  -65.29 | X-H torsion
[ 10718 10713 10712 10709 ] final  -59.79 input   66.30 | X-H torsion
[ 10763 10752 10751 10750 ] final  -53.84 input  -60.55 | X-H torsion
[ 11005 11000 10999 10996 ] final  -87.13 input  -57.11 | X-H torsion

> <Gold.Protein.ActiveResidues>
 VAL166  LYS551  ARG553  GLY616  TRP617  ASP618  TYR619  PRO620  LYS621  CYS622 
 ASP623  PHE694  ASN695  SER759  ASP760  ASP761  ALA762  ILE779  LEU786  VAL792 
 PHE793  MET794  SER795  GLU796  ALA797  LYS798  CYS799  TRP800  GLU811  SER814 

> <Gold.Protein.RotatedAtoms>
  152.5443  134.1030  159.8325 H   0  0  0  0  0  0  0  0  0  0  0  0  # atno 6907 bound_to 6896
  151.1105  133.5169  159.2613 H   0  0  0  0  0  0  0  0  0  0  0  0  # atno 6908 bound_to 6896
  151.1889  135.0403  159.8878 H   0  0  0  0  0  0  0  0  0  0  0  0  # atno 6909 bound_to 6896
  145.7196  139.2643  143.1604 H   0  0  0  0  0  0  0  0  0  0  0  0  # atno 7974 bound_to 7965
  155.0618  140.0393  157.2579 H   0  0  0  0  0  0  0  0  0  0  0  0  # atno 8008 bound_to 7997
  154.7053  140.2681  155.6656 H   0  0  0  0  0  0  0  0  0  0  0  0  # atno 8009 bound_to 7997
  156.2773  140.2732  156.1677 H   0  0  0  0  0  0  0  0  0  0  0  0  # atno 8010 bound_to 7997
  139.6979  144.7098  151.1235 H   0  0  0  0  0  0  0  0  0  0  0  0  # atno 10167 bound_to 10162
  156.1036  130.4183  150.0764 H   0  0  0  0  0  0  0  0  0  0  0  0  # atno 10718 bound_to 10713
  154.1653  135.6468  153.4996 H   0  0  0  0  0  0  0  0  0  0  0  0  # atno 10763 bound_to 10752
  153.0099  135.5370  154.6669 H   0  0  0  0  0  0  0  0  0  0  0  0  # atno 10764 bound_to 10752
  154.5993  135.2942  155.0524 H   0  0  0  0  0  0  0  0  0  0  0  0  # atno 10765 bound_to 10752
  141.1621  133.7494  156.9262 H   0  0  0  0  0  0  0  0  0  0  0  0  # atno 11005 bound_to 11000
  146.0638  140.7942  142.9721 LP  0  0  0  0  0  0  0  0  0  0  0  0  # atno 17320 bound_to 7965
  144.6920  140.3237  143.7228 LP  0  0  0  0  0  0  0  0  0  0  0  0  # atno 17321 bound_to 7965
  140.7701  143.5465  150.9252 LP  0  0  0  0  0  0  0  0  0  0  0  0  # atno 17342 bound_to 10162
  139.9146  143.6679  152.3109 LP  0  0  0  0  0  0  0  0  0  0  0  0  # atno 17343 bound_to 10162
  156.8745  130.9535  151.3606 LP  0  0  0  0  0  0  0  0  0  0  0  0  # atno 17370 bound_to 10713
  157.6210  130.8655  149.9109 LP  0  0  0  0  0  0  0  0  0  0  0  0  # atno 17371 bound_to 10713
  140.1418  134.9289  157.2476 LP  0  0  0  0  0  0  0  0  0  0  0  0  # atno 17394 bound_to 11000
  140.2828  134.3330  155.7338 LP  0  0  0  0  0  0  0  0  0  0  0  0  # atno 17395 bound_to 11000

$$$$
