AV-unprocessed.smi:2526|AV-procd|sdf|9938|dock5
  -GOLD-   2272013583D 1   1.00000     0.00000
 Structure written by MMmdl.
 28 29  0  0  0  0  0  0  0  0  1 V2000
  151.8874  144.9953  159.7511 C   0  0  0  0  0  0  0  0  0  0  0  0
  151.7245  143.8099  158.9370 N   0  0  0  0  0  0  0  0  0  0  0  0
  151.3041  143.7181  157.6281 C   0  0  0  0  0  0  0  0  0  0  0  0
  151.3150  142.3957  157.2808 C   0  0  0  0  0  0  0  0  0  0  0  0
  150.9479  141.7703  155.9553 C   0  0  2  0  0  0  0  0  0  0  0  0
  149.5981  142.1746  155.5496 N   0  0  0  0  0  0  0  0  0  0  0  0
  148.6718  141.4165  154.9357 C   0  0  0  0  0  0  0  0  0  0  0  0
  147.5861  141.8807  154.5956 O   0  0  0  0  0  0  0  0  0  0  0  0
  148.9682  139.9310  154.6855 C   0  0  0  0  0  0  0  0  0  0  0  0
  150.4635  139.5897  154.7622 C   0  0  0  0  0  0  0  0  0  0  0  0
  151.0995  140.2310  156.0008 C   0  0  1  0  0  0  0  0  0  0  0  0
  152.4969  139.8462  156.0863 N   0  0  0  0  0  0  0  0  0  0  0  0
  151.7680  141.7526  158.4703 C   0  0  0  0  0  0  0  0  0  0  0  0
  152.0108  142.5993  159.4569 N   0  0  0  0  0  0  0  0  0  0  0  0
  151.3052  145.8169  159.3331 H   0  0  0  0  0  0  0  0  0  0  0  0
  152.9393  145.2803  159.7747 H   0  0  0  0  0  0  0  0  0  0  0  0
  151.5449  144.8028  160.7686 H   0  0  0  0  0  0  0  0  0  0  0  0
  151.0370  144.5933  157.0541 H   0  0  0  0  0  0  0  0  0  0  0  0
  151.6065  142.1548  155.1747 H   0  0  0  0  0  0  0  0  0  0  0  0
  149.3570  143.1404  155.7194 H   0  0  0  0  0  0  0  0  0  0  0  0
  148.4243  139.3558  155.4356 H   0  0  0  0  0  0  0  0  0  0  0  0
  148.5666  139.6373  153.7149 H   0  0  0  0  0  0  0  0  0  0  0  0
  150.5868  138.5063  154.7898 H   0  0  0  0  0  0  0  0  0  0  0  0
  150.9664  139.9368  153.8580 H   0  0  0  0  0  0  0  0  0  0  0  0
  150.5929  139.8455  156.8871 H   0  0  0  0  0  0  0  0  0  0  0  0
  152.6082  139.1336  156.7933 H   0  0  0  0  0  0  0  0  0  0  0  0
  152.7872  139.4300  155.2130 H   0  0  0  0  0  0  0  0  0  0  0  0
  151.9291  140.6987  158.6435 H   0  0  0  0  0  0  0  0  0  0  0  0
  1  2  1  0  0  0  0
  1 15  1  0  0  0  0
  1 16  1  0  0  0  0
  1 17  1  0  0  0  0
  2 14  1  0  0  0  0
  2  3  1  0  0  0  0
  3  4  2  0  0  0  0
  3 18  1  0  0  0  0
  4  5  1  0  0  0  0
  4 13  1  0  0  0  0
  5 11  1  0  0  0  0
  5  6  1  0  0  0  0
  5 19  1  0  0  0  0
  6  7  1  0  0  0  0
  6 20  1  0  0  0  0
  7  8  2  0  0  0  0
  7  9  1  0  0  0  0
  9 10  1  0  0  0  0
  9 21  1  0  0  0  0
  9 22  1  0  0  0  0
 10 11  1  0  0  0  0
 10 23  1  0  0  0  0
 10 24  1  0  0  0  0
 11 12  1  0  0  0  0
 11 25  1  0  0  0  0
 12 26  1  0  0  0  0
 12 27  1  0  0  0  0
 13 14  2  0  0  0  0
 13 28  1  0  0  0  0
M  END
> <s_m_source_file>
AV-unprocessed.smi

> <i_m_source_file_index>
2526

> <i_lp_mmshare_version>
43012

> <i_f3d_flags>
0

> <s_epik_input>
W0NIM11uMVtjSF1jKFtjSF1uMSlbQ0BASF0yW05IXUMoPU8pW0NIMl1bQ0gyXVtDQEhdMltOSDJd

> <s_epik_cmdline>
J2VwaWtfcHl0aG9uJywgJy1waCcsICc3LjAnLCAnLXRuJywgJzgnLCAnLW1hJywgJzIwMCcsICctbWV0YWxfYmluZGluZycsICctaW1hZScsICc8aW5maWxlLm1hZT4nLCAnLW9tYWUnLCAnPG91dGZpbGUubWFlPic=

> <r_lp_tautomer_probability>
1

> <r_epik_Ionization_Penalty>
2.50279

> <r_epik_Ionization_Penalty_Charging>
0

> <r_epik_Ionization_Penalty_Neutral>
2.50279

> <r_epik_State_Penalty>
2.66754

> <r_epik_Charging_Adjusted_Penalty>
2.66754

> <i_epik_Tot_Q>
0

> <i_epik_Tot_abs_Q>
0

> <r_epik_Metal_State_Penalty>
2.66721

> <b_epik_Metal_Only>
0

> <s_lp_Force_Field>
OPLS_2005

> <r_lp_Energy>
8.43832

> <b_lp_Chiralities_Consistent>
1

> <s_lp_Variant>
AV-unprocessed.smi:2526-5

> <Gold.Version>
5.8.1

> <Gold.Id.Protein>
6NUR|6NUR_protein|mol2

> <Gold.PLP.Fitness>
36.3544

> <Gold.PLP.PLP>
-30.7678

> <Gold.PLP.part.hbond>
-2.0000

> <Gold.PLP.part.metal>
0.0000

> <Gold.PLP.part.buried>
-4.0184

> <Gold.PLP.part.nonpolar>
-24.2890

> <Gold.PLP.part.repulsive>
0.3152

> <Gold.PLP.ligand.clash>
0.0000

> <Gold.PLP.ligand.torsion>
0.0312

> <Gold.PLP.Chemscore.Hbond>
1.0000

> <Gold.PLP.Chemscore.CHOScore>
0.8744

> <Gold.PLP.Chemscore.Metal>
0.0000

> <Gold.Chemscore.Hbonds>
donor molecule, donor type, donor heavy atom, donor atom, acceptor molecule, acceptor atom, score
      L1  H     6    20       P1  8028  1.00
      L1  C     3    18       P1  8028  0.87

> <Gold.PLP.Chemscore.Internal.Correction>
0.0258

> <Gold.Rescore>
     Score         DG    S(hbond)    S(metal)    S(lipo)     H(rot)  DE(clash)    DE(int)     intcor
     14.27     -14.32       0.99        0.00      69.32       1.00       0.04       0.01       ----

> <Gold.Chemscore.Fitness>
14.2678

> <Gold.Chemscore.DG>
-14.3249

> <Gold.Chemscore.ZeroCoef>
-5.4800

> <Gold.Chemscore.Hbond>
0.9863

> <Gold.Chemscore.Metal>
0.0000

> <Gold.Chemscore.Lipo>
69.3209

> <Gold.Chemscore.Internal_Hbond>
0.0000

> <Gold.Chemscore.DEClash>
0.0424

> <Gold.Chemscore.DEInternal>
0.0147

> <Gold.Chemscore.Rot>
1.0000

> <Gold.Chemscore.Internal.Correction>
   9.000000E+99

> <Gold.Chemscore.Hbonds>
donor molecule, donor type, donor heavy atom, donor atom, acceptor molecule, acceptor atom, score
      L1  H     6    20       P1  8028  1.00

> <Gold.Chemscore.Hbond.Weighted>
-3.2944

> <Gold.Chemscore.Metal.Weighted>
-0.0000

> <Gold.Chemscore.Lipo.Weighted>
-8.1105

> <Gold.Chemscore.Internal_Hbond.Weighted>
0.0000

> <Gold.Chemscore.DEClash.Weighted>
0.0424

> <Gold.Chemscore.DEInternal.Weighted>
0.0147

> <Gold.Chemscore.Rot.Weighted>
2.5600

> <Gold.Chemscore.Internal.Correction.Weighted>
   9.000000E+99

> <Gold.Protein.RotatedTorsions>
[ 6907 6896 6895 6894 ] final  -38.39 input  -60.11 | X-H torsion
[ 7974 7965 7964 7962 ] final    7.74 input  175.53 | X-H torsion
[ 8008 7997 7996 7995 ] final -142.84 input   59.86 | X-H torsion
[ 10167 10162 10161 10158 ] final  -96.34 input  -65.29 | X-H torsion
[ 10718 10713 10712 10709 ] final -150.69 input   66.30 | X-H torsion
[ 10763 10752 10751 10750 ] final   77.23 input  -60.55 | X-H torsion
[ 11005 11000 10999 10996 ] final  -42.19 input  -57.11 | X-H torsion

> <Gold.Protein.ActiveResidues>
 VAL166  LYS551  ARG553  GLY616  TRP617  ASP618  TYR619  PRO620  LYS621  CYS622 
 ASP623  PHE694  ASN695  SER759  ASP760  ASP761  ALA762  ILE779  LEU786  VAL792 
 PHE793  MET794  SER795  GLU796  ALA797  LYS798  CYS799  TRP800  GLU811  SER814 

> <Gold.Protein.RotatedAtoms>
  151.0030  134.9337  159.7964 H   0  0  0  0  0  0  0  0  0  0  0  0  # atno 6907 bound_to 6896
  152.5283  134.3129  159.9130 H   0  0  0  0  0  0  0  0  0  0  0  0  # atno 6908 bound_to 6896
  151.3135  133.4029  159.2683 H   0  0  0  0  0  0  0  0  0  0  0  0  # atno 6909 bound_to 6896
  146.2423  140.0038  142.8413 H   0  0  0  0  0  0  0  0  0  0  0  0  # atno 7974 bound_to 7965
  155.5009  140.0575  157.2939 H   0  0  0  0  0  0  0  0  0  0  0  0  # atno 8008 bound_to 7997
  154.4587  140.1986  156.0254 H   0  0  0  0  0  0  0  0  0  0  0  0  # atno 8009 bound_to 7997
  156.0850  140.3241  155.7746 H   0  0  0  0  0  0  0  0  0  0  0  0  # atno 8010 bound_to 7997
  140.2948  143.3198  152.0308 H   0  0  0  0  0  0  0  0  0  0  0  0  # atno 10167 bound_to 10162
  156.4495  130.8161  151.2391 H   0  0  0  0  0  0  0  0  0  0  0  0  # atno 10718 bound_to 10713
  153.0783  135.4922  154.8451 H   0  0  0  0  0  0  0  0  0  0  0  0  # atno 10763 bound_to 10752
  154.7117  135.3021  154.9189 H   0  0  0  0  0  0  0  0  0  0  0  0  # atno 10764 bound_to 10752
  153.9880  135.6781  153.4806 H   0  0  0  0  0  0  0  0  0  0  0  0  # atno 10765 bound_to 10752
  141.0298  133.6825  156.2560 H   0  0  0  0  0  0  0  0  0  0  0  0  # atno 11005 bound_to 11000
  145.1391  140.9561  143.4499 LP  0  0  0  0  0  0  0  0  0  0  0  0  # atno 17320 bound_to 7965
  145.0314  139.3338  143.6023 LP  0  0  0  0  0  0  0  0  0  0  0  0  # atno 17321 bound_to 7965
  139.4929  144.6498  151.6699 LP  0  0  0  0  0  0  0  0  0  0  0  0  # atno 17342 bound_to 10162
  140.5701  144.0123  150.6212 LP  0  0  0  0  0  0  0  0  0  0  0  0  # atno 17343 bound_to 10162
  157.7503  131.0142  150.3456 LP  0  0  0  0  0  0  0  0  0  0  0  0  # atno 17370 bound_to 10713
  156.3831  130.3884  149.7086 LP  0  0  0  0  0  0  0  0  0  0  0  0  # atno 17371 bound_to 10713
  140.6427  134.5149  157.5571 LP  0  0  0  0  0  0  0  0  0  0  0  0  # atno 17394 bound_to 11000
  139.9200  134.8168  156.1241 LP  0  0  0  0  0  0  0  0  0  0  0  0  # atno 17395 bound_to 11000

$$$$
