#       Name:                AV-unprocessed.smi:1467
#       Creating user name   scv26
#       Creation time:       Fri Mar 27 06:04:11 2020


#       File generated by GOLD software.
#

@<TRIPOS>MOLECULE
AV-unprocessed.smi:1467
    46    47     1
SMALL
NO_CHARGES


@<TRIPOS>ATOM
      1 ****        -4.3483   3.6166   1.1846 C.3            1 S1                 0.0000
      2 ****        -4.1867   2.2972   1.9425 C.2            1 S1                 0.0000
      3 ****        -5.2028   1.6566   2.2124 O.2            1 S1                 0.0000
      4 ****        -2.9456   1.8815   2.2899 N.am           1 S1                 0.0000
      5 ****        -1.6868   2.5551   1.9564 C.3            1 S1                 0.0000
      6 ****        -0.8592   1.6406   1.0323 C.3            1 S1                 0.0000
      7 ****        -0.5887   0.3577   1.6940 N.3            1 S1                 0.0000
      8 ****         0.1764  -0.5354   0.8254 C.3            1 S1                 0.0000
      9 ****         1.6489  -0.1000   0.6909 C.3            1 S1                 0.0000
     10 ****         2.4154  -1.0657  -0.0870 N.am           1 S1                 0.0000
     11 ****         2.3900  -1.1660  -1.4236 C.2            1 S1                 0.0000
     12 ****         1.7070  -0.4408  -2.1470 O.2            1 S1                 0.0000
     13 ****         3.1958  -2.1497  -1.8554 N.am           1 S1                 0.0000
     14 ****         3.4173  -2.5496  -3.1971 C.2            1 S1                 0.0000
     15 ****         2.8598  -2.0234  -4.3994 C.2            1 S1                 0.0000
     16 ****         3.3170  -2.6696  -5.4628 N.2            1 S1                 0.0000
     17 ****         4.1564  -3.5992  -4.9535 N.pl3          1 S1                 0.0000
     18 ****         4.2473  -3.5606  -3.5796 C.2            1 S1                 0.0000
     19 ****        -1.8542  -0.2936   2.0476 C.3            1 S1                 0.0000
     20 ****        -2.6842   0.6136   2.9762 C.3            1 S1                 0.0000
     21 ****         4.6544  -4.2446  -5.5501 H              1 S1                 0.0000
     22 ****        -3.8270   3.5790   0.2279 H              1 S1                 0.0000
     23 ****        -3.9574   4.4491   1.7701 H              1 S1                 0.0000
     24 ****        -5.4008   3.8174   0.9822 H              1 S1                 0.0000
     25 ****        -1.8242   3.5221   1.4753 H              1 S1                 0.0000
     26 ****        -1.1351   2.7599   2.8751 H              1 S1                 0.0000
     27 ****        -1.3907   1.4749   0.0937 H              1 S1                 0.0000
     28 ****         0.0740   2.1455   0.7868 H              1 S1                 0.0000
     29 ****         0.1621  -1.5388   1.2540 H              1 S1                 0.0000
     30 ****        -0.3021  -0.6078  -0.1527 H              1 S1                 0.0000
     31 ****         1.7410   0.8820   0.2265 H              1 S1                 0.0000
     32 ****         2.1059  -0.0227   1.6778 H              1 S1                 0.0000
     33 ****         3.0055  -1.7015   0.4294 H              1 S1                 0.0000
     34 ****         3.7017  -2.6670  -1.1516 H              1 S1                 0.0000
     35 ****         2.1573  -1.2160  -4.5433 H              1 S1                 0.0000
     36 ****         4.8745  -4.2347  -3.0149 H              1 S1                 0.0000
     37 ****        -2.4215  -0.5276   1.1451 H              1 S1                 0.0000
     38 ****        -1.6508  -1.2384   2.5530 H              1 S1                 0.0000
     39 ****        -2.1418   0.8069   3.9029 H              1 S1                 0.0000
     40 ****        -3.5988   0.0956   3.2671 H              1 S1                 0.0000
     41 ****        -6.0998   2.0025   1.9371 LP             1 S1                 0.0000
     42 ****        -5.1312   0.7904   2.7069 LP             1 S1                 0.0000
     43 ****        -0.0522   0.5436   2.5171 LP             1 S1                 0.0000
     44 ****         1.1310   0.2694  -1.7422 LP             1 S1                 0.0000
     45 ****         1.7282  -0.5619  -3.1394 LP             1 S1                 0.0000
     46 ****         3.0921  -2.5065  -6.4235 LP             1 S1                 0.0000
@<TRIPOS>BOND
    1    1    2 1     
    2    1   22 1     
    3    1   23 1     
    4    1   24 1     
    5    2    3 2     
    6    2    4 am    
    7    4   20 1     
    8    4    5 1     
    9    5    6 1     
   10    5   25 1     
   11    5   26 1     
   12    6    7 1     
   13    6   27 1     
   14    6   28 1     
   15    7    8 1     
   16    7   19 1     
   17    8    9 1     
   18    8   29 1     
   19    8   30 1     
   20    9   10 1     
   21    9   31 1     
   22    9   32 1     
   23   10   11 am    
   24   10   33 1     
   25   11   12 2     
   26   11   13 am    
   27   13   14 1     
   28   13   34 1     
   29   14   18 2     
   30   14   15 1     
   31   15   16 2     
   32   15   35 1     
   33   16   17 1     
   34   17   21 1     
   35   17   18 1     
   36   18   36 1     
   37   19   20 1     
   38   19   37 1     
   39   19   38 1     
   40   20   39 1     
   41   20   40 1     
   42    3   41 1     
   43    3   42 1     
   44    7   43 1     
   45   12   44 1     
   46   12   45 1     
   47   16   46 1     
@<TRIPOS>SUBSTRUCTURE
      1 S1             1
@<TRIPOS>SET
LONE_PAIRS      STATIC     ATOMS    <user>   **** ""
6 41 42 43 44 45 46
DONOR_HYDROGENS      STATIC     ATOMS    <user>   **** ""
3 33 34 21
ATOM$BLUE        STATIC     ATOMS    COLORGROUP SYSTEM
6 41 42 43 44 45 46
ATOM$RED        STATIC     ATOMS    COLORGROUP SYSTEM
3 33 34 21
