AV-unprocessed.smi:1238|AV-procd|sdf|5184|dock5
  -GOLD-   22720 4263D 1   1.00000     0.00000
 Structure written by MMmdl.
 42 43  0  0  0  0  0  0  0  0  2 V2000
  140.1883  135.0977  163.7405 C   0  0  0  0  0  0  0  0  0  0  0  0
  140.9707  135.1203  162.5596 O   0  0  0  0  0  0  0  0  0  0  0  0
  142.3102  135.5136  162.8053 C   0  0  0  0  0  0  0  0  0  0  0  0
  143.0854  135.5040  161.4768 C   0  0  0  0  0  0  0  0  0  0  0  0
  144.5243  135.7936  161.6804 N   0  0  0  0  0  0  0  0  0  0  0  0
  145.1449  136.8860  161.0005 C   0  0  0  0  0  0  0  0  0  0  0  0
  144.0699  137.7934  159.8238 S   0  0  0  0  0  0  0  0  0  0  0  0
  143.6711  136.4971  158.6170 C   0  0  0  0  0  0  0  0  0  0  0  0
  143.4375  137.0601  157.2185 C   0  0  0  0  0  0  0  0  0  0  0  0
  143.5694  138.2655  157.0076 O   0  0  0  0  0  0  0  0  0  0  0  0
  143.0905  136.1769  156.2696 N   0  0  0  0  0  0  0  0  0  0  0  0
  142.8107  136.5112  154.8763 C   0  0  0  0  0  0  0  0  0  0  0  0
  141.3618  137.0070  154.6877 C   0  0  0  0  0  0  0  0  0  0  0  0
  140.7933  136.2167  153.5082 C   0  0  0  0  0  0  0  0  0  0  0  0
  141.5385  134.8867  153.5529 C   0  0  0  0  0  0  0  0  0  0  0  0
  142.9565  135.2676  153.9801 C   0  0  0  0  0  0  0  0  0  0  0  0
  146.3911  137.1761  161.2123 N   0  0  0  0  0  0  0  0  0  0  0  0
  147.1914  136.4430  162.0875 C   0  0  0  0  0  0  0  0  0  0  0  0
  148.3566  136.8889  162.1696 O   0  5  0  0  0  0  0  0  0  0  0  0
  146.6239  135.3517  162.7242 C   0  0  0  0  0  0  0  0  0  0  0  0
  145.2321  134.9730  162.5159 C   0  0  0  0  0  0  0  0  0  0  0  0
  144.7396  133.9851  163.0636 O   0  0  0  0  0  0  0  0  0  0  0  0
  139.1708  134.7900  163.5005 H   0  0  0  0  0  0  0  0  0  0  0  0
  140.1411  136.0855  164.2008 H   0  0  0  0  0  0  0  0  0  0  0  0
  140.5914  134.3917  164.4676 H   0  0  0  0  0  0  0  0  0  0  0  0
  142.3287  136.5129  163.2431 H   0  0  0  0  0  0  0  0  0  0  0  0
  142.7697  134.8337  163.5239 H   0  0  0  0  0  0  0  0  0  0  0  0
  142.9146  134.5760  160.9333 H   0  0  0  0  0  0  0  0  0  0  0  0
  142.6369  136.2428  160.8104 H   0  0  0  0  0  0  0  0  0  0  0  0
  142.7784  135.9615  158.9425 H   0  0  0  0  0  0  0  0  0  0  0  0
  144.4868  135.7736  158.5862 H   0  0  0  0  0  0  0  0  0  0  0  0
  143.0038  135.2062  156.5345 H   0  0  0  0  0  0  0  0  0  0  0  0
  143.5164  137.2725  154.5386 H   0  0  0  0  0  0  0  0  0  0  0  0
  140.7641  136.7954  155.5761 H   0  0  0  0  0  0  0  0  0  0  0  0
  141.3150  138.0832  154.5183 H   0  0  0  0  0  0  0  0  0  0  0  0
  139.7112  136.0958  153.5669 H   0  0  0  0  0  0  0  0  0  0  0  0
  141.0210  136.7331  152.5747 H   0  0  0  0  0  0  0  0  0  0  0  0
  141.0883  134.2387  154.3060 H   0  0  0  0  0  0  0  0  0  0  0  0
  141.5146  134.3584  152.5994 H   0  0  0  0  0  0  0  0  0  0  0  0
  143.5380  135.5302  153.0953 H   0  0  0  0  0  0  0  0  0  0  0  0
  143.4731  134.4393  154.4670 H   0  0  0  0  0  0  0  0  0  0  0  0
  147.2224  134.7620  163.4032 H   0  0  0  0  0  0  0  0  0  0  0  0
  1  2  1  0  0  0  0
  1 23  1  0  0  0  0
  1 24  1  0  0  0  0
  1 25  1  0  0  0  0
  2  3  1  0  0  0  0
  3  4  1  0  0  0  0
  3 26  1  0  0  0  0
  3 27  1  0  0  0  0
  4 28  1  0  0  0  0
  4 29  1  0  0  0  0
  4  5  1  0  0  0  0
  5  6  1  0  0  0  0
  5 21  1  0  0  0  0
  6 17  2  0  0  0  0
  6  7  1  0  0  0  0
  7  8  1  0  0  0  0
  8  9  1  0  0  0  0
  8 30  1  0  0  0  0
  8 31  1  0  0  0  0
  9 10  2  0  0  0  0
  9 11  1  0  0  0  0
 11 12  1  0  0  0  0
 11 32  1  0  0  0  0
 12 16  1  0  0  0  0
 12 13  1  0  0  0  0
 12 33  1  0  0  0  0
 13 14  1  0  0  0  0
 13 34  1  0  0  0  0
 13 35  1  0  0  0  0
 14 15  1  0  0  0  0
 14 36  1  0  0  0  0
 14 37  1  0  0  0  0
 15 16  1  0  0  0  0
 15 38  1  0  0  0  0
 15 39  1  0  0  0  0
 16 40  1  0  0  0  0
 16 41  1  0  0  0  0
 17 18  1  0  0  0  0
 18 20  2  0  0  0  0
 18 19  1  0  0  0  0
 20 21  1  0  0  0  0
 20 42  1  0  0  0  0
 21 22  2  0  0  0  0
M  CHG  1  19  -1
M  END
> <s_m_source_file>
AV-unprocessed.smi

> <i_m_source_file_index>
1238

> <i_lp_mmshare_version>
43012

> <i_f3d_flags>
0

> <s_epik_input>
W0NIM11PW0NIMl1bQ0gyXW4xYyhuYyhbT0hdKVtjSF1jMT1PKVNbQ0gyXUMoPU8pW05IXVtDSF0yW0NIMl1bQ0gyXVtDSDJdW0NIMl0y

> <s_epik_cmdline>
J2VwaWtfcHl0aG9uJywgJy1waCcsICc3LjAnLCAnLXRuJywgJzgnLCAnLW1hJywgJzIwMCcsICctbWV0YWxfYmluZGluZycsICctaW1hZScsICc8aW5maWxlLm1hZT4nLCAnLW9tYWUnLCAnPG91dGZpbGUubWFlPic=

> <r_lp_tautomer_probability>
1

> <r_epik_Ionization_Penalty>
0.0116372

> <r_epik_Ionization_Penalty_Charging>
3.186e-07

> <r_epik_Ionization_Penalty_Neutral>
0.0116369

> <r_epik_State_Penalty>
0.000414464

> <r_epik_Charging_Adjusted_Penalty>
0.000414782

> <i_epik_Tot_Q>
-1

> <i_epik_Tot_abs_Q>
1

> <r_epik_Metal_State_Penalty>
-0

> <b_epik_Metal_Only>
0

> <s_lp_Force_Field>
OPLS_2005

> <r_lp_Energy>
27.578

> <b_lp_Chiralities_Consistent>
1

> <s_lp_Variant>
AV-unprocessed.smi:1238-1

> <Gold.Version>
5.8.1

> <Gold.Id.Protein>
6NUR|6NUR_protein|mol2

> <Gold.PLP.Fitness>
39.0569

> <Gold.PLP.PLP>
-30.9786

> <Gold.PLP.part.hbond>
-2.3130

> <Gold.PLP.part.metal>
0.0000

> <Gold.PLP.part.buried>
-6.5751

> <Gold.PLP.part.nonpolar>
-21.7196

> <Gold.PLP.part.repulsive>
0.1259

> <Gold.PLP.ligand.clash>
0.0000

> <Gold.PLP.ligand.torsion>
0.5255

> <Gold.PLP.Chemscore.Hbond>
3.0000

> <Gold.PLP.Chemscore.CHOScore>
0.0000

> <Gold.PLP.Chemscore.Metal>
0.0000

> <Gold.Chemscore.Hbonds>
donor molecule, donor type, donor heavy atom, donor atom, acceptor molecule, acceptor atom, score
      P1  H  6931  6943       L1    19  2.00
      P1  H  6934  6947       L1    17  1.00

> <Gold.PLP.Chemscore.Internal.Correction>
0.1291

> <Gold.Rescore>
     Score         DG    S(hbond)    S(metal)    S(lipo)     H(rot)  DE(clash)    DE(int)     intcor
      8.87     -10.70       1.78        0.00      48.84       2.51       0.00       1.83       ----

> <Gold.Chemscore.Fitness>
8.8708

> <Gold.Chemscore.DG>
-10.7038

> <Gold.Chemscore.ZeroCoef>
-5.4800

> <Gold.Chemscore.Hbond>
1.7788

> <Gold.Chemscore.Metal>
0.0000

> <Gold.Chemscore.Lipo>
48.8394

> <Gold.Chemscore.Internal_Hbond>
0.0000

> <Gold.Chemscore.DEClash>
0.0000

> <Gold.Chemscore.DEInternal>
1.8329

> <Gold.Chemscore.Rot>
2.5124

> <Gold.Chemscore.Internal.Correction>
   9.000000E+99

> <Gold.Chemscore.Hbonds>
donor molecule, donor type, donor heavy atom, donor atom, acceptor molecule, acceptor atom, score
      P1  H  6931  6943       L1    19  0.93
      P1  H  6934  6947       L1    17  0.70

> <Gold.Chemscore.Hbond.Weighted>
-5.9413

> <Gold.Chemscore.Metal.Weighted>
-0.0000

> <Gold.Chemscore.Lipo.Weighted>
-5.7142

> <Gold.Chemscore.Internal_Hbond.Weighted>
0.0000

> <Gold.Chemscore.DEClash.Weighted>
0.0000

> <Gold.Chemscore.DEInternal.Weighted>
1.8329

> <Gold.Chemscore.Rot.Weighted>
6.4318

> <Gold.Chemscore.Internal.Correction.Weighted>
   9.000000E+99

> <Gold.Protein.RotatedTorsions>
[ 6907 6896 6895 6894 ] final  -95.33 input  -60.11 | X-H torsion
[ 7974 7965 7964 7962 ] final  113.41 input  175.53 | X-H torsion
[ 8008 7997 7996 7995 ] final  137.31 input   59.86 | X-H torsion
[ 10167 10162 10161 10158 ] final  -58.84 input  -65.29 | X-H torsion
[ 10718 10713 10712 10709 ] final   32.79 input   66.30 | X-H torsion
[ 10763 10752 10751 10750 ] final   64.90 input  -60.55 | X-H torsion
[ 11005 11000 10999 10996 ] final   43.04 input  -57.11 | X-H torsion

> <Gold.Protein.ActiveResidues>
 VAL166  LYS551  ARG553  GLY616  TRP617  ASP618  TYR619  PRO620  LYS621  CYS622 
 ASP623  PHE694  ASN695  SER759  ASP760  ASP761  ALA762  ILE779  LEU786  VAL792 
 PHE793  MET794  SER795  GLU796  ALA797  LYS798  CYS799  TRP800  GLU811  SER814 

> <Gold.Protein.RotatedAtoms>
  150.6961  134.1675  159.4199 H   0  0  0  0  0  0  0  0  0  0  0  0  # atno 6907 bound_to 6896
  151.9654  135.0101  160.0559 H   0  0  0  0  0  0  0  0  0  0  0  0  # atno 6908 bound_to 6896
  152.1890  133.4724  159.5034 H   0  0  0  0  0  0  0  0  0  0  0  0  # atno 6909 bound_to 6896
  145.2173  139.2878  143.4236 H   0  0  0  0  0  0  0  0  0  0  0  0  # atno 7974 bound_to 7965
  156.3002  140.2422  156.3889 H   0  0  0  0  0  0  0  0  0  0  0  0  # atno 8008 bound_to 7997
  154.8632  140.0419  157.1698 H   0  0  0  0  0  0  0  0  0  0  0  0  # atno 8009 bound_to 7997
  154.8874  140.2958  155.5394 H   0  0  0  0  0  0  0  0  0  0  0  0  # atno 8010 bound_to 7997
  140.6172  143.2406  151.5568 H   0  0  0  0  0  0  0  0  0  0  0  0  # atno 10167 bound_to 10162
  157.2897  130.7296  149.6604 H   0  0  0  0  0  0  0  0  0  0  0  0  # atno 10718 bound_to 10713
  153.0074  135.5376  154.6583 H   0  0  0  0  0  0  0  0  0  0  0  0  # atno 10763 bound_to 10752
  154.5798  135.2849  155.0746 H   0  0  0  0  0  0  0  0  0  0  0  0  # atno 10764 bound_to 10752
  154.1880  135.6505  153.5104 H   0  0  0  0  0  0  0  0  0  0  0  0  # atno 10765 bound_to 10752
  140.1682  134.4255  155.8274 H   0  0  0  0  0  0  0  0  0  0  0  0  # atno 11005 bound_to 11000
  146.3384  140.2468  142.8597 LP  0  0  0  0  0  0  0  0  0  0  0  0  # atno 17320 bound_to 7965
  144.9798  140.8449  143.5404 LP  0  0  0  0  0  0  0  0  0  0  0  0  # atno 17321 bound_to 7965
  139.5408  144.2652  152.1347 LP  0  0  0  0  0  0  0  0  0  0  0  0  # atno 17342 bound_to 10162
  140.1864  144.4794  150.6501 LP  0  0  0  0  0  0  0  0  0  0  0  0  # atno 17343 bound_to 10162
  155.9666  130.4312  150.4912 LP  0  0  0  0  0  0  0  0  0  0  0  0  # atno 17370 bound_to 10713
  157.2872  131.0619  151.2158 LP  0  0  0  0  0  0  0  0  0  0  0  0  # atno 17371 bound_to 10713
  141.2215  133.6944  156.7716 LP  0  0  0  0  0  0  0  0  0  0  0  0  # atno 17394 bound_to 11000
  140.2408  134.8615  157.3572 LP  0  0  0  0  0  0  0  0  0  0  0  0  # atno 17395 bound_to 11000

$$$$
