AV-unprocessed.smi:2572|AV-procd|sdf|10110|dock4
  -GOLD-   2272014123D 1   1.00000     0.00000
 Structure written by MMmdl.
 38 39  0  0  0  0  0  0  0  0  1 V2000
  155.0733  134.6683  160.2570 C   0  0  0  0  0  0  0  0  0  0  0  0
  154.0828  135.5995  160.6884 O   0  0  0  0  0  0  0  0  0  0  0  0
  154.3237  136.2621  161.8793 C   0  0  0  0  0  0  0  0  0  0  0  0
  154.2367  135.5116  163.1141 C   0  0  0  0  0  0  0  0  0  0  0  0
  154.4722  136.1448  164.2835 C   0  0  0  0  0  0  0  0  0  0  0  0
  154.8145  137.5657  164.3354 C   0  0  0  0  0  0  0  0  0  0  0  0
  155.0412  138.1649  165.3863 O   0  0  0  0  0  0  0  0  0  0  0  0
  154.8610  138.1664  163.1092 N   0  0  0  0  0  0  0  0  0  0  0  0
  155.2004  139.5875  162.9696 C   0  0  0  0  0  0  0  0  0  0  0  0
  155.0720  140.0714  161.5087 C   0  0  2  0  0  0  0  0  0  0  0  0
  156.2465  140.7771  161.1571 O   0  0  0  0  0  0  0  0  0  0  0  0
  153.8755  141.0240  161.3273 C   0  0  0  0  0  0  0  0  0  0  0  0
  153.7582  141.5971  159.9048 C   0  0  0  0  0  0  0  0  0  0  0  0
  152.9620  142.8877  159.8746 C   0  0  0  0  0  0  0  0  0  0  0  0
  152.4547  143.4359  161.0717 C   0  0  0  0  0  0  0  0  0  0  0  0
  151.7226  144.6392  161.0441 C   0  0  0  0  0  0  0  0  0  0  0  0
  151.4963  145.2984  159.8202 C   0  0  0  0  0  0  0  0  0  0  0  0
  152.0009  144.7536  158.6235 C   0  0  0  0  0  0  0  0  0  0  0  0
  152.7323  143.5500  158.6503 C   0  0  0  0  0  0  0  0  0  0  0  0
  154.6205  137.5233  161.9061 N   0  0  0  0  0  0  0  0  0  0  0  0
  154.7551  134.2224  159.3147 H   0  0  0  0  0  0  0  0  0  0  0  0
  155.2063  133.8554  160.9730 H   0  0  0  0  0  0  0  0  0  0  0  0
  156.0359  135.1515  160.0797 H   0  0  0  0  0  0  0  0  0  0  0  0
  153.9861  134.4614  163.0883 H   0  0  0  0  0  0  0  0  0  0  0  0
  154.4071  135.5882  165.2069 H   0  0  0  0  0  0  0  0  0  0  0  0
  154.5075  140.1514  163.5969 H   0  0  0  0  0  0  0  0  0  0  0  0
  156.1879  139.8189  163.3737 H   0  0  0  0  0  0  0  0  0  0  0  0
  154.9530  139.2190  160.8386 H   0  0  0  0  0  0  0  0  0  0  0  0
  156.9783  140.3942  161.6164 H   0  0  0  0  0  0  0  0  0  0  0  0
  152.9560  140.4821  161.5530 H   0  0  0  0  0  0  0  0  0  0  0  0
  153.9334  141.8371  162.0525 H   0  0  0  0  0  0  0  0  0  0  0  0
  154.7480  141.7831  159.4862 H   0  0  0  0  0  0  0  0  0  0  0  0
  153.2803  140.8697  159.2475 H   0  0  0  0  0  0  0  0  0  0  0  0
  152.6282  142.9369  162.0138 H   0  0  0  0  0  0  0  0  0  0  0  0
  151.3366  145.0571  161.9622 H   0  0  0  0  0  0  0  0  0  0  0  0
  150.9366  146.2221  159.7993 H   0  0  0  0  0  0  0  0  0  0  0  0
  151.8280  145.2590  157.6848 H   0  0  0  0  0  0  0  0  0  0  0  0
  153.1187  143.1382  157.7292 H   0  0  0  0  0  0  0  0  0  0  0  0
  1  2  1  0  0  0  0
  1 21  1  0  0  0  0
  1 22  1  0  0  0  0
  1 23  1  0  0  0  0
  2  3  1  0  0  0  0
  3 20  2  0  0  0  0
  3  4  1  0  0  0  0
  4  5  2  0  0  0  0
  4 24  1  0  0  0  0
  5  6  1  0  0  0  0
  5 25  1  0  0  0  0
  6  7  2  0  0  0  0
  6  8  1  0  0  0  0
  8  9  1  0  0  0  0
  8 20  1  0  0  0  0
  9 10  1  0  0  0  0
  9 26  1  0  0  0  0
  9 27  1  0  0  0  0
 10 11  1  0  0  0  0
 10 12  1  0  0  0  0
 10 28  1  0  0  0  0
 11 29  1  0  0  0  0
 12 13  1  0  0  0  0
 12 30  1  0  0  0  0
 12 31  1  0  0  0  0
 13 14  1  0  0  0  0
 13 32  1  0  0  0  0
 13 33  1  0  0  0  0
 14 19  1  0  0  0  0
 14 15  2  0  0  0  0
 15 16  1  0  0  0  0
 15 34  1  0  0  0  0
 16 17  2  0  0  0  0
 16 35  1  0  0  0  0
 17 18  1  0  0  0  0
 17 36  1  0  0  0  0
 18 19  2  0  0  0  0
 18 37  1  0  0  0  0
 19 38  1  0  0  0  0
M  END
> <s_m_source_file>
AV-unprocessed.smi

> <i_m_source_file_index>
2572

> <i_lp_mmshare_version>
43012

> <i_f3d_flags>
0

> <s_epik_input>
W0NIM11PYzFbY0hdW2NIXWMoPU8pbihuMSlbQ0gyXVtDQEhdKFtPSF0pW0NIMl1bQ0gyXWMyW2NIXVtjSF1bY0hdW2NIXVtjSF0y

> <s_epik_cmdline>
J2VwaWtfcHl0aG9uJywgJy1waCcsICc3LjAnLCAnLXRuJywgJzgnLCAnLW1hJywgJzIwMCcsICctbWV0YWxfYmluZGluZycsICctaW1hZScsICc8aW5maWxlLm1hZT4nLCAnLW9tYWUnLCAnPG91dGZpbGUubWFlPic=

> <r_lp_tautomer_probability>
1

> <r_epik_Ionization_Penalty>
8.48543e-06

> <r_epik_Ionization_Penalty_Charging>
6.90219e-06

> <r_epik_Ionization_Penalty_Neutral>
1.58323e-06

> <r_epik_State_Penalty>
-0

> <r_epik_Charging_Adjusted_Penalty>
6.90219e-06

> <i_epik_Tot_Q>
0

> <i_epik_Tot_abs_Q>
0

> <r_epik_Metal_State_Penalty>
-0

> <b_epik_Metal_Only>
0

> <s_lp_Force_Field>
OPLS_2005

> <r_lp_Energy>
29.9707

> <b_lp_Chiralities_Consistent>
1

> <s_lp_Variant>
AV-unprocessed.smi:2572-1

> <Gold.Version>
5.8.1

> <Gold.Id.Protein>
6NUR|6NUR_protein|mol2

> <Gold.PLP.Fitness>
51.3180

> <Gold.PLP.PLP>
-50.1739

> <Gold.PLP.part.hbond>
-1.8998

> <Gold.PLP.part.metal>
0.0000

> <Gold.PLP.part.buried>
-4.4134

> <Gold.PLP.part.nonpolar>
-43.8760

> <Gold.PLP.part.repulsive>
0.0935

> <Gold.PLP.ligand.clash>
0.0000

> <Gold.PLP.ligand.torsion>
0.9536

> <Gold.PLP.Chemscore.Hbond>
0.9913

> <Gold.PLP.Chemscore.CHOScore>
0.0000

> <Gold.PLP.Chemscore.Metal>
0.0000

> <Gold.Chemscore.Hbonds>
donor molecule, donor type, donor heavy atom, donor atom, acceptor molecule, acceptor atom, score
      P1  H  6896  6909       L1     2  1.00

> <Gold.PLP.Chemscore.Internal.Correction>
0.0776

> <Gold.Rescore>
     Score         DG    S(hbond)    S(metal)    S(lipo)     H(rot)  DE(clash)    DE(int)     intcor
     14.74     -16.72       0.85        0.00     127.09       2.52       0.81       1.17       ----

> <Gold.Chemscore.Fitness>
14.7422

> <Gold.Chemscore.DG>
-16.7244

> <Gold.Chemscore.ZeroCoef>
-5.4800

> <Gold.Chemscore.Hbond>
0.8470

> <Gold.Chemscore.Metal>
0.0000

> <Gold.Chemscore.Lipo>
127.0901

> <Gold.Chemscore.Internal_Hbond>
0.0000

> <Gold.Chemscore.DEClash>
0.8095

> <Gold.Chemscore.DEInternal>
1.1726

> <Gold.Chemscore.Rot>
2.5212

> <Gold.Chemscore.Internal.Correction>
   9.000000E+99

> <Gold.Chemscore.Hbonds>
donor molecule, donor type, donor heavy atom, donor atom, acceptor molecule, acceptor atom, score
      P1  H  6896  6909       L1     2  0.29

> <Gold.Chemscore.Hbond.Weighted>
-2.8291

> <Gold.Chemscore.Metal.Weighted>
-0.0000

> <Gold.Chemscore.Lipo.Weighted>
-14.8695

> <Gold.Chemscore.Internal_Hbond.Weighted>
0.0000

> <Gold.Chemscore.DEClash.Weighted>
0.8095

> <Gold.Chemscore.DEInternal.Weighted>
1.1726

> <Gold.Chemscore.Rot.Weighted>
6.4543

> <Gold.Chemscore.Internal.Correction.Weighted>
   9.000000E+99

> <Gold.Protein.RotatedTorsions>
[ 6907 6896 6895 6894 ] final  176.12 input  -60.11 | X-H torsion
[ 7974 7965 7964 7962 ] final -156.74 input  175.53 | X-H torsion
[ 8008 7997 7996 7995 ] final   97.31 input   59.86 | X-H torsion
[ 10167 10162 10161 10158 ] final  -92.37 input  -65.29 | X-H torsion
[ 10718 10713 10712 10709 ] final  -16.33 input   66.30 | X-H torsion
[ 10763 10752 10751 10750 ] final   83.19 input  -60.55 | X-H torsion
[ 11005 11000 10999 10996 ] final  -71.20 input  -57.11 | X-H torsion

> <Gold.Protein.ActiveResidues>
 VAL166  LYS551  ARG553  GLY616  TRP617  ASP618  TYR619  PRO620  LYS621  CYS622 
 ASP623  PHE694  ASN695  SER759  ASP760  ASP761  ALA762  ILE779  LEU786  VAL792 
 PHE793  MET794  SER795  GLU796  ALA797  LYS798  CYS799  TRP800  GLU811  SER814 

> <Gold.Protein.RotatedAtoms>
  151.7252  133.3316  159.3325 H   0  0  0  0  0  0  0  0  0  0  0  0  # atno 6907 bound_to 6896
  150.7636  134.6413  159.6248 H   0  0  0  0  0  0  0  0  0  0  0  0  # atno 6908 bound_to 6896
  152.3627  134.6852  160.0254 H   0  0  0  0  0  0  0  0  0  0  0  0  # atno 6909 bound_to 6896
  144.7579  140.4068  143.5998 H   0  0  0  0  0  0  0  0  0  0  0  0  # atno 7974 bound_to 7965
  156.0888  140.3260  155.7788 H   0  0  0  0  0  0  0  0  0  0  0  0  # atno 8008 bound_to 7997
  155.5031  140.0571  157.2953 H   0  0  0  0  0  0  0  0  0  0  0  0  # atno 8009 bound_to 7997
  154.4625  140.1973  156.0222 H   0  0  0  0  0  0  0  0  0  0  0  0  # atno 8010 bound_to 7997
  140.3355  143.2971  151.9894 H   0  0  0  0  0  0  0  0  0  0  0  0  # atno 10167 bound_to 10162
  156.5891  130.4794  149.6287 H   0  0  0  0  0  0  0  0  0  0  0  0  # atno 10718 bound_to 10713
  153.1269  135.4700  154.9286 H   0  0  0  0  0  0  0  0  0  0  0  0  # atno 10763 bound_to 10752
  154.7628  135.3136  154.8347 H   0  0  0  0  0  0  0  0  0  0  0  0  # atno 10764 bound_to 10752
  153.8898  135.6886  153.4815 H   0  0  0  0  0  0  0  0  0  0  0  0  # atno 10765 bound_to 10752
  141.1588  133.6811  156.6870 H   0  0  0  0  0  0  0  0  0  0  0  0  # atno 11005 bound_to 11000
  145.6715  139.1600  143.2752 LP  0  0  0  0  0  0  0  0  0  0  0  0  # atno 17320 bound_to 7965
  146.1611  140.6786  142.9277 LP  0  0  0  0  0  0  0  0  0  0  0  0  # atno 17321 bound_to 7965
  139.4849  144.6200  151.7274 LP  0  0  0  0  0  0  0  0  0  0  0  0  # atno 17342 bound_to 10162
  140.5357  144.0659  150.6070 LP  0  0  0  0  0  0  0  0  0  0  0  0  # atno 17343 bound_to 10162
  156.2565  130.6937  151.1692 LP  0  0  0  0  0  0  0  0  0  0  0  0  # atno 17370 bound_to 10713
  157.7308  131.0613  150.5709 LP  0  0  0  0  0  0  0  0  0  0  0  0  # atno 17371 bound_to 10713
  140.3059  134.8125  157.4136 LP  0  0  0  0  0  0  0  0  0  0  0  0  # atno 17394 bound_to 11000
  140.1221  134.5206  155.8175 LP  0  0  0  0  0  0  0  0  0  0  0  0  # atno 17395 bound_to 11000

$$$$
