#       Name:                AV-unprocessed.smi:1545
#       Creating user name   scv26
#       Creation time:       Fri Mar 27 06:38:49 2020


#       File generated by GOLD software.
#

@<TRIPOS>MOLECULE
AV-unprocessed.smi:1545
    46    48     1
SMALL
NO_CHARGES


@<TRIPOS>ATOM
      1 ****        -1.5454  -0.8830  -2.4952 O.3            1 S1                 0.0000
      2 ****        -2.5056   0.1066  -2.1939 C.3            1 S1                 0.0000
      3 ****        -2.2790   0.6568  -0.7784 C.3            1 S1                 0.0000
      4 ****        -1.3322   1.7568  -0.7649 N.pl3          1 S1                 0.0000
      5 ****         0.0571   1.7925  -0.7363 C.2            1 S1                 0.0000
      6 ****         0.7742   2.9143  -0.7281 N.2            1 S1                 0.0000
      7 ****         2.0697   2.4339  -0.6984 C.ar           1 S1                 0.0000
      8 ****         3.3032   3.1235  -0.6763 C.ar           1 S1                 0.0000
      9 ****         4.5194   2.4103  -0.6468 C.ar           1 S1                 0.0000
     10 ****         4.5205   1.0002  -0.6385 C.ar           1 S1                 0.0000
     11 ****         3.3034   0.2925  -0.6600 C.ar           1 S1                 0.0000
     12 ****         2.0915   1.0084  -0.6905 C.ar           1 S1                 0.0000
     13 ****         0.7520   0.6308  -0.7154 N.pl3          1 S1                 0.0000
     14 ****         0.2271  -0.7283  -0.7147 C.3            1 S1                 0.0000
     15 ****        -0.2286  -1.1848   0.6855 C.3            1 S1                 0.0000
     16 ****         0.8609  -1.1410   1.5868 O.3            1 S1                 0.0000
     17 ****        -0.8820  -2.5568   0.6370 C.ar           1 S1                 0.0000
     18 ****        -2.2878  -2.6693   0.6995 C.ar           1 S1                 0.0000
     19 ****        -2.9020  -3.9356   0.6456 C.ar           1 S1                 0.0000
     20 ****        -2.1144  -5.0965   0.5257 C.ar           1 S1                 0.0000
     21 ****        -0.7119  -4.9907   0.4589 C.ar           1 S1                 0.0000
     22 ****         0.0461  -6.1062   0.3401 F              1 S1                 0.0000
     23 ****        -0.0969  -3.7247   0.5137 C.ar           1 S1                 0.0000
     24 ****        -1.7117  -1.2090  -3.3664 H              1 S1                 0.0000
     25 ****        -2.4910   0.8978  -2.9449 H              1 S1                 0.0000
     26 ****        -3.4861  -0.3670  -2.2467 H              1 S1                 0.0000
     27 ****        -3.2206   1.0461  -0.3911 H              1 S1                 0.0000
     28 ****        -1.9605  -0.1296  -0.0928 H              1 S1                 0.0000
     29 ****        -1.7707   2.6642  -0.8222 H              1 S1                 0.0000
     30 ****         3.3126   4.2034  -0.6817 H              1 S1                 0.0000
     31 ****         5.4557   2.9484  -0.6301 H              1 S1                 0.0000
     32 ****         5.4566   0.4619  -0.6154 H              1 S1                 0.0000
     33 ****         3.3024  -0.7872  -0.6520 H              1 S1                 0.0000
     34 ****        -0.6057  -0.7770  -1.4175 H              1 S1                 0.0000
     35 ****         0.9913  -1.4006  -1.1061 H              1 S1                 0.0000
     36 ****        -0.9663  -0.4762   1.0643 H              1 S1                 0.0000
     37 ****         1.5393  -1.7153   1.2666 H              1 S1                 0.0000
     38 ****        -2.9011  -1.7845   0.7882 H              1 S1                 0.0000
     39 ****        -3.9779  -4.0164   0.6948 H              1 S1                 0.0000
     40 ****        -2.5861  -6.0671   0.4832 H              1 S1                 0.0000
     41 ****         0.9795  -3.6539   0.4581 H              1 S1                 0.0000
     42 ****        -1.6152  -1.6319  -1.8362 LP             1 S1                 0.0000
     43 ****        -0.6283  -0.4864  -2.4533 LP             1 S1                 0.0000
     44 ****         0.4565   3.8624  -0.7403 LP             1 S1                 0.0000
     45 ****         0.5621  -1.4439   2.4917 LP             1 S1                 0.0000
     46 ****         1.2112  -0.2063   1.6470 LP             1 S1                 0.0000
@<TRIPOS>BOND
    1    1    2 1     
    2    1   24 1     
    3    2    3 1     
    4    2   25 1     
    5    2   26 1     
    6    3    4 1     
    7    3   27 1     
    8    3   28 1     
    9    4    5 1     
   10    4   29 1     
   11    5   13 1     
   12    5    6 2     
   13    6    7 1     
   14    7   12 ar    
   15    7    8 ar    
   16    8    9 ar    
   17    8   30 1     
   18    9   10 ar    
   19    9   31 1     
   20   10   11 ar    
   21   10   32 1     
   22   11   12 ar    
   23   11   33 1     
   24   12   13 1     
   25   13   14 1     
   26   14   15 1     
   27   14   34 1     
   28   14   35 1     
   29   15   16 1     
   30   15   17 1     
   31   15   36 1     
   32   16   37 1     
   33   17   23 ar    
   34   17   18 ar    
   35   18   19 ar    
   36   18   38 1     
   37   19   20 ar    
   38   19   39 1     
   39   20   21 ar    
   40   20   40 1     
   41   21   22 1     
   42   21   23 ar    
   43   23   41 1     
   44    1   42 1     
   45    1   43 1     
   46    6   44 1     
   47   16   45 1     
   48   16   46 1     
@<TRIPOS>SUBSTRUCTURE
      1 S1             1
@<TRIPOS>SET
LONE_PAIRS      STATIC     ATOMS    <user>   **** ""
5 42 43 44 45 46
DONOR_HYDROGENS      STATIC     ATOMS    <user>   **** ""
3 24 29 37
ATOM$BLUE        STATIC     ATOMS    COLORGROUP SYSTEM
5 42 43 44 45 46
ATOM$RED        STATIC     ATOMS    COLORGROUP SYSTEM
3 24 29 37
