AV-unprocessed.smi:2863|AV-procd|sdf|11012|dock2
  -GOLD-   2272015473D 1   1.00000     0.00000
 Structure written by MMmdl.
 42 43  0  0  0  0  0  0  0  0  1 V2000
  144.5820  142.7441  157.5236 C   0  0  0  0  0  0  0  0  0  0  0  0
  145.1846  142.7760  156.1618 C   0  0  0  0  0  0  0  0  0  0  0  0
  146.0984  141.9467  155.6620 N   0  0  0  0  0  0  0  0  0  0  0  0
  146.3206  142.4021  154.3699 C   0  0  0  0  0  0  0  0  0  0  0  0
  147.2863  141.7301  153.4426 C   0  0  0  0  0  0  0  0  0  0  0  0
  148.4483  141.0697  154.2018 C   0  0  0  0  0  0  0  0  0  0  0  0
  149.0831  141.9971  155.1308 N   0  0  0  0  0  0  0  0  0  0  0  0
  150.1532  141.7139  155.8864 C   0  0  0  0  0  0  0  0  0  0  0  0
  150.7361  140.6293  155.8774 O   0  0  0  0  0  0  0  0  0  0  0  0
  150.5116  142.7550  156.6508 N   0  0  0  0  0  0  0  0  0  0  0  0
  151.6306  142.7664  157.5883 C   0  0  0  0  0  0  0  0  0  0  0  0
  151.5063  141.5728  158.5542 C   0  0  0  0  0  0  0  0  0  0  0  0
  152.6322  141.5760  159.6010 C   0  0  0  0  0  0  0  0  0  0  0  0
  152.6700  142.9036  160.3739 C   0  0  0  0  0  0  0  0  0  0  0  0
  152.7987  144.0987  159.4162 C   0  0  0  0  0  0  0  0  0  0  0  0
  151.6755  144.0980  158.3666 C   0  0  0  0  0  0  0  0  0  0  0  0
  145.5146  143.4911  154.1561 C   0  0  0  0  0  0  0  0  0  0  0  0
  145.3028  144.3861  152.9824 C   0  0  0  0  0  0  0  0  0  0  0  0
  144.7890  143.7418  155.2894 O   0  0  0  0  0  0  0  0  0  0  0  0
  144.9831  141.9081  158.0973 H   0  0  0  0  0  0  0  0  0  0  0  0
  143.5004  142.6322  157.4497 H   0  0  0  0  0  0  0  0  0  0  0  0
  144.8052  143.6712  158.0515 H   0  0  0  0  0  0  0  0  0  0  0  0
  146.7629  140.9828  152.8452 H   0  0  0  0  0  0  0  0  0  0  0  0
  147.6819  142.4564  152.7315 H   0  0  0  0  0  0  0  0  0  0  0  0
  148.0819  140.2171  154.7741 H   0  0  0  0  0  0  0  0  0  0  0  0
  149.1882  140.6784  153.5011 H   0  0  0  0  0  0  0  0  0  0  0  0
  148.6744  142.9172  155.2067 H   0  0  0  0  0  0  0  0  0  0  0  0
  149.9679  143.6028  156.5834 H   0  0  0  0  0  0  0  0  0  0  0  0
  152.5620  142.6531  157.0298 H   0  0  0  0  0  0  0  0  0  0  0  0
  150.5417  141.6069  159.0630 H   0  0  0  0  0  0  0  0  0  0  0  0
  151.5283  140.6360  157.9960 H   0  0  0  0  0  0  0  0  0  0  0  0
  152.4970  140.7454  160.2945 H   0  0  0  0  0  0  0  0  0  0  0  0
  153.5906  141.4131  159.1068 H   0  0  0  0  0  0  0  0  0  0  0  0
  151.7613  143.0070  160.9681 H   0  0  0  0  0  0  0  0  0  0  0  0
  153.5020  142.9001  161.0787 H   0  0  0  0  0  0  0  0  0  0  0  0
  152.7793  145.0314  159.9806 H   0  0  0  0  0  0  0  0  0  0  0  0
  153.7664  144.0614  158.9143 H   0  0  0  0  0  0  0  0  0  0  0  0
  151.8201  144.9323  157.6790 H   0  0  0  0  0  0  0  0  0  0  0  0
  150.7185  144.2691  158.8615 H   0  0  0  0  0  0  0  0  0  0  0  0
  145.4882  143.8533  152.0494 H   0  0  0  0  0  0  0  0  0  0  0  0
  145.9773  145.2414  153.0236 H   0  0  0  0  0  0  0  0  0  0  0  0
  144.2794  144.7609  152.9577 H   0  0  0  0  0  0  0  0  0  0  0  0
  1  2  1  0  0  0  0
  1 20  1  0  0  0  0
  1 21  1  0  0  0  0
  1 22  1  0  0  0  0
  2 19  1  0  0  0  0
  2  3  2  0  0  0  0
  3  4  1  0  0  0  0
  4  5  1  0  0  0  0
  4 17  2  0  0  0  0
  5  6  1  0  0  0  0
  5 23  1  0  0  0  0
  5 24  1  0  0  0  0
  6  7  1  0  0  0  0
  6 25  1  0  0  0  0
  6 26  1  0  0  0  0
  7  8  1  0  0  0  0
  7 27  1  0  0  0  0
  8  9  2  0  0  0  0
  8 10  1  0  0  0  0
 10 11  1  0  0  0  0
 10 28  1  0  0  0  0
 11 16  1  0  0  0  0
 11 12  1  0  0  0  0
 11 29  1  0  0  0  0
 12 13  1  0  0  0  0
 12 30  1  0  0  0  0
 12 31  1  0  0  0  0
 13 14  1  0  0  0  0
 13 32  1  0  0  0  0
 13 33  1  0  0  0  0
 14 15  1  0  0  0  0
 14 34  1  0  0  0  0
 14 35  1  0  0  0  0
 15 16  1  0  0  0  0
 15 36  1  0  0  0  0
 15 37  1  0  0  0  0
 16 38  1  0  0  0  0
 16 39  1  0  0  0  0
 17 18  1  0  0  0  0
 17 19  1  0  0  0  0
 18 40  1  0  0  0  0
 18 41  1  0  0  0  0
 18 42  1  0  0  0  0
M  END
> <s_m_source_file>
AV-unprocessed.smi

> <i_m_source_file_index>
2863

> <i_lp_mmshare_version>
43012

> <i_f3d_flags>
0

> <s_epik_input>
W0NIM11jMW5jKGMobzEpW0NIM10pW0NIMl1bQ0gyXVtOSF1DKD1PKVtOSF1bQ0hdMltDSDJdW0NIMl1bQ0gyXVtDSDJdW0NIMl0y

> <s_epik_cmdline>
J2VwaWtfcHl0aG9uJywgJy1waCcsICc3LjAnLCAnLXRuJywgJzgnLCAnLW1hJywgJzIwMCcsICctbWV0YWxfYmluZGluZycsICctaW1hZScsICc8aW5maWxlLm1hZT4nLCAnLW9tYWUnLCAnPG91dGZpbGUubWFlPic=

> <r_lp_tautomer_probability>
1

> <r_epik_Ionization_Penalty>
0.000108106

> <r_epik_Ionization_Penalty_Charging>
0

> <r_epik_Ionization_Penalty_Neutral>
0.000108106

> <r_epik_State_Penalty>
-0

> <r_epik_Charging_Adjusted_Penalty>
0

> <i_epik_Tot_Q>
0

> <i_epik_Tot_abs_Q>
0

> <r_epik_Metal_State_Penalty>
-0

> <b_epik_Metal_Only>
0

> <s_lp_Force_Field>
OPLS_2005

> <r_lp_Energy>
1.15326

> <b_lp_Chiralities_Consistent>
1

> <s_lp_Variant>
AV-unprocessed.smi:2863-1

> <Gold.Version>
5.8.1

> <Gold.Id.Protein>
6NUR|6NUR_protein|mol2

> <Gold.PLP.Fitness>
47.4404

> <Gold.PLP.PLP>
-42.3030

> <Gold.PLP.part.hbond>
-2.0000

> <Gold.PLP.part.metal>
0.0000

> <Gold.PLP.part.buried>
-7.8597

> <Gold.PLP.part.nonpolar>
-33.0985

> <Gold.PLP.part.repulsive>
0.5509

> <Gold.PLP.ligand.clash>
0.0000

> <Gold.PLP.ligand.torsion>
0.4279

> <Gold.PLP.Chemscore.Hbond>
1.9920

> <Gold.PLP.Chemscore.CHOScore>
0.0000

> <Gold.PLP.Chemscore.Metal>
0.0000

> <Gold.Chemscore.Hbonds>
donor molecule, donor type, donor heavy atom, donor atom, acceptor molecule, acceptor atom, score
      L1  H     7    27       P1  8028  0.99
      L1  H    10    28       P1  8028  1.00

> <Gold.PLP.Chemscore.Internal.Correction>
0.0171

> <Gold.Rescore>
     Score         DG    S(hbond)    S(metal)    S(lipo)     H(rot)  DE(clash)    DE(int)     intcor
     19.30     -20.00       1.92        0.00     104.45       1.61       0.29       0.41       ----

> <Gold.Chemscore.Fitness>
19.3022

> <Gold.Chemscore.DG>
-20.0006

> <Gold.Chemscore.ZeroCoef>
-5.4800

> <Gold.Chemscore.Hbond>
1.9249

> <Gold.Chemscore.Metal>
0.0000

> <Gold.Chemscore.Lipo>
104.4491

> <Gold.Chemscore.Internal_Hbond>
0.0000

> <Gold.Chemscore.DEClash>
0.2930

> <Gold.Chemscore.DEInternal>
0.4054

> <Gold.Chemscore.Rot>
1.6130

> <Gold.Chemscore.Internal.Correction>
   9.000000E+99

> <Gold.Chemscore.Hbonds>
donor molecule, donor type, donor heavy atom, donor atom, acceptor molecule, acceptor atom, score
      L1  H     7    27       P1  8028  0.93
      L1  H    10    28       P1  8028  0.96

> <Gold.Chemscore.Hbond.Weighted>
-6.4293

> <Gold.Chemscore.Metal.Weighted>
-0.0000

> <Gold.Chemscore.Lipo.Weighted>
-12.2205

> <Gold.Chemscore.Internal_Hbond.Weighted>
0.0000

> <Gold.Chemscore.DEClash.Weighted>
0.2930

> <Gold.Chemscore.DEInternal.Weighted>
0.4054

> <Gold.Chemscore.Rot.Weighted>
4.1293

> <Gold.Chemscore.Internal.Correction.Weighted>
   9.000000E+99

> <Gold.Protein.RotatedTorsions>
[ 6907 6896 6895 6894 ] final  -78.72 input  -60.11 | X-H torsion
[ 7974 7965 7964 7962 ] final  150.95 input  175.53 | X-H torsion
[ 8008 7997 7996 7995 ] final  124.34 input   59.86 | X-H torsion
[ 10167 10162 10161 10158 ] final -175.28 input  -65.29 | X-H torsion
[ 10718 10713 10712 10709 ] final   25.82 input   66.30 | X-H torsion
[ 10763 10752 10751 10750 ] final  -15.78 input  -60.55 | X-H torsion
[ 11005 11000 10999 10996 ] final  175.83 input  -57.11 | X-H torsion

> <Gold.Protein.ActiveResidues>
 VAL166  LYS551  ARG553  GLY616  TRP617  ASP618  TYR619  PRO620  LYS621  CYS622 
 ASP623  PHE694  ASN695  SER759  ASP760  ASP761  ALA762  ILE779  LEU786  VAL792 
 PHE793  MET794  SER795  GLU796  ALA797  LYS798  CYS799  TRP800  GLU811  SER814 

> <Gold.Protein.RotatedAtoms>
  150.6966  134.4230  159.5213 H   0  0  0  0  0  0  0  0  0  0  0  0  # atno 6907 bound_to 6896
  152.1969  134.8619  160.0521 H   0  0  0  0  0  0  0  0  0  0  0  0  # atno 6908 bound_to 6896
  151.9554  133.3644  159.4052 H   0  0  0  0  0  0  0  0  0  0  0  0  # atno 6909 bound_to 6896
  144.8327  139.6474  143.6051 H   0  0  0  0  0  0  0  0  0  0  0  0  # atno 7974 bound_to 7965
  156.2798  140.2742  156.1772 H   0  0  0  0  0  0  0  0  0  0  0  0  # atno 8008 bound_to 7997
  155.0594  140.0386  157.2589 H   0  0  0  0  0  0  0  0  0  0  0  0  # atno 8009 bound_to 7997
  154.7129  140.2672  155.6617 H   0  0  0  0  0  0  0  0  0  0  0  0  # atno 8010 bound_to 7997
  139.5589  144.1919  152.1206 H   0  0  0  0  0  0  0  0  0  0  0  0  # atno 10167 bound_to 10162
  157.1986  130.6879  149.6179 H   0  0  0  0  0  0  0  0  0  0  0  0  # atno 10718 bound_to 10713
  153.5486  135.7012  153.5602 H   0  0  0  0  0  0  0  0  0  0  0  0  # atno 10763 bound_to 10752
  153.3536  135.3988  155.1665 H   0  0  0  0  0  0  0  0  0  0  0  0  # atno 10764 bound_to 10752
  154.8664  135.3771  154.4995 H   0  0  0  0  0  0  0  0  0  0  0  0  # atno 10765 bound_to 10752
  140.3664  134.7068  157.4364 H   0  0  0  0  0  0  0  0  0  0  0  0  # atno 11005 bound_to 11000
  146.2629  139.6451  142.9350 LP  0  0  0  0  0  0  0  0  0  0  0  0  # atno 17320 bound_to 7965
  145.4861  141.0438  143.2619 LP  0  0  0  0  0  0  0  0  0  0  0  0  # atno 17321 bound_to 7965
  140.1429  144.5185  150.6733 LP  0  0  0  0  0  0  0  0  0  0  0  0  # atno 17342 bound_to 10162
  140.6866  143.2353  151.5244 LP  0  0  0  0  0  0  0  0  0  0  0  0  # atno 17343 bound_to 10162
  155.9703  130.4590  150.6021 LP  0  0  0  0  0  0  0  0  0  0  0  0  # atno 17370 bound_to 10713
  157.3790  131.0778  151.1493 LP  0  0  0  0  0  0  0  0  0  0  0  0  # atno 17371 bound_to 10713
  140.0586  134.6028  155.8776 LP  0  0  0  0  0  0  0  0  0  0  0  0  # atno 17394 bound_to 11000
  141.1968  133.6593  156.5710 LP  0  0  0  0  0  0  0  0  0  0  0  0  # atno 17395 bound_to 11000

$$$$
