#       Name:                AV-unprocessed.smi:1047
#       Creating user name   scv26
#       Creation time:       Fri Mar 27 03:06:10 2020


#       File generated by GOLD software.
#

@<TRIPOS>MOLECULE
AV-unprocessed.smi:1047
    62    64     1
SMALL
NO_CHARGES


@<TRIPOS>ATOM
      1 ****        -4.9196   5.7220   1.0488 C.3            1 S1                 0.0000
      2 ****        -4.4692   4.2889   0.7327 C.3            1 S1                 0.0000
      3 ****        -3.0014   4.1823   0.5377 N.4            1 S1                 1.0000
      4 ****        -2.5278   4.7747  -0.7374 C.3            1 S1                 0.0000
      5 ****        -1.0006   4.6428  -0.8578 C.3            1 S1                 0.0000
      6 ****        -0.6258   3.2753  -0.7395 O.3            1 S1                 0.0000
      7 ****        -0.9828   2.7241   0.5239 C.3            1 S1                 0.0000
      8 ****        -0.4624   1.2794   0.5823 C.3            1 S1                 0.0000
      9 ****         1.0131   1.2400   0.6299 N.4            1 S1                 1.0000
     10 ****         1.5777  -0.1227   0.7064 C.3            1 S1                 0.0000
     11 ****         3.1166  -0.0866   0.7692 C.3            1 S1                 0.0000
     12 ****         3.5096   0.5337   1.9764 O.3            1 S1                 0.0000
     13 ****         3.7846  -1.4755   0.7211 C.3            1 S1                 0.0000
     14 ****         3.5028  -2.2084  -0.5213 N.pl3          1 S1                 0.0000
     15 ****         4.0920  -2.0962  -1.7431 C.2            1 S1                 0.0000
     16 ****         3.4945  -2.9957  -2.5722 N.pl3          1 S1                 1.0000
     17 ****         2.5128  -3.6970  -1.8698 C.ar           1 S1                 0.0000
     18 ****         1.6471  -4.7039  -2.2792 C.ar           1 S1                 0.0000
     19 ****         0.7536  -5.2188  -1.3134 C.ar           1 S1                 0.0000
     20 ****        -0.2049  -6.3223  -1.7276 C.3            1 S1                 0.0000
     21 ****         0.7487  -4.7208   0.0152 C.ar           1 S1                 0.0000
     22 ****        -0.2175  -5.2812   1.0454 C.3            1 S1                 0.0000
     23 ****         1.6378  -3.6964   0.4124 C.ar           1 S1                 0.0000
     24 ****         2.5132  -3.1997  -0.5515 C.ar           1 S1                 0.0000
     25 ****        -2.5165   2.7872   0.6694 C.3            1 S1                 0.0000
     26 ****        -5.9848   5.7455   1.2798 H              1 S1                 0.0000
     27 ****        -4.7581   6.3967   0.2088 H              1 S1                 0.0000
     28 ****        -4.3869   6.1222   1.9118 H              1 S1                 0.0000
     29 ****        -4.7634   3.6550   1.5701 H              1 S1                 0.0000
     30 ****        -4.9936   3.9058  -0.1439 H              1 S1                 0.0000
     31 ****        -3.0115   4.2729  -1.5770 H              1 S1                 0.0000
     32 ****        -2.8014   5.8279  -0.7938 H              1 S1                 0.0000
     33 ****        -0.6675   5.0175  -1.8259 H              1 S1                 0.0000
     34 ****        -0.4963   5.2389  -0.0956 H              1 S1                 0.0000
     35 ****        -0.5184   3.3047   1.3237 H              1 S1                 0.0000
     36 ****        -0.8488   0.7846   1.4745 H              1 S1                 0.0000
     37 ****        -0.8194   0.7126  -0.2788 H              1 S1                 0.0000
     38 ****         1.3755   1.6916  -0.1980 H              1 S1                 0.0000
     39 ****         1.1730  -0.6446   1.5748 H              1 S1                 0.0000
     40 ****         1.2484  -0.6686  -0.1780 H              1 S1                 0.0000
     41 ****         3.4965   0.5157  -0.0574 H              1 S1                 0.0000
     42 ****         3.2875  -0.0347   2.6987 H              1 S1                 0.0000
     43 ****         4.8684  -1.3663   0.7824 H              1 S1                 0.0000
     44 ****         3.4946  -2.0856   1.5766 H              1 S1                 0.0000
     45 ****         4.8913  -1.4184  -2.0070 H              1 S1                 0.0000
     46 ****         1.6570  -5.0785  -3.2927 H              1 S1                 0.0000
     47 ****        -0.0336  -7.2208  -1.1345 H              1 S1                 0.0000
     48 ****        -0.0782  -6.5877  -2.7777 H              1 S1                 0.0000
     49 ****        -1.2385  -6.0054  -1.5867 H              1 S1                 0.0000
     50 ****        -0.0926  -4.7979   2.0150 H              1 S1                 0.0000
     51 ****        -0.0533  -6.3503   1.1832 H              1 S1                 0.0000
     52 ****        -1.2490  -5.1273   0.7271 H              1 S1                 0.0000
     53 ****         1.6298  -3.3217   1.4250 H              1 S1                 0.0000
     54 ****        -2.8090   2.3897   1.6424 H              1 S1                 0.0000
     55 ****        -2.9936   2.1631  -0.0883 H              1 S1                 0.0000
     56 ****         1.3273   1.7561   1.4398 H              1 S1                 0.0000
     57 ****        -2.5725   4.7067   1.2870 H              1 S1                 0.0000
     58 ****         3.7444  -3.1237  -3.5448 H              1 S1                 0.0000
     59 ****         0.3650   3.2024  -0.8537 LP             1 S1                 0.0000
     60 ****        -1.0835   2.7530  -1.4590 LP             1 S1                 0.0000
     61 ****         3.0318   1.4064   2.0766 LP             1 S1                 0.0000
     62 ****         4.4967   0.6934   1.9660 LP             1 S1                 0.0000
@<TRIPOS>BOND
    1    1    2 1     
    2    1   26 1     
    3    1   27 1     
    4    1   28 1     
    5    2    3 1     
    6    2   29 1     
    7    2   30 1     
    8    3   25 1     
    9    3    4 1     
   10    3   57 1     
   11    4    5 1     
   12    4   31 1     
   13    4   32 1     
   14    5    6 1     
   15    5   33 1     
   16    5   34 1     
   17    6    7 1     
   18    7    8 1     
   19    7   25 1     
   20    7   35 1     
   21    8    9 1     
   22    8   36 1     
   23    8   37 1     
   24    9   10 1     
   25    9   38 1     
   26    9   56 1     
   27   10   11 1     
   28   10   39 1     
   29   10   40 1     
   30   11   12 1     
   31   11   13 1     
   32   11   41 1     
   33   12   42 1     
   34   13   14 1     
   35   13   43 1     
   36   13   44 1     
   37   14   24 1     
   38   14   15 1     
   39   15   16 2     
   40   15   45 1     
   41   16   17 1     
   42   16   58 1     
   43   17   24 ar    
   44   17   18 ar    
   45   18   19 ar    
   46   18   46 1     
   47   19   20 1     
   48   19   21 ar    
   49   20   47 1     
   50   20   48 1     
   51   20   49 1     
   52   21   22 1     
   53   21   23 ar    
   54   22   50 1     
   55   22   51 1     
   56   22   52 1     
   57   23   24 ar    
   58   23   53 1     
   59   25   54 1     
   60   25   55 1     
   61    6   59 1     
   62    6   60 1     
   63   12   61 1     
   64   12   62 1     
@<TRIPOS>SUBSTRUCTURE
      1 S1             1
@<TRIPOS>SET
LONE_PAIRS      STATIC     ATOMS    <user>   **** ""
4 59 60 61 62
DONOR_HYDROGENS      STATIC     ATOMS    <user>   **** ""
5 57 38 56 42 58
ATOM$BLUE        STATIC     ATOMS    COLORGROUP SYSTEM
4 59 60 61 62
ATOM$RED        STATIC     ATOMS    COLORGROUP SYSTEM
5 57 38 56 42 58
