AV-unprocessed.smi:2079|AV-procd|sdf|8485|dock3
  -GOLD-   2272011193D 1   1.00000     0.00000
 Structure written by MMmdl.
 41 42  0  0  0  0  0  0  0  0  3 V2000
  150.8050  142.3393  157.4315 C   0  0  0  0  0  0  0  0  0  0  0  0
  150.3812  141.6107  156.2026 C   0  0  0  0  0  0  0  0  0  0  0  0
  149.2283  141.6149  155.4693 C   0  0  0  0  0  0  0  0  0  0  0  0
  149.5079  140.6925  154.4257 C   0  0  0  0  0  0  0  0  0  0  0  0
  148.5374  140.4123  153.4275 N   0  0  0  0  0  0  0  0  0  0  0  0
  147.1974  140.5077  153.5049 C   0  0  0  0  0  0  0  0  0  0  0  0
  146.6572  140.8970  154.5474 O   0  0  0  0  0  0  0  0  0  0  0  0
  146.5857  140.1417  152.3441 N   0  5  0  0  0  0  0  0  0  0  0  0
  146.5551  138.7810  151.8097 C   0  0  0  0  0  0  0  0  0  0  0  0
  146.0810  137.7884  152.8912 C   0  0  0  0  0  0  0  0  0  0  0  0
  146.1221  136.3810  152.4093 N   0  3  2  0  0  0  0  0  0  0  0  0
  145.1551  136.0806  151.3139 C   0  0  0  0  0  0  0  0  0  0  0  0
  145.4211  134.6916  150.7109 C   0  0  0  0  0  0  0  0  0  0  0  0
  145.3902  133.6023  151.7904 C   0  0  0  0  0  0  0  0  0  0  0  0
  146.3611  133.9564  152.9271 C   0  0  0  0  0  0  0  0  0  0  0  0
  146.0935  135.3632  153.5022 C   0  0  2  0  0  0  0  0  0  0  0  0
  144.8060  135.4156  154.3536 C   0  0  0  0  0  0  0  0  0  0  0  0
  150.7219  140.1700  154.5176 N   0  0  0  0  0  0  0  0  0  0  0  0
  151.2878  140.7563  155.6558 O   0  0  0  0  0  0  0  0  0  0  0  0
  149.9623  142.8610  157.8854 H   0  0  0  0  0  0  0  0  0  0  0  0
  151.5729  143.0763  157.1966 H   0  0  0  0  0  0  0  0  0  0  0  0
  151.2123  141.6487  158.1699 H   0  0  0  0  0  0  0  0  0  0  0  0
  148.3312  142.1884  155.6496 H   0  0  0  0  0  0  0  0  0  0  0  0
  148.9019  140.0850  152.5451 H   0  0  0  0  0  0  0  0  0  0  0  0
  145.8836  138.7161  150.9535 H   0  0  0  0  0  0  0  0  0  0  0  0
  147.5295  138.4625  151.4362 H   0  0  0  0  0  0  0  0  0  0  0  0
  146.7392  137.8966  153.7546 H   0  0  0  0  0  0  0  0  0  0  0  0
  145.0774  138.0356  153.2413 H   0  0  0  0  0  0  0  0  0  0  0  0
  144.1323  136.1460  151.6857 H   0  0  0  0  0  0  0  0  0  0  0  0
  145.2397  136.8265  150.5231 H   0  0  0  0  0  0  0  0  0  0  0  0
  144.6829  134.4724  149.9388 H   0  0  0  0  0  0  0  0  0  0  0  0
  146.3940  134.6891  150.2176 H   0  0  0  0  0  0  0  0  0  0  0  0
  144.3776  133.4955  152.1799 H   0  0  0  0  0  0  0  0  0  0  0  0
  145.6559  132.6379  151.3567 H   0  0  0  0  0  0  0  0  0  0  0  0
  146.3040  133.2061  153.7165 H   0  0  0  0  0  0  0  0  0  0  0  0
  147.3824  133.9156  152.5456 H   0  0  0  0  0  0  0  0  0  0  0  0
  146.9263  135.5907  154.1695 H   0  0  0  0  0  0  0  0  0  0  0  0
  144.8483  134.6812  155.1581 H   0  0  0  0  0  0  0  0  0  0  0  0
  143.9112  135.2023  153.7701 H   0  0  0  0  0  0  0  0  0  0  0  0
  144.6684  136.3906  154.8210 H   0  0  0  0  0  0  0  0  0  0  0  0
  147.0390  136.2862  151.9962 H   0  0  0  0  0  0  0  0  0  0  0  0
  1  2  1  0  0  0  0
  1 20  1  0  0  0  0
  1 21  1  0  0  0  0
  1 22  1  0  0  0  0
  2 19  1  0  0  0  0
  2  3  2  0  0  0  0
  3  4  1  0  0  0  0
  3 23  1  0  0  0  0
  4  5  1  0  0  0  0
  4 18  2  0  0  0  0
  5  6  1  0  0  0  0
  5 24  1  0  0  0  0
  6  7  2  0  0  0  0
  6  8  1  0  0  0  0
  8  9  1  0  0  0  0
  9 10  1  0  0  0  0
  9 25  1  0  0  0  0
  9 26  1  0  0  0  0
 10 11  1  0  0  0  0
 10 27  1  0  0  0  0
 10 28  1  0  0  0  0
 11 16  1  0  0  0  0
 11 12  1  0  0  0  0
 11 41  1  0  0  0  0
 12 13  1  0  0  0  0
 12 29  1  0  0  0  0
 12 30  1  0  0  0  0
 13 14  1  0  0  0  0
 13 31  1  0  0  0  0
 13 32  1  0  0  0  0
 14 15  1  0  0  0  0
 14 33  1  0  0  0  0
 14 34  1  0  0  0  0
 15 16  1  0  0  0  0
 15 35  1  0  0  0  0
 15 36  1  0  0  0  0
 16 17  1  0  0  0  0
 16 37  1  0  0  0  0
 17 38  1  0  0  0  0
 17 39  1  0  0  0  0
 17 40  1  0  0  0  0
 18 19  1  0  0  0  0
M  CHG  1   8  -1
M  CHG  1  11   1
M  END
> <s_m_source_file>
AV-unprocessed.smi

> <i_m_source_file_index>
2079

> <i_lp_mmshare_version>
43012

> <i_f3d_flags>
0

> <s_epik_input>
W0NIM11jMVtjSF1jKG5vMSlbTkhdQyg9TylbTkhdW0NIMl1bQ0gyXU4yW0NIMl1bQ0gyXVtDSDJdW0NIMl1bQ0BIXTJbQ0gzXQ==

> <s_epik_cmdline>
J2VwaWtfcHl0aG9uJywgJy1waCcsICc3LjAnLCAnLXRuJywgJzgnLCAnLW1hJywgJzIwMCcsICctbWV0YWxfYmluZGluZycsICctaW1hZScsICc8aW5maWxlLm1hZT4nLCAnLW9tYWUnLCAnPG91dGZpbGUubWFlPic=

> <r_epik_Ionization_Penalty>
6.7666

> <r_epik_Ionization_Penalty_Charging>
6.7666

> <r_epik_Ionization_Penalty_Neutral>
5.77131e-06

> <r_epik_State_Penalty>
6.79217

> <r_epik_Charging_Adjusted_Penalty>
13.5588

> <i_epik_Tot_Q>
0

> <i_epik_Tot_abs_Q>
2

> <r_epik_Metal_State_Penalty>
2.72569

> <b_epik_Metal_Only>
1

> <s_lp_Force_Field>
OPLS_2005

> <r_lp_Energy>
14.7709

> <b_lp_Chiralities_Consistent>
1

> <s_lp_Variant>
AV-unprocessed.smi:2079-11

> <Gold.Version>
5.8.1

> <Gold.Id.Protein>
6NUR|6NUR_protein|mol2

> <Gold.PLP.Fitness>
40.7286

> <Gold.PLP.PLP>
-30.7389

> <Gold.PLP.part.hbond>
-3.9970

> <Gold.PLP.part.metal>
0.0000

> <Gold.PLP.part.buried>
-4.8486

> <Gold.PLP.part.nonpolar>
-25.8893

> <Gold.PLP.part.repulsive>
1.9724

> <Gold.PLP.ligand.clash>
0.0000

> <Gold.PLP.ligand.torsion>
0.9197

> <Gold.PLP.Chemscore.Hbond>
3.9000

> <Gold.PLP.Chemscore.CHOScore>
0.0000

> <Gold.PLP.Chemscore.Metal>
0.0000

> <Gold.Chemscore.Hbonds>
donor molecule, donor type, donor heavy atom, donor atom, acceptor molecule, acceptor atom, score
      L1  H     5    24       P1  7957  1.00
      L1  H    11    41       P1  7948  2.00
      P1  H  7989  7998       L1    18  0.85

> <Gold.PLP.Chemscore.Internal.Correction>
0.1291

> <Gold.Rescore>
     Score         DG    S(hbond)    S(metal)    S(lipo)     H(rot)  DE(clash)    DE(int)     intcor
     14.82     -17.35       2.80        0.00      55.25       1.54       0.27       2.25       ----

> <Gold.Chemscore.Fitness>
14.8246

> <Gold.Chemscore.DG>
-17.3532

> <Gold.Chemscore.ZeroCoef>
-5.4800

> <Gold.Chemscore.Hbond>
2.8005

> <Gold.Chemscore.Metal>
0.0000

> <Gold.Chemscore.Lipo>
55.2490

> <Gold.Chemscore.Internal_Hbond>
0.0000

> <Gold.Chemscore.DEClash>
0.2736

> <Gold.Chemscore.DEInternal>
2.2550

> <Gold.Chemscore.Rot>
1.5409

> <Gold.Chemscore.Internal.Correction>
   9.000000E+99

> <Gold.Chemscore.Hbonds>
donor molecule, donor type, donor heavy atom, donor atom, acceptor molecule, acceptor atom, score
      L1  H     5    24       P1  7957  0.95
      L1  H    11    41       P1  7948  1.00
      P1  H  7989  7998       L1    18  0.09

> <Gold.Chemscore.Hbond.Weighted>
-9.3537

> <Gold.Chemscore.Metal.Weighted>
-0.0000

> <Gold.Chemscore.Lipo.Weighted>
-6.4641

> <Gold.Chemscore.Internal_Hbond.Weighted>
0.0000

> <Gold.Chemscore.DEClash.Weighted>
0.2736

> <Gold.Chemscore.DEInternal.Weighted>
2.2550

> <Gold.Chemscore.Rot.Weighted>
3.9446

> <Gold.Chemscore.Internal.Correction.Weighted>
   9.000000E+99

> <Gold.Protein.RotatedTorsions>
[ 6907 6896 6895 6894 ] final   -0.43 input  -60.11 | X-H torsion
[ 7974 7965 7964 7962 ] final  118.45 input  175.53 | X-H torsion
[ 8008 7997 7996 7995 ] final -178.85 input   59.86 | X-H torsion
[ 10167 10162 10161 10158 ] final   25.62 input  -65.29 | X-H torsion
[ 10718 10713 10712 10709 ] final  -52.49 input   66.30 | X-H torsion
[ 10763 10752 10751 10750 ] final  -40.50 input  -60.55 | X-H torsion
[ 11005 11000 10999 10996 ] final  132.99 input  -57.11 | X-H torsion

> <Gold.Protein.ActiveResidues>
 VAL166  LYS551  ARG553  GLY616  TRP617  ASP618  TYR619  PRO620  LYS621  CYS622 
 ASP623  PHE694  ASN695  SER759  ASP760  ASP761  ALA762  ILE779  LEU786  VAL792 
 PHE793  MET794  SER795  GLU796  ALA797  LYS798  CYS799  TRP800  GLU811  SER814 

> <Gold.Protein.RotatedAtoms>
  151.5624  135.1065  159.9975 H   0  0  0  0  0  0  0  0  0  0  0  0  # atno 6907 bound_to 6896
  152.4440  133.7497  159.6698 H   0  0  0  0  0  0  0  0  0  0  0  0  # atno 6908 bound_to 6896
  150.8352  133.7958  159.3106 H   0  0  0  0  0  0  0  0  0  0  0  0  # atno 6909 bound_to 6896
  145.1550  139.3188  143.4546 H   0  0  0  0  0  0  0  0  0  0  0  0  # atno 7974 bound_to 7965
  156.0237  140.1266  157.0331 H   0  0  0  0  0  0  0  0  0  0  0  0  # atno 8008 bound_to 7997
  154.4322  140.1063  156.6070 H   0  0  0  0  0  0  0  0  0  0  0  0  # atno 8009 bound_to 7997
  155.5908  140.3469  155.4568 H   0  0  0  0  0  0  0  0  0  0  0  0  # atno 8010 bound_to 7997
  140.5091  144.0190  150.6365 H   0  0  0  0  0  0  0  0  0  0  0  0  # atno 10167 bound_to 10162
  156.1617  130.4149  149.9782 H   0  0  0  0  0  0  0  0  0  0  0  0  # atno 10718 bound_to 10713
  153.9471  135.6755  153.4744 H   0  0  0  0  0  0  0  0  0  0  0  0  # atno 10763 bound_to 10752
  153.0903  135.4878  154.8673 H   0  0  0  0  0  0  0  0  0  0  0  0  # atno 10764 bound_to 10752
  154.7346  135.3146  154.8792 H   0  0  0  0  0  0  0  0  0  0  0  0  # atno 10765 bound_to 10752
  139.9824  134.9544  156.9661 H   0  0  0  0  0  0  0  0  0  0  0  0  # atno 11005 bound_to 11000
  146.3490  140.1639  142.8590 LP  0  0  0  0  0  0  0  0  0  0  0  0  # atno 17320 bound_to 7965
  145.0390  140.8931  143.5064 LP  0  0  0  0  0  0  0  0  0  0  0  0  # atno 17321 bound_to 7965
  140.3507  143.2965  152.0490 LP  0  0  0  0  0  0  0  0  0  0  0  0  # atno 17342 bound_to 10162
  139.4891  144.6376  151.6944 LP  0  0  0  0  0  0  0  0  0  0  0  0  # atno 17343 bound_to 10162
  156.7609  130.9150  151.3641 LP  0  0  0  0  0  0  0  0  0  0  0  0  # atno 17370 bound_to 10713
  157.6738  130.9075  150.0101 LP  0  0  0  0  0  0  0  0  0  0  0  0  # atno 17371 bound_to 10713
  140.5070  134.1040  155.7262 LP  0  0  0  0  0  0  0  0  0  0  0  0  # atno 17394 bound_to 11000
  141.1494  133.8996  157.2135 LP  0  0  0  0  0  0  0  0  0  0  0  0  # atno 17395 bound_to 11000

$$$$
