AV-unprocessed.smi:1535|AV-procd|sdf|6176|dock1
  -GOLD-   22720 6333D 1   1.00000     0.00000
 Structure written by MMmdl.
 47 48  0  0  0  0  0  0  0  0  2 V2000
  152.4616  143.7897  161.1697 C   0  0  0  0  0  0  0  0  0  0  0  0
  152.2016  142.9428  159.9356 C   0  0  0  0  0  0  0  0  0  0  0  0
  151.2818  143.4168  158.9733 C   0  0  0  0  0  0  0  0  0  0  0  0
  151.0652  142.6194  157.8556 C   0  0  0  0  0  0  0  0  0  0  0  0
  150.2330  142.8031  156.7495 N   0  3  0  0  0  0  0  0  0  0  0  0
  150.3599  141.7432  155.9042 C   0  0  0  0  0  0  0  0  0  0  0  0
  151.2624  140.8856  156.4530 N   0  0  0  0  0  0  0  0  0  0  0  0
  151.7589  139.5979  155.9481 C   0  0  0  0  0  0  0  0  0  0  0  0
  150.6780  138.8035  155.1873 C   0  0  2  0  0  0  0  0  0  0  0  0
  150.4957  139.3239  153.8855 O   0  0  0  0  0  0  0  0  0  0  0  0
  149.2971  138.6954  155.8740 C   0  0  0  0  0  0  0  0  0  0  0  0
  149.1990  137.7045  156.9517 N   0  0  0  0  0  0  0  0  0  0  0  0
  150.1179  138.0408  158.0351 C   0  0  0  0  0  0  0  0  0  0  0  0
  147.8317  137.5820  157.4676 C   0  0  0  0  0  0  0  0  0  0  0  0
  147.6085  136.3952  158.4223 C   0  0  1  0  0  0  0  0  0  0  0  0
  148.6184  135.2723  158.1571 C   0  0  0  0  0  0  0  0  0  0  0  0
  147.6720  136.8271  159.8286 C   0  0  0  0  0  0  0  0  0  0  0  0
  147.7227  137.1647  160.9343 N   0  0  0  0  0  0  0  0  0  0  0  0
  151.7272  141.3894  157.6743 C   0  0  0  0  0  0  0  0  0  0  0  0
  152.6337  140.9067  158.6156 C   0  0  0  0  0  0  0  0  0  0  0  0
  152.8688  141.7031  159.7587 C   0  0  0  0  0  0  0  0  0  0  0  0
  153.8559  141.2014  160.7988 C   0  0  0  0  0  0  0  0  0  0  0  0
  151.8731  144.7075  161.1554 H   0  0  0  0  0  0  0  0  0  0  0  0
  153.5139  144.0693  161.2273 H   0  0  0  0  0  0  0  0  0  0  0  0
  152.1986  143.2399  162.0733 H   0  0  0  0  0  0  0  0  0  0  0  0
  150.7690  144.3588  159.1017 H   0  0  0  0  0  0  0  0  0  0  0  0
  149.8385  141.6074  154.9676 H   0  0  0  0  0  0  0  0  0  0  0  0
  152.5958  139.8173  155.2842 H   0  0  0  0  0  0  0  0  0  0  0  0
  152.1627  139.0276  156.7835 H   0  0  0  0  0  0  0  0  0  0  0  0
  151.0494  137.7864  155.0571 H   0  0  0  0  0  0  0  0  0  0  0  0
  149.8622  138.7848  153.4365 H   0  0  0  0  0  0  0  0  0  0  0  0
  149.0721  139.6876  156.2693 H   0  0  0  0  0  0  0  0  0  0  0  0
  148.5233  138.5081  155.1277 H   0  0  0  0  0  0  0  0  0  0  0  0
  150.1033  137.2853  158.8196 H   0  0  0  0  0  0  0  0  0  0  0  0
  149.8657  139.0033  158.4825 H   0  0  0  0  0  0  0  0  0  0  0  0
  151.1434  138.0978  157.6683 H   0  0  0  0  0  0  0  0  0  0  0  0
  147.5503  138.5101  157.9677 H   0  0  0  0  0  0  0  0  0  0  0  0
  147.1228  137.4817  156.6496 H   0  0  0  0  0  0  0  0  0  0  0  0
  146.6105  135.9848  158.2733 H   0  0  0  0  0  0  0  0  0  0  0  0
  148.4418  134.4239  158.8189 H   0  0  0  0  0  0  0  0  0  0  0  0
  149.6409  135.6144  158.3209 H   0  0  0  0  0  0  0  0  0  0  0  0
  148.5457  134.9123  157.1306 H   0  0  0  0  0  0  0  0  0  0  0  0
  153.1389  139.9615  158.4879 H   0  0  0  0  0  0  0  0  0  0  0  0
  154.2725  140.2329  160.5196 H   0  0  0  0  0  0  0  0  0  0  0  0
  153.3681  141.0869  161.7670 H   0  0  0  0  0  0  0  0  0  0  0  0
  154.6848  141.9011  160.9081 H   0  0  0  0  0  0  0  0  0  0  0  0
  149.6216  143.5918  156.5820 H   0  0  0  0  0  0  0  0  0  0  0  0
  1  2  1  0  0  0  0
  1 23  1  0  0  0  0
  1 24  1  0  0  0  0
  1 25  1  0  0  0  0
  2 21  1  0  0  0  0
  2  3  2  0  0  0  0
  3  4  1  0  0  0  0
  3 26  1  0  0  0  0
  4 19  2  0  0  0  0
  4  5  1  0  0  0  0
  5  6  2  0  0  0  0
  5 47  1  0  0  0  0
  6  7  1  0  0  0  0
  6 27  1  0  0  0  0
  7  8  1  0  0  0  0
  7 19  1  0  0  0  0
  8  9  1  0  0  0  0
  8 28  1  0  0  0  0
  8 29  1  0  0  0  0
  9 10  1  0  0  0  0
  9 11  1  0  0  0  0
  9 30  1  0  0  0  0
 10 31  1  0  0  0  0
 11 12  1  0  0  0  0
 11 32  1  0  0  0  0
 11 33  1  0  0  0  0
 12 13  1  0  0  0  0
 12 14  1  0  0  0  0
 13 34  1  0  0  0  0
 13 35  1  0  0  0  0
 13 36  1  0  0  0  0
 14 15  1  0  0  0  0
 14 37  1  0  0  0  0
 14 38  1  0  0  0  0
 15 16  1  0  0  0  0
 15 17  1  0  0  0  0
 15 39  1  0  0  0  0
 16 40  1  0  0  0  0
 16 41  1  0  0  0  0
 16 42  1  0  0  0  0
 17 18  3  0  0  0  0
 19 20  1  0  0  0  0
 20 21  2  0  0  0  0
 20 43  1  0  0  0  0
 21 22  1  0  0  0  0
 22 44  1  0  0  0  0
 22 45  1  0  0  0  0
 22 46  1  0  0  0  0
M  CHG  1   5   1
M  END
> <s_m_source_file>
AV-unprocessed.smi

> <i_m_source_file_index>
1535

> <i_lp_mmshare_version>
43012

> <i_f3d_flags>
0

> <s_epik_input>
W0NIM11jKFtjSF0xKWMoW0NIM10pW2NIXWMoYzEyKW4oW2NIXW4yKVtDSDJdW0NASF0oW09IXSlbQ0gyXU4oW0NIM10pW0NIMl1bQ0BIXShbQ0gzXSlDI04=

> <s_epik_cmdline>
J2VwaWtfcHl0aG9uJywgJy1waCcsICc3LjAnLCAnLXRuJywgJzgnLCAnLW1hJywgJzIwMCcsICctbWV0YWxfYmluZGluZycsICctaW1hZScsICc8aW5maWxlLm1hZT4nLCAnLW9tYWUnLCAnPG91dGZpbGUubWFlPic=

> <r_epik_Ionization_Penalty>
1.22846

> <r_epik_Ionization_Penalty_Charging>
1.21333

> <r_epik_Ionization_Penalty_Neutral>
0.0151341

> <r_epik_State_Penalty>
1.27012

> <r_epik_Charging_Adjusted_Penalty>
2.48344

> <i_epik_Tot_Q>
1

> <i_epik_Tot_abs_Q>
1

> <r_epik_Metal_State_Penalty>
5.28751

> <b_epik_Metal_Only>
0

> <s_lp_Force_Field>
OPLS_2005

> <r_lp_Energy>
31.5295

> <b_lp_Chiralities_Consistent>
1

> <s_lp_Variant>
AV-unprocessed.smi:1535-7

> <Gold.Version>
5.8.1

> <Gold.Id.Protein>
6NUR|6NUR_protein|mol2

> <Gold.PLP.Fitness>
53.2967

> <Gold.PLP.PLP>
-41.1110

> <Gold.PLP.part.hbond>
-5.0000

> <Gold.PLP.part.metal>
0.0000

> <Gold.PLP.part.buried>
-4.9562

> <Gold.PLP.part.nonpolar>
-31.2826

> <Gold.PLP.part.repulsive>
0.0391

> <Gold.PLP.ligand.clash>
0.0000

> <Gold.PLP.ligand.torsion>
1.2243

> <Gold.PLP.Chemscore.Hbond>
4.8080

> <Gold.PLP.Chemscore.CHOScore>
0.0000

> <Gold.PLP.Chemscore.Metal>
0.0000

> <Gold.Chemscore.Hbonds>
donor molecule, donor type, donor heavy atom, donor atom, acceptor molecule, acceptor atom, score
      L1  H     5    47       P1  8028  2.00
      P1  H  6931  6943       L1    18  0.90
      P1  H  6934  6947       L1    18  0.90
      P1  H  7989  7998       L1    10  1.00

> <Gold.PLP.Chemscore.Internal.Correction>
0.2105

> <Gold.Rescore>
     Score         DG    S(hbond)    S(metal)    S(lipo)     H(rot)  DE(clash)    DE(int)     intcor
     19.95     -22.01       3.46        0.00      99.16       2.59       0.85       1.21       ----

> <Gold.Chemscore.Fitness>
19.9497

> <Gold.Chemscore.DG>
-22.0077

> <Gold.Chemscore.ZeroCoef>
-5.4800

> <Gold.Chemscore.Hbond>
3.4614

> <Gold.Chemscore.Metal>
0.0000

> <Gold.Chemscore.Lipo>
99.1592

> <Gold.Chemscore.Internal_Hbond>
0.0000

> <Gold.Chemscore.DEClash>
0.8512

> <Gold.Chemscore.DEInternal>
1.2069

> <Gold.Chemscore.Rot>
2.5918

> <Gold.Chemscore.Internal.Correction>
   9.000000E+99

> <Gold.Chemscore.Hbonds>
donor molecule, donor type, donor heavy atom, donor atom, acceptor molecule, acceptor atom, score
      L1  H     5    47       P1  8028  0.97
      P1  H  6931  6943       L1    18  0.87
      P1  H  6934  6947       L1    18  0.48
      P1  H  7989  7998       L1    10  0.85

> <Gold.Chemscore.Hbond.Weighted>
-11.5612

> <Gold.Chemscore.Metal.Weighted>
-0.0000

> <Gold.Chemscore.Lipo.Weighted>
-11.6016

> <Gold.Chemscore.Internal_Hbond.Weighted>
0.0000

> <Gold.Chemscore.DEClash.Weighted>
0.8512

> <Gold.Chemscore.DEInternal.Weighted>
1.2069

> <Gold.Chemscore.Rot.Weighted>
6.6351

> <Gold.Chemscore.Internal.Correction.Weighted>
   9.000000E+99

> <Gold.Protein.RotatedTorsions>
[ 6907 6896 6895 6894 ] final  141.11 input  -60.11 | X-H torsion
[ 7974 7965 7964 7962 ] final   47.19 input  175.53 | X-H torsion
[ 8008 7997 7996 7995 ] final   27.97 input   59.86 | X-H torsion
[ 10167 10162 10161 10158 ] final  146.70 input  -65.29 | X-H torsion
[ 10718 10713 10712 10709 ] final   76.90 input   66.30 | X-H torsion
[ 10763 10752 10751 10750 ] final  -62.98 input  -60.55 | X-H torsion
[ 11005 11000 10999 10996 ] final -178.84 input  -57.11 | X-H torsion

> <Gold.Protein.ActiveResidues>
 VAL166  LYS551  ARG553  GLY616  TRP617  ASP618  TYR619  PRO620  LYS621  CYS622 
 ASP623  PHE694  ASN695  SER759  ASP760  ASP761  ALA762  ILE779  LEU786  VAL792 
 PHE793  MET794  SER795  GLU796  ALA797  LYS798  CYS799  TRP800  GLU811  SER814 

> <Gold.Protein.RotatedAtoms>
  152.2350  133.5088  159.5236 H   0  0  0  0  0  0  0  0  0  0  0  0  # atno 6907 bound_to 6896
  150.7048  134.1166  159.4028 H   0  0  0  0  0  0  0  0  0  0  0  0  # atno 6908 bound_to 6896
  151.9087  135.0348  160.0563 H   0  0  0  0  0  0  0  0  0  0  0  0  # atno 6909 bound_to 6896
  146.0321  139.4775  142.9831 H   0  0  0  0  0  0  0  0  0  0  0  0  # atno 7974 bound_to 7965
  155.0513  140.3180  155.4691 H   0  0  0  0  0  0  0  0  0  0  0  0  # atno 8008 bound_to 7997
  156.2834  140.2145  156.5582 H   0  0  0  0  0  0  0  0  0  0  0  0  # atno 8009 bound_to 7997
  154.7208  140.0489  157.0625 H   0  0  0  0  0  0  0  0  0  0  0  0  # atno 8010 bound_to 7997
  139.4902  144.5810  151.6872 H   0  0  0  0  0  0  0  0  0  0  0  0  # atno 10167 bound_to 10162
  157.6690  130.9796  150.1563 H   0  0  0  0  0  0  0  0  0  0  0  0  # atno 10718 bound_to 10713
  154.3082  135.6221  153.5454 H   0  0  0  0  0  0  0  0  0  0  0  0  # atno 10763 bound_to 10752
  152.9832  135.5695  154.5207 H   0  0  0  0  0  0  0  0  0  0  0  0  # atno 10764 bound_to 10752
  154.4852  135.2865  155.1516 H   0  0  0  0  0  0  0  0  0  0  0  0  # atno 10765 bound_to 10752
  140.4253  134.6569  157.4684 H   0  0  0  0  0  0  0  0  0  0  0  0  # atno 11005 bound_to 11000
  145.7024  141.0132  143.1497 LP  0  0  0  0  0  0  0  0  0  0  0  0  # atno 17320 bound_to 7965
  144.7035  139.8660  143.7437 LP  0  0  0  0  0  0  0  0  0  0  0  0  # atno 17321 bound_to 7965
  140.5416  144.0570  150.6090 LP  0  0  0  0  0  0  0  0  0  0  0  0  # atno 17342 bound_to 10162
  140.3594  143.2917  152.0400 LP  0  0  0  0  0  0  0  0  0  0  0  0  # atno 17343 bound_to 10162
  156.2350  130.3685  149.8401 LP  0  0  0  0  0  0  0  0  0  0  0  0  # atno 17370 bound_to 10713
  156.6217  130.8629  151.3477 LP  0  0  0  0  0  0  0  0  0  0  0  0  # atno 17371 bound_to 10713
  140.0172  134.6601  155.9292 LP  0  0  0  0  0  0  0  0  0  0  0  0  # atno 17394 bound_to 11000
  141.1768  133.6541  156.4859 LP  0  0  0  0  0  0  0  0  0  0  0  0  # atno 17395 bound_to 11000

$$$$
