AV-unprocessed.smi:445|AV-procd|sdf|2589|dock7
  -GOLD-   2262022583D 1   1.00000     0.00000
 Structure written by MMmdl.
 44 45  0  0  0  0  0  0  0  0  3 V2000
  151.6635  143.0012  157.1253 C   0  0  0  0  0  0  0  0  0  0  0  0
  151.3768  143.2886  158.6104 C   0  0  2  0  0  0  0  0  0  0  0  0
  151.3667  144.8081  158.8746 C   0  0  0  0  0  0  0  0  0  0  0  0
  151.0734  145.1313  160.3472 C   0  0  0  0  0  0  0  0  0  0  0  0
  152.0782  144.4346  161.2745 C   0  0  0  0  0  0  0  0  0  0  0  0
  152.0887  142.9182  161.0342 C   0  0  0  0  0  0  0  0  0  0  0  0
  152.3756  142.5762  159.5566 C   0  0  1  0  0  0  0  0  0  0  0  0
  152.3148  141.1290  159.3640 N   0  0  0  0  0  0  0  0  0  0  0  0
  153.2977  140.2632  159.6540 C   0  0  0  0  0  0  0  0  0  0  0  0
  154.3745  140.6032  160.1459 O   0  0  0  0  0  0  0  0  0  0  0  0
  152.9997  138.7862  159.3599 C   0  0  0  0  0  0  0  0  0  0  0  0
  151.7609  138.5887  158.5854 N   0  0  0  0  0  0  0  0  0  0  0  0
  150.7227  137.8927  159.2297 C   0  0  0  0  0  0  0  0  0  0  0  0
  149.5464  137.6421  158.6289 C   0  0  0  0  0  0  0  0  0  0  0  0
  148.4956  136.9173  159.3111 N   0  3  0  0  0  0  0  0  0  0  0  0
  147.8257  137.5049  160.1544 O   0  0  0  0  0  0  0  0  0  0  0  0
  148.3047  135.7382  159.0287 O   0  5  0  0  0  0  0  0  0  0  0  0
  149.3642  138.1176  157.2730 C   0  0  0  0  0  0  0  0  0  0  0  0
  150.3544  138.7869  156.6290 C   0  0  0  0  0  0  0  0  0  0  0  0
  150.2115  139.2907  155.2443 C   0  0  0  0  0  0  0  0  0  0  0  0
  148.9612  139.2439  154.7668 N   0  0  0  0  0  0  0  0  0  0  0  0
  151.1048  139.7323  154.5216 O   0  0  0  0  0  0  0  0  0  0  0  0
  151.6560  139.0523  157.3005 C   0  0  0  0  0  0  0  0  0  0  0  0
  152.6082  139.6431  156.7833 O   0  0  0  0  0  0  0  0  0  0  0  0
  152.6672  143.3247  156.8474 H   0  0  0  0  0  0  0  0  0  0  0  0
  150.9562  143.5247  156.4816 H   0  0  0  0  0  0  0  0  0  0  0  0
  151.5817  141.9387  156.8957 H   0  0  0  0  0  0  0  0  0  0  0  0
  150.3764  142.9110  158.8285 H   0  0  0  0  0  0  0  0  0  0  0  0
  152.3305  145.2366  158.5957 H   0  0  0  0  0  0  0  0  0  0  0  0
  150.6212  145.2916  158.2424 H   0  0  0  0  0  0  0  0  0  0  0  0
  151.1079  146.2097  160.5052 H   0  0  0  0  0  0  0  0  0  0  0  0
  150.0606  144.8133  160.5983 H   0  0  0  0  0  0  0  0  0  0  0  0
  153.0765  144.8394  161.1042 H   0  0  0  0  0  0  0  0  0  0  0  0
  151.8316  144.6446  162.3156 H   0  0  0  0  0  0  0  0  0  0  0  0
  152.8356  142.4550  161.6802 H   0  0  0  0  0  0  0  0  0  0  0  0
  151.1251  142.5000  161.3295 H   0  0  0  0  0  0  0  0  0  0  0  0
  153.3802  142.9251  159.3085 H   0  0  0  0  0  0  0  0  0  0  0  0
  151.4624  140.7604  158.9676 H   0  0  0  0  0  0  0  0  0  0  0  0
  153.8562  138.3688  158.8288 H   0  0  0  0  0  0  0  0  0  0  0  0
  152.9537  138.2291  160.2978 H   0  0  0  0  0  0  0  0  0  0  0  0
  150.9544  137.5722  160.2352 H   0  0  0  0  0  0  0  0  0  0  0  0
  148.4175  137.9229  156.7923 H   0  0  0  0  0  0  0  0  0  0  0  0
  148.7634  139.5666  153.8309 H   0  0  0  0  0  0  0  0  0  0  0  0
  148.2180  138.8847  155.3485 H   0  0  0  0  0  0  0  0  0  0  0  0
  1  2  1  0  0  0  0
  1 25  1  0  0  0  0
  1 26  1  0  0  0  0
  1 27  1  0  0  0  0
  2  7  1  0  0  0  0
  2  3  1  0  0  0  0
  2 28  1  0  0  0  0
  3  4  1  0  0  0  0
  3 29  1  0  0  0  0
  3 30  1  0  0  0  0
  4  5  1  0  0  0  0
  4 31  1  0  0  0  0
  4 32  1  0  0  0  0
  5  6  1  0  0  0  0
  5 33  1  0  0  0  0
  5 34  1  0  0  0  0
  6  7  1  0  0  0  0
  6 35  1  0  0  0  0
  6 36  1  0  0  0  0
  7  8  1  0  0  0  0
  7 37  1  0  0  0  0
  8  9  1  0  0  0  0
  8 38  1  0  0  0  0
  9 10  2  0  0  0  0
  9 11  1  0  0  0  0
 11 12  1  0  0  0  0
 11 39  1  0  0  0  0
 11 40  1  0  0  0  0
 12 23  1  0  0  0  0
 12 13  1  0  0  0  0
 13 14  2  0  0  0  0
 13 41  1  0  0  0  0
 14 15  1  0  0  0  0
 14 18  1  0  0  0  0
 15 16  2  0  0  0  0
 15 17  1  0  0  0  0
 18 19  2  0  0  0  0
 18 42  1  0  0  0  0
 19 20  1  0  0  0  0
 19 23  1  0  0  0  0
 20 21  1  0  0  0  0
 20 22  2  0  0  0  0
 21 43  1  0  0  0  0
 21 44  1  0  0  0  0
 23 24  2  0  0  0  0
M  CHG  1  15   1
M  CHG  1  17  -1
M  END
> <s_m_source_file>
AV-unprocessed.smi

> <i_m_source_file_index>
445

> <i_lp_mmshare_version>
43012

> <i_f3d_flags>
0

> <s_epik_input>
W0NIM11bQ0BASF0xW0NIMl1bQ0gyXVtDSDJdW0NIMl1bQ0BIXTFbTkhdQyg9TylbQ0gyXW4yW2NIXWMoW04rXSg9TylbTy1dKVtjSF1jKGMyPU8pQyg9TylbTkgyXQ==

> <s_epik_cmdline>
J2VwaWtfcHl0aG9uJywgJy1waCcsICc3LjAnLCAnLXRuJywgJzgnLCAnLW1hJywgJzIwMCcsICctbWV0YWxfYmluZGluZycsICctaW1hZScsICc8aW5maWxlLm1hZT4nLCAnLW9tYWUnLCAnPG91dGZpbGUubWFlPic=

> <r_lp_tautomer_probability>
1

> <r_epik_Ionization_Penalty>
2.81321e-06

> <r_epik_Ionization_Penalty_Charging>
2.43777e-12

> <r_epik_Ionization_Penalty_Neutral>
2.81321e-06

> <r_epik_State_Penalty>
-0

> <r_epik_Charging_Adjusted_Penalty>
2.43777e-12

> <i_epik_Tot_Q>
0

> <i_epik_Tot_abs_Q>
2

> <r_epik_Metal_State_Penalty>
-0

> <b_epik_Metal_Only>
0

> <s_lp_Force_Field>
OPLS_2005

> <r_lp_Energy>
28.5082

> <b_lp_Chiralities_Consistent>
1

> <s_lp_Variant>
AV-unprocessed.smi:445-1

> <Gold.Version>
5.8.1

> <Gold.Id.Protein>
6NUR|6NUR_protein|mol2

> <Gold.PLP.Fitness>
48.7861

> <Gold.PLP.PLP>
-40.8345

> <Gold.PLP.part.hbond>
-5.0000

> <Gold.PLP.part.metal>
0.0000

> <Gold.PLP.part.buried>
-6.7877

> <Gold.PLP.part.nonpolar>
-29.6331

> <Gold.PLP.part.repulsive>
0.2382

> <Gold.PLP.ligand.clash>
0.0000

> <Gold.PLP.ligand.torsion>
1.9027

> <Gold.PLP.Chemscore.Hbond>
3.9064

> <Gold.PLP.Chemscore.CHOScore>
0.0000

> <Gold.PLP.Chemscore.Metal>
0.0000

> <Gold.Chemscore.Hbonds>
donor molecule, donor type, donor heavy atom, donor atom, acceptor molecule, acceptor atom, score
      P1  H  6931  6943       L1    16  0.25
      P1  H  6934  6947       L1    16  0.75
      P1  H  7989  7998       L1    22  1.00
      P1  H  7997  8010       L1    24  1.00

> <Gold.PLP.Chemscore.Internal.Correction>
0.0377

> <Gold.Rescore>
     Score         DG    S(hbond)    S(metal)    S(lipo)     H(rot)  DE(clash)    DE(int)     intcor
     20.01     -24.85       3.69        0.00      97.74       1.71       0.12       4.72       ----

> <Gold.Chemscore.Fitness>
20.0071

> <Gold.Chemscore.DG>
-24.8464

> <Gold.Chemscore.ZeroCoef>
-5.4800

> <Gold.Chemscore.Hbond>
3.6869

> <Gold.Chemscore.Metal>
0.0000

> <Gold.Chemscore.Lipo>
97.7398

> <Gold.Chemscore.Internal_Hbond>
0.0000

> <Gold.Chemscore.DEClash>
0.1179

> <Gold.Chemscore.DEInternal>
4.7213

> <Gold.Chemscore.Rot>
1.7123

> <Gold.Chemscore.Internal.Correction>
   9.000000E+99

> <Gold.Chemscore.Hbonds>
donor molecule, donor type, donor heavy atom, donor atom, acceptor molecule, acceptor atom, score
      P1  H  6931  6943       L1    16  0.21
      P1  H  6934  6947       L1    16  0.74
      P1  H  7989  7998       L1    22  0.99
      P1  H  7997  8010       L1    24  1.00

> <Gold.Chemscore.Hbond.Weighted>
-12.3143

> <Gold.Chemscore.Metal.Weighted>
-0.0000

> <Gold.Chemscore.Lipo.Weighted>
-11.4356

> <Gold.Chemscore.Internal_Hbond.Weighted>
0.0000

> <Gold.Chemscore.DEClash.Weighted>
0.1179

> <Gold.Chemscore.DEInternal.Weighted>
4.7213

> <Gold.Chemscore.Rot.Weighted>
4.3835

> <Gold.Chemscore.Internal.Correction.Weighted>
   9.000000E+99

> <Gold.Protein.RotatedTorsions>
[ 6907 6896 6895 6894 ] final  170.63 input  -60.11 | X-H torsion
[ 7974 7965 7964 7962 ] final   70.32 input  175.53 | X-H torsion
[ 8008 7997 7996 7995 ] final   65.74 input   59.86 | X-H torsion
[ 10167 10162 10161 10158 ] final   13.55 input  -65.29 | X-H torsion
[ 10718 10713 10712 10709 ] final -147.69 input   66.30 | X-H torsion
[ 10763 10752 10751 10750 ] final   85.44 input  -60.55 | X-H torsion
[ 11005 11000 10999 10996 ] final  -47.93 input  -57.11 | X-H torsion

> <Gold.Protein.ActiveResidues>
 VAL166  LYS551  ARG553  GLY616  TRP617  ASP618  TYR619  PRO620  LYS621  CYS622 
 ASP623  PHE694  ASN695  SER759  ASP760  ASP761  ALA762  ILE779  LEU786  VAL792 
 PHE793  MET794  SER795  GLU796  ALA797  LYS798  CYS799  TRP800  GLU811  SER814 

> <Gold.Protein.RotatedAtoms>
  151.8130  133.3384  159.3560 H   0  0  0  0  0  0  0  0  0  0  0  0  # atno 6907 bound_to 6896
  150.7320  134.5646  159.5869 H   0  0  0  0  0  0  0  0  0  0  0  0  # atno 6908 bound_to 6896
  152.3061  134.7554  160.0398 H   0  0  0  0  0  0  0  0  0  0  0  0  # atno 6909 bound_to 6896
  145.7796  139.2881  143.1273 H   0  0  0  0  0  0  0  0  0  0  0  0  # atno 7974 bound_to 7965
  155.6664  140.3497  155.4802 H   0  0  0  0  0  0  0  0  0  0  0  0  # atno 8008 bound_to 7997
  155.9725  140.1158  157.0822 H   0  0  0  0  0  0  0  0  0  0  0  0  # atno 8009 bound_to 7997
  154.4170  140.1154  156.5312 H   0  0  0  0  0  0  0  0  0  0  0  0  # atno 8010 bound_to 7997
  140.5995  143.8634  150.6951 H   0  0  0  0  0  0  0  0  0  0  0  0  # atno 10167 bound_to 10162
  156.4108  130.7980  151.2198 H   0  0  0  0  0  0  0  0  0  0  0  0  # atno 10718 bound_to 10713
  153.1475  135.4617  154.9588 H   0  0  0  0  0  0  0  0  0  0  0  0  # atno 10763 bound_to 10752
  154.7798  135.3185  154.8016 H   0  0  0  0  0  0  0  0  0  0  0  0  # atno 10764 bound_to 10752
  153.8527  135.6920  153.4845 H   0  0  0  0  0  0  0  0  0  0  0  0  # atno 10765 bound_to 10752
  141.0670  133.6690  156.3368 H   0  0  0  0  0  0  0  0  0  0  0  0  # atno 11005 bound_to 11000
  146.0087  140.8455  142.9982 LP  0  0  0  0  0  0  0  0  0  0  0  0  # atno 17320 bound_to 7965
  144.6798  140.2458  143.7338 LP  0  0  0  0  0  0  0  0  0  0  0  0  # atno 17321 bound_to 7965
  140.2176  143.3834  152.1668 LP  0  0  0  0  0  0  0  0  0  0  0  0  # atno 17342 bound_to 10162
  139.5281  144.7127  151.5155 LP  0  0  0  0  0  0  0  0  0  0  0  0  # atno 17343 bound_to 10162
  157.7507  131.0258  150.3935 LP  0  0  0  0  0  0  0  0  0  0  0  0  # atno 17370 bound_to 10713
  156.4233  130.3957  149.6810 LP  0  0  0  0  0  0  0  0  0  0  0  0  # atno 17371 bound_to 10713
  140.5752  134.5800  157.5467 LP  0  0  0  0  0  0  0  0  0  0  0  0  # atno 17394 bound_to 11000
  139.9486  134.7657  156.0502 LP  0  0  0  0  0  0  0  0  0  0  0  0  # atno 17395 bound_to 11000

$$$$
