#       Name:                AV-unprocessed.smi:521
#       Creating user name   scv26
#       Creation time:       Thu Mar 26 23:27:26 2020


#       File generated by GOLD software.
#

@<TRIPOS>MOLECULE
AV-unprocessed.smi:521
    47    49     1
SMALL
NO_CHARGES


@<TRIPOS>ATOM
      1 ****        -5.7118   0.1737  -0.0291 C.3            1 S1                 0.0000
      2 ****        -4.2923   0.2085  -0.0169 O.3            1 S1                 0.0000
      3 ****        -3.6676   1.4388  -0.0064 C.ar           1 S1                 0.0000
      4 ****        -4.3656   2.6731   0.0166 C.ar           1 S1                 0.0000
      5 ****        -3.6629   3.8914   0.0244 C.ar           1 S1                 0.0000
      6 ****        -2.2581   3.8918   0.0107 C.ar           1 S1                 0.0000
      7 ****        -1.5550   2.6738  -0.0116 C.ar           1 S1                 0.0000
      8 ****        -2.2531   1.4394  -0.0222 C.ar           1 S1                 0.0000
      9 ****        -1.6296   0.2088  -0.0486 O.3            1 S1                 0.0000
     10 ****        -0.2116   0.1690  -0.1054 C.3            1 S1                 0.0000
     11 ****         0.2280  -1.2975  -0.1851 C.3            1 S1                 0.0000
     12 ****         1.6875  -1.4253  -0.2804 N.pl3          1 S1                 0.0000
     13 ****         2.4921  -1.5281  -1.3766 C.2            1 S1                 0.0000
     14 ****         2.0493  -1.5338  -2.8051 C.3            1 S1                 0.0000
     15 ****         3.1212  -1.4666  -3.7225 O.3            1 S1                 0.0000
     16 ****         3.7756  -1.6219  -0.9241 N.pl3          1 S1                 1.0000
     17 ****         3.7918  -1.5710   0.4703 C.ar           1 S1                 0.0000
     18 ****         4.8493  -1.6256   1.3729 C.ar           1 S1                 0.0000
     19 ****         4.5179  -1.5394   2.7412 C.ar           1 S1                 0.0000
     20 ****         3.1800  -1.4044   3.1659 C.ar           1 S1                 0.0000
     21 ****         2.1160  -1.3523   2.2413 C.ar           1 S1                 0.0000
     22 ****         2.4525  -1.4402   0.8908 C.ar           1 S1                 0.0000
     23 ****        -6.0454  -0.8636  -0.0517 H              1 S1                 0.0000
     24 ****        -6.1152   0.6677  -0.9141 H              1 S1                 0.0000
     25 ****        -6.1302   0.6350   0.8665 H              1 S1                 0.0000
     26 ****        -5.4440   2.7131   0.0286 H              1 S1                 0.0000
     27 ****        -4.2031   4.8265   0.0408 H              1 S1                 0.0000
     28 ****        -1.7184   4.8275   0.0171 H              1 S1                 0.0000
     29 ****        -0.4767   2.7150  -0.0210 H              1 S1                 0.0000
     30 ****         0.1473   0.7060  -0.9849 H              1 S1                 0.0000
     31 ****         0.2150   0.6393   0.7819 H              1 S1                 0.0000
     32 ****        -0.1246  -1.8635   0.6776 H              1 S1                 0.0000
     33 ****        -0.2065  -1.7723  -1.0654 H              1 S1                 0.0000
     34 ****         1.4747  -2.4401  -2.9968 H              1 S1                 0.0000
     35 ****         1.3859  -0.6855  -2.9768 H              1 S1                 0.0000
     36 ****         2.7663  -1.4699  -4.5988 H              1 S1                 0.0000
     37 ****         5.8751  -1.7269   1.0498 H              1 S1                 0.0000
     38 ****         5.3059  -1.5762   3.4795 H              1 S1                 0.0000
     39 ****         2.9650  -1.3393   4.2228 H              1 S1                 0.0000
     40 ****         1.0947  -1.2470   2.5765 H              1 S1                 0.0000
     41 ****         4.5790  -1.7091  -1.5335 H              1 S1                 0.0000
     42 ****        -3.9773  -0.2764  -0.8328 LP             1 S1                 0.0000
     43 ****        -3.9912  -0.2833   0.8002 LP             1 S1                 0.0000
     44 ****        -1.9710  -0.2779  -0.8526 LP             1 S1                 0.0000
     45 ****        -1.9057  -0.2798   0.7791 LP             1 S1                 0.0000
     46 ****         3.7215  -2.2568  -3.5985 LP             1 S1                 0.0000
     47 ****         3.6416  -0.6259  -3.5723 LP             1 S1                 0.0000
@<TRIPOS>BOND
    1    1    2 1     
    2    1   23 1     
    3    1   24 1     
    4    1   25 1     
    5    2    3 1     
    6    3    8 ar    
    7    3    4 ar    
    8    4    5 ar    
    9    4   26 1     
   10    5    6 ar    
   11    5   27 1     
   12    6    7 ar    
   13    6   28 1     
   14    7    8 ar    
   15    7   29 1     
   16    8    9 1     
   17    9   10 1     
   18   10   11 1     
   19   10   30 1     
   20   10   31 1     
   21   11   12 1     
   22   11   32 1     
   23   11   33 1     
   24   12   22 1     
   25   12   13 1     
   26   13   14 1     
   27   13   16 2     
   28   14   15 1     
   29   14   34 1     
   30   14   35 1     
   31   15   36 1     
   32   16   17 1     
   33   16   41 1     
   34   17   22 ar    
   35   17   18 ar    
   36   18   19 ar    
   37   18   37 1     
   38   19   20 ar    
   39   19   38 1     
   40   20   21 ar    
   41   20   39 1     
   42   21   22 ar    
   43   21   40 1     
   44    2   42 1     
   45    2   43 1     
   46    9   44 1     
   47    9   45 1     
   48   15   46 1     
   49   15   47 1     
@<TRIPOS>SUBSTRUCTURE
      1 S1             1
@<TRIPOS>SET
LONE_PAIRS      STATIC     ATOMS    <user>   **** ""
6 42 43 44 45 46 47
DONOR_HYDROGENS      STATIC     ATOMS    <user>   **** ""
2 36 41
ATOM$BLUE        STATIC     ATOMS    COLORGROUP SYSTEM
6 42 43 44 45 46 47
ATOM$RED        STATIC     ATOMS    COLORGROUP SYSTEM
2 36 41
