AV-unprocessed.smi:1945|AV-procd|sdf|7857|dock3
  -GOLD-   2272010 03D 1   1.00000     0.00000
 Structure written by MMmdl.
 47 48  0  0  0  0  0  0  0  0  1 V2000
  151.0738  141.9912  156.5715 C   0  0  0  0  0  0  0  0  0  0  0  0
  150.7008  140.8185  155.7137 C   0  0  0  0  0  0  0  0  0  0  0  0
  149.4684  140.5830  155.0379 C   0  0  0  0  0  0  0  0  0  0  0  0
  149.6892  139.3831  154.4186 C   0  0  0  0  0  0  0  0  0  0  0  0
  148.8555  138.6717  153.6141 N   0  0  0  0  0  0  0  0  0  0  0  0
  147.5215  138.7773  153.4875 C   0  0  0  0  0  0  0  0  0  0  0  0
  146.7961  139.4990  154.1720 O   0  0  0  0  0  0  0  0  0  0  0  0
  147.0648  137.9838  152.5076 N   0  0  0  0  0  0  0  0  0  0  0  0
  145.6758  137.9067  152.0667 C   0  0  0  0  0  0  0  0  0  0  0  0
  145.3546  136.5321  151.4615 C   0  0  0  0  0  0  0  0  0  0  0  0
  145.2482  135.5796  152.5084 O   0  0  0  0  0  0  0  0  0  0  0  0
  144.8805  134.2721  152.0934 C   0  0  2  0  0  0  0  0  0  0  0  0
  145.8751  133.7856  151.0176 C   0  0  0  0  0  0  0  0  0  0  0  0
  145.4444  132.4404  150.4151 C   0  0  0  0  0  0  0  0  0  0  0  0
  144.0218  132.5231  149.8447 C   0  0  0  0  0  0  0  0  0  0  0  0
  143.0265  132.9951  150.9149 C   0  0  0  0  0  0  0  0  0  0  0  0
  143.4443  134.3471  151.5273 C   0  0  1  0  0  0  0  0  0  0  0  0
  142.4343  134.7939  152.5965 C   0  0  0  0  0  0  0  0  0  0  0  0
  150.9661  138.9591  154.7119 N   0  0  0  0  0  0  0  0  0  0  0  0
  151.6597  137.7579  154.2899 C   0  0  0  0  0  0  0  0  0  0  0  0
  151.5859  139.8473  155.5188 N   0  0  0  0  0  0  0  0  0  0  0  0
  150.2921  142.7511  156.5615 H   0  0  0  0  0  0  0  0  0  0  0  0
  151.9939  142.4589  156.2198 H   0  0  0  0  0  0  0  0  0  0  0  0
  151.2274  141.6865  157.6068 H   0  0  0  0  0  0  0  0  0  0  0  0
  148.5860  141.2049  155.0199 H   0  0  0  0  0  0  0  0  0  0  0  0
  149.3076  137.9967  153.0153 H   0  0  0  0  0  0  0  0  0  0  0  0
  147.7318  137.4169  152.0053 H   0  0  0  0  0  0  0  0  0  0  0  0
  145.0457  138.0727  152.9407 H   0  0  0  0  0  0  0  0  0  0  0  0
  145.4429  138.7058  151.3608 H   0  0  0  0  0  0  0  0  0  0  0  0
  144.4385  136.5888  150.8729 H   0  0  0  0  0  0  0  0  0  0  0  0
  146.1548  136.2277  150.7857 H   0  0  0  0  0  0  0  0  0  0  0  0
  144.8873  133.5876  152.9443 H   0  0  0  0  0  0  0  0  0  0  0  0
  145.9455  134.5312  150.2241 H   0  0  0  0  0  0  0  0  0  0  0  0
  146.8768  133.6875  151.4348 H   0  0  0  0  0  0  0  0  0  0  0  0
  146.1427  132.1437  149.6320 H   0  0  0  0  0  0  0  0  0  0  0  0
  145.4886  131.6649  151.1808 H   0  0  0  0  0  0  0  0  0  0  0  0
  144.0053  133.2124  148.9993 H   0  0  0  0  0  0  0  0  0  0  0  0
  143.7184  131.5502  149.4571 H   0  0  0  0  0  0  0  0  0  0  0  0
  142.0322  133.0772  150.4744 H   0  0  0  0  0  0  0  0  0  0  0  0
  142.9540  132.2413  151.7000 H   0  0  0  0  0  0  0  0  0  0  0  0
  143.4334  135.0921  150.7299 H   0  0  0  0  0  0  0  0  0  0  0  0
  142.4068  134.0942  153.4325 H   0  0  0  0  0  0  0  0  0  0  0  0
  141.4277  134.8581  152.1824 H   0  0  0  0  0  0  0  0  0  0  0  0
  142.6859  135.7774  152.9942 H   0  0  0  0  0  0  0  0  0  0  0  0
  151.4781  137.5784  153.2299 H   0  0  0  0  0  0  0  0  0  0  0  0
  151.2949  136.9063  154.8643 H   0  0  0  0  0  0  0  0  0  0  0  0
  152.7341  137.8612  154.4481 H   0  0  0  0  0  0  0  0  0  0  0  0
  1  2  1  0  0  0  0
  1 22  1  0  0  0  0
  1 23  1  0  0  0  0
  1 24  1  0  0  0  0
  2 21  2  0  0  0  0
  2  3  1  0  0  0  0
  3  4  2  0  0  0  0
  3 25  1  0  0  0  0
  4  5  1  0  0  0  0
  4 19  1  0  0  0  0
  5  6  1  0  0  0  0
  5 26  1  0  0  0  0
  6  7  2  0  0  0  0
  6  8  1  0  0  0  0
  8  9  1  0  0  0  0
  8 27  1  0  0  0  0
  9 10  1  0  0  0  0
  9 28  1  0  0  0  0
  9 29  1  0  0  0  0
 10 11  1  0  0  0  0
 10 30  1  0  0  0  0
 10 31  1  0  0  0  0
 11 12  1  0  0  0  0
 12 17  1  0  0  0  0
 12 13  1  0  0  0  0
 12 32  1  0  0  0  0
 13 14  1  0  0  0  0
 13 33  1  0  0  0  0
 13 34  1  0  0  0  0
 14 15  1  0  0  0  0
 14 35  1  0  0  0  0
 14 36  1  0  0  0  0
 15 16  1  0  0  0  0
 15 37  1  0  0  0  0
 15 38  1  0  0  0  0
 16 17  1  0  0  0  0
 16 39  1  0  0  0  0
 16 40  1  0  0  0  0
 17 18  1  0  0  0  0
 17 41  1  0  0  0  0
 18 42  1  0  0  0  0
 18 43  1  0  0  0  0
 18 44  1  0  0  0  0
 19 20  1  0  0  0  0
 19 21  1  0  0  0  0
 20 45  1  0  0  0  0
 20 46  1  0  0  0  0
 20 47  1  0  0  0  0
M  END
> <s_m_source_file>
AV-unprocessed.smi

> <i_m_source_file_index>
1945

> <i_lp_mmshare_version>
43012

> <i_f3d_flags>
0

> <s_epik_input>
W0NIM11jMVtjSF1jKG4objEpW0NIM10pW05IXUMoPU8pW05IXVtDSDJdW0NIMl1PW0NAQEhdMltDSDJdW0NIMl1bQ0gyXVtDSDJdW0NASF0yW0NIM10=

> <s_epik_cmdline>
J2VwaWtfcHl0aG9uJywgJy1waCcsICc3LjAnLCAnLXRuJywgJzgnLCAnLW1hJywgJzIwMCcsICctbWV0YWxfYmluZGluZycsICctaW1hZScsICc8aW5maWxlLm1hZT4nLCAnLW9tYWUnLCAnPG91dGZpbGUubWFlPic=

> <r_lp_tautomer_probability>
1

> <r_epik_Ionization_Penalty>
9.47735e-05

> <r_epik_Ionization_Penalty_Charging>
0

> <r_epik_Ionization_Penalty_Neutral>
9.47735e-05

> <r_epik_State_Penalty>
-0

> <r_epik_Charging_Adjusted_Penalty>
0

> <i_epik_Tot_Q>
0

> <i_epik_Tot_abs_Q>
0

> <r_epik_Metal_State_Penalty>
-0

> <b_epik_Metal_Only>
0

> <s_lp_Force_Field>
OPLS_2005

> <r_lp_Energy>
11.707

> <b_lp_Chiralities_Consistent>
1

> <s_lp_Variant>
AV-unprocessed.smi:1945-1

> <Gold.Version>
5.8.1

> <Gold.Id.Protein>
6NUR|6NUR_protein|mol2

> <Gold.PLP.Fitness>
48.6704

> <Gold.PLP.PLP>
-44.8246

> <Gold.PLP.part.hbond>
-3.6932

> <Gold.PLP.part.metal>
0.0000

> <Gold.PLP.part.buried>
-4.7567

> <Gold.PLP.part.nonpolar>
-37.6492

> <Gold.PLP.part.repulsive>
0.3765

> <Gold.PLP.ligand.clash>
0.0000

> <Gold.PLP.ligand.torsion>
0.3198

> <Gold.PLP.Chemscore.Hbond>
1.4629

> <Gold.PLP.Chemscore.CHOScore>
0.0000

> <Gold.PLP.Chemscore.Metal>
0.0000

> <Gold.Chemscore.Hbonds>
donor molecule, donor type, donor heavy atom, donor atom, acceptor molecule, acceptor atom, score
      L1  H     5    26       P1  7948  0.73
      L1  H     8    27       P1  7948  1.00

> <Gold.PLP.Chemscore.Internal.Correction>
0.0967

> <Gold.Rescore>
     Score         DG    S(hbond)    S(metal)    S(lipo)     H(rot)  DE(clash)    DE(int)     intcor
     16.89     -17.65       1.68        0.00      91.86       1.63       0.17       0.60       ----

> <Gold.Chemscore.Fitness>
16.8918

> <Gold.Chemscore.DG>
-17.6524

> <Gold.Chemscore.ZeroCoef>
-5.4800

> <Gold.Chemscore.Hbond>
1.6770

> <Gold.Chemscore.Metal>
0.0000

> <Gold.Chemscore.Lipo>
91.8635

> <Gold.Chemscore.Internal_Hbond>
0.0000

> <Gold.Chemscore.DEClash>
0.1650

> <Gold.Chemscore.DEInternal>
0.5956

> <Gold.Chemscore.Rot>
1.6316

> <Gold.Chemscore.Internal.Correction>
   9.000000E+99

> <Gold.Chemscore.Hbonds>
donor molecule, donor type, donor heavy atom, donor atom, acceptor molecule, acceptor atom, score
      L1  H     5    26       P1  7948  0.67
      L1  H     8    27       P1  7948  0.98

> <Gold.Chemscore.Hbond.Weighted>
-5.6011

> <Gold.Chemscore.Metal.Weighted>
-0.0000

> <Gold.Chemscore.Lipo.Weighted>
-10.7480

> <Gold.Chemscore.Internal_Hbond.Weighted>
0.0000

> <Gold.Chemscore.DEClash.Weighted>
0.1650

> <Gold.Chemscore.DEInternal.Weighted>
0.5956

> <Gold.Chemscore.Rot.Weighted>
4.1768

> <Gold.Chemscore.Internal.Correction.Weighted>
   9.000000E+99

> <Gold.Protein.RotatedTorsions>
[ 6907 6896 6895 6894 ] final   80.06 input  -60.11 | X-H torsion
[ 7974 7965 7964 7962 ] final   -0.19 input  175.53 | X-H torsion
[ 8008 7997 7996 7995 ] final  -11.05 input   59.86 | X-H torsion
[ 10167 10162 10161 10158 ] final -114.85 input  -65.29 | X-H torsion
[ 10718 10713 10712 10709 ] final -174.47 input   66.30 | X-H torsion
[ 10763 10752 10751 10750 ] final  -27.75 input  -60.55 | X-H torsion
[ 11005 11000 10999 10996 ] final  -81.12 input  -57.11 | X-H torsion

> <Gold.Protein.ActiveResidues>
 VAL166  LYS551  ARG553  GLY616  TRP617  ASP618  TYR619  PRO620  LYS621  CYS622 
 ASP623  PHE694  ASN695  SER759  ASP760  ASP761  ALA762  ILE779  LEU786  VAL792 
 PHE793  MET794  SER795  GLU796  ALA797  LYS798  CYS799  TRP800  GLU811  SER814 

> <Gold.Protein.RotatedAtoms>
  152.5221  134.3416  159.9218 H   0  0  0  0  0  0  0  0  0  0  0  0  # atno 6907 bound_to 6896
  151.3366  133.3973  159.2675 H   0  0  0  0  0  0  0  0  0  0  0  0  # atno 6908 bound_to 6896
  150.9837  134.9205  159.7917 H   0  0  0  0  0  0  0  0  0  0  0  0  # atno 6909 bound_to 6896
  146.2429  140.1233  142.8340 H   0  0  0  0  0  0  0  0  0  0  0  0  # atno 7974 bound_to 7965
  154.5499  140.2312  155.8502 H   0  0  0  0  0  0  0  0  0  0  0  0  # atno 8008 bound_to 7997
  156.1937  140.3070  155.9345 H   0  0  0  0  0  0  0  0  0  0  0  0  # atno 8009 bound_to 7997
  155.3091  140.0435  157.3024 H   0  0  0  0  0  0  0  0  0  0  0  0  # atno 8010 bound_to 7997
  140.0965  143.4652  152.1838 H   0  0  0  0  0  0  0  0  0  0  0  0  # atno 10167 bound_to 10162
  156.7856  130.9499  151.3120 H   0  0  0  0  0  0  0  0  0  0  0  0  # atno 10718 bound_to 10713
  153.7371  135.6935  153.4975 H   0  0  0  0  0  0  0  0  0  0  0  0  # atno 10763 bound_to 10752
  153.2095  135.4408  155.0361 H   0  0  0  0  0  0  0  0  0  0  0  0  # atno 10764 bound_to 10752
  154.8233  135.3433  154.6899 H   0  0  0  0  0  0  0  0  0  0  0  0  # atno 10765 bound_to 10752
  141.1667  133.7182  156.8375 H   0  0  0  0  0  0  0  0  0  0  0  0  # atno 11005 bound_to 11000
  145.0388  140.8929  143.5065 LP  0  0  0  0  0  0  0  0  0  0  0  0  # atno 17320 bound_to 7965
  145.1310  139.2632  143.5539 LP  0  0  0  0  0  0  0  0  0  0  0  0  # atno 17321 bound_to 7965
  139.5695  144.7454  151.3930 LP  0  0  0  0  0  0  0  0  0  0  0  0  # atno 17342 bound_to 10162
  140.7001  143.7653  150.7389 LP  0  0  0  0  0  0  0  0  0  0  0  0  # atno 17343 bound_to 10162
  157.6625  130.8979  149.9861 LP  0  0  0  0  0  0  0  0  0  0  0  0  # atno 17370 bound_to 10713
  156.1191  130.3646  149.9918 LP  0  0  0  0  0  0  0  0  0  0  0  0  # atno 17371 bound_to 10713
  140.2007  134.8899  157.3165 LP  0  0  0  0  0  0  0  0  0  0  0  0  # atno 17394 bound_to 11000
  140.2191  134.4045  155.7574 LP  0  0  0  0  0  0  0  0  0  0  0  0  # atno 17395 bound_to 11000

$$$$
