#       Name:                AV-unprocessed.smi:2989
#       Creating user name   scv26
#       Creation time:       Fri Mar 27 16:31:32 2020


#       File generated by GOLD software.
#

@<TRIPOS>MOLECULE
AV-unprocessed.smi:2989
    35    37     1
SMALL
NO_CHARGES


@<TRIPOS>ATOM
      1 ****        -1.6467   2.9133   1.5867 O.3            1 S1                 0.0000
      2 ****        -1.1377   1.6018   1.4540 C.3            1 S1                 0.0000
      3 ****         0.3953   1.6583   1.6053 C.3            1 S1                 0.0000
      4 ****         0.9918   0.3343   1.6411 N.pl3          1 S1                 0.0000
      5 ****         1.0036  -0.3627   2.8123 N.2            1 S1                 0.0000
      6 ****         1.5624  -1.5175   2.6039 N.2            1 S1                 0.0000
      7 ****         1.9236  -1.5843   1.2685 C.ar           1 S1                 0.0000
      8 ****         2.5498  -2.6000   0.5110 C.ar           1 S1                 0.0000
      9 ****         2.8014  -2.4061  -0.8645 C.ar           1 S1                 0.0000
     10 ****         2.4319  -1.2000  -1.4981 C.ar           1 S1                 0.0000
     11 ****         1.8084  -0.1769  -0.7576 C.ar           1 S1                 0.0000
     12 ****         1.5657  -0.3863   0.6113 C.ar           1 S1                 0.0000
     13 ****        -1.5630   0.9493   0.1457 C.ar           1 S1                 0.0000
     14 ****        -2.0335  -0.3816   0.1434 C.ar           1 S1                 0.0000
     15 ****        -2.4008  -1.0028  -1.0660 C.ar           1 S1                 0.0000
     16 ****        -2.2989  -0.2972  -2.2802 C.ar           1 S1                 0.0000
     17 ****        -1.8295   1.0302  -2.2846 C.ar           1 S1                 0.0000
     18 ****        -1.4627   1.6521  -1.0754 C.ar           1 S1                 0.0000
     19 ****        -2.5907   2.8682   1.5910 H              1 S1                 0.0000
     20 ****        -1.5537   1.0258   2.2819 H              1 S1                 0.0000
     21 ****         0.8447   2.2229   0.7874 H              1 S1                 0.0000
     22 ****         0.6656   2.1783   2.5260 H              1 S1                 0.0000
     23 ****         2.8344  -3.5274   0.9856 H              1 S1                 0.0000
     24 ****         3.2790  -3.1875  -1.4369 H              1 S1                 0.0000
     25 ****         2.6260  -1.0615  -2.5515 H              1 S1                 0.0000
     26 ****         1.5179   0.7482  -1.2333 H              1 S1                 0.0000
     27 ****        -2.1043  -0.9346   1.0687 H              1 S1                 0.0000
     28 ****        -2.7576  -2.0221  -1.0622 H              1 S1                 0.0000
     29 ****        -2.5787  -0.7744  -3.2078 H              1 S1                 0.0000
     30 ****        -1.7477   1.5708  -3.2160 H              1 S1                 0.0000
     31 ****        -1.0955   2.6679  -1.0894 H              1 S1                 0.0000
     32 ****        -1.3390   3.4743   0.8182 LP             1 S1                 0.0000
     33 ****        -1.3240   3.3157   2.4434 LP             1 S1                 0.0000
     34 ****         0.6423  -0.0392   3.6868 LP             1 S1                 0.0000
     35 ****         1.7063  -2.2325   3.2880 LP             1 S1                 0.0000
@<TRIPOS>BOND
    1    1    2 1     
    2    1   19 1     
    3    2    3 1     
    4    2   13 1     
    5    2   20 1     
    6    3    4 1     
    7    3   21 1     
    8    3   22 1     
    9    4   12 1     
   10    4    5 1     
   11    5    6 2     
   12    6    7 1     
   13    7   12 ar    
   14    7    8 ar    
   15    8    9 ar    
   16    8   23 1     
   17    9   10 ar    
   18    9   24 1     
   19   10   11 ar    
   20   10   25 1     
   21   11   12 ar    
   22   11   26 1     
   23   13   18 ar    
   24   13   14 ar    
   25   14   15 ar    
   26   14   27 1     
   27   15   16 ar    
   28   15   28 1     
   29   16   17 ar    
   30   16   29 1     
   31   17   18 ar    
   32   17   30 1     
   33   18   31 1     
   34    1   32 1     
   35    1   33 1     
   36    5   34 1     
   37    6   35 1     
@<TRIPOS>SUBSTRUCTURE
      1 S1             1
@<TRIPOS>SET
LONE_PAIRS      STATIC     ATOMS    <user>   **** ""
4 32 33 34 35
DONOR_HYDROGENS      STATIC     ATOMS    <user>   **** ""
1 19
ATOM$BLUE        STATIC     ATOMS    COLORGROUP SYSTEM
4 32 33 34 35
ATOM$RED        STATIC     ATOMS    COLORGROUP SYSTEM
1 19
