AV-unprocessed.smi:1936|AV-procd|sdf|7831|dock1
  -GOLD-   22720 9573D 1   1.00000     0.00000
 Structure written by MMmdl.
 39 40  0  0  0  0  0  0  0  0  2 V2000
  147.3565  134.5336  156.3651 C   0  0  0  0  0  0  0  0  0  0  0  0
  148.2612  135.2094  155.3258 C   0  0  2  0  0  0  0  0  0  0  0  0
  147.9024  136.7030  155.1567 C   0  0  0  0  0  0  0  0  0  0  0  0
  148.9599  137.4806  154.4620 N   0  3  0  0  0  0  0  0  0  0  0  0
  148.6362  138.9211  154.3409 C   0  0  0  0  0  0  0  0  0  0  0  0
  149.7348  139.6480  153.5462 C   0  0  0  0  0  0  0  0  0  0  0  0
  150.9938  139.4505  154.1780 O   0  0  0  0  0  0  0  0  0  0  0  0
  151.3543  138.0753  154.2309 C   0  0  0  0  0  0  0  0  0  0  0  0
  150.3092  137.3007  155.0508 C   0  0  0  0  0  0  0  0  0  0  0  0
  148.1497  134.4867  154.0586 N   0  0  0  0  0  0  0  0  0  0  0  0
  147.0099  134.2007  153.4069 C   0  0  0  0  0  0  0  0  0  0  0  0
  145.8935  134.4704  153.8488 O   0  0  0  0  0  0  0  0  0  0  0  0
  147.1439  133.4794  152.0625 C   0  0  0  0  0  0  0  0  0  0  0  0
  145.8493  133.1658  151.4812 N   0  0  0  0  0  0  0  0  0  0  0  0
  145.3387  131.9300  151.1410 C   0  0  0  0  0  0  0  0  0  0  0  0
  144.0906  132.1335  150.6262 C   0  0  0  0  0  0  0  0  0  0  0  0
  143.9218  133.5446  150.6958 C   0  0  0  0  0  0  0  0  0  0  0  0
  144.9751  134.1594  151.2094 N   0  0  0  0  0  0  0  0  0  0  0  0
  147.4450  135.0202  157.3370 H   0  0  0  0  0  0  0  0  0  0  0  0
  147.6254  133.4850  156.4979 H   0  0  0  0  0  0  0  0  0  0  0  0
  146.3078  134.5737  156.0683 H   0  0  0  0  0  0  0  0  0  0  0  0
  149.2833  135.1247  155.6975 H   0  0  0  0  0  0  0  0  0  0  0  0
  146.9768  136.7645  154.5817 H   0  0  0  0  0  0  0  0  0  0  0  0
  147.6880  137.1610  156.1236 H   0  0  0  0  0  0  0  0  0  0  0  0
  147.6776  139.0449  153.8355 H   0  0  0  0  0  0  0  0  0  0  0  0
  148.5366  139.3601  155.3351 H   0  0  0  0  0  0  0  0  0  0  0  0
  149.7714  139.2904  152.5157 H   0  0  0  0  0  0  0  0  0  0  0  0
  149.5241  140.7167  153.5049 H   0  0  0  0  0  0  0  0  0  0  0  0
  151.4378  137.6678  153.2220 H   0  0  0  0  0  0  0  0  0  0  0  0
  152.3373  137.9851  154.6936 H   0  0  0  0  0  0  0  0  0  0  0  0
  150.3103  137.6531  156.0835 H   0  0  0  0  0  0  0  0  0  0  0  0
  150.5770  136.2447  155.0738 H   0  0  0  0  0  0  0  0  0  0  0  0
  149.0178  134.2209  153.6157 H   0  0  0  0  0  0  0  0  0  0  0  0
  147.7035  134.1065  151.3675 H   0  0  0  0  0  0  0  0  0  0  0  0
  147.7093  132.5541  152.1856 H   0  0  0  0  0  0  0  0  0  0  0  0
  145.9000  131.0191  151.2903 H   0  0  0  0  0  0  0  0  0  0  0  0
  143.4020  131.3883  150.2564 H   0  0  0  0  0  0  0  0  0  0  0  0
  143.0715  134.1369  150.3905 H   0  0  0  0  0  0  0  0  0  0  0  0
  149.0020  137.1210  153.5187 H   0  0  0  0  0  0  0  0  0  0  0  0
  1  2  1  0  0  0  0
  1 19  1  0  0  0  0
  1 20  1  0  0  0  0
  1 21  1  0  0  0  0
  2  3  1  0  0  0  0
  2 10  1  0  0  0  0
  2 22  1  0  0  0  0
  3  4  1  0  0  0  0
  3 23  1  0  0  0  0
  3 24  1  0  0  0  0
  4  9  1  0  0  0  0
  4  5  1  0  0  0  0
  4 39  1  0  0  0  0
  5  6  1  0  0  0  0
  5 25  1  0  0  0  0
  5 26  1  0  0  0  0
  6  7  1  0  0  0  0
  6 27  1  0  0  0  0
  6 28  1  0  0  0  0
  7  8  1  0  0  0  0
  8  9  1  0  0  0  0
  8 29  1  0  0  0  0
  8 30  1  0  0  0  0
  9 31  1  0  0  0  0
  9 32  1  0  0  0  0
 10 11  1  0  0  0  0
 10 33  1  0  0  0  0
 11 12  2  0  0  0  0
 11 13  1  0  0  0  0
 13 14  1  0  0  0  0
 13 34  1  0  0  0  0
 13 35  1  0  0  0  0
 14 18  1  0  0  0  0
 14 15  1  0  0  0  0
 15 16  2  0  0  0  0
 15 36  1  0  0  0  0
 16 17  1  0  0  0  0
 16 37  1  0  0  0  0
 17 18  2  0  0  0  0
 17 38  1  0  0  0  0
M  CHG  1   4   1
M  END
> <s_m_source_file>
AV-unprocessed.smi

> <i_m_source_file_index>
1936

> <i_lp_mmshare_version>
43012

> <i_f3d_flags>
0

> <s_epik_input>
W0NIMl0xW0NIMl1PW0NIMl1bQ0gyXU4xW0NIMl1bQ0BASF0oW0NIM10pW05IXUMoPU8pW0NIMl1uMltjSF1bY0hdW2NIXW4y

> <s_epik_cmdline>
J2VwaWtfcHl0aG9uJywgJy1waCcsICc3LjAnLCAnLXRuJywgJzgnLCAnLW1hJywgJzIwMCcsICctbWV0YWxfYmluZGluZycsICctaW1hZScsICc8aW5maWxlLm1hZT4nLCAnLW9tYWUnLCAnPG91dGZpbGUubWFlPic=

> <r_lp_tautomer_probability>
1

> <r_epik_Ionization_Penalty>
0.748405

> <r_epik_Ionization_Penalty_Charging>
0.748396

> <r_epik_Ionization_Penalty_Neutral>
9.02181e-06

> <r_epik_State_Penalty>
0.775162

> <r_epik_Charging_Adjusted_Penalty>
1.52356

> <i_epik_Tot_Q>
1

> <i_epik_Tot_abs_Q>
1

> <r_epik_Metal_State_Penalty>
0.775167

> <b_epik_Metal_Only>
0

> <s_lp_Force_Field>
OPLS_2005

> <r_lp_Energy>
23.0503

> <b_lp_Chiralities_Consistent>
1

> <s_lp_Variant>
AV-unprocessed.smi:1936-3

> <Gold.Version>
5.8.1

> <Gold.Id.Protein>
6NUR|6NUR_protein|mol2

> <Gold.PLP.Fitness>
41.5252

> <Gold.PLP.PLP>
-27.8705

> <Gold.PLP.part.hbond>
-3.0000

> <Gold.PLP.part.metal>
0.0000

> <Gold.PLP.part.buried>
-1.8923

> <Gold.PLP.part.nonpolar>
-22.0177

> <Gold.PLP.part.repulsive>
0.3324

> <Gold.PLP.ligand.clash>
0.0000

> <Gold.PLP.ligand.torsion>
0.2039

> <Gold.PLP.Chemscore.Hbond>
3.0000

> <Gold.PLP.Chemscore.CHOScore>
1.6687

> <Gold.PLP.Chemscore.Metal>
0.0000

> <Gold.Chemscore.Hbonds>
donor molecule, donor type, donor heavy atom, donor atom, acceptor molecule, acceptor atom, score
      L1  H     4    39       P1  7948  2.00
      P1  H  7989  7998       L1     7  0.60
      L1  C    17    38       P1 10186  1.00

> <Gold.PLP.Chemscore.Internal.Correction>
0.0563

> <Gold.Rescore>
     Score         DG    S(hbond)    S(metal)    S(lipo)     H(rot)  DE(clash)    DE(int)     intcor
     11.85     -14.09       1.74        0.00      66.14       1.93       0.81       1.43       ----

> <Gold.Chemscore.Fitness>
11.8532

> <Gold.Chemscore.DG>
-14.0882

> <Gold.Chemscore.ZeroCoef>
-5.4800

> <Gold.Chemscore.Hbond>
1.7426

> <Gold.Chemscore.Metal>
0.0000

> <Gold.Chemscore.Lipo>
66.1443

> <Gold.Chemscore.Internal_Hbond>
0.0000

> <Gold.Chemscore.DEClash>
0.8089

> <Gold.Chemscore.DEInternal>
1.4261

> <Gold.Chemscore.Rot>
1.9340

> <Gold.Chemscore.Internal.Correction>
   9.000000E+99

> <Gold.Chemscore.Hbonds>
donor molecule, donor type, donor heavy atom, donor atom, acceptor molecule, acceptor atom, score
      L1  H     4    39       P1  7948  1.00
      P1  H  7989  7998       L1     7  0.04

> <Gold.Chemscore.Hbond.Weighted>
-5.8204

> <Gold.Chemscore.Metal.Weighted>
-0.0000

> <Gold.Chemscore.Lipo.Weighted>
-7.7389

> <Gold.Chemscore.Internal_Hbond.Weighted>
0.0000

> <Gold.Chemscore.DEClash.Weighted>
0.8089

> <Gold.Chemscore.DEInternal.Weighted>
1.4261

> <Gold.Chemscore.Rot.Weighted>
4.9510

> <Gold.Chemscore.Internal.Correction.Weighted>
   9.000000E+99

> <Gold.Protein.RotatedTorsions>
[ 6907 6896 6895 6894 ] final -120.72 input  -60.11 | X-H torsion
[ 7974 7965 7964 7962 ] final -120.04 input  175.53 | X-H torsion
[ 8008 7997 7996 7995 ] final    1.23 input   59.86 | X-H torsion
[ 10167 10162 10161 10158 ] final   29.76 input  -65.29 | X-H torsion
[ 10718 10713 10712 10709 ] final  -80.10 input   66.30 | X-H torsion
[ 10763 10752 10751 10750 ] final -117.71 input  -60.55 | X-H torsion
[ 11005 11000 10999 10996 ] final -100.97 input  -57.11 | X-H torsion

> <Gold.Protein.ActiveResidues>
 VAL166  LYS551  ARG553  GLY616  TRP617  ASP618  TYR619  PRO620  LYS621  CYS622 
 ASP623  PHE694  ASN695  SER759  ASP760  ASP761  ALA762  ILE779  LEU786  VAL792 
 PHE793  MET794  SER795  GLU796  ALA797  LYS798  CYS799  TRP800  GLU811  SER814 

> <Gold.Protein.RotatedAtoms>
  150.8418  133.7924  159.3057 H   0  0  0  0  0  0  0  0  0  0  0  0  # atno 6907 bound_to 6896
  151.5623  135.1063  159.9985 H   0  0  0  0  0  0  0  0  0  0  0  0  # atno 6908 bound_to 6896
  152.4480  133.7532  159.6761 H   0  0  0  0  0  0  0  0  0  0  0  0  # atno 6909 bound_to 6896
  145.0558  140.8253  143.4182 H   0  0  0  0  0  0  0  0  0  0  0  0  # atno 7974 bound_to 7965
  154.6773  140.2625  155.6945 H   0  0  0  0  0  0  0  0  0  0  0  0  # atno 8008 bound_to 7997
  156.2683  140.2817  156.1226 H   0  0  0  0  0  0  0  0  0  0  0  0  # atno 8009 bound_to 7997
  155.1082  140.0375  157.2706 H   0  0  0  0  0  0  0  0  0  0  0  0  # atno 8010 bound_to 7997
  140.4738  144.0722  150.6244 H   0  0  0  0  0  0  0  0  0  0  0  0  # atno 10167 bound_to 10162
  156.0077  130.4564  150.3748 H   0  0  0  0  0  0  0  0  0  0  0  0  # atno 10718 bound_to 10713
  154.8564  135.4300  154.2023 H   0  0  0  0  0  0  0  0  0  0  0  0  # atno 10763 bound_to 10752
  153.3067  135.6973  153.7159 H   0  0  0  0  0  0  0  0  0  0  0  0  # atno 10764 bound_to 10752
  153.6267  135.3492  155.3003 H   0  0  0  0  0  0  0  0  0  0  0  0  # atno 10765 bound_to 10752
  141.1250  133.8441  157.1171 H   0  0  0  0  0  0  0  0  0  0  0  0  # atno 11005 bound_to 11000
  145.1470  139.2537  143.5460 LP  0  0  0  0  0  0  0  0  0  0  0  0  # atno 17320 bound_to 7965
  146.3521  140.1163  142.8602 LP  0  0  0  0  0  0  0  0  0  0  0  0  # atno 17321 bound_to 7965
  140.3944  143.2735  152.0022 LP  0  0  0  0  0  0  0  0  0  0  0  0  # atno 17342 bound_to 10162
  139.4822  144.6050  151.7537 LP  0  0  0  0  0  0  0  0  0  0  0  0  # atno 17343 bound_to 10162
  157.1831  131.0397  151.2738 LP  0  0  0  0  0  0  0  0  0  0  0  0  # atno 17370 bound_to 10713
  157.4128  130.7394  149.6852 LP  0  0  0  0  0  0  0  0  0  0  0  0  # atno 17371 bound_to 10713
  140.0240  134.9933  157.0648 LP  0  0  0  0  0  0  0  0  0  0  0  0  # atno 17394 bound_to 11000
  140.4394  134.1697  155.7173 LP  0  0  0  0  0  0  0  0  0  0  0  0  # atno 17395 bound_to 11000

$$$$
