AV-unprocessed.smi:155|AV-procd|sdf|1279|dock5
  -GOLD-   2262018543D 1   1.00000     0.00000
 Structure written by MMmdl.
 64 67  0  0  0  0  0  0  0  0  3 V2000
  146.4379  138.7245  152.0367 C   0  0  0  0  0  0  0  0  0  0  0  0
  146.4313  137.2848  151.6939 N   0  3  0  0  0  0  0  0  0  0  0  0
  145.8412  137.0480  150.3561 C   0  0  0  0  0  0  0  0  0  0  0  0
  145.8120  136.4600  152.7622 C   0  0  0  0  0  0  0  0  0  0  0  0
  146.2440  134.9796  152.6983 C   0  0  0  0  0  0  0  0  0  0  0  0
  147.3604  134.6652  153.6297 N   0  3  2  0  0  0  0  0  0  0  0  0
  148.0819  133.4153  153.2674 C   0  0  0  0  0  0  0  0  0  0  0  0
  149.6027  133.6068  153.4030 C   0  0  0  0  0  0  0  0  0  0  0  0
  150.0946  133.6663  154.8587 C   0  0  0  0  0  0  0  0  0  0  0  0
  149.4159  134.6976  155.6410 N   0  0  0  0  0  0  0  0  0  0  0  0
  149.8008  136.0099  155.5963 C   0  0  0  0  0  0  0  0  0  0  0  0
  150.8296  136.3386  154.7679 N   0  0  0  0  0  0  0  0  0  0  0  0
  151.2654  137.5961  154.6692 C   0  0  0  0  0  0  0  0  0  0  0  0
  150.8251  138.6795  155.3054 N   0  0  0  0  0  0  0  0  0  0  0  0
  149.7931  138.3734  156.1405 C   0  0  0  0  0  0  0  0  0  0  0  0
  149.2224  137.0818  156.3495 C   0  0  0  0  0  0  0  0  0  0  0  0
  148.1971  137.1881  157.2858 N   0  0  0  0  0  0  0  0  0  0  0  0
  148.1563  138.4537  157.5968 C   0  0  0  0  0  0  0  0  0  0  0  0
  149.0812  139.2384  156.9525 N   0  0  0  0  0  0  0  0  0  0  0  0
  149.2534  140.6732  157.0990 C   0  0  0  0  0  0  0  0  0  0  0  0
  150.6474  141.0423  157.6440 C   0  0  2  0  0  0  0  0  0  0  0  0
  150.9648  140.2657  158.7842 O   0  0  0  0  0  0  0  0  0  0  0  0
  150.7917  142.5441  157.9631 C   0  0  2  0  0  0  0  0  0  0  0  0
  152.1763  142.9940  158.4621 C   0  0  0  0  0  0  0  0  0  0  0  0
  151.8870  143.6133  159.8178 C   0  0  0  0  0  0  0  0  0  0  0  0
  150.4232  144.0152  159.6957 C   0  0  0  0  0  0  0  0  0  0  0  0
  149.8577  142.9406  158.9637 O   0  0  0  0  0  0  0  0  0  0  0  0
  148.0585  134.3577  156.0782 C   0  0  0  0  0  0  0  0  0  0  0  0
  146.9535  134.7297  155.0628 C   0  0  0  0  0  0  0  0  0  0  0  0
  145.4213  139.1095  152.1296 H   0  0  0  0  0  0  0  0  0  0  0  0
  146.9531  139.3025  151.2687 H   0  0  0  0  0  0  0  0  0  0  0  0
  146.9570  138.8972  152.9802 H   0  0  0  0  0  0  0  0  0  0  0  0
  144.7787  137.2955  150.3471 H   0  0  0  0  0  0  0  0  0  0  0  0
  145.9542  136.0083  150.0496 H   0  0  0  0  0  0  0  0  0  0  0  0
  146.3381  137.6616  149.6035 H   0  0  0  0  0  0  0  0  0  0  0  0
  146.1218  136.8631  153.7279 H   0  0  0  0  0  0  0  0  0  0  0  0
  144.7271  136.5605  152.7153 H   0  0  0  0  0  0  0  0  0  0  0  0
  145.4046  134.3114  152.8942 H   0  0  0  0  0  0  0  0  0  0  0  0
  146.5745  134.7788  151.6781 H   0  0  0  0  0  0  0  0  0  0  0  0
  147.7277  132.5700  153.8593 H   0  0  0  0  0  0  0  0  0  0  0  0
  147.8823  133.1504  152.2286 H   0  0  0  0  0  0  0  0  0  0  0  0
  150.1079  132.7769  152.9083 H   0  0  0  0  0  0  0  0  0  0  0  0
  149.9072  134.5036  152.8625 H   0  0  0  0  0  0  0  0  0  0  0  0
  149.9054  132.7010  155.3296 H   0  0  0  0  0  0  0  0  0  0  0  0
  151.1757  133.7796  154.9097 H   0  0  0  0  0  0  0  0  0  0  0  0
  152.0821  137.7574  153.9810 H   0  0  0  0  0  0  0  0  0  0  0  0
  147.4443  138.8526  158.3051 H   0  0  0  0  0  0  0  0  0  0  0  0
  149.0948  141.1383  156.1254 H   0  0  0  0  0  0  0  0  0  0  0  0
  148.4693  141.0528  157.7552 H   0  0  0  0  0  0  0  0  0  0  0  0
  151.3896  140.7911  156.8849 H   0  0  0  0  0  0  0  0  0  0  0  0
  151.3065  139.4340  158.4921 H   0  0  0  0  0  0  0  0  0  0  0  0
  150.5523  143.1144  157.0642 H   0  0  0  0  0  0  0  0  0  0  0  0
  152.9028  142.1839  158.5333 H   0  0  0  0  0  0  0  0  0  0  0  0
  152.5884  143.7429  157.7850 H   0  0  0  0  0  0  0  0  0  0  0  0
  151.9982  142.8618  160.6006 H   0  0  0  0  0  0  0  0  0  0  0  0
  152.5420  144.4522  160.0545 H   0  0  0  0  0  0  0  0  0  0  0  0
  149.9371  144.1439  160.6629 H   0  0  0  0  0  0  0  0  0  0  0  0
  150.3184  144.9414  159.1285 H   0  0  0  0  0  0  0  0  0  0  0  0
  148.0199  133.2812  156.2473 H   0  0  0  0  0  0  0  0  0  0  0  0
  147.8438  134.7955  157.0538 H   0  0  0  0  0  0  0  0  0  0  0  0
  146.6383  135.7496  155.2802 H   0  0  0  0  0  0  0  0  0  0  0  0
  146.0807  134.0976  155.2329 H   0  0  0  0  0  0  0  0  0  0  0  0
  147.4015  137.0089  151.6371 H   0  0  0  0  0  0  0  0  0  0  0  0
  148.0391  135.4014  153.4963 H   0  0  0  0  0  0  0  0  0  0  0  0
  1  2  1  0  0  0  0
  1 30  1  0  0  0  0
  1 31  1  0  0  0  0
  1 32  1  0  0  0  0
  2  3  1  0  0  0  0
  2  4  1  0  0  0  0
  2 63  1  0  0  0  0
  3 33  1  0  0  0  0
  3 34  1  0  0  0  0
  3 35  1  0  0  0  0
  4  5  1  0  0  0  0
  4 36  1  0  0  0  0
  4 37  1  0  0  0  0
  5  6  1  0  0  0  0
  5 38  1  0  0  0  0
  5 39  1  0  0  0  0
  6 29  1  0  0  0  0
  6  7  1  0  0  0  0
  6 64  1  0  0  0  0
  7  8  1  0  0  0  0
  7 40  1  0  0  0  0
  7 41  1  0  0  0  0
  8  9  1  0  0  0  0
  8 42  1  0  0  0  0
  8 43  1  0  0  0  0
  9 10  1  0  0  0  0
  9 44  1  0  0  0  0
  9 45  1  0  0  0  0
 10 11  1  0  0  0  0
 10 28  1  0  0  0  0
 11 16  1  0  0  0  0
 11 12  2  0  0  0  0
 12 13  1  0  0  0  0
 13 14  2  0  0  0  0
 13 46  1  0  0  0  0
 14 15  1  0  0  0  0
 15 19  1  0  0  0  0
 15 16  2  0  0  0  0
 16 17  1  0  0  0  0
 17 18  2  0  0  0  0
 18 19  1  0  0  0  0
 18 47  1  0  0  0  0
 19 20  1  0  0  0  0
 20 21  1  0  0  0  0
 20 48  1  0  0  0  0
 20 49  1  0  0  0  0
 21 22  1  0  0  0  0
 21 23  1  0  0  0  0
 21 50  1  0  0  0  0
 22 51  1  0  0  0  0
 23 27  1  0  0  0  0
 23 24  1  0  0  0  0
 23 52  1  0  0  0  0
 24 25  1  0  0  0  0
 24 53  1  0  0  0  0
 24 54  1  0  0  0  0
 25 26  1  0  0  0  0
 25 55  1  0  0  0  0
 25 56  1  0  0  0  0
 26 27  1  0  0  0  0
 26 57  1  0  0  0  0
 26 58  1  0  0  0  0
 28 29  1  0  0  0  0
 28 59  1  0  0  0  0
 28 60  1  0  0  0  0
 29 61  1  0  0  0  0
 29 62  1  0  0  0  0
M  CHG  1   2   1
M  CHG  1   6   1
M  END
> <s_m_source_file>
AV-unprocessed.smi

> <i_m_source_file_index>
155

> <i_lp_mmshare_version>
43012

> <i_f3d_flags>
0

> <s_epik_input>
W0NIM11OKFtDSDNdKVtDSDJdW0NIMl1OMVtDSDJdW0NIMl1bQ0gyXU4oW0NIMl1bQ0gyXTEpYyhuW2NIXW4yKWMoYzIzKW5bY0hdbjNbQ0gyXVtDQEhdKFtPSF0pW0NAQEhdNFtDSDJdW0NIMl1bQ0gyXU80

> <s_epik_cmdline>
J2VwaWtfcHl0aG9uJywgJy1waCcsICc3LjAnLCAnLXRuJywgJzgnLCAnLW1hJywgJzIwMCcsICctbWV0YWxfYmluZGluZycsICctaW1hZScsICc8aW5maWxlLm1hZT4nLCAnLW9tYWUnLCAnPG91dGZpbGUubWFlPic=

> <r_lp_tautomer_probability>
1

> <r_epik_Ionization_Penalty>
3.0333

> <r_epik_Ionization_Penalty_Charging>
3.03317

> <r_epik_Ionization_Penalty_Neutral>
0.000131872

> <r_epik_State_Penalty>
1.99939

> <r_epik_Charging_Adjusted_Penalty>
5.03256

> <i_epik_Tot_Q>
2

> <i_epik_Tot_abs_Q>
2

> <r_epik_Metal_State_Penalty>
2.00021

> <b_epik_Metal_Only>
0

> <s_lp_Force_Field>
OPLS_2005

> <r_lp_Energy>
62.7096

> <b_lp_Chiralities_Consistent>
1

> <s_lp_Variant>
AV-unprocessed.smi:155-13

> <Gold.Version>
5.8.1

> <Gold.Id.Protein>
6NUR|6NUR_protein|mol2

> <Gold.PLP.Fitness>
46.1870

> <Gold.PLP.PLP>
-36.7094

> <Gold.PLP.part.hbond>
-2.3435

> <Gold.PLP.part.metal>
0.0000

> <Gold.PLP.part.buried>
-0.7800

> <Gold.PLP.part.nonpolar>
-32.3420

> <Gold.PLP.part.repulsive>
0.4400

> <Gold.PLP.ligand.clash>
0.0000

> <Gold.PLP.ligand.torsion>
0.6909

> <Gold.PLP.Chemscore.Hbond>
3.4893

> <Gold.PLP.Chemscore.CHOScore>
0.0000

> <Gold.PLP.Chemscore.Metal>
0.0000

> <Gold.Chemscore.Hbonds>
donor molecule, donor type, donor heavy atom, donor atom, acceptor molecule, acceptor atom, score
      L1  H     2    63       P1  7948  2.00
      L1  H     6    64       P1  7948  1.33
      P1  H 10752 10763       L1    12  0.24

> <Gold.PLP.Chemscore.Internal.Correction>
0.3916

> <Gold.Rescore>
     Score         DG    S(hbond)    S(metal)    S(lipo)     H(rot)  DE(clash)    DE(int)     intcor
     12.60     -15.31       1.63        0.00      97.57       2.75       1.43       1.28       ----

> <Gold.Chemscore.Fitness>
12.6013

> <Gold.Chemscore.DG>
-15.3098

> <Gold.Chemscore.ZeroCoef>
-5.4800

> <Gold.Chemscore.Hbond>
1.6325

> <Gold.Chemscore.Metal>
0.0000

> <Gold.Chemscore.Lipo>
97.5699

> <Gold.Chemscore.Internal_Hbond>
0.0000

> <Gold.Chemscore.DEClash>
1.4302

> <Gold.Chemscore.DEInternal>
1.2783

> <Gold.Chemscore.Rot>
2.7493

> <Gold.Chemscore.Internal.Correction>
   9.000000E+99

> <Gold.Chemscore.Hbonds>
donor molecule, donor type, donor heavy atom, donor atom, acceptor molecule, acceptor atom, score
      L1  H     2    63       P1  7948  1.00
      L1  H     6    64       P1  7948  0.63
      P1  H 10752 10763       L1    12  0.01

> <Gold.Chemscore.Hbond.Weighted>
-5.4524

> <Gold.Chemscore.Metal.Weighted>
-0.0000

> <Gold.Chemscore.Lipo.Weighted>
-11.4157

> <Gold.Chemscore.Internal_Hbond.Weighted>
0.0000

> <Gold.Chemscore.DEClash.Weighted>
1.4302

> <Gold.Chemscore.DEInternal.Weighted>
1.2783

> <Gold.Chemscore.Rot.Weighted>
7.0383

> <Gold.Chemscore.Internal.Correction.Weighted>
   9.000000E+99

> <Gold.Protein.RotatedTorsions>
[ 6907 6896 6895 6894 ] final -102.47 input  -60.11 | X-H torsion
[ 7974 7965 7964 7962 ] final -123.27 input  175.53 | X-H torsion
[ 8008 7997 7996 7995 ] final  -89.84 input   59.86 | X-H torsion
[ 10167 10162 10161 10158 ] final  -81.78 input  -65.29 | X-H torsion
[ 10718 10713 10712 10709 ] final   91.64 input   66.30 | X-H torsion
[ 10763 10752 10751 10750 ] final   59.54 input  -60.55 | X-H torsion
[ 11005 11000 10999 10996 ] final  162.08 input  -57.11 | X-H torsion

> <Gold.Protein.ActiveResidues>
 VAL166  LYS551  ARG553  GLY616  TRP617  ASP618  TYR619  PRO620  LYS621  CYS622 
 ASP623  PHE694  ASN695  SER759  ASP760  ASP761  ALA762  ILE779  LEU786  VAL792 
 PHE793  MET794  SER795  GLU796  ALA797  LYS798  CYS799  TRP800  GLU811  SER814 

> <Gold.Protein.RotatedAtoms>
  150.7197  134.0576  159.3819 H   0  0  0  0  0  0  0  0  0  0  0  0  # atno 6907 bound_to 6896
  151.8555  135.0540  160.0473 H   0  0  0  0  0  0  0  0  0  0  0  0  # atno 6908 bound_to 6896
  152.2757  133.5388  159.5503 H   0  0  0  0  0  0  0  0  0  0  0  0  # atno 6909 bound_to 6896
  145.0205  140.7984  143.4383 H   0  0  0  0  0  0  0  0  0  0  0  0  # atno 7974 bound_to 7965
  154.6913  140.0537  157.0366 H   0  0  0  0  0  0  0  0  0  0  0  0  # atno 8008 bound_to 7997
  155.0812  140.3210  155.4582 H   0  0  0  0  0  0  0  0  0  0  0  0  # atno 8009 bound_to 7997
  156.2729  140.2064  156.5940 H   0  0  0  0  0  0  0  0  0  0  0  0  # atno 8010 bound_to 7997
  140.4380  143.2524  151.8665 H   0  0  0  0  0  0  0  0  0  0  0  0  # atno 10167 bound_to 10162
  157.6960  131.0414  150.3760 H   0  0  0  0  0  0  0  0  0  0  0  0  # atno 10718 bound_to 10713
  152.9897  135.5568  154.5729 H   0  0  0  0  0  0  0  0  0  0  0  0  # atno 10763 bound_to 10752
  154.5126  135.2803  155.1332 H   0  0  0  0  0  0  0  0  0  0  0  0  # atno 10764 bound_to 10752
  154.2718  135.6361  153.5366 H   0  0  0  0  0  0  0  0  0  0  0  0  # atno 10765 bound_to 10752
  140.2222  134.8187  157.3232 H   0  0  0  0  0  0  0  0  0  0  0  0  # atno 11005 bound_to 11000
  145.1902  139.2305  143.5247 LP  0  0  0  0  0  0  0  0  0  0  0  0  # atno 17320 bound_to 7965
  146.3484  140.1696  142.8590 LP  0  0  0  0  0  0  0  0  0  0  0  0  # atno 17321 bound_to 7965
  139.4788  144.5260  151.8734 LP  0  0  0  0  0  0  0  0  0  0  0  0  # atno 17342 bound_to 10162
  140.4351  144.2063  150.5889 LP  0  0  0  0  0  0  0  0  0  0  0  0  # atno 17343 bound_to 10162
  156.4180  130.3947  149.6845 LP  0  0  0  0  0  0  0  0  0  0  0  0  # atno 17370 bound_to 10713
  156.4106  130.7720  151.2733 LP  0  0  0  0  0  0  0  0  0  0  0  0  # atno 17371 bound_to 10713
  140.1838  134.4457  155.7756 LP  0  0  0  0  0  0  0  0  0  0  0  0  # atno 17394 bound_to 11000
  141.2222  133.6995  156.7912 LP  0  0  0  0  0  0  0  0  0  0  0  0  # atno 17395 bound_to 11000

$$$$
