AV-unprocessed.smi:3303|AV-procd|sdf|12684|dock9
  -GOLD-   2272019 23D 1   1.00000     0.00000
 Structure written by MMmdl.
 44 45  0  0  0  0  0  0  0  0  2 V2000
  152.8902  138.5879  154.9463 C   0  0  0  0  0  0  0  0  0  0  0  0
  151.4596  138.2885  154.4642 C   0  0  1  0  0  0  0  0  0  0  0  0
  150.8702  137.0282  155.1271 C   0  0  0  0  0  0  0  0  0  0  0  0
  149.5364  136.7021  154.5640 N   0  3  1  0  0  0  0  0  0  0  0  0
  149.0420  135.3735  154.9911 C   0  0  0  0  0  0  0  0  0  0  0  0
  148.5422  137.8022  154.7167 C   0  0  1  0  0  0  0  0  0  0  0  0
  148.0266  137.9756  156.1623 C   0  0  0  0  0  0  0  0  0  0  0  0
  149.0843  139.1140  154.1036 C   0  0  0  0  0  0  0  0  0  0  0  0
  150.5051  139.4994  154.5812 C   0  0  1  0  0  0  0  0  0  0  0  0
  150.5152  140.0455  155.9362 N   0  0  0  0  0  0  0  0  0  0  0  0
  150.0299  141.4173  155.9877 C   0  0  0  0  0  0  0  0  0  0  0  0
  149.6600  141.7734  157.4335 C   0  0  0  0  0  0  0  0  0  0  0  0
  150.8197  142.4082  158.1769 C   0  0  0  0  0  0  0  0  0  0  0  0
  151.3653  143.6362  157.7458 C   0  0  0  0  0  0  0  0  0  0  0  0
  152.4478  144.1785  158.4652 C   0  0  0  0  0  0  0  0  0  0  0  0
  152.9409  143.4752  159.5811 C   0  0  0  0  0  0  0  0  0  0  0  0
  152.3275  142.2551  159.9291 C   0  0  0  0  0  0  0  0  0  0  0  0
  151.2894  141.7261  159.2459 N   0  0  0  0  0  0  0  0  0  0  0  0
  152.9287  138.7555  156.0230 H   0  0  0  0  0  0  0  0  0  0  0  0
  153.2926  139.4742  154.4550 H   0  0  0  0  0  0  0  0  0  0  0  0
  153.5591  137.7567  154.7214 H   0  0  0  0  0  0  0  0  0  0  0  0
  151.5433  138.0673  153.3988 H   0  0  0  0  0  0  0  0  0  0  0  0
  151.5414  136.1862  154.9528 H   0  0  0  0  0  0  0  0  0  0  0  0
  150.8055  137.1520  156.2085 H   0  0  0  0  0  0  0  0  0  0  0  0
  148.9470  135.3116  156.0757 H   0  0  0  0  0  0  0  0  0  0  0  0
  149.7317  134.5919  154.6713 H   0  0  0  0  0  0  0  0  0  0  0  0
  148.0701  135.1591  154.5454 H   0  0  0  0  0  0  0  0  0  0  0  0
  147.6755  137.5205  154.1170 H   0  0  0  0  0  0  0  0  0  0  0  0
  147.3425  138.8220  156.2282 H   0  0  0  0  0  0  0  0  0  0  0  0
  148.8295  138.1515  156.8765 H   0  0  0  0  0  0  0  0  0  0  0  0
  147.4743  137.0987  156.4994 H   0  0  0  0  0  0  0  0  0  0  0  0
  149.1326  138.9767  153.0225 H   0  0  0  0  0  0  0  0  0  0  0  0
  148.3711  139.9247  154.2479 H   0  0  0  0  0  0  0  0  0  0  0  0
  150.8905  140.2780  153.9209 H   0  0  0  0  0  0  0  0  0  0  0  0
  151.4625  140.0318  156.2875 H   0  0  0  0  0  0  0  0  0  0  0  0
  150.8032  142.0952  155.6244 H   0  0  0  0  0  0  0  0  0  0  0  0
  149.1567  141.5408  155.3483 H   0  0  0  0  0  0  0  0  0  0  0  0
  148.8105  142.4576  157.4449 H   0  0  0  0  0  0  0  0  0  0  0  0
  149.3425  140.8796  157.9725 H   0  0  0  0  0  0  0  0  0  0  0  0
  150.9669  144.1512  156.8840 H   0  0  0  0  0  0  0  0  0  0  0  0
  152.8920  145.1163  158.1659 H   0  0  0  0  0  0  0  0  0  0  0  0
  153.7695  143.8608  160.1564 H   0  0  0  0  0  0  0  0  0  0  0  0
  152.6806  141.6888  160.7782 H   0  0  0  0  0  0  0  0  0  0  0  0
  149.6838  136.6204  153.5681 H   0  0  0  0  0  0  0  0  0  0  0  0
  1  2  1  0  0  0  0
  1 19  1  0  0  0  0
  1 20  1  0  0  0  0
  1 21  1  0  0  0  0
  2  9  1  0  0  0  0
  2  3  1  0  0  0  0
  2 22  1  0  0  0  0
  3  4  1  0  0  0  0
  3 23  1  0  0  0  0
  3 24  1  0  0  0  0
  4  5  1  0  0  0  0
  4  6  1  0  0  0  0
  4 44  1  0  0  0  0
  5 25  1  0  0  0  0
  5 26  1  0  0  0  0
  5 27  1  0  0  0  0
  6  7  1  0  0  0  0
  6  8  1  0  0  0  0
  6 28  1  0  0  0  0
  7 29  1  0  0  0  0
  7 30  1  0  0  0  0
  7 31  1  0  0  0  0
  8  9  1  0  0  0  0
  8 32  1  0  0  0  0
  8 33  1  0  0  0  0
  9 10  1  0  0  0  0
  9 34  1  0  0  0  0
 10 11  1  0  0  0  0
 10 35  1  0  0  0  0
 11 12  1  0  0  0  0
 11 36  1  0  0  0  0
 11 37  1  0  0  0  0
 12 13  1  0  0  0  0
 12 38  1  0  0  0  0
 12 39  1  0  0  0  0
 13 18  1  0  0  0  0
 13 14  2  0  0  0  0
 14 15  1  0  0  0  0
 14 40  1  0  0  0  0
 15 16  2  0  0  0  0
 15 41  1  0  0  0  0
 16 17  1  0  0  0  0
 16 42  1  0  0  0  0
 17 18  2  0  0  0  0
 17 43  1  0  0  0  0
M  CHG  1   4   1
M  END
> <s_m_source_file>
AV-unprocessed.smi

> <i_m_source_file_index>
3303

> <i_lp_mmshare_version>
43012

> <i_f3d_flags>
0

> <s_epik_input>
W0NIM11bQ0BASF0xW0NIMl1OKFtDSDNdKVtDQEBIXShbQ0gzXSlbQ0gyXVtDQEhdMVtOSF1bQ0gyXVtDSDJdYzJbY0hdW2NIXVtjSF1bY0hdbjI=

> <s_epik_cmdline>
J2VwaWtfcHl0aG9uJywgJy1waCcsICc3LjAnLCAnLXRuJywgJzgnLCAnLW1hJywgJzIwMCcsICctbWV0YWxfYmluZGluZycsICctaW1hZScsICc8aW5maWxlLm1hZT4nLCAnLW9tYWUnLCAnPG91dGZpbGUubWFlPic=

> <r_epik_Ionization_Penalty>
2.31085

> <r_epik_Ionization_Penalty_Charging>
0.000313057

> <r_epik_Ionization_Penalty_Neutral>
2.31054

> <r_epik_State_Penalty>
2.4087

> <r_epik_Charging_Adjusted_Penalty>
2.40902

> <i_epik_Tot_Q>
1

> <i_epik_Tot_abs_Q>
1

> <r_epik_Metal_State_Penalty>
2.30979

> <b_epik_Metal_Only>
0

> <s_lp_Force_Field>
OPLS_2005

> <r_lp_Energy>
26.6876

> <b_lp_Chiralities_Consistent>
1

> <s_lp_Variant>
AV-unprocessed.smi:3303-28

> <Gold.Version>
5.8.1

> <Gold.Id.Protein>
6NUR|6NUR_protein|mol2

> <Gold.PLP.Fitness>
43.9389

> <Gold.PLP.PLP>
-38.8191

> <Gold.PLP.part.hbond>
-1.0000

> <Gold.PLP.part.metal>
0.0000

> <Gold.PLP.part.buried>
-3.0262

> <Gold.PLP.part.nonpolar>
-35.5835

> <Gold.PLP.part.repulsive>
0.0262

> <Gold.PLP.ligand.clash>
0.0000

> <Gold.PLP.ligand.torsion>
0.4458

> <Gold.PLP.Chemscore.Hbond>
2.0000

> <Gold.PLP.Chemscore.CHOScore>
0.0000

> <Gold.PLP.Chemscore.Metal>
0.0000

> <Gold.Chemscore.Hbonds>
donor molecule, donor type, donor heavy atom, donor atom, acceptor molecule, acceptor atom, score
      L1  H     4    44       P1  7948  1.98

> <Gold.PLP.Chemscore.Internal.Correction>
0.0113

> <Gold.Rescore>
     Score         DG    S(hbond)    S(metal)    S(lipo)     H(rot)  DE(clash)    DE(int)     intcor
     18.54     -18.91       0.99        0.00     115.45       1.33       0.02       0.35       ----

> <Gold.Chemscore.Fitness>
18.5399

> <Gold.Chemscore.DG>
-18.9072

> <Gold.Chemscore.ZeroCoef>
-5.4800

> <Gold.Chemscore.Hbond>
0.9932

> <Gold.Chemscore.Metal>
0.0000

> <Gold.Chemscore.Lipo>
115.4492

> <Gold.Chemscore.Internal_Hbond>
0.0000

> <Gold.Chemscore.DEClash>
0.0183

> <Gold.Chemscore.DEInternal>
0.3489

> <Gold.Chemscore.Rot>
1.3272

> <Gold.Chemscore.Internal.Correction>
   9.000000E+99

> <Gold.Chemscore.Hbonds>
donor molecule, donor type, donor heavy atom, donor atom, acceptor molecule, acceptor atom, score
      L1  H     4    44       P1  7948  0.52

> <Gold.Chemscore.Hbond.Weighted>
-3.3173

> <Gold.Chemscore.Metal.Weighted>
-0.0000

> <Gold.Chemscore.Lipo.Weighted>
-13.5076

> <Gold.Chemscore.Internal_Hbond.Weighted>
0.0000

> <Gold.Chemscore.DEClash.Weighted>
0.0183

> <Gold.Chemscore.DEInternal.Weighted>
0.3489

> <Gold.Chemscore.Rot.Weighted>
3.3976

> <Gold.Chemscore.Internal.Correction.Weighted>
   9.000000E+99

> <Gold.Protein.RotatedTorsions>
[ 6907 6896 6895 6894 ] final  -87.22 input  -60.11 | X-H torsion
[ 7974 7965 7964 7962 ] final  154.53 input  175.53 | X-H torsion
[ 8008 7997 7996 7995 ] final -171.84 input   59.86 | X-H torsion
[ 10167 10162 10161 10158 ] final  176.29 input  -65.29 | X-H torsion
[ 10718 10713 10712 10709 ] final -106.31 input   66.30 | X-H torsion
[ 10763 10752 10751 10750 ] final -113.61 input  -60.55 | X-H torsion
[ 11005 11000 10999 10996 ] final  113.27 input  -57.11 | X-H torsion

> <Gold.Protein.ActiveResidues>
 VAL166  LYS551  ARG553  GLY616  TRP617  ASP618  TYR619  PRO620  LYS621  CYS622 
 ASP623  PHE694  ASN695  SER759  ASP760  ASP761  ALA762  ILE779  LEU786  VAL792 
 PHE793  MET794  SER795  GLU796  ALA797  LYS798  CYS799  TRP800  GLU811  SER814 

> <Gold.Protein.RotatedAtoms>
  150.6866  134.2930  159.4674 H   0  0  0  0  0  0  0  0  0  0  0  0  # atno 6907 bound_to 6896
  152.0833  134.9454  160.0582 H   0  0  0  0  0  0  0  0  0  0  0  0  # atno 6908 bound_to 6896
  152.0798  133.4112  159.4533 H   0  0  0  0  0  0  0  0  0  0  0  0  # atno 6909 bound_to 6896
  144.8082  139.6946  143.6153 H   0  0  0  0  0  0  0  0  0  0  0  0  # atno 7974 bound_to 7965
  155.9369  140.1101  157.1087 H   0  0  0  0  0  0  0  0  0  0  0  0  # atno 8008 bound_to 7997
  154.4081  140.1226  156.4941 H   0  0  0  0  0  0  0  0  0  0  0  0  # atno 8009 bound_to 7997
  155.7011  140.3472  155.4935 H   0  0  0  0  0  0  0  0  0  0  0  0  # atno 8010 bound_to 7997
  139.5209  144.2932  152.0445 H   0  0  0  0  0  0  0  0  0  0  0  0  # atno 10167 bound_to 10162
  156.0384  130.5607  150.7663 H   0  0  0  0  0  0  0  0  0  0  0  0  # atno 10718 bound_to 10713
  154.8404  135.4448  154.1377 H   0  0  0  0  0  0  0  0  0  0  0  0  # atno 10763 bound_to 10752
  153.2570  135.6932  153.7624 H   0  0  0  0  0  0  0  0  0  0  0  0  # atno 10764 bound_to 10752
  153.6915  135.3386  155.3179 H   0  0  0  0  0  0  0  0  0  0  0  0  # atno 10765 bound_to 10752
  139.8948  134.9546  156.6713 H   0  0  0  0  0  0  0  0  0  0  0  0  # atno 11005 bound_to 11000
  146.2377  139.5939  142.9512 LP  0  0  0  0  0  0  0  0  0  0  0  0  # atno 17320 bound_to 7965
  145.5386  141.0422  143.2343 LP  0  0  0  0  0  0  0  0  0  0  0  0  # atno 17321 bound_to 7965
  140.2382  144.4297  150.6271 LP  0  0  0  0  0  0  0  0  0  0  0  0  # atno 17342 bound_to 10162
  140.6308  143.2187  151.6499 LP  0  0  0  0  0  0  0  0  0  0  0  0  # atno 17343 bound_to 10162
  157.5169  131.0929  151.0128 LP  0  0  0  0  0  0  0  0  0  0  0  0  # atno 17370 bound_to 10713
  157.0469  130.5771  149.5364 LP  0  0  0  0  0  0  0  0  0  0  0  0  # atno 17371 bound_to 10713
  140.7371  133.9009  155.8252 LP  0  0  0  0  0  0  0  0  0  0  0  0  # atno 17394 bound_to 11000
  141.0107  134.1024  157.4224 LP  0  0  0  0  0  0  0  0  0  0  0  0  # atno 17395 bound_to 11000

$$$$
