AV-unprocessed.smi:134|AV-procd|sdf|1167|dock3
  -GOLD-   2262018313D 1   1.00000     0.00000
 Structure written by MMmdl.
 51 54  0  0  0  0  0  0  0  0  1 V2000
  147.9196  137.9531  159.7503 O   0  0  0  0  0  0  0  0  0  0  0  0
  148.6305  137.1185  159.1885 C   0  0  0  0  0  0  0  0  0  0  0  0
  149.5567  137.5308  158.0335 C   0  0  0  0  0  0  0  0  0  0  0  0
  149.5434  138.9848  157.7593 N   0  0  0  0  0  0  0  0  0  0  0  0
  148.3314  139.5783  157.3274 C   0  0  0  0  0  0  0  0  0  0  0  0
  147.3148  138.9040  157.1574 O   0  0  0  0  0  0  0  0  0  0  0  0
  148.3771  141.0197  157.1149 C   0  0  0  0  0  0  0  0  0  0  0  0
  147.2694  141.6703  156.7201 F   0  0  0  0  0  0  0  0  0  0  0  0
  149.5161  141.7143  157.3126 C   0  0  0  0  0  0  0  0  0  0  0  0
  150.6983  141.1225  157.7129 N   0  0  0  0  0  0  0  0  0  0  0  0
  151.9086  141.9988  157.9542 C   0  0  2  0  0  0  0  0  0  0  0  0
  152.4280  141.9549  159.3991 C   0  0  0  0  0  0  0  0  0  0  0  0
  152.9073  143.3787  159.5808 C   0  0  0  0  0  0  0  0  0  0  0  0
  151.8869  144.1629  158.7626 C   0  0  0  0  0  0  0  0  0  0  0  0
  151.5842  143.3246  157.6503 O   0  0  0  0  0  0  0  0  0  0  0  0
  150.7260  139.7325  157.9765 C   0  0  0  0  0  0  0  0  0  0  0  0
  151.7465  139.1831  158.3934 O   0  0  0  0  0  0  0  0  0  0  0  0
  148.6612  135.8133  159.5098 N   0  0  0  0  0  0  0  0  0  0  0  0
  147.8909  135.1439  160.4992 C   0  0  0  0  0  0  0  0  0  0  0  0
  147.2805  135.8419  161.5692 C   0  0  0  0  0  0  0  0  0  0  0  0
  146.5415  135.1467  162.5452 C   0  0  0  0  0  0  0  0  0  0  0  0
  146.4126  133.7478  162.4689 C   0  0  0  0  0  0  0  0  0  0  0  0
  147.0295  133.0428  161.4191 C   0  0  0  0  0  0  0  0  0  0  0  0
  147.7706  133.7337  160.4394 C   0  0  0  0  0  0  0  0  0  0  0  0
  148.5220  132.8060  159.1342 S   0  0  0  0  0  0  0  0  0  0  0  0
  148.4220  131.1822  159.8116 C   0  0  0  0  0  0  0  0  0  0  0  0
  149.0767  130.8834  161.0229 C   0  0  0  0  0  0  0  0  0  0  0  0
  148.9848  129.5880  161.5686 C   0  0  0  0  0  0  0  0  0  0  0  0
  148.2408  128.5933  160.9031 C   0  0  0  0  0  0  0  0  0  0  0  0
  148.1261  127.0078  161.5734 Cl  0  0  0  0  0  0  0  0  0  0  0  0
  147.5907  128.8931  159.6897 C   0  0  0  0  0  0  0  0  0  0  0  0
  147.6825  130.1873  159.1424 C   0  0  0  0  0  0  0  0  0  0  0  0
  150.5635  137.1788  158.2630 H   0  0  0  0  0  0  0  0  0  0  0  0
  149.2809  136.9697  157.1388 H   0  0  0  0  0  0  0  0  0  0  0  0
  149.4934  142.7813  157.1452 H   0  0  0  0  0  0  0  0  0  0  0  0
  152.6669  141.6680  157.2435 H   0  0  0  0  0  0  0  0  0  0  0  0
  151.6328  141.7253  160.1068 H   0  0  0  0  0  0  0  0  0  0  0  0
  153.2177  141.2113  159.5078 H   0  0  0  0  0  0  0  0  0  0  0  0
  152.9466  143.6886  160.6254 H   0  0  0  0  0  0  0  0  0  0  0  0
  153.9025  143.4965  159.1501 H   0  0  0  0  0  0  0  0  0  0  0  0
  150.9810  144.3356  159.3443 H   0  0  0  0  0  0  0  0  0  0  0  0
  152.2667  145.1319  158.4383 H   0  0  0  0  0  0  0  0  0  0  0  0
  149.2059  135.2170  158.9036 H   0  0  0  0  0  0  0  0  0  0  0  0
  147.3799  136.9131  161.6622 H   0  0  0  0  0  0  0  0  0  0  0  0
  146.0772  135.6881  163.3562 H   0  0  0  0  0  0  0  0  0  0  0  0
  145.8457  133.2151  163.2182 H   0  0  0  0  0  0  0  0  0  0  0  0
  146.9316  131.9683  161.3661 H   0  0  0  0  0  0  0  0  0  0  0  0
  149.6440  131.6454  161.5371 H   0  0  0  0  0  0  0  0  0  0  0  0
  149.4842  129.3595  162.4985 H   0  0  0  0  0  0  0  0  0  0  0  0
  147.0209  128.1316  159.1780 H   0  0  0  0  0  0  0  0  0  0  0  0
  147.1836  130.4133  158.2120 H   0  0  0  0  0  0  0  0  0  0  0  0
  1  2  2  0  0  0  0
  2  3  1  0  0  0  0
  2 18  1  0  0  0  0
  3  4  1  0  0  0  0
  3 33  1  0  0  0  0
  3 34  1  0  0  0  0
  4 16  1  0  0  0  0
  4  5  1  0  0  0  0
  5  6  2  0  0  0  0
  5  7  1  0  0  0  0
  7  8  1  0  0  0  0
  7  9  2  0  0  0  0
  9 10  1  0  0  0  0
  9 35  1  0  0  0  0
 10 11  1  0  0  0  0
 10 16  1  0  0  0  0
 11 15  1  0  0  0  0
 11 12  1  0  0  0  0
 11 36  1  0  0  0  0
 12 13  1  0  0  0  0
 12 37  1  0  0  0  0
 12 38  1  0  0  0  0
 13 14  1  0  0  0  0
 13 39  1  0  0  0  0
 13 40  1  0  0  0  0
 14 15  1  0  0  0  0
 14 41  1  0  0  0  0
 14 42  1  0  0  0  0
 16 17  2  0  0  0  0
 18 19  1  0  0  0  0
 18 43  1  0  0  0  0
 19 24  1  0  0  0  0
 19 20  2  0  0  0  0
 20 21  1  0  0  0  0
 20 44  1  0  0  0  0
 21 22  2  0  0  0  0
 21 45  1  0  0  0  0
 22 23  1  0  0  0  0
 22 46  1  0  0  0  0
 23 24  2  0  0  0  0
 23 47  1  0  0  0  0
 24 25  1  0  0  0  0
 25 26  1  0  0  0  0
 26 32  1  0  0  0  0
 26 27  2  0  0  0  0
 27 28  1  0  0  0  0
 27 48  1  0  0  0  0
 28 29  2  0  0  0  0
 28 49  1  0  0  0  0
 29 30  1  0  0  0  0
 29 31  1  0  0  0  0
 31 32  2  0  0  0  0
 31 50  1  0  0  0  0
 32 51  1  0  0  0  0
M  END
> <s_m_source_file>
AV-unprocessed.smi

> <i_m_source_file_index>
134

> <i_lp_mmshare_version>
43012

> <i_f3d_flags>
0

> <s_epik_input>
TzFbQ0gyXVtDSDJdW0NIMl1bQ0BIXTFuKGMyPU8pW2NIXWMoRiljKD1PKW4yW0NIMl1DKD1PKVtOSF1jM1tjSF1bY0hdW2NIXVtjSF1jM1NjNFtjSF1bY0hdYyhDbClbY0hdW2NIXTQ=

> <s_epik_cmdline>
J2VwaWtfcHl0aG9uJywgJy1waCcsICc3LjAnLCAnLXRuJywgJzgnLCAnLW1hJywgJzIwMCcsICctbWV0YWxfYmluZGluZycsICctaW1hZScsICc8aW5maWxlLm1hZT4nLCAnLW9tYWUnLCAnPG91dGZpbGUubWFlPic=

> <r_lp_tautomer_probability>
1

> <r_epik_Ionization_Penalty>
2.01717e-06

> <r_epik_Ionization_Penalty_Charging>
3.88729e-08

> <r_epik_Ionization_Penalty_Neutral>
1.9783e-06

> <r_epik_State_Penalty>
-0

> <r_epik_Charging_Adjusted_Penalty>
3.88729e-08

> <i_epik_Tot_Q>
0

> <i_epik_Tot_abs_Q>
0

> <r_epik_Metal_State_Penalty>
-0

> <b_epik_Metal_Only>
0

> <s_epik_Chemistry_Notes>
This compound contains an acetal/aminal-like group ( X-CH(R)-Y where X, Y are N, S, or O) that may be acid/base labile, releasing an aldehyde.

> <s_lp_Force_Field>
OPLS_2005

> <r_lp_Energy>
29.8469

> <b_lp_Chiralities_Consistent>
1

> <s_lp_Variant>
AV-unprocessed.smi:134-1

> <Gold.Version>
5.8.1

> <Gold.Id.Protein>
6NUR|6NUR_protein|mol2

> <Gold.PLP.Fitness>
48.4232

> <Gold.PLP.PLP>
-44.5339

> <Gold.PLP.part.hbond>
-1.6608

> <Gold.PLP.part.metal>
0.0000

> <Gold.PLP.part.buried>
-4.7759

> <Gold.PLP.part.nonpolar>
-37.9960

> <Gold.PLP.part.repulsive>
0.2486

> <Gold.PLP.ligand.clash>
0.0000

> <Gold.PLP.ligand.torsion>
0.3149

> <Gold.PLP.Chemscore.Hbond>
0.5050

> <Gold.PLP.Chemscore.CHOScore>
0.9916

> <Gold.PLP.Chemscore.Metal>
0.0000

> <Gold.Chemscore.Hbonds>
donor molecule, donor type, donor heavy atom, donor atom, acceptor molecule, acceptor atom, score
      P1  H  6931  6943       L1     1  0.01
      P1  H  6934  6947       L1     1  0.46
      L1  C     9    35       P1  8028  1.00

> <Gold.PLP.Chemscore.Internal.Correction>
0.0292

> <Gold.Rescore>
     Score         DG    S(hbond)    S(metal)    S(lipo)     H(rot)  DE(clash)    DE(int)     intcor
     12.33     -16.09       0.58        0.00     116.93       1.95       0.05       3.72       ----

> <Gold.Chemscore.Fitness>
12.3320

> <Gold.Chemscore.DG>
-16.0932

> <Gold.Chemscore.ZeroCoef>
-5.4800

> <Gold.Chemscore.Hbond>
0.5798

> <Gold.Chemscore.Metal>
0.0000

> <Gold.Chemscore.Lipo>
116.9342

> <Gold.Chemscore.Internal_Hbond>
0.0000

> <Gold.Chemscore.DEClash>
0.0460

> <Gold.Chemscore.DEInternal>
3.7151

> <Gold.Chemscore.Rot>
1.9549

> <Gold.Chemscore.Internal.Correction>
   9.000000E+99

> <Gold.Chemscore.Hbonds>
donor molecule, donor type, donor heavy atom, donor atom, acceptor molecule, acceptor atom, score
      P1  H  6931  6943       L1     1  0.01
      P1  H  6934  6947       L1     1  0.46

> <Gold.Chemscore.Hbond.Weighted>
-1.9365

> <Gold.Chemscore.Metal.Weighted>
-0.0000

> <Gold.Chemscore.Lipo.Weighted>
-13.6813

> <Gold.Chemscore.Internal_Hbond.Weighted>
0.0000

> <Gold.Chemscore.DEClash.Weighted>
0.0460

> <Gold.Chemscore.DEInternal.Weighted>
3.7151

> <Gold.Chemscore.Rot.Weighted>
5.0046

> <Gold.Chemscore.Internal.Correction.Weighted>
   9.000000E+99

> <Gold.Protein.RotatedTorsions>
[ 6907 6896 6895 6894 ] final  -33.77 input  -60.11 | X-H torsion
[ 7974 7965 7964 7962 ] final  159.10 input  175.53 | X-H torsion
[ 8008 7997 7996 7995 ] final  -73.31 input   59.86 | X-H torsion
[ 10167 10162 10161 10158 ] final  -24.53 input  -65.29 | X-H torsion
[ 10718 10713 10712 10709 ] final   -5.97 input   66.30 | X-H torsion
[ 10763 10752 10751 10750 ] final  -35.11 input  -60.55 | X-H torsion
[ 11005 11000 10999 10996 ] final   89.59 input  -57.11 | X-H torsion

> <Gold.Protein.ActiveResidues>
 VAL166  LYS551  ARG553  GLY616  TRP617  ASP618  TYR619  PRO620  LYS621  CYS622 
 ASP623  PHE694  ASN695  SER759  ASP760  ASP761  ALA762  ILE779  LEU786  VAL792 
 PHE793  MET794  SER795  GLU796  ALA797  LYS798  CYS799  TRP800  GLU811  SER814 

> <Gold.Protein.RotatedAtoms>
  151.0613  134.9738  159.8261 H   0  0  0  0  0  0  0  0  0  0  0  0  # atno 6907 bound_to 6896
  152.5396  134.2414  159.8873 H   0  0  0  0  0  0  0  0  0  0  0  0  # atno 6908 bound_to 6896
  151.2434  133.4344  159.2642 H   0  0  0  0  0  0  0  0  0  0  0  0  # atno 6909 bound_to 6896
  144.7809  139.7570  143.6260 H   0  0  0  0  0  0  0  0  0  0  0  0  # atno 7974 bound_to 7965
  154.5236  140.0781  156.8218 H   0  0  0  0  0  0  0  0  0  0  0  0  # atno 8008 bound_to 7997
  155.3522  140.3413  155.4221 H   0  0  0  0  0  0  0  0  0  0  0  0  # atno 8009 bound_to 7997
  156.1708  140.1619  156.8437 H   0  0  0  0  0  0  0  0  0  0  0  0  # atno 8010 bound_to 7997
  140.7288  143.4345  151.0750 H   0  0  0  0  0  0  0  0  0  0  0  0  # atno 10167 bound_to 10162
  156.7387  130.5203  149.5829 H   0  0  0  0  0  0  0  0  0  0  0  0  # atno 10718 bound_to 10713
  153.8578  135.6843  153.4786 H   0  0  0  0  0  0  0  0  0  0  0  0  # atno 10763 bound_to 10752
  153.1360  135.4678  154.9420 H   0  0  0  0  0  0  0  0  0  0  0  0  # atno 10764 bound_to 10752
  154.7773  135.3257  154.8014 H   0  0  0  0  0  0  0  0  0  0  0  0  # atno 10765 bound_to 10752
  139.8872  134.8561  156.3163 H   0  0  0  0  0  0  0  0  0  0  0  0  # atno 11005 bound_to 11000
  146.2016  139.5315  142.9739 LP  0  0  0  0  0  0  0  0  0  0  0  0  # atno 17320 bound_to 7965
  145.6053  141.0348  143.1996 LP  0  0  0  0  0  0  0  0  0  0  0  0  # atno 17321 bound_to 7965
  139.8006  143.8089  152.3162 LP  0  0  0  0  0  0  0  0  0  0  0  0  # atno 17342 bound_to 10162
  139.8105  144.7338  150.9704 LP  0  0  0  0  0  0  0  0  0  0  0  0  # atno 17343 bound_to 10162
  156.1479  130.6290  151.0556 LP  0  0  0  0  0  0  0  0  0  0  0  0  # atno 17370 bound_to 10713
  157.6828  131.0833  150.7325 LP  0  0  0  0  0  0  0  0  0  0  0  0  # atno 17371 bound_to 10713
  140.9816  133.7263  156.0681 LP  0  0  0  0  0  0  0  0  0  0  0  0  # atno 17394 bound_to 11000
  140.7741  134.3799  157.5501 LP  0  0  0  0  0  0  0  0  0  0  0  0  # atno 17395 bound_to 11000

$$$$
