AV-unprocessed.smi:495|AV-procd|sdf|2715|dock2
  -GOLD-   2262023163D 1   1.00000     0.00000
 Structure written by MMmdl.
 34 36  0  0  0  0  0  0  0  0  1 V2000
  148.3012  138.6019  152.7212 N   0  0  0  0  0  0  0  0  0  0  0  0
  148.9020  139.3314  153.7457 C   0  0  0  0  0  0  0  0  0  0  0  0
  150.0364  138.8186  154.4065 C   0  0  0  0  0  0  0  0  0  0  0  0
  150.6437  139.5565  155.4415 C   0  0  0  0  0  0  0  0  0  0  0  0
  150.1214  140.8119  155.8158 C   0  0  0  0  0  0  0  0  0  0  0  0
  150.7520  141.5713  156.8861 C   0  0  0  0  0  0  0  0  0  0  0  0
  150.8512  142.9007  156.8179 N   0  0  0  0  0  0  0  0  0  0  0  0
  151.4883  143.2308  157.9973 C   0  0  0  0  0  0  0  0  0  0  0  0
  151.8806  144.4880  158.5104 C   0  0  0  0  0  0  0  0  0  0  0  0
  152.5232  144.5784  159.7626 C   0  0  0  0  0  0  0  0  0  0  0  0
  152.7799  143.4162  160.5185 C   0  0  0  0  0  0  0  0  0  0  0  0
  152.3968  142.1543  160.0250 C   0  0  0  0  0  0  0  0  0  0  0  0
  151.7594  142.0700  158.7725 C   0  0  0  0  0  0  0  0  0  0  0  0
  151.2648  141.0149  158.0132 N   0  0  0  0  0  0  0  0  0  0  0  0
  151.2831  139.6075  158.3807 C   0  0  0  0  0  0  0  0  0  0  0  0
  152.7124  139.1133  158.6411 C   0  0  0  0  0  0  0  0  0  0  0  0
  153.3866  138.9378  157.4146 O   0  0  0  0  0  0  0  0  0  0  0  0
  148.9821  141.3208  155.1578 C   0  0  0  0  0  0  0  0  0  0  0  0
  148.3749  140.5828  154.1234 C   0  0  0  0  0  0  0  0  0  0  0  0
  147.4871  138.9499  152.2351 H   0  0  0  0  0  0  0  0  0  0  0  0
  148.7311  137.7669  152.3496 H   0  0  0  0  0  0  0  0  0  0  0  0
  150.4450  137.8594  154.1237 H   0  0  0  0  0  0  0  0  0  0  0  0
  151.5132  139.1593  155.9445 H   0  0  0  0  0  0  0  0  0  0  0  0
  151.6863  145.3840  157.9398 H   0  0  0  0  0  0  0  0  0  0  0  0
  152.8190  145.5441  160.1456 H   0  0  0  0  0  0  0  0  0  0  0  0
  153.2710  143.4941  161.4775 H   0  0  0  0  0  0  0  0  0  0  0  0
  152.5909  141.2628  160.6026 H   0  0  0  0  0  0  0  0  0  0  0  0
  150.6577  139.4567  159.2606 H   0  0  0  0  0  0  0  0  0  0  0  0
  150.8242  139.0304  157.5774 H   0  0  0  0  0  0  0  0  0  0  0  0
  153.2633  139.8307  159.2505 H   0  0  0  0  0  0  0  0  0  0  0  0
  152.7034  138.1649  159.1792 H   0  0  0  0  0  0  0  0  0  0  0  0
  152.9838  138.2198  156.9504 H   0  0  0  0  0  0  0  0  0  0  0  0
  148.5732  142.2788  155.4443 H   0  0  0  0  0  0  0  0  0  0  0  0
  147.5041  140.9815  153.6235 H   0  0  0  0  0  0  0  0  0  0  0  0
  1  2  1  0  0  0  0
  1 20  1  0  0  0  0
  1 21  1  0  0  0  0
  2 19  1  0  0  0  0
  2  3  2  0  0  0  0
  3  4  1  0  0  0  0
  3 22  1  0  0  0  0
  4  5  2  0  0  0  0
  4 23  1  0  0  0  0
  5  6  1  0  0  0  0
  5 18  1  0  0  0  0
  6 14  1  0  0  0  0
  6  7  2  0  0  0  0
  7  8  1  0  0  0  0
  8 13  2  0  0  0  0
  8  9  1  0  0  0  0
  9 10  2  0  0  0  0
  9 24  1  0  0  0  0
 10 11  1  0  0  0  0
 10 25  1  0  0  0  0
 11 12  2  0  0  0  0
 11 26  1  0  0  0  0
 12 13  1  0  0  0  0
 12 27  1  0  0  0  0
 13 14  1  0  0  0  0
 14 15  1  0  0  0  0
 15 16  1  0  0  0  0
 15 28  1  0  0  0  0
 15 29  1  0  0  0  0
 16 17  1  0  0  0  0
 16 30  1  0  0  0  0
 16 31  1  0  0  0  0
 17 32  1  0  0  0  0
 18 19  2  0  0  0  0
 18 33  1  0  0  0  0
 19 34  1  0  0  0  0
M  END
> <s_m_source_file>
AV-unprocessed.smi

> <i_m_source_file_index>
495

> <i_lp_mmshare_version>
43012

> <i_f3d_flags>
0

> <s_epik_input>
W05IMl1jMVtjSF1bY0hdYyhbY0hdW2NIXTEpLWMobjIpbihbQ0gyXVtDSDJdW09IXSljKGMyMylbY0hdW2NIXVtjSF1bY0hdMw==

> <s_epik_cmdline>
J2VwaWtfcHl0aG9uJywgJy1waCcsICc3LjAnLCAnLXRuJywgJzgnLCAnLW1hJywgJzIwMCcsICctbWV0YWxfYmluZGluZycsICctaW1hZScsICc8aW5maWxlLm1hZT4nLCAnLW9tYWUnLCAnPG91dGZpbGUubWFlPic=

> <r_epik_Ionization_Penalty>
0.535683

> <r_epik_Ionization_Penalty_Charging>
0

> <r_epik_Ionization_Penalty_Neutral>
0.535683

> <r_epik_State_Penalty>
0.781633

> <r_epik_Charging_Adjusted_Penalty>
0.781633

> <i_epik_Tot_Q>
0

> <i_epik_Tot_abs_Q>
0

> <r_epik_Metal_State_Penalty>
0.00162026

> <b_epik_Metal_Only>
0

> <s_lp_Force_Field>
OPLS_2005

> <r_lp_Energy>
18.7339

> <b_lp_Chiralities_Consistent>
1

> <s_lp_Variant>
AV-unprocessed.smi:495-2

> <Gold.Version>
5.8.1

> <Gold.Id.Protein>
6NUR|6NUR_protein|mol2

> <Gold.PLP.Fitness>
47.8900

> <Gold.PLP.PLP>
-42.1058

> <Gold.PLP.part.hbond>
-2.4251

> <Gold.PLP.part.metal>
0.0000

> <Gold.PLP.part.buried>
-2.4620

> <Gold.PLP.part.nonpolar>
-38.6405

> <Gold.PLP.part.repulsive>
1.8945

> <Gold.PLP.ligand.clash>
0.0000

> <Gold.PLP.ligand.torsion>
0.6374

> <Gold.PLP.Chemscore.Hbond>
2.0000

> <Gold.PLP.Chemscore.CHOScore>
0.0000

> <Gold.PLP.Chemscore.Metal>
0.0000

> <Gold.Chemscore.Hbonds>
donor molecule, donor type, donor heavy atom, donor atom, acceptor molecule, acceptor atom, score
      L1  H     1    21       P1  7948  1.00
      P1  H  7997  8008       L1    17  1.00

> <Gold.PLP.Chemscore.Internal.Correction>
1.0590

> <Gold.Rescore>
     Score         DG    S(hbond)    S(metal)    S(lipo)     H(rot)  DE(clash)    DE(int)     intcor
     19.65     -20.79       1.97        0.00     113.01       1.76       0.22       0.92       ----

> <Gold.Chemscore.Fitness>
19.6467

> <Gold.Chemscore.DG>
-20.7937

> <Gold.Chemscore.ZeroCoef>
-5.4800

> <Gold.Chemscore.Hbond>
1.9739

> <Gold.Chemscore.Metal>
0.0000

> <Gold.Chemscore.Lipo>
113.0114

> <Gold.Chemscore.Internal_Hbond>
0.0000

> <Gold.Chemscore.DEClash>
0.2228

> <Gold.Chemscore.DEInternal>
0.9242

> <Gold.Chemscore.Rot>
1.7584

> <Gold.Chemscore.Internal.Correction>
   9.000000E+99

> <Gold.Chemscore.Hbonds>
donor molecule, donor type, donor heavy atom, donor atom, acceptor molecule, acceptor atom, score
      L1  H     1    21       P1  7948  0.98
      P1  H  7997  8008       L1    17  0.95

> <Gold.Chemscore.Hbond.Weighted>
-6.5928

> <Gold.Chemscore.Metal.Weighted>
-0.0000

> <Gold.Chemscore.Lipo.Weighted>
-13.2223

> <Gold.Chemscore.Internal_Hbond.Weighted>
0.0000

> <Gold.Chemscore.DEClash.Weighted>
0.2228

> <Gold.Chemscore.DEInternal.Weighted>
0.9242

> <Gold.Chemscore.Rot.Weighted>
4.5015

> <Gold.Chemscore.Internal.Correction.Weighted>
   9.000000E+99

> <Gold.Protein.RotatedTorsions>
[ 6907 6896 6895 6894 ] final   81.26 input  -60.11 | X-H torsion
[ 7974 7965 7964 7962 ] final -121.88 input  175.53 | X-H torsion
[ 8008 7997 7996 7995 ] final  -87.55 input   59.86 | X-H torsion
[ 10167 10162 10161 10158 ] final  130.81 input  -65.29 | X-H torsion
[ 10718 10713 10712 10709 ] final   50.80 input   66.30 | X-H torsion
[ 10763 10752 10751 10750 ] final -114.60 input  -60.55 | X-H torsion
[ 11005 11000 10999 10996 ] final  124.23 input  -57.11 | X-H torsion

> <Gold.Protein.ActiveResidues>
 VAL166  LYS551  ARG553  GLY616  TRP617  ASP618  TYR619  PRO620  LYS621  CYS622 
 ASP623  PHE694  ASN695  SER759  ASP760  ASP761  ALA762  ILE779  LEU786  VAL792 
 PHE793  MET794  SER795  GLU796  ALA797  LYS798  CYS799  TRP800  GLU811  SER814 

> <Gold.Protein.RotatedAtoms>
  152.5262  134.3231  159.9155 H   0  0  0  0  0  0  0  0  0  0  0  0  # atno 6907 bound_to 6896
  151.3180  133.4045  159.2660 H   0  0  0  0  0  0  0  0  0  0  0  0  # atno 6908 bound_to 6896
  150.9983  134.9318  159.7996 H   0  0  0  0  0  0  0  0  0  0  0  0  # atno 6909 bound_to 6896
  145.0355  140.8103  143.4297 H   0  0  0  0  0  0  0  0  0  0  0  0  # atno 7974 bound_to 7965
  154.6646  140.0564  157.0099 H   0  0  0  0  0  0  0  0  0  0  0  0  # atno 8008 bound_to 7997
  155.1178  140.3244  155.4486 H   0  0  0  0  0  0  0  0  0  0  0  0  # atno 8009 bound_to 7997
  156.2632  140.2003  156.6301 H   0  0  0  0  0  0  0  0  0  0  0  0  # atno 8010 bound_to 7997
  139.5413  144.6733  151.4616 H   0  0  0  0  0  0  0  0  0  0  0  0  # atno 10167 bound_to 10162
  157.4919  130.8382  149.8213 H   0  0  0  0  0  0  0  0  0  0  0  0  # atno 10718 bound_to 10713
  154.8447  135.4412  154.1532 H   0  0  0  0  0  0  0  0  0  0  0  0  # atno 10763 bound_to 10752
  153.2687  135.6943  153.7509 H   0  0  0  0  0  0  0  0  0  0  0  0  # atno 10764 bound_to 10752
  153.6757  135.3411  155.3140 H   0  0  0  0  0  0  0  0  0  0  0  0  # atno 10765 bound_to 10752
  139.9349  134.9640  156.8378 H   0  0  0  0  0  0  0  0  0  0  0  0  # atno 11005 bound_to 11000
  145.1714  139.2402  143.5340 LP  0  0  0  0  0  0  0  0  0  0  0  0  # atno 17320 bound_to 7965
  146.3503  140.1466  142.8593 LP  0  0  0  0  0  0  0  0  0  0  0  0  # atno 17321 bound_to 7965
  140.6644  143.8430  150.6924 LP  0  0  0  0  0  0  0  0  0  0  0  0  # atno 17342 bound_to 10162
  140.1835  143.4095  152.1916 LP  0  0  0  0  0  0  0  0  0  0  0  0  # atno 17343 bound_to 10162
  156.0178  130.3807  150.2054 LP  0  0  0  0  0  0  0  0  0  0  0  0  # atno 17370 bound_to 10713
  157.0243  130.9988  151.3330 LP  0  0  0  0  0  0  0  0  0  0  0  0  # atno 17371 bound_to 10713
  140.6102  134.0089  155.7574 LP  0  0  0  0  0  0  0  0  0  0  0  0  # atno 17394 bound_to 11000
  141.0957  133.9846  157.3163 LP  0  0  0  0  0  0  0  0  0  0  0  0  # atno 17395 bound_to 11000

$$$$
