AV-unprocessed.smi:3303|AV-procd|sdf|12667|dock5
  -GOLD-   2272019 03D 1   1.00000     0.00000
 Structure written by MMmdl.
 45 46  0  0  0  0  0  0  0  0  3 V2000
  146.5568  142.7996  153.6574 C   0  0  0  0  0  0  0  0  0  0  0  0
  147.6394  141.7174  153.8553 C   0  0  2  0  0  0  0  0  0  0  0  0
  147.4584  140.5617  152.8490 C   0  0  0  0  0  0  0  0  0  0  0  0
  146.2661  139.7366  153.1758 N   0  3  1  0  0  0  0  0  0  0  0  0
  145.9372  138.7582  152.1141 C   0  0  0  0  0  0  0  0  0  0  0  0
  146.2961  139.1612  154.5523 C   0  0  1  0  0  0  0  0  0  0  0  0
  147.3204  138.0180  154.7215 C   0  0  0  0  0  0  0  0  0  0  0  0
  146.4896  140.2788  155.6010 C   0  0  0  0  0  0  0  0  0  0  0  0
  147.7223  141.1574  155.2949 C   0  0  2  0  0  0  0  0  0  0  0  0
  147.9013  142.2476  156.2829 N   0  3  0  0  0  0  0  0  0  0  0  0
  148.3375  141.8201  157.6288 C   0  0  0  0  0  0  0  0  0  0  0  0
  149.8440  141.5268  157.6480 C   0  0  0  0  0  0  0  0  0  0  0  0
  150.6308  142.6087  158.3631 C   0  0  0  0  0  0  0  0  0  0  0  0
  151.6905  143.2787  157.7154 C   0  0  0  0  0  0  0  0  0  0  0  0
  152.3879  144.2746  158.4266 C   0  0  0  0  0  0  0  0  0  0  0  0
  152.0022  144.5583  159.7508 C   0  0  0  0  0  0  0  0  0  0  0  0
  150.9312  143.8315  160.3076 C   0  0  0  0  0  0  0  0  0  0  0  0
  150.2555  142.8749  159.6344 N   0  0  0  0  0  0  0  0  0  0  0  0
  145.5540  142.4173  153.8461 H   0  0  0  0  0  0  0  0  0  0  0  0
  146.5715  143.1789  152.6352 H   0  0  0  0  0  0  0  0  0  0  0  0
  146.7150  143.6546  154.3144 H   0  0  0  0  0  0  0  0  0  0  0  0
  148.5959  142.1924  153.6318 H   0  0  0  0  0  0  0  0  0  0  0  0
  147.3556  140.9670  151.8412 H   0  0  0  0  0  0  0  0  0  0  0  0
  148.3490  139.9324  152.8318 H   0  0  0  0  0  0  0  0  0  0  0  0
  146.7582  138.0613  151.9420 H   0  0  0  0  0  0  0  0  0  0  0  0
  145.7348  139.2737  151.1747 H   0  0  0  0  0  0  0  0  0  0  0  0
  145.0460  138.1866  152.3752 H   0  0  0  0  0  0  0  0  0  0  0  0
  145.3111  138.7278  154.7326 H   0  0  0  0  0  0  0  0  0  0  0  0
  147.3079  137.6393  155.7438 H   0  0  0  0  0  0  0  0  0  0  0  0
  148.3403  138.3350  154.5068 H   0  0  0  0  0  0  0  0  0  0  0  0
  147.0927  137.1719  154.0733 H   0  0  0  0  0  0  0  0  0  0  0  0
  145.5945  140.9009  155.6341 H   0  0  0  0  0  0  0  0  0  0  0  0
  146.5712  139.8293  156.5906 H   0  0  0  0  0  0  0  0  0  0  0  0
  148.6156  140.5336  155.3479 H   0  0  0  0  0  0  0  0  0  0  0  0
  148.6106  142.8718  155.9253 H   0  0  0  0  0  0  0  0  0  0  0  0
  148.1061  142.5982  158.3560 H   0  0  0  0  0  0  0  0  0  0  0  0
  147.7837  140.9274  157.9225 H   0  0  0  0  0  0  0  0  0  0  0  0
  150.0310  140.5675  158.1329 H   0  0  0  0  0  0  0  0  0  0  0  0
  150.2217  141.4337  156.6286 H   0  0  0  0  0  0  0  0  0  0  0  0
  151.9642  143.0402  156.6982 H   0  0  0  0  0  0  0  0  0  0  0  0
  153.2035  144.8111  157.9645 H   0  0  0  0  0  0  0  0  0  0  0  0
  152.5138  145.3161  160.3256 H   0  0  0  0  0  0  0  0  0  0  0  0
  150.6092  144.0231  161.3204 H   0  0  0  0  0  0  0  0  0  0  0  0
  147.0364  142.7632  156.3637 H   0  0  0  0  0  0  0  0  0  0  0  0
  145.4903  140.3837  153.1805 H   0  0  0  0  0  0  0  0  0  0  0  0
  1  2  1  0  0  0  0
  1 19  1  0  0  0  0
  1 20  1  0  0  0  0
  1 21  1  0  0  0  0
  2  9  1  0  0  0  0
  2  3  1  0  0  0  0
  2 22  1  0  0  0  0
  3  4  1  0  0  0  0
  3 23  1  0  0  0  0
  3 24  1  0  0  0  0
  4  5  1  0  0  0  0
  4  6  1  0  0  0  0
  4 45  1  0  0  0  0
  5 25  1  0  0  0  0
  5 26  1  0  0  0  0
  5 27  1  0  0  0  0
  6  7  1  0  0  0  0
  6  8  1  0  0  0  0
  6 28  1  0  0  0  0
  7 29  1  0  0  0  0
  7 30  1  0  0  0  0
  7 31  1  0  0  0  0
  8  9  1  0  0  0  0
  8 32  1  0  0  0  0
  8 33  1  0  0  0  0
  9 10  1  0  0  0  0
  9 34  1  0  0  0  0
 10 11  1  0  0  0  0
 10 35  1  0  0  0  0
 10 44  1  0  0  0  0
 11 12  1  0  0  0  0
 11 36  1  0  0  0  0
 11 37  1  0  0  0  0
 12 13  1  0  0  0  0
 12 38  1  0  0  0  0
 12 39  1  0  0  0  0
 13 18  1  0  0  0  0
 13 14  2  0  0  0  0
 14 15  1  0  0  0  0
 14 40  1  0  0  0  0
 15 16  2  0  0  0  0
 15 41  1  0  0  0  0
 16 17  1  0  0  0  0
 16 42  1  0  0  0  0
 17 18  2  0  0  0  0
 17 43  1  0  0  0  0
M  CHG  1   4   1
M  CHG  1  10   1
M  END
> <s_m_source_file>
AV-unprocessed.smi

> <i_m_source_file_index>
3303

> <i_lp_mmshare_version>
43012

> <i_f3d_flags>
0

> <s_epik_input>
W0NIM11bQ0BASF0xW0NIMl1OKFtDSDNdKVtDQEBIXShbQ0gzXSlbQ0gyXVtDQEhdMVtOSF1bQ0gyXVtDSDJdYzJbY0hdW2NIXVtjSF1bY0hdbjI=

> <s_epik_cmdline>
J2VwaWtfcHl0aG9uJywgJy1waCcsICc3LjAnLCAnLXRuJywgJzgnLCAnLW1hJywgJzIwMCcsICctbWV0YWxfYmluZGluZycsICctaW1hZScsICc8aW5maWxlLm1hZT4nLCAnLW9tYWUnLCAnPG91dGZpbGUubWFlPic=

> <r_epik_Ionization_Penalty>
0.0769462

> <r_epik_Ionization_Penalty_Charging>
0.0759813

> <r_epik_Ionization_Penalty_Neutral>
0.000964829

> <r_epik_State_Penalty>
0.0654373

> <r_epik_Charging_Adjusted_Penalty>
0.141419

> <i_epik_Tot_Q>
2

> <i_epik_Tot_abs_Q>
2

> <r_epik_Metal_State_Penalty>
0.0656439

> <b_epik_Metal_Only>
0

> <s_lp_Force_Field>
OPLS_2005

> <r_lp_Energy>
31.612

> <b_lp_Chiralities_Consistent>
1

> <s_lp_Variant>
AV-unprocessed.smi:3303-11

> <Gold.Version>
5.8.1

> <Gold.Id.Protein>
6NUR|6NUR_protein|mol2

> <Gold.PLP.Fitness>
45.2470

> <Gold.PLP.PLP>
-35.1835

> <Gold.PLP.part.hbond>
-2.9329

> <Gold.PLP.part.metal>
0.0000

> <Gold.PLP.part.buried>
-2.0193

> <Gold.PLP.part.nonpolar>
-30.3121

> <Gold.PLP.part.repulsive>
0.0842

> <Gold.PLP.ligand.clash>
0.0000

> <Gold.PLP.ligand.torsion>
0.5108

> <Gold.PLP.Chemscore.Hbond>
3.6895

> <Gold.PLP.Chemscore.CHOScore>
0.0000

> <Gold.PLP.Chemscore.Metal>
0.0000

> <Gold.Chemscore.Hbonds>
donor molecule, donor type, donor heavy atom, donor atom, acceptor molecule, acceptor atom, score
      L1  H     4    45       P1 10175  1.54
      L1  H    10    35       P1  8028  1.54

> <Gold.PLP.Chemscore.Internal.Correction>
0.0166

> <Gold.Rescore>
     Score         DG    S(hbond)    S(metal)    S(lipo)     H(rot)  DE(clash)    DE(int)     intcor
     18.57     -20.60       1.69        0.00     111.00       1.37       1.42       0.60       ----

> <Gold.Chemscore.Fitness>
18.5682

> <Gold.Chemscore.DG>
-20.5965

> <Gold.Chemscore.ZeroCoef>
-5.4800

> <Gold.Chemscore.Hbond>
1.6910

> <Gold.Chemscore.Metal>
0.0000

> <Gold.Chemscore.Lipo>
110.9988

> <Gold.Chemscore.Internal_Hbond>
0.0000

> <Gold.Chemscore.DEClash>
1.4247

> <Gold.Chemscore.DEInternal>
0.6036

> <Gold.Chemscore.Rot>
1.3744

> <Gold.Chemscore.Internal.Correction>
   9.000000E+99

> <Gold.Chemscore.Hbonds>
donor molecule, donor type, donor heavy atom, donor atom, acceptor molecule, acceptor atom, score
      L1  H     4    45       P1 10175  0.73
      L1  H    10    35       P1  8028  0.75

> <Gold.Chemscore.Hbond.Weighted>
-5.6481

> <Gold.Chemscore.Metal.Weighted>
-0.0000

> <Gold.Chemscore.Lipo.Weighted>
-12.9869

> <Gold.Chemscore.Internal_Hbond.Weighted>
0.0000

> <Gold.Chemscore.DEClash.Weighted>
1.4247

> <Gold.Chemscore.DEInternal.Weighted>
0.6036

> <Gold.Chemscore.Rot.Weighted>
3.5185

> <Gold.Chemscore.Internal.Correction.Weighted>
   9.000000E+99

> <Gold.Protein.RotatedTorsions>
[ 6907 6896 6895 6894 ] final   50.41 input  -60.11 | X-H torsion
[ 7974 7965 7964 7962 ] final  -21.60 input  175.53 | X-H torsion
[ 8008 7997 7996 7995 ] final    5.54 input   59.86 | X-H torsion
[ 10167 10162 10161 10158 ] final   30.52 input  -65.29 | X-H torsion
[ 10718 10713 10712 10709 ] final -126.35 input   66.30 | X-H torsion
[ 10763 10752 10751 10750 ] final  -62.30 input  -60.55 | X-H torsion
[ 11005 11000 10999 10996 ] final   90.91 input  -57.11 | X-H torsion

> <Gold.Protein.ActiveResidues>
 VAL166  LYS551  ARG553  GLY616  TRP617  ASP618  TYR619  PRO620  LYS621  CYS622 
 ASP623  PHE694  ASN695  SER759  ASP760  ASP761  ALA762  ILE779  LEU786  VAL792 
 PHE793  MET794  SER795  GLU796  ALA797  LYS798  CYS799  TRP800  GLU811  SER814 

> <Gold.Protein.RotatedAtoms>
  152.3015  134.7605  160.0356 H   0  0  0  0  0  0  0  0  0  0  0  0  # atno 6907 bound_to 6896
  151.8117  133.3377  159.3565 H   0  0  0  0  0  0  0  0  0  0  0  0  # atno 6908 bound_to 6896
  150.7276  134.5587  159.5876 H   0  0  0  0  0  0  0  0  0  0  0  0  # atno 6909 bound_to 6896
  146.1723  140.4364  142.8527 H   0  0  0  0  0  0  0  0  0  0  0  0  # atno 7974 bound_to 7965
  154.7296  140.2728  155.6468 H   0  0  0  0  0  0  0  0  0  0  0  0  # atno 8008 bound_to 7997
  156.2846  140.2718  156.1918 H   0  0  0  0  0  0  0  0  0  0  0  0  # atno 8009 bound_to 7997
  155.0399  140.0371  157.2495 H   0  0  0  0  0  0  0  0  0  0  0  0  # atno 8010 bound_to 7997
  140.4671  144.0819  150.6227 H   0  0  0  0  0  0  0  0  0  0  0  0  # atno 10167 bound_to 10162
  156.1758  130.6698  151.0240 H   0  0  0  0  0  0  0  0  0  0  0  0  # atno 10718 bound_to 10713
  154.2978  135.6241  153.5412 H   0  0  0  0  0  0  0  0  0  0  0  0  # atno 10763 bound_to 10752
  152.9844  135.5671  154.5318 H   0  0  0  0  0  0  0  0  0  0  0  0  # atno 10764 bound_to 10752
  154.4942  135.2869  155.1448 H   0  0  0  0  0  0  0  0  0  0  0  0  # atno 10765 bound_to 10752
  139.8848  134.8642  156.3352 H   0  0  0  0  0  0  0  0  0  0  0  0  # atno 11005 bound_to 11000
  144.8182  140.6505  143.6370 LP  0  0  0  0  0  0  0  0  0  0  0  0  # atno 17320 bound_to 7965
  145.4306  139.1550  143.4024 LP  0  0  0  0  0  0  0  0  0  0  0  0  # atno 17321 bound_to 7965
  140.4023  143.2697  151.9933 LP  0  0  0  0  0  0  0  0  0  0  0  0  # atno 17342 bound_to 10162
  139.4813  144.5987  151.7645 LP  0  0  0  0  0  0  0  0  0  0  0  0  # atno 17343 bound_to 10162
  157.6834  131.0831  150.7308 LP  0  0  0  0  0  0  0  0  0  0  0  0  # atno 17370 bound_to 10713
  156.7366  130.4726  149.5487 LP  0  0  0  0  0  0  0  0  0  0  0  0  # atno 17371 bound_to 10713
  140.9696  133.7336  156.0515 LP  0  0  0  0  0  0  0  0  0  0  0  0  # atno 17394 bound_to 11000
  140.7887  134.3642  157.5470 LP  0  0  0  0  0  0  0  0  0  0  0  0  # atno 17395 bound_to 11000

$$$$
