AV-unprocessed.smi:1129|AV-procd|sdf|4847|dock9
  -GOLD-   22720 3413D 1   1.00000     0.00000
 Structure written by MMmdl.
 40 41  0  0  0  0  0  0  0  0  1 V2000
  151.9950  140.7665  159.1587 C   0  0  0  0  0  0  0  0  0  0  0  0
  151.9096  139.9984  157.9711 O   0  0  0  0  0  0  0  0  0  0  0  0
  151.1365  140.6349  156.9671 C   0  0  0  0  0  0  0  0  0  0  0  0
  151.3222  139.8910  155.6412 C   0  0  0  0  0  0  0  0  0  0  0  0
  150.5228  140.5214  154.6449 O   0  0  0  0  0  0  0  0  0  0  0  0
  149.2515  140.0367  154.4157 C   0  0  0  0  0  0  0  0  0  0  0  0
  148.2969  140.8976  153.8390 C   0  0  0  0  0  0  0  0  0  0  0  0
  146.9965  140.4127  153.6027 C   0  0  0  0  0  0  0  0  0  0  0  0
  146.6890  139.0782  153.9595 C   0  0  0  0  0  0  0  0  0  0  0  0
  145.4221  138.4700  153.7506 N   0  0  0  0  0  0  0  0  0  0  0  0
  144.9675  137.3003  154.2375 C   0  0  0  0  0  0  0  0  0  0  0  0
  145.6256  136.5494  154.9576 O   0  0  0  0  0  0  0  0  0  0  0  0
  143.5297  136.9216  153.8313 C   0  0  1  0  0  0  0  0  0  0  0  0
  143.3495  136.8471  152.3034 C   0  0  0  0  0  0  0  0  0  0  0  0
  144.0538  135.6348  151.6648 C   0  0  0  0  0  0  0  0  0  0  0  0
  143.8896  134.3316  152.4617 C   0  0  0  0  0  0  0  0  0  0  0  0
  144.1485  133.2583  151.9225 O   0  0  0  0  0  0  0  0  0  0  0  0
  143.5063  134.3958  153.7489 N   0  0  0  0  0  0  0  0  0  0  0  0
  143.0605  135.5924  154.4652 C   0  0  0  0  0  0  0  0  0  0  0  0
  147.7203  138.2928  154.5146 C   0  0  0  0  0  0  0  0  0  0  0  0
  148.9681  138.7524  154.7460 N   0  0  0  0  0  0  0  0  0  0  0  0
  152.5943  140.2337  159.8967 H   0  0  0  0  0  0  0  0  0  0  0  0
  151.0074  140.9398  159.5882 H   0  0  0  0  0  0  0  0  0  0  0  0
  152.4702  141.7305  158.9722 H   0  0  0  0  0  0  0  0  0  0  0  0
  150.0814  140.6641  157.2440 H   0  0  0  0  0  0  0  0  0  0  0  0
  151.4746  141.6661  156.8553 H   0  0  0  0  0  0  0  0  0  0  0  0
  152.3723  139.9407  155.3489 H   0  0  0  0  0  0  0  0  0  0  0  0
  151.0552  138.8391  155.7575 H   0  0  0  0  0  0  0  0  0  0  0  0
  148.5589  141.9124  153.5783 H   0  0  0  0  0  0  0  0  0  0  0  0
  146.2703  141.0640  153.1419 H   0  0  0  0  0  0  0  0  0  0  0  0
  144.8142  138.9454  153.0992 H   0  0  0  0  0  0  0  0  0  0  0  0
  142.8744  137.7089  154.2078 H   0  0  0  0  0  0  0  0  0  0  0  0
  142.2839  136.7975  152.0754 H   0  0  0  0  0  0  0  0  0  0  0  0
  143.7084  137.7652  151.8364 H   0  0  0  0  0  0  0  0  0  0  0  0
  143.6855  135.4863  150.6492 H   0  0  0  0  0  0  0  0  0  0  0  0
  145.1222  135.8341  151.5758 H   0  0  0  0  0  0  0  0  0  0  0  0
  143.4529  133.5247  154.2571 H   0  0  0  0  0  0  0  0  0  0  0  0
  143.3897  135.5213  155.5028 H   0  0  0  0  0  0  0  0  0  0  0  0
  141.9705  135.5704  154.4929 H   0  0  0  0  0  0  0  0  0  0  0  0
  147.5389  137.2636  154.7881 H   0  0  0  0  0  0  0  0  0  0  0  0
  1  2  1  0  0  0  0
  1 22  1  0  0  0  0
  1 23  1  0  0  0  0
  1 24  1  0  0  0  0
  2  3  1  0  0  0  0
  3  4  1  0  0  0  0
  3 25  1  0  0  0  0
  3 26  1  0  0  0  0
  4  5  1  0  0  0  0
  4 27  1  0  0  0  0
  4 28  1  0  0  0  0
  5  6  1  0  0  0  0
  6 21  1  0  0  0  0
  6  7  2  0  0  0  0
  7  8  1  0  0  0  0
  7 29  1  0  0  0  0
  8  9  2  0  0  0  0
  8 30  1  0  0  0  0
  9 10  1  0  0  0  0
  9 20  1  0  0  0  0
 10 11  1  0  0  0  0
 10 31  1  0  0  0  0
 11 12  2  0  0  0  0
 11 13  1  0  0  0  0
 13 19  1  0  0  0  0
 13 14  1  0  0  0  0
 13 32  1  0  0  0  0
 14 15  1  0  0  0  0
 14 33  1  0  0  0  0
 14 34  1  0  0  0  0
 15 16  1  0  0  0  0
 15 35  1  0  0  0  0
 15 36  1  0  0  0  0
 16 17  2  0  0  0  0
 16 18  1  0  0  0  0
 18 19  1  0  0  0  0
 18 37  1  0  0  0  0
 19 38  1  0  0  0  0
 19 39  1  0  0  0  0
 20 21  2  0  0  0  0
 20 40  1  0  0  0  0
M  END
> <s_m_source_file>
AV-unprocessed.smi

> <i_m_source_file_index>
1129

> <i_lp_mmshare_version>
43012

> <i_f3d_flags>
0

> <s_epik_input>
W0NIM11PW0NIMl1bQ0gyXU9jMVtjSF1bY0hdYyhbY0hdbjEpW05IXUMoPU8pW0NAQEhdMltDSDJdW0NIMl1DKD1PKVtOSF1bQ0gyXTI=

> <s_epik_cmdline>
J2VwaWtfcHl0aG9uJywgJy1waCcsICc3LjAnLCAnLXRuJywgJzgnLCAnLW1hJywgJzIwMCcsICctbWV0YWxfYmluZGluZycsICctaW1hZScsICc8aW5maWxlLm1hZT4nLCAnLW9tYWUnLCAnPG91dGZpbGUubWFlPic=

> <r_lp_tautomer_probability>
1

> <r_epik_Ionization_Penalty>
1.79985e-05

> <r_epik_Ionization_Penalty_Charging>
0

> <r_epik_Ionization_Penalty_Neutral>
1.79985e-05

> <r_epik_State_Penalty>
-0

> <r_epik_Charging_Adjusted_Penalty>
0

> <i_epik_Tot_Q>
0

> <i_epik_Tot_abs_Q>
0

> <r_epik_Metal_State_Penalty>
-0

> <b_epik_Metal_Only>
0

> <s_lp_Force_Field>
OPLS_2005

> <r_lp_Energy>
14.8931

> <b_lp_Chiralities_Consistent>
1

> <s_lp_Variant>
AV-unprocessed.smi:1129-2

> <Gold.Version>
5.8.1

> <Gold.Id.Protein>
6NUR|6NUR_protein|mol2

> <Gold.PLP.Fitness>
34.8963

> <Gold.PLP.PLP>
-27.0866

> <Gold.PLP.part.hbond>
-3.0000

> <Gold.PLP.part.metal>
0.0000

> <Gold.PLP.part.buried>
-2.6689

> <Gold.PLP.part.nonpolar>
-21.4377

> <Gold.PLP.part.repulsive>
0.3961

> <Gold.PLP.ligand.clash>
0.0000

> <Gold.PLP.ligand.torsion>
0.6286

> <Gold.PLP.Chemscore.Hbond>
3.0000

> <Gold.PLP.Chemscore.CHOScore>
0.0000

> <Gold.PLP.Chemscore.Metal>
0.0000

> <Gold.Chemscore.Hbonds>
donor molecule, donor type, donor heavy atom, donor atom, acceptor molecule, acceptor atom, score
      L1  H    10    31       P1 10175  1.00
      L1  H    18    37       P1 10957  1.00
      P1  H  7989  7998       L1     5  1.00

> <Gold.PLP.Chemscore.Internal.Correction>
0.0669

> <Gold.Rescore>
     Score         DG    S(hbond)    S(metal)    S(lipo)     H(rot)  DE(clash)    DE(int)     intcor
     12.95     -15.23       2.63        0.00      52.56       2.03       0.00       2.27       ----

> <Gold.Chemscore.Fitness>
12.9501

> <Gold.Chemscore.DG>
-15.2289

> <Gold.Chemscore.ZeroCoef>
-5.4800

> <Gold.Chemscore.Hbond>
2.6301

> <Gold.Chemscore.Metal>
0.0000

> <Gold.Chemscore.Lipo>
52.5614

> <Gold.Chemscore.Internal_Hbond>
0.0000

> <Gold.Chemscore.DEClash>
0.0048

> <Gold.Chemscore.DEInternal>
2.2740

> <Gold.Chemscore.Rot>
2.0255

> <Gold.Chemscore.Internal.Correction>
   9.000000E+99

> <Gold.Chemscore.Hbonds>
donor molecule, donor type, donor heavy atom, donor atom, acceptor molecule, acceptor atom, score
      L1  H    10    31       P1 10175  0.95
      L1  H    18    37       P1 10957  0.95
      P1  H  7989  7998       L1     5  0.33

> <Gold.Chemscore.Hbond.Weighted>
-8.7845

> <Gold.Chemscore.Metal.Weighted>
-0.0000

> <Gold.Chemscore.Lipo.Weighted>
-6.1497

> <Gold.Chemscore.Internal_Hbond.Weighted>
0.0000

> <Gold.Chemscore.DEClash.Weighted>
0.0048

> <Gold.Chemscore.DEInternal.Weighted>
2.2740

> <Gold.Chemscore.Rot.Weighted>
5.1853

> <Gold.Chemscore.Internal.Correction.Weighted>
   9.000000E+99

> <Gold.Protein.RotatedTorsions>
[ 6907 6896 6895 6894 ] final  -89.24 input  -60.11 | X-H torsion
[ 7974 7965 7964 7962 ] final  -71.58 input  175.53 | X-H torsion
[ 8008 7997 7996 7995 ] final   18.82 input   59.86 | X-H torsion
[ 10167 10162 10161 10158 ] final  -30.43 input  -65.29 | X-H torsion
[ 10718 10713 10712 10709 ] final -114.42 input   66.30 | X-H torsion
[ 10763 10752 10751 10750 ] final -114.98 input  -60.55 | X-H torsion
[ 11005 11000 10999 10996 ] final  124.81 input  -57.11 | X-H torsion

> <Gold.Protein.ActiveResidues>
 VAL166  LYS551  ARG553  GLY616  TRP617  ASP618  TYR619  PRO620  LYS621  CYS622 
 ASP623  PHE694  ASN695  SER759  ASP760  ASP761  ALA762  ILE779  LEU786  VAL792 
 PHE793  MET794  SER795  GLU796  ALA797  LYS798  CYS799  TRP800  GLU811  SER814 

> <Gold.Protein.RotatedAtoms>
  150.6873  134.2617  159.4551 H   0  0  0  0  0  0  0  0  0  0  0  0  # atno 6907 bound_to 6896
  152.0546  134.9629  160.0584 H   0  0  0  0  0  0  0  0  0  0  0  0  # atno 6908 bound_to 6896
  152.1080  133.4251  159.4655 H   0  0  0  0  0  0  0  0  0  0  0  0  # atno 6909 bound_to 6896
  145.6762  140.9204  143.0856 H   0  0  0  0  0  0  0  0  0  0  0  0  # atno 7974 bound_to 7965
  154.9116  140.3015  155.5263 H   0  0  0  0  0  0  0  0  0  0  0  0  # atno 8008 bound_to 7997
  156.3014  140.2388  156.4092 H   0  0  0  0  0  0  0  0  0  0  0  0  # atno 8009 bound_to 7997
  154.8419  140.0413  157.1536 H   0  0  0  0  0  0  0  0  0  0  0  0  # atno 8010 bound_to 7997
  140.7249  143.3850  151.1532 H   0  0  0  0  0  0  0  0  0  0  0  0  # atno 10167 bound_to 10162
  156.0828  130.6025  150.8772 H   0  0  0  0  0  0  0  0  0  0  0  0  # atno 10718 bound_to 10713
  154.8462  135.4398  154.1591 H   0  0  0  0  0  0  0  0  0  0  0  0  # atno 10763 bound_to 10752
  153.2732  135.6947  153.7466 H   0  0  0  0  0  0  0  0  0  0  0  0  # atno 10764 bound_to 10752
  153.6698  135.3421  155.3125 H   0  0  0  0  0  0  0  0  0  0  0  0  # atno 10765 bound_to 10752
  139.9376  134.9638  156.8465 H   0  0  0  0  0  0  0  0  0  0  0  0  # atno 11005 bound_to 11000
  144.7041  139.8637  143.7435 LP  0  0  0  0  0  0  0  0  0  0  0  0  # atno 17320 bound_to 7965
  146.1003  139.3998  143.0351 LP  0  0  0  0  0  0  0  0  0  0  0  0  # atno 17321 bound_to 7965
  139.7445  143.8873  152.3059 LP  0  0  0  0  0  0  0  0  0  0  0  0  # atno 17342 bound_to 10162
  139.8706  144.7070  150.8992 LP  0  0  0  0  0  0  0  0  0  0  0  0  # atno 17343 bound_to 10162
  157.5952  131.0943  150.9053 LP  0  0  0  0  0  0  0  0  0  0  0  0  # atno 17370 bound_to 10713
  156.9221  130.5319  149.5279 LP  0  0  0  0  0  0  0  0  0  0  0  0  # atno 17371 bound_to 10713
  140.6034  134.0150  155.7546 LP  0  0  0  0  0  0  0  0  0  0  0  0  # atno 17394 bound_to 11000
  141.0997  133.9787  157.3100 LP  0  0  0  0  0  0  0  0  0  0  0  0  # atno 17395 bound_to 11000

$$$$
