AV-unprocessed.smi:2494|AV-procd|sdf|9822|dock6
  -GOLD-   2272013453D 1   1.00000     0.00000
 Structure written by MMmdl.
 30 31  0  0  0  0  0  0  0  0  1 V2000
  148.4190  137.6704  159.6996 O   0  0  0  0  0  0  0  0  0  0  0  0
  149.4177  137.2840  158.7802 C   0  0  0  0  0  0  0  0  0  0  0  0
  149.9353  138.5198  158.0257 C   0  0  0  0  0  0  0  0  0  0  0  0
  151.1499  138.2363  157.1015 C   0  0  1  0  0  0  0  0  0  0  0  0
  150.7913  137.1499  156.0567 C   0  0  0  0  0  0  0  0  0  0  0  0
  151.8690  136.9274  155.1572 O   0  0  0  0  0  0  0  0  0  0  0  0
  152.1814  138.0997  154.4214 C   0  0  0  0  0  0  0  0  0  0  0  0
  152.6429  139.1841  155.4016 C   0  0  0  0  0  0  0  0  0  0  0  0
  151.6228  139.4481  156.4125 N   0  0  0  0  0  0  0  0  0  0  0  0
  151.8759  140.6097  157.1311 C   0  0  0  0  0  0  0  0  0  0  0  0
  152.8093  140.5618  158.0915 N   0  0  0  0  0  0  0  0  0  0  0  0
  153.0641  141.7074  158.7601 C   0  0  0  0  0  0  0  0  0  0  0  0
  152.3863  142.9045  158.4561 C   0  0  0  0  0  0  0  0  0  0  0  0
  152.7091  144.3710  159.3052 Cl  0  0  0  0  0  0  0  0  0  0  0  0
  151.4331  142.8418  157.4204 C   0  0  0  0  0  0  0  0  0  0  0  0
  151.1846  141.6918  156.7566 N   0  0  0  0  0  0  0  0  0  0  0  0
  147.9239  136.9039  159.9460 H   0  0  0  0  0  0  0  0  0  0  0  0
  150.2286  136.7967  159.3221 H   0  0  0  0  0  0  0  0  0  0  0  0
  148.9877  136.5508  158.0988 H   0  0  0  0  0  0  0  0  0  0  0  0
  149.1250  138.9569  157.4403 H   0  0  0  0  0  0  0  0  0  0  0  0
  150.1948  139.2664  158.7753 H   0  0  0  0  0  0  0  0  0  0  0  0
  151.9749  137.8665  157.7122 H   0  0  0  0  0  0  0  0  0  0  0  0
  150.5772  136.2003  156.5454 H   0  0  0  0  0  0  0  0  0  0  0  0
  149.8959  137.4259  155.4969 H   0  0  0  0  0  0  0  0  0  0  0  0
  152.9760  137.8725  153.7107 H   0  0  0  0  0  0  0  0  0  0  0  0
  151.3178  138.4314  153.8426 H   0  0  0  0  0  0  0  0  0  0  0  0
  153.5629  138.8713  155.8974 H   0  0  0  0  0  0  0  0  0  0  0  0
  152.8732  140.0968  154.8504 H   0  0  0  0  0  0  0  0  0  0  0  0
  153.8130  141.6674  159.5372 H   0  0  0  0  0  0  0  0  0  0  0  0
  150.8705  143.7138  157.1212 H   0  0  0  0  0  0  0  0  0  0  0  0
  1  2  1  0  0  0  0
  1 17  1  0  0  0  0
  2  3  1  0  0  0  0
  2 18  1  0  0  0  0
  2 19  1  0  0  0  0
  3  4  1  0  0  0  0
  3 20  1  0  0  0  0
  3 21  1  0  0  0  0
  4  9  1  0  0  0  0
  4  5  1  0  0  0  0
  4 22  1  0  0  0  0
  5  6  1  0  0  0  0
  5 23  1  0  0  0  0
  5 24  1  0  0  0  0
  6  7  1  0  0  0  0
  7  8  1  0  0  0  0
  7 25  1  0  0  0  0
  7 26  1  0  0  0  0
  8  9  1  0  0  0  0
  8 27  1  0  0  0  0
  8 28  1  0  0  0  0
  9 10  1  0  0  0  0
 10 16  1  0  0  0  0
 10 11  2  0  0  0  0
 11 12  1  0  0  0  0
 12 13  2  0  0  0  0
 12 29  1  0  0  0  0
 13 14  1  0  0  0  0
 13 15  1  0  0  0  0
 15 16  2  0  0  0  0
 15 30  1  0  0  0  0
M  END
> <s_m_source_file>
AV-unprocessed.smi

> <i_m_source_file_index>
2494

> <i_lp_mmshare_version>
43012

> <i_f3d_flags>
0

> <s_epik_input>
W09IXVtDSDJdW0NIMl1bQ0BASF0xW0NIMl1PW0NIMl1bQ0gyXU4xYzJuW2NIXWMoQ2wpW2NIXW4y

> <s_epik_cmdline>
J2VwaWtfcHl0aG9uJywgJy1waCcsICc3LjAnLCAnLXRuJywgJzgnLCAnLW1hJywgJzIwMCcsICctbWV0YWxfYmluZGluZycsICctaW1hZScsICc8aW5maWxlLm1hZT4nLCAnLW9tYWUnLCAnPG91dGZpbGUubWFlPic=

> <r_lp_tautomer_probability>
1

> <r_epik_Ionization_Penalty>
3.66811e-07

> <r_epik_Ionization_Penalty_Charging>
0

> <r_epik_Ionization_Penalty_Neutral>
3.66811e-07

> <r_epik_State_Penalty>
-0

> <r_epik_Charging_Adjusted_Penalty>
0

> <i_epik_Tot_Q>
0

> <i_epik_Tot_abs_Q>
0

> <r_epik_Metal_State_Penalty>
-0

> <b_epik_Metal_Only>
0

> <s_lp_Force_Field>
OPLS_2005

> <r_lp_Energy>
15.3646

> <b_lp_Chiralities_Consistent>
1

> <s_lp_Variant>
AV-unprocessed.smi:2494-2

> <Gold.Version>
5.8.1

> <Gold.Id.Protein>
6NUR|6NUR_protein|mol2

> <Gold.PLP.Fitness>
35.9548

> <Gold.PLP.PLP>
-27.4376

> <Gold.PLP.part.hbond>
-3.7244

> <Gold.PLP.part.metal>
0.0000

> <Gold.PLP.part.buried>
-3.5204

> <Gold.PLP.part.nonpolar>
-19.9445

> <Gold.PLP.part.repulsive>
0.1500

> <Gold.PLP.ligand.clash>
0.0000

> <Gold.PLP.ligand.torsion>
0.2723

> <Gold.PLP.Chemscore.Hbond>
1.9147

> <Gold.PLP.Chemscore.CHOScore>
1.0000

> <Gold.PLP.Chemscore.Metal>
0.0000

> <Gold.Chemscore.Hbonds>
donor molecule, donor type, donor heavy atom, donor atom, acceptor molecule, acceptor atom, score
      P1  H  6931  6943       L1     1  0.06
      P1  H  6934  6947       L1     1  0.18
      P1  H  7997  8008       L1    11  0.56
      P1  H 10752 10765       L1     6  1.00
      L1  C    15    30       P1  8028  0.72

> <Gold.PLP.Chemscore.Internal.Correction>
0.3177

> <Gold.Rescore>
     Score         DG    S(hbond)    S(metal)    S(lipo)     H(rot)  DE(clash)    DE(int)     intcor
     11.65     -12.55       0.96        0.00      77.65       2.04       0.27       0.63       ----

> <Gold.Chemscore.Fitness>
11.6520

> <Gold.Chemscore.DG>
-12.5478

> <Gold.Chemscore.ZeroCoef>
-5.4800

> <Gold.Chemscore.Hbond>
0.9615

> <Gold.Chemscore.Metal>
0.0000

> <Gold.Chemscore.Lipo>
77.6473

> <Gold.Chemscore.Internal_Hbond>
0.0000

> <Gold.Chemscore.DEClash>
0.2705

> <Gold.Chemscore.DEInternal>
0.6253

> <Gold.Chemscore.Rot>
2.0424

> <Gold.Chemscore.Internal.Correction>
   9.000000E+99

> <Gold.Chemscore.Hbonds>
donor molecule, donor type, donor heavy atom, donor atom, acceptor molecule, acceptor atom, score
      P1  H  6931  6943       L1     1  0.01
      P1  H  6934  6947       L1     1  0.02
      P1  H  7997  8008       L1    11  0.08
      P1  H 10752 10765       L1     6  0.64

> <Gold.Chemscore.Hbond.Weighted>
-3.2115

> <Gold.Chemscore.Metal.Weighted>
-0.0000

> <Gold.Chemscore.Lipo.Weighted>
-9.0847

> <Gold.Chemscore.Internal_Hbond.Weighted>
0.0000

> <Gold.Chemscore.DEClash.Weighted>
0.2705

> <Gold.Chemscore.DEInternal.Weighted>
0.6253

> <Gold.Chemscore.Rot.Weighted>
5.2285

> <Gold.Chemscore.Internal.Correction.Weighted>
   9.000000E+99

> <Gold.Protein.RotatedTorsions>
[ 6907 6896 6895 6894 ] final   -9.54 input  -60.11 | X-H torsion
[ 7974 7965 7964 7962 ] final  101.19 input  175.53 | X-H torsion
[ 8008 7997 7996 7995 ] final  -73.72 input   59.86 | X-H torsion
[ 10167 10162 10161 10158 ] final -154.17 input  -65.29 | X-H torsion
[ 10718 10713 10712 10709 ] final  174.26 input   66.30 | X-H torsion
[ 10763 10752 10751 10750 ] final -179.77 input  -60.55 | X-H torsion
[ 11005 11000 10999 10996 ] final  115.98 input  -57.11 | X-H torsion

> <Gold.Protein.ActiveResidues>
 VAL166  LYS551  ARG553  GLY616  TRP617  ASP618  TYR619  PRO620  LYS621  CYS622 
 ASP623  PHE694  ASN695  SER759  ASP760  ASP761  ALA762  ILE779  LEU786  VAL792 
 PHE793  MET794  SER795  GLU796  ALA797  LYS798  CYS799  TRP800  GLU811  SER814 

> <Gold.Protein.RotatedAtoms>
  151.4161  135.0991  159.9599 H   0  0  0  0  0  0  0  0  0  0  0  0  # atno 6907 bound_to 6896
  152.5004  133.8751  159.7328 H   0  0  0  0  0  0  0  0  0  0  0  0  # atno 6908 bound_to 6896
  150.9257  133.6770  159.2850 H   0  0  0  0  0  0  0  0  0  0  0  0  # atno 6909 bound_to 6896
  145.3756  139.2389  143.3431 H   0  0  0  0  0  0  0  0  0  0  0  0  # atno 7974 bound_to 7965
  154.5271  140.0774  156.8277 H   0  0  0  0  0  0  0  0  0  0  0  0  # atno 8008 bound_to 7997
  155.3454  140.3409  155.4221 H   0  0  0  0  0  0  0  0  0  0  0  0  # atno 8009 bound_to 7997
  156.1742  140.1630  156.8379 H   0  0  0  0  0  0  0  0  0  0  0  0  # atno 8010 bound_to 7997
  139.7035  143.9224  152.2439 H   0  0  0  0  0  0  0  0  0  0  0  0  # atno 10167 bound_to 10162
  156.9522  131.0034  151.2946 H   0  0  0  0  0  0  0  0  0  0  0  0  # atno 10718 bound_to 10713
  154.5308  135.2799  155.1181 H   0  0  0  0  0  0  0  0  0  0  0  0  # atno 10763 bound_to 10752
  154.2702  135.6305  153.5311 H   0  0  0  0  0  0  0  0  0  0  0  0  # atno 10764 bound_to 10752
  152.9956  135.5626  154.5821 H   0  0  0  0  0  0  0  0  0  0  0  0  # atno 10765 bound_to 10752
  139.9027  134.9592  156.7129 H   0  0  0  0  0  0  0  0  0  0  0  0  # atno 11005 bound_to 11000
  146.2865  140.4415  142.8756 LP  0  0  0  0  0  0  0  0  0  0  0  0  # atno 17320 bound_to 7965
  144.8545  140.7049  143.6147 LP  0  0  0  0  0  0  0  0  0  0  0  0  # atno 17321 bound_to 7965
  139.9073  144.6877  150.8600 LP  0  0  0  0  0  0  0  0  0  0  0  0  # atno 17342 bound_to 10162
  140.7716  143.3469  151.2093 LP  0  0  0  0  0  0  0  0  0  0  0  0  # atno 17343 bound_to 10162
  157.5714  130.8313  149.8397 LP  0  0  0  0  0  0  0  0  0  0  0  0  # atno 17370 bound_to 10713
  156.0358  130.3752  150.1565 LP  0  0  0  0  0  0  0  0  0  0  0  0  # atno 17371 bound_to 10713
  140.7061  133.9263  155.8055 LP  0  0  0  0  0  0  0  0  0  0  0  0  # atno 17394 bound_to 11000
  141.0335  134.0723  157.3987 LP  0  0  0  0  0  0  0  0  0  0  0  0  # atno 17395 bound_to 11000

$$$$
