AV-unprocessed.smi:196|AV-procd|sdf|1531|dock1
  -GOLD-   2262019383D 1   1.00000     0.00000
 Structure written by MMmdl.
 47 50  0  0  0  0  0  0  0  0  1 V2000
  147.9597  139.1541  156.1573 C   0  0  0  0  0  0  0  0  0  0  0  0
  148.1835  139.3755  154.6530 C   0  0  1  0  0  0  0  0  0  0  0  0
  147.0188  138.9113  153.9738 O   0  0  0  0  0  0  0  0  0  0  0  0
  146.8159  139.6950  152.8114 C   0  0  0  0  0  0  0  0  0  0  0  0
  147.1783  141.0925  153.2895 C   0  0  0  0  0  0  0  0  0  0  0  0
  148.3888  140.8441  154.1848 C   0  0  2  0  0  0  0  0  0  0  0  0
  149.5471  140.8745  153.3669 O   0  0  0  0  0  0  0  0  0  0  0  0
  148.5665  141.9070  155.3009 C   0  0  0  0  0  0  0  0  0  0  0  0
  149.4386  141.4709  156.3813 N   0  0  0  0  0  0  0  0  0  0  0  0
  149.3233  141.7955  157.7136 C   0  0  0  0  0  0  0  0  0  0  0  0
  150.2295  141.2733  158.4936 N   0  0  0  0  0  0  0  0  0  0  0  0
  151.0436  140.5443  157.6337 C   0  0  0  0  0  0  0  0  0  0  0  0
  152.2043  139.7352  157.8088 C   0  0  0  0  0  0  0  0  0  0  0  0
  152.7927  139.5215  159.0177 N   0  0  0  0  0  0  0  0  0  0  0  0
  152.8730  140.6296  159.9640 C   0  0  0  0  0  0  0  0  0  0  0  0
  154.2247  140.4837  160.6615 C   0  0  2  0  0  0  0  0  0  0  0  0
  155.1492  141.1673  159.9852 F   0  0  0  0  0  0  0  0  0  0  0  0
  154.5137  138.9908  160.5539 C   0  0  0  0  0  0  0  0  0  0  0  0
  153.9226  138.5969  159.1901 C   0  0  1  0  0  0  0  0  0  0  0  0
  153.5500  137.1012  159.1643 C   0  0  0  0  0  0  0  0  0  0  0  0
  154.1903  136.2910  158.3147 N   0  0  0  0  0  0  0  0  0  0  0  0
  152.6794  136.6787  159.9219 O   0  0  0  0  0  0  0  0  0  0  0  0
  152.7216  139.1453  156.6985 N   0  0  0  0  0  0  0  0  0  0  0  0
  152.1622  139.3405  155.5014 C   0  0  0  0  0  0  0  0  0  0  0  0
  151.0912  140.0721  155.1914 N   0  0  0  0  0  0  0  0  0  0  0  0
  150.5556  140.6575  156.3002 C   0  0  0  0  0  0  0  0  0  0  0  0
  154.2249  140.8547  161.6867 H   0  0  0  0  0  0  0  0  0  0  0  0
  154.6697  138.7903  158.4184 H   0  0  0  0  0  0  0  0  0  0  0  0
  148.8220  139.4771  156.7408 H   0  0  0  0  0  0  0  0  0  0  0  0
  147.8016  138.0966  156.3699 H   0  0  0  0  0  0  0  0  0  0  0  0
  147.0818  139.6926  156.5154 H   0  0  0  0  0  0  0  0  0  0  0  0
  149.0228  138.7531  154.3364 H   0  0  0  0  0  0  0  0  0  0  0  0
  147.4869  139.3622  152.0179 H   0  0  0  0  0  0  0  0  0  0  0  0
  145.7895  139.6236  152.4515 H   0  0  0  0  0  0  0  0  0  0  0  0
  147.3660  141.7929  152.4745 H   0  0  0  0  0  0  0  0  0  0  0  0
  146.3492  141.4840  153.8797 H   0  0  0  0  0  0  0  0  0  0  0  0
  149.4602  140.2095  152.7012 H   0  0  0  0  0  0  0  0  0  0  0  0
  148.9830  142.8273  154.8910 H   0  0  0  0  0  0  0  0  0  0  0  0
  147.5998  142.1709  155.7321 H   0  0  0  0  0  0  0  0  0  0  0  0
  148.5346  142.4298  158.0919 H   0  0  0  0  0  0  0  0  0  0  0  0
  152.7812  141.6085  159.4906 H   0  0  0  0  0  0  0  0  0  0  0  0
  152.0604  140.5252  160.6837 H   0  0  0  0  0  0  0  0  0  0  0  0
  155.5773  138.7627  160.6338 H   0  0  0  0  0  0  0  0  0  0  0  0
  154.0013  138.4689  161.3643 H   0  0  0  0  0  0  0  0  0  0  0  0
  153.9558  135.3093  158.2835 H   0  0  0  0  0  0  0  0  0  0  0  0
  154.9034  136.6652  157.7061 H   0  0  0  0  0  0  0  0  0  0  0  0
  152.6414  138.8382  154.6741 H   0  0  0  0  0  0  0  0  0  0  0  0
  1  2  1  0  0  0  0
  1 29  1  0  0  0  0
  1 30  1  0  0  0  0
  1 31  1  0  0  0  0
  2  6  1  0  0  0  0
  2  3  1  0  0  0  0
  2 32  1  0  0  0  0
  3  4  1  0  0  0  0
  4  5  1  0  0  0  0
  4 33  1  0  0  0  0
  4 34  1  0  0  0  0
  5  6  1  0  0  0  0
  5 35  1  0  0  0  0
  5 36  1  0  0  0  0
  6  7  1  0  0  0  0
  6  8  1  0  0  0  0
  7 37  1  0  0  0  0
  8  9  1  0  0  0  0
  8 38  1  0  0  0  0
  8 39  1  0  0  0  0
  9 26  1  0  0  0  0
  9 10  1  0  0  0  0
 10 11  2  0  0  0  0
 10 40  1  0  0  0  0
 11 12  1  0  0  0  0
 12 26  2  0  0  0  0
 12 13  1  0  0  0  0
 13 14  1  0  0  0  0
 13 23  2  0  0  0  0
 14 19  1  0  0  0  0
 14 15  1  0  0  0  0
 15 16  1  0  0  0  0
 15 41  1  0  0  0  0
 15 42  1  0  0  0  0
 16 27  1  0  0  0  0
 16 17  1  0  0  0  0
 16 18  1  0  0  0  0
 18 19  1  0  0  0  0
 18 43  1  0  0  0  0
 18 44  1  0  0  0  0
 19 28  1  0  0  0  0
 19 20  1  0  0  0  0
 20 21  1  0  0  0  0
 20 22  2  0  0  0  0
 21 45  1  0  0  0  0
 21 46  1  0  0  0  0
 23 24  1  0  0  0  0
 24 25  2  0  0  0  0
 24 47  1  0  0  0  0
 25 26  1  0  0  0  0
M  END
> <s_m_source_file>
AV-unprocessed.smi

> <i_m_source_file_index>
196

> <i_lp_mmshare_version>
43012

> <i_f3d_flags>
0

> <s_epik_input>
W0NIMl0xW0NIMl1PW0NAQEhdKFtDSDNdKVtDQEBdMShbT0hdKVtDSDJdbihbY0hdbjIpYyhjMjMpbltjSF1uYzNONFtDSDJdW0NASF0oRilbQ0gyXVtDQEhdNEMoPU8pW05IMl0=

> <s_epik_cmdline>
J2VwaWtfcHl0aG9uJywgJy1waCcsICc3LjAnLCAnLXRuJywgJzgnLCAnLW1hJywgJzIwMCcsICctbWV0YWxfYmluZGluZycsICctaW1hZScsICc8aW5maWxlLm1hZT4nLCAnLW9tYWUnLCAnPG91dGZpbGUubWFlPic=

> <r_lp_tautomer_probability>
1

> <r_epik_Ionization_Penalty>
0.000857933

> <r_epik_Ionization_Penalty_Charging>
0

> <r_epik_Ionization_Penalty_Neutral>
0.000857933

> <r_epik_State_Penalty>
0.000462053

> <r_epik_Charging_Adjusted_Penalty>
0.000462053

> <i_epik_Tot_Q>
0

> <i_epik_Tot_abs_Q>
0

> <r_epik_Metal_State_Penalty>
-0

> <b_epik_Metal_Only>
0

> <s_lp_Force_Field>
OPLS_2005

> <r_lp_Energy>
43.6884

> <b_lp_Chiralities_Consistent>
1

> <s_lp_Variant>
AV-unprocessed.smi:196-4

> <Gold.Version>
5.8.1

> <Gold.Id.Protein>
6NUR|6NUR_protein|mol2

> <Gold.PLP.Fitness>
50.9170

> <Gold.PLP.PLP>
-37.9876

> <Gold.PLP.part.hbond>
-5.4349

> <Gold.PLP.part.metal>
0.0000

> <Gold.PLP.part.buried>
-3.8494

> <Gold.PLP.part.nonpolar>
-30.2251

> <Gold.PLP.part.repulsive>
0.3389

> <Gold.PLP.ligand.clash>
0.0000

> <Gold.PLP.ligand.torsion>
0.9291

> <Gold.PLP.Chemscore.Hbond>
4.8320

> <Gold.PLP.Chemscore.CHOScore>
0.0000

> <Gold.PLP.Chemscore.Metal>
0.0000

> <Gold.Chemscore.Hbonds>
donor molecule, donor type, donor heavy atom, donor atom, acceptor molecule, acceptor atom, score
      L1  H     7    37       P1  7957  0.78
      P1  H  6896  6907       L1    22  1.00
      P1  H  7989  7998       L1    25  1.00
      P1  H  7997  8009       L1    23  1.00
      P1  H  8011  8017       L1     7  1.00

> <Gold.PLP.Chemscore.Internal.Correction>
0.2916

> <Gold.Rescore>
     Score         DG    S(hbond)    S(metal)    S(lipo)     H(rot)  DE(clash)    DE(int)     intcor
      9.21     -15.68       2.73        0.00      65.93       2.60       0.99       5.49       ----

> <Gold.Chemscore.Fitness>
9.2093

> <Gold.Chemscore.DG>
-15.6808

> <Gold.Chemscore.ZeroCoef>
-5.4800

> <Gold.Chemscore.Hbond>
2.7349

> <Gold.Chemscore.Metal>
0.0000

> <Gold.Chemscore.Lipo>
65.9324

> <Gold.Chemscore.Internal_Hbond>
0.0000

> <Gold.Chemscore.DEClash>
0.9859

> <Gold.Chemscore.DEInternal>
5.4856

> <Gold.Chemscore.Rot>
2.5968

> <Gold.Chemscore.Internal.Correction>
   9.000000E+99

> <Gold.Chemscore.Hbonds>
donor molecule, donor type, donor heavy atom, donor atom, acceptor molecule, acceptor atom, score
      L1  H     7    37       P1  7957  0.76
      P1  H  6896  6907       L1    22  1.00
      P1  H  7989  7998       L1    25  0.30
      P1  H  7997  8009       L1    23  0.10
      P1  H  8011  8017       L1     7  0.28

> <Gold.Chemscore.Hbond.Weighted>
-9.1344

> <Gold.Chemscore.Metal.Weighted>
-0.0000

> <Gold.Chemscore.Lipo.Weighted>
-7.7141

> <Gold.Chemscore.Internal_Hbond.Weighted>
0.0000

> <Gold.Chemscore.DEClash.Weighted>
0.9859

> <Gold.Chemscore.DEInternal.Weighted>
5.4856

> <Gold.Chemscore.Rot.Weighted>
6.6477

> <Gold.Chemscore.Internal.Correction.Weighted>
   9.000000E+99

> <Gold.Protein.RotatedTorsions>
[ 6907 6896 6895 6894 ] final   32.22 input  -60.11 | X-H torsion
[ 7974 7965 7964 7962 ] final  171.61 input  175.53 | X-H torsion
[ 8008 7997 7996 7995 ] final -173.24 input   59.86 | X-H torsion
[ 10167 10162 10161 10158 ] final   56.89 input  -65.29 | X-H torsion
[ 10718 10713 10712 10709 ] final  -82.15 input   66.30 | X-H torsion
[ 10763 10752 10751 10750 ] final  169.18 input  -60.55 | X-H torsion
[ 11005 11000 10999 10996 ] final  127.74 input  -57.11 | X-H torsion

> <Gold.Protein.ActiveResidues>
 VAL166  LYS551  ARG553  GLY616  TRP617  ASP618  TYR619  PRO620  LYS621  CYS622 
 ASP623  PHE694  ASN695  SER759  ASP760  ASP761  ALA762  ILE779  LEU786  VAL792 
 PHE793  MET794  SER795  GLU796  ALA797  LYS798  CYS799  TRP800  GLU811  SER814 

> <Gold.Protein.RotatedAtoms>
  152.0714  134.9531  160.0574 H   0  0  0  0  0  0  0  0  0  0  0  0  # atno 6907 bound_to 6896
  152.0855  133.4169  159.4529 H   0  0  0  0  0  0  0  0  0  0  0  0  # atno 6908 bound_to 6896
  150.6836  134.2851  159.4687 H   0  0  0  0  0  0  0  0  0  0  0  0  # atno 6909 bound_to 6896
  144.7290  139.9376  143.6427 H   0  0  0  0  0  0  0  0  0  0  0  0  # atno 7974 bound_to 7965
  155.9549  140.1133  157.0945 H   0  0  0  0  0  0  0  0  0  0  0  0  # atno 8008 bound_to 7997
  154.4118  140.1193  156.5169 H   0  0  0  0  0  0  0  0  0  0  0  0  # atno 8009 bound_to 7997
  155.6794  140.3473  155.4851 H   0  0  0  0  0  0  0  0  0  0  0  0  # atno 8010 bound_to 7997
  140.2038  144.3960  150.6517 H   0  0  0  0  0  0  0  0  0  0  0  0  # atno 10167 bound_to 10162
  156.0038  130.4625  150.4061 H   0  0  0  0  0  0  0  0  0  0  0  0  # atno 10718 bound_to 10713
  154.3794  135.2753  155.2220 H   0  0  0  0  0  0  0  0  0  0  0  0  # atno 10763 bound_to 10752
  154.4333  135.5972  153.6086 H   0  0  0  0  0  0  0  0  0  0  0  0  # atno 10764 bound_to 10752
  152.9835  135.6001  154.4035 H   0  0  0  0  0  0  0  0  0  0  0  0  # atno 10765 bound_to 10752
  139.9523  134.9619  156.8899 H   0  0  0  0  0  0  0  0  0  0  0  0  # atno 11005 bound_to 11000
  146.0810  139.3797  143.0465 LP  0  0  0  0  0  0  0  0  0  0  0  0  # atno 17320 bound_to 7965
  145.7841  140.9843  143.1083 LP  0  0  0  0  0  0  0  0  0  0  0  0  # atno 17321 bound_to 7965
  140.6371  143.2197  151.6370 LP  0  0  0  0  0  0  0  0  0  0  0  0  # atno 17342 bound_to 10162
  139.5206  144.3217  152.0905 LP  0  0  0  0  0  0  0  0  0  0  0  0  # atno 17343 bound_to 10162
  157.2127  131.0464  151.2590 LP  0  0  0  0  0  0  0  0  0  0  0  0  # atno 17370 bound_to 10713
  157.3873  130.7263  149.6672 LP  0  0  0  0  0  0  0  0  0  0  0  0  # atno 17371 bound_to 10713
  140.5689  134.0462  155.7423 LP  0  0  0  0  0  0  0  0  0  0  0  0  # atno 17394 bound_to 11000
  141.1189  133.9495  157.2769 LP  0  0  0  0  0  0  0  0  0  0  0  0  # atno 17395 bound_to 11000

$$$$
