AV-unprocessed.smi:3191|AV-procd|sdf|12199|dock8
  -GOLD-   2272018 33D 1   1.00000     0.00000
 Structure written by MMmdl.
 35 36  0  0  0  0  0  0  0  0  1 V2000
  153.0088  142.5484  159.9214 C   0  0  0  0  0  0  0  0  0  0  0  0
  152.1882  143.7232  159.7055 N   0  0  0  0  0  0  0  0  0  0  0  0
  151.8625  144.6543  160.6124 C   0  0  0  0  0  0  0  0  0  0  0  0
  151.0954  145.6303  160.1466 N   0  0  0  0  0  0  0  0  0  0  0  0
  150.9089  145.2938  158.8088 C   0  0  0  0  0  0  0  0  0  0  0  0
  151.5749  144.1210  158.5206 C   0  0  0  0  0  0  0  0  0  0  0  0
  151.6887  143.3455  157.2440 C   0  0  0  0  0  0  0  0  0  0  0  0
  150.8130  142.0810  157.1925 C   0  0  0  0  0  0  0  0  0  0  0  0
  149.8434  142.1431  156.1049 N   0  0  0  0  0  0  0  0  0  0  0  0
  149.7372  141.2448  155.1140 C   0  0  0  0  0  0  0  0  0  0  0  0
  150.4659  140.2555  155.0310 O   0  0  0  0  0  0  0  0  0  0  0  0
  148.6481  141.5566  154.1344 C   0  0  2  0  0  0  0  0  0  0  0  0
  147.2684  141.8644  154.6790 C   0  0  0  0  0  0  0  0  0  0  0  0
  147.4968  140.5758  153.9204 C   0  0  0  0  0  0  0  0  0  0  0  0
  146.9449  140.4251  152.5136 C   0  0  0  0  0  0  0  0  0  0  0  0
  147.3916  139.2468  154.6587 C   0  0  0  0  0  0  0  0  0  0  0  0
  148.9611  142.1192  153.2558 H   0  0  0  0  0  0  0  0  0  0  0  0
  153.3696  142.5227  160.9501 H   0  0  0  0  0  0  0  0  0  0  0  0
  153.8654  142.5687  159.2471 H   0  0  0  0  0  0  0  0  0  0  0  0
  152.4222  141.6497  159.7293 H   0  0  0  0  0  0  0  0  0  0  0  0
  152.1954  144.6169  161.6394 H   0  0  0  0  0  0  0  0  0  0  0  0
  150.3126  145.9188  158.1602 H   0  0  0  0  0  0  0  0  0  0  0  0
  151.4282  144.0004  156.4117 H   0  0  0  0  0  0  0  0  0  0  0  0
  152.7314  143.0640  157.0922 H   0  0  0  0  0  0  0  0  0  0  0  0
  151.4375  141.2012  157.0346 H   0  0  0  0  0  0  0  0  0  0  0  0
  150.2970  141.9314  158.1425 H   0  0  0  0  0  0  0  0  0  0  0  0
  149.2077  142.9277  156.1047 H   0  0  0  0  0  0  0  0  0  0  0  0
  147.1038  141.7960  155.7531 H   0  0  0  0  0  0  0  0  0  0  0  0
  146.7123  142.6592  154.1860 H   0  0  0  0  0  0  0  0  0  0  0  0
  145.8972  140.1241  152.5449 H   0  0  0  0  0  0  0  0  0  0  0  0
  147.5088  139.6708  151.9640 H   0  0  0  0  0  0  0  0  0  0  0  0
  147.0110  141.3671  151.9681 H   0  0  0  0  0  0  0  0  0  0  0  0
  146.3945  138.8224  154.5382 H   0  0  0  0  0  0  0  0  0  0  0  0
  147.5658  139.3649  155.7274 H   0  0  0  0  0  0  0  0  0  0  0  0
  148.1190  138.5369  154.2639 H   0  0  0  0  0  0  0  0  0  0  0  0
  1  2  1  0  0  0  0
  1 18  1  0  0  0  0
  1 19  1  0  0  0  0
  1 20  1  0  0  0  0
  2  6  1  0  0  0  0
  2  3  1  0  0  0  0
  3  4  2  0  0  0  0
  3 21  1  0  0  0  0
  4  5  1  0  0  0  0
  5  6  2  0  0  0  0
  5 22  1  0  0  0  0
  6  7  1  0  0  0  0
  7  8  1  0  0  0  0
  7 23  1  0  0  0  0
  7 24  1  0  0  0  0
  8  9  1  0  0  0  0
  8 25  1  0  0  0  0
  8 26  1  0  0  0  0
  9 10  1  0  0  0  0
  9 27  1  0  0  0  0
 10 11  2  0  0  0  0
 10 12  1  0  0  0  0
 12 17  1  0  0  0  0
 12 14  1  0  0  0  0
 12 13  1  0  0  0  0
 13 14  1  0  0  0  0
 13 28  1  0  0  0  0
 13 29  1  0  0  0  0
 14 15  1  0  0  0  0
 14 16  1  0  0  0  0
 15 30  1  0  0  0  0
 15 31  1  0  0  0  0
 15 32  1  0  0  0  0
 16 33  1  0  0  0  0
 16 34  1  0  0  0  0
 16 35  1  0  0  0  0
M  END
> <s_m_source_file>
AV-unprocessed.smi

> <i_m_source_file_index>
3191

> <i_lp_mmshare_version>
43012

> <i_f3d_flags>
0

> <s_epik_input>
W0NIM11uMVtjSF1uW2NIXWMxW0NIMl1bQ0gyXVtOSF1DKD1PKVtDQEBIXShbQ0gyXTIpQzIoW0NIM10pW0NIM10=

> <s_epik_cmdline>
J2VwaWtfcHl0aG9uJywgJy1waCcsICc3LjAnLCAnLXRuJywgJzgnLCAnLW1hJywgJzIwMCcsICctbWV0YWxfYmluZGluZycsICctaW1hZScsICc8aW5maWxlLm1hZT4nLCAnLW9tYWUnLCAnPG91dGZpbGUubWFlPic=

> <r_lp_tautomer_probability>
1

> <r_epik_Ionization_Penalty>
0.874249

> <r_epik_Ionization_Penalty_Charging>
0.874249

> <r_epik_Ionization_Penalty_Neutral>
1.97773e-08

> <r_epik_State_Penalty>
0.911868

> <r_epik_Charging_Adjusted_Penalty>
1.78612

> <i_epik_Tot_Q>
0

> <i_epik_Tot_abs_Q>
0

> <r_epik_Metal_State_Penalty>
0.361186

> <b_epik_Metal_Only>
0

> <s_lp_Force_Field>
OPLS_2005

> <r_lp_Energy>
11.6999

> <b_lp_Chiralities_Consistent>
1

> <s_lp_Variant>
AV-unprocessed.smi:3191-4

> <Gold.Version>
5.8.1

> <Gold.Id.Protein>
6NUR|6NUR_protein|mol2

> <Gold.PLP.Fitness>
45.8074

> <Gold.PLP.PLP>
-38.2469

> <Gold.PLP.part.hbond>
-2.5374

> <Gold.PLP.part.metal>
0.0000

> <Gold.PLP.part.buried>
-2.6149

> <Gold.PLP.part.nonpolar>
-33.5964

> <Gold.PLP.part.repulsive>
0.3897

> <Gold.PLP.ligand.clash>
0.0000

> <Gold.PLP.ligand.torsion>
0.6794

> <Gold.PLP.Chemscore.Hbond>
1.9440

> <Gold.PLP.Chemscore.CHOScore>
0.9990

> <Gold.PLP.Chemscore.Metal>
0.0000

> <Gold.Chemscore.Hbonds>
donor molecule, donor type, donor heavy atom, donor atom, acceptor molecule, acceptor atom, score
      L1  H     9    27       P1  8028  0.98
      P1  H  7989  7998       L1    11  0.90
      L1  C     5    22       P1  8029  0.97

> <Gold.PLP.Chemscore.Internal.Correction>
0.0904

> <Gold.Rescore>
     Score         DG    S(hbond)    S(metal)    S(lipo)     H(rot)  DE(clash)    DE(int)     intcor
     14.95     -16.00       1.48        0.00      84.57       1.69       0.57       0.48       ----

> <Gold.Chemscore.Fitness>
14.9524

> <Gold.Chemscore.DG>
-16.0029

> <Gold.Chemscore.ZeroCoef>
-5.4800

> <Gold.Chemscore.Hbond>
1.4847

> <Gold.Chemscore.Metal>
0.0000

> <Gold.Chemscore.Lipo>
84.5737

> <Gold.Chemscore.Internal_Hbond>
0.0000

> <Gold.Chemscore.DEClash>
0.5704

> <Gold.Chemscore.DEInternal>
0.4801

> <Gold.Chemscore.Rot>
1.6919

> <Gold.Chemscore.Internal.Correction>
   9.000000E+99

> <Gold.Chemscore.Hbonds>
donor molecule, donor type, donor heavy atom, donor atom, acceptor molecule, acceptor atom, score
      L1  H     9    27       P1  8028  0.93
      P1  H  7989  7998       L1    11  0.17

> <Gold.Chemscore.Hbond.Weighted>
-4.9589

> <Gold.Chemscore.Metal.Weighted>
-0.0000

> <Gold.Chemscore.Lipo.Weighted>
-9.8951

> <Gold.Chemscore.Internal_Hbond.Weighted>
0.0000

> <Gold.Chemscore.DEClash.Weighted>
0.5704

> <Gold.Chemscore.DEInternal.Weighted>
0.4801

> <Gold.Chemscore.Rot.Weighted>
4.3312

> <Gold.Chemscore.Internal.Correction.Weighted>
   9.000000E+99

> <Gold.Protein.RotatedTorsions>
[ 6907 6896 6895 6894 ] final  -29.27 input  -60.11 | X-H torsion
[ 7974 7965 7964 7962 ] final -160.61 input  175.53 | X-H torsion
[ 8008 7997 7996 7995 ] final  153.52 input   59.86 | X-H torsion
[ 10167 10162 10161 10158 ] final  124.58 input  -65.29 | X-H torsion
[ 10718 10713 10712 10709 ] final  125.55 input   66.30 | X-H torsion
[ 10763 10752 10751 10750 ] final -174.25 input  -60.55 | X-H torsion
[ 11005 11000 10999 10996 ] final  178.18 input  -57.11 | X-H torsion

> <Gold.Protein.ActiveResidues>
 VAL166  LYS551  ARG553  GLY616  TRP617  ASP618  TYR619  PRO620  LYS621  CYS622 
 ASP623  PHE694  ASN695  SER759  ASP760  ASP761  ALA762  ILE779  LEU786  VAL792 
 PHE793  MET794  SER795  GLU796  ALA797  LYS798  CYS799  TRP800  GLU811  SER814 

> <Gold.Protein.RotatedAtoms>
  151.1215  135.0081  159.8540 H   0  0  0  0  0  0  0  0  0  0  0  0  # atno 6907 bound_to 6896
  152.5448  134.1717  159.8610 H   0  0  0  0  0  0  0  0  0  0  0  0  # atno 6908 bound_to 6896
  151.1776  133.4700  159.2627 H   0  0  0  0  0  0  0  0  0  0  0  0  # atno 6909 bound_to 6896
  144.7421  140.3517  143.6114 H   0  0  0  0  0  0  0  0  0  0  0  0  # atno 7974 bound_to 7965
  156.2577  140.1991  156.6503 H   0  0  0  0  0  0  0  0  0  0  0  0  # atno 8008 bound_to 7997
  154.6542  140.0568  157.0014 H   0  0  0  0  0  0  0  0  0  0  0  0  # atno 8009 bound_to 7997
  155.1373  140.3239  155.4463 H   0  0  0  0  0  0  0  0  0  0  0  0  # atno 8010 bound_to 7997
  139.5734  144.6951  151.3718 H   0  0  0  0  0  0  0  0  0  0  0  0  # atno 10167 bound_to 10162
  157.5494  131.1094  150.8728 H   0  0  0  0  0  0  0  0  0  0  0  0  # atno 10718 bound_to 10713
  154.5984  135.2852  155.0561 H   0  0  0  0  0  0  0  0  0  0  0  0  # atno 10763 bound_to 10752
  154.1836  135.6452  153.5044 H   0  0  0  0  0  0  0  0  0  0  0  0  # atno 10764 bound_to 10752
  153.0147  135.5429  154.6694 H   0  0  0  0  0  0  0  0  0  0  0  0  # atno 10765 bound_to 10752
  140.3923  134.6851  157.4515 H   0  0  0  0  0  0  0  0  0  0  0  0  # atno 11005 bound_to 11000
  145.7269  139.1725  143.2453 LP  0  0  0  0  0  0  0  0  0  0  0  0  # atno 17320 bound_to 7965
  146.1235  140.7278  142.9446 LP  0  0  0  0  0  0  0  0  0  0  0  0  # atno 17321 bound_to 7965
  140.7017  143.7614  150.7415 LP  0  0  0  0  0  0  0  0  0  0  0  0  # atno 17342 bound_to 10162
  140.1127  143.4684  152.2360 LP  0  0  0  0  0  0  0  0  0  0  0  0  # atno 17343 bound_to 10162
  156.9258  130.5331  149.5279 LP  0  0  0  0  0  0  0  0  0  0  0  0  # atno 17370 bound_to 10713
  156.0563  130.5624  150.9098 LP  0  0  0  0  0  0  0  0  0  0  0  0  # atno 17371 bound_to 10713
  140.0397  134.6285  155.8996 LP  0  0  0  0  0  0  0  0  0  0  0  0  # atno 17394 bound_to 11000
  141.1886  133.6563  156.5333 LP  0  0  0  0  0  0  0  0  0  0  0  0  # atno 17395 bound_to 11000

$$$$
