AV-unprocessed.smi:3314|AV-procd|sdf|12745|dock5
  -GOLD-   2272019 83D 1   1.00000     0.00000
 Structure written by MMmdl.
 37 38  0  0  0  0  0  0  0  0  3 V2000
  153.9828  141.1291  161.1636 C   0  0  0  0  0  0  0  0  0  0  0  0
  153.0707  141.9032  160.2358 C   0  0  0  0  0  0  0  0  0  0  0  0
  152.9506  143.3021  160.3401 C   0  0  0  0  0  0  0  0  0  0  0  0
  152.0823  143.9611  159.4483 C   0  0  0  0  0  0  0  0  0  0  0  0
  151.9108  145.4644  159.5073 C   0  0  0  0  0  0  0  0  0  0  0  0
  151.3683  143.3158  158.5005 N   0  0  0  0  0  0  0  0  0  0  0  0
  151.4795  141.9708  158.3862 C   0  0  0  0  0  0  0  0  0  0  0  0
  150.7568  141.3426  157.4480 N   0  5  0  0  0  0  0  0  0  0  0  0
  151.3335  140.3929  156.6723 C   0  0  0  0  0  0  0  0  0  0  0  0
  152.4838  139.9527  156.7264 O   0  0  0  0  0  0  0  0  0  0  0  0
  150.3495  139.8550  155.6087 C   0  0  2  0  0  0  0  0  0  0  0  0
  149.5673  138.5928  156.0439 C   0  0  0  0  0  0  0  0  0  0  0  0
  150.4622  137.4135  156.1221 N   0  3  1  0  0  0  0  0  0  0  0  0
  149.7695  136.2010  156.6061 C   0  0  0  0  0  0  0  0  0  0  0  0
  151.1637  137.1982  154.8368 C   0  0  0  0  0  0  0  0  0  0  0  0
  151.9230  138.4693  154.4233 C   0  0  0  0  0  0  0  0  0  0  0  0
  151.0185  139.5722  154.3729 O   0  0  0  0  0  0  0  0  0  0  0  0
  152.3221  141.2317  159.2485 C   0  0  0  0  0  0  0  0  0  0  0  0
  154.5942  141.7993  161.7686 H   0  0  0  0  0  0  0  0  0  0  0  0
  154.6494  140.4859  160.5888 H   0  0  0  0  0  0  0  0  0  0  0  0
  153.3939  140.5031  161.8342 H   0  0  0  0  0  0  0  0  0  0  0  0
  153.5069  143.8551  161.0826 H   0  0  0  0  0  0  0  0  0  0  0  0
  152.0390  145.8280  160.5272 H   0  0  0  0  0  0  0  0  0  0  0  0
  150.9178  145.7595  159.1657 H   0  0  0  0  0  0  0  0  0  0  0  0
  152.6513  145.9512  158.8725 H   0  0  0  0  0  0  0  0  0  0  0  0
  149.6281  140.6496  155.4126 H   0  0  0  0  0  0  0  0  0  0  0  0
  149.0842  138.7575  157.0081 H   0  0  0  0  0  0  0  0  0  0  0  0
  148.7685  138.3922  155.3282 H   0  0  0  0  0  0  0  0  0  0  0  0
  148.9777  135.9015  155.9184 H   0  0  0  0  0  0  0  0  0  0  0  0
  149.3252  136.3784  157.5859 H   0  0  0  0  0  0  0  0  0  0  0  0
  150.4710  135.3719  156.7038 H   0  0  0  0  0  0  0  0  0  0  0  0
  151.8611  136.3651  154.9308 H   0  0  0  0  0  0  0  0  0  0  0  0
  150.4405  136.9274  154.0660 H   0  0  0  0  0  0  0  0  0  0  0  0
  152.7515  138.6673  155.1044 H   0  0  0  0  0  0  0  0  0  0  0  0
  152.3627  138.3350  153.4349 H   0  0  0  0  0  0  0  0  0  0  0  0
  152.3959  140.1581  159.1507 H   0  0  0  0  0  0  0  0  0  0  0  0
  151.1709  137.6385  156.8069 H   0  0  0  0  0  0  0  0  0  0  0  0
  1  2  1  0  0  0  0
  1 19  1  0  0  0  0
  1 20  1  0  0  0  0
  1 21  1  0  0  0  0
  2 18  2  0  0  0  0
  2  3  1  0  0  0  0
  3  4  2  0  0  0  0
  3 22  1  0  0  0  0
  4  5  1  0  0  0  0
  4  6  1  0  0  0  0
  5 23  1  0  0  0  0
  5 24  1  0  0  0  0
  5 25  1  0  0  0  0
  6  7  2  0  0  0  0
  7  8  1  0  0  0  0
  7 18  1  0  0  0  0
  8  9  1  0  0  0  0
  9 10  2  0  0  0  0
  9 11  1  0  0  0  0
 11 17  1  0  0  0  0
 11 12  1  0  0  0  0
 11 26  1  0  0  0  0
 12 13  1  0  0  0  0
 12 27  1  0  0  0  0
 12 28  1  0  0  0  0
 13 14  1  0  0  0  0
 13 15  1  0  0  0  0
 13 37  1  0  0  0  0
 14 29  1  0  0  0  0
 14 30  1  0  0  0  0
 14 31  1  0  0  0  0
 15 16  1  0  0  0  0
 15 32  1  0  0  0  0
 15 33  1  0  0  0  0
 16 17  1  0  0  0  0
 16 34  1  0  0  0  0
 16 35  1  0  0  0  0
 18 36  1  0  0  0  0
M  CHG  1   8  -1
M  CHG  1  13   1
M  END
> <s_m_source_file>
AV-unprocessed.smi

> <i_m_source_file_index>
3314

> <i_lp_mmshare_version>
43012

> <i_f3d_flags>
0

> <s_epik_input>
W0NIM11jMVtjSF1jKFtDSDNdKW5jKFtjSF0xKVtOSF1DKD1PKVtDQEBIXTJbQ0gyXU4oW0NIM10pW0NIMl1bQ0gyXU8y

> <s_epik_cmdline>
J2VwaWtfcHl0aG9uJywgJy1waCcsICc3LjAnLCAnLXRuJywgJzgnLCAnLW1hJywgJzIwMCcsICctbWV0YWxfYmluZGluZycsICctaW1hZScsICc8aW5maWxlLm1hZT4nLCAnLW9tYWUnLCAnPG91dGZpbGUubWFlPic=

> <r_epik_Ionization_Penalty>
13.8964

> <r_epik_Ionization_Penalty_Charging>
7.88995

> <r_epik_Ionization_Penalty_Neutral>
6.00641

> <r_epik_State_Penalty>
8.39989

> <r_epik_Charging_Adjusted_Penalty>
16.2898

> <i_epik_Tot_Q>
0

> <i_epik_Tot_abs_Q>
2

> <r_epik_Metal_State_Penalty>
4.31145

> <b_epik_Metal_Only>
1

> <s_lp_Force_Field>
OPLS_2005

> <r_lp_Energy>
7.08272

> <b_lp_Chiralities_Consistent>
1

> <s_lp_Variant>
AV-unprocessed.smi:3314-15

> <Gold.Version>
5.8.1

> <Gold.Id.Protein>
6NUR|6NUR_protein|mol2

> <Gold.PLP.Fitness>
40.5852

> <Gold.PLP.PLP>
-36.7031

> <Gold.PLP.part.hbond>
-2.0000

> <Gold.PLP.part.metal>
0.0000

> <Gold.PLP.part.buried>
-5.1057

> <Gold.PLP.part.nonpolar>
-29.7912

> <Gold.PLP.part.repulsive>
0.2741

> <Gold.PLP.ligand.clash>
0.0000

> <Gold.PLP.ligand.torsion>
1.0797

> <Gold.PLP.Chemscore.Hbond>
2.0000

> <Gold.PLP.Chemscore.CHOScore>
0.0000

> <Gold.PLP.Chemscore.Metal>
0.0000

> <Gold.Chemscore.Hbonds>
donor molecule, donor type, donor heavy atom, donor atom, acceptor molecule, acceptor atom, score
      P1  H  7989  7998       L1    17  1.00
      P1  H  7997  8008       L1    10  1.00

> <Gold.PLP.Chemscore.Internal.Correction>
0.0415

> <Gold.Rescore>
     Score         DG    S(hbond)    S(metal)    S(lipo)     H(rot)  DE(clash)    DE(int)     intcor
     16.22     -20.09       1.87        0.00      93.28       1.00       0.05       3.82       ----

> <Gold.Chemscore.Fitness>
16.2158

> <Gold.Chemscore.DG>
-20.0899

> <Gold.Chemscore.ZeroCoef>
-5.4800

> <Gold.Chemscore.Hbond>
1.8730

> <Gold.Chemscore.Metal>
0.0000

> <Gold.Chemscore.Lipo>
93.2839

> <Gold.Chemscore.Internal_Hbond>
0.0000

> <Gold.Chemscore.DEClash>
0.0534

> <Gold.Chemscore.DEInternal>
3.8208

> <Gold.Chemscore.Rot>
1.0000

> <Gold.Chemscore.Internal.Correction>
   9.000000E+99

> <Gold.Chemscore.Hbonds>
donor molecule, donor type, donor heavy atom, donor atom, acceptor molecule, acceptor atom, score
      P1  H  7989  7998       L1    17  0.79
      P1  H  7997  8008       L1    10  0.95

> <Gold.Chemscore.Hbond.Weighted>
-6.2557

> <Gold.Chemscore.Metal.Weighted>
-0.0000

> <Gold.Chemscore.Lipo.Weighted>
-10.9142

> <Gold.Chemscore.Internal_Hbond.Weighted>
0.0000

> <Gold.Chemscore.DEClash.Weighted>
0.0534

> <Gold.Chemscore.DEInternal.Weighted>
3.8208

> <Gold.Chemscore.Rot.Weighted>
2.5600

> <Gold.Chemscore.Internal.Correction.Weighted>
   9.000000E+99

> <Gold.Protein.RotatedTorsions>
[ 6907 6896 6895 6894 ] final  162.55 input  -60.11 | X-H torsion
[ 7974 7965 7964 7962 ] final  142.71 input  175.53 | X-H torsion
[ 8008 7997 7996 7995 ] final  -36.18 input   59.86 | X-H torsion
[ 10167 10162 10161 10158 ] final -166.77 input  -65.29 | X-H torsion
[ 10718 10713 10712 10709 ] final   10.24 input   66.30 | X-H torsion
[ 10763 10752 10751 10750 ] final   30.96 input  -60.55 | X-H torsion
[ 11005 11000 10999 10996 ] final -118.81 input  -57.11 | X-H torsion

> <Gold.Protein.ActiveResidues>
 VAL166  LYS551  ARG553  GLY616  TRP617  ASP618  TYR619  PRO620  LYS621  CYS622 
 ASP623  PHE694  ASN695  SER759  ASP760  ASP761  ALA762  ILE779  LEU786  VAL792 
 PHE793  MET794  SER795  GLU796  ALA797  LYS798  CYS799  TRP800  GLU811  SER814 

> <Gold.Protein.RotatedAtoms>
  151.9387  133.3631  159.3956 H   0  0  0  0  0  0  0  0  0  0  0  0  # atno 6907 bound_to 6896
  150.7002  134.4462  159.5324 H   0  0  0  0  0  0  0  0  0  0  0  0  # atno 6908 bound_to 6896
  152.2115  134.8497  160.0547 H   0  0  0  0  0  0  0  0  0  0  0  0  # atno 6909 bound_to 6896
  144.8984  139.5458  143.5765 H   0  0  0  0  0  0  0  0  0  0  0  0  # atno 7974 bound_to 7965
  154.4079  140.1637  156.2331 H   0  0  0  0  0  0  0  0  0  0  0  0  # atno 8008 bound_to 7997
  155.9265  140.3417  155.6192 H   0  0  0  0  0  0  0  0  0  0  0  0  # atno 8009 bound_to 7997
  155.7158  140.0762  157.2342 H   0  0  0  0  0  0  0  0  0  0  0  0  # atno 8010 bound_to 7997
  139.6093  144.0848  152.1825 H   0  0  0  0  0  0  0  0  0  0  0  0  # atno 10167 bound_to 10162
  156.9780  130.5994  149.5674 H   0  0  0  0  0  0  0  0  0  0  0  0  # atno 10718 bound_to 10713
  153.0342  135.6451  154.1126 H   0  0  0  0  0  0  0  0  0  0  0  0  # atno 10763 bound_to 10752
  154.0843  135.2871  155.3286 H   0  0  0  0  0  0  0  0  0  0  0  0  # atno 10764 bound_to 10752
  154.6508  135.5426  153.7964 H   0  0  0  0  0  0  0  0  0  0  0  0  # atno 10765 bound_to 10752
  141.0260  134.0054  157.3214 H   0  0  0  0  0  0  0  0  0  0  0  0  # atno 11005 bound_to 11000
  146.3094  139.7694  142.9031 LP  0  0  0  0  0  0  0  0  0  0  0  0  # atno 17320 bound_to 7965
  145.3659  141.0334  143.3258 LP  0  0  0  0  0  0  0  0  0  0  0  0  # atno 17321 bound_to 7965
  140.0462  144.5968  150.7371 LP  0  0  0  0  0  0  0  0  0  0  0  0  # atno 17342 bound_to 10162
  140.7307  143.2687  151.3960 LP  0  0  0  0  0  0  0  0  0  0  0  0  # atno 17343 bound_to 10162
  156.0256  130.5349  150.8396 LP  0  0  0  0  0  0  0  0  0  0  0  0  # atno 17370 bound_to 10713
  157.5546  131.0944  150.9647 LP  0  0  0  0  0  0  0  0  0  0  0  0  # atno 17371 bound_to 10713
  139.9176  135.0198  156.7941 LP  0  0  0  0  0  0  0  0  0  0  0  0  # atno 17394 bound_to 11000
  140.6491  133.9748  155.7746 LP  0  0  0  0  0  0  0  0  0  0  0  0  # atno 17395 bound_to 11000

$$$$
