AV-unprocessed.smi:1792|AV-procd|sdf|7223|dock2
  -GOLD-   22720 8463D 1   1.00000     0.00000
 Structure written by MMmdl.
 43 44  0  0  0  0  0  0  0  0  2 V2000
  146.1829  141.2055  155.8516 C   0  0  0  0  0  0  0  0  0  0  0  0
  146.8212  140.9971  154.4559 C   0  0  0  0  0  0  0  0  0  0  0  0
  146.5728  142.2803  153.6297 C   0  0  0  0  0  0  0  0  0  0  0  0
  148.3581  140.8339  154.6564 C   0  0  0  0  0  0  0  0  0  0  0  0
  148.9594  141.8666  155.5021 N   0  0  0  0  0  0  0  0  0  0  0  0
  149.7863  141.6447  156.5341 C   0  0  0  0  0  0  0  0  0  0  0  0
  150.1577  140.5217  156.8749 O   0  0  0  0  0  0  0  0  0  0  0  0
  150.1453  142.7967  157.1278 N   0  0  0  0  0  0  0  0  0  0  0  0
  151.0106  142.9771  158.2399 C   0  0  0  0  0  0  0  0  0  0  0  0
  151.2501  144.3224  158.6007 C   0  0  0  0  0  0  0  0  0  0  0  0
  152.0927  144.6075  159.6927 C   0  0  0  0  0  0  0  0  0  0  0  0
  152.6762  143.5383  160.3956 C   0  0  0  0  0  0  0  0  0  0  0  0
  152.3888  142.2288  159.9691 C   0  0  0  0  0  0  0  0  0  0  0  0
  151.5813  141.9534  158.9230 N   0  0  0  0  0  0  0  0  0  0  0  0
  146.2345  139.7803  153.7861 N   0  3  0  0  0  0  0  0  0  0  0  0
  146.9911  139.2495  152.6169 C   0  0  0  0  0  0  0  0  0  0  0  0
  146.2028  138.1226  151.9276 C   0  0  0  0  0  0  0  0  0  0  0  0
  145.9166  137.0907  152.8610 O   0  0  0  0  0  0  0  0  0  0  0  0
  145.1176  137.5625  153.9364 C   0  0  0  0  0  0  0  0  0  0  0  0
  145.8799  138.6576  154.6996 C   0  0  0  0  0  0  0  0  0  0  0  0
  146.7258  141.9551  156.4283 H   0  0  0  0  0  0  0  0  0  0  0  0
  146.1776  140.2856  156.4369 H   0  0  0  0  0  0  0  0  0  0  0  0
  145.1551  141.5625  155.7873 H   0  0  0  0  0  0  0  0  0  0  0  0
  146.9752  143.1548  154.1423 H   0  0  0  0  0  0  0  0  0  0  0  0
  145.5110  142.4683  153.4708 H   0  0  0  0  0  0  0  0  0  0  0  0
  147.0530  142.2425  152.6523 H   0  0  0  0  0  0  0  0  0  0  0  0
  148.5803  139.8736  155.1214 H   0  0  0  0  0  0  0  0  0  0  0  0
  148.8667  140.7901  153.6915 H   0  0  0  0  0  0  0  0  0  0  0  0
  148.6981  142.8216  155.3055 H   0  0  0  0  0  0  0  0  0  0  0  0
  149.7503  143.6433  156.7461 H   0  0  0  0  0  0  0  0  0  0  0  0
  150.7928  145.1324  158.0511 H   0  0  0  0  0  0  0  0  0  0  0  0
  152.2871  145.6286  159.9854 H   0  0  0  0  0  0  0  0  0  0  0  0
  153.3267  143.7173  161.2388 H   0  0  0  0  0  0  0  0  0  0  0  0
  152.8180  141.3799  160.4805 H   0  0  0  0  0  0  0  0  0  0  0  0
  147.1738  140.0223  151.8725 H   0  0  0  0  0  0  0  0  0  0  0  0
  147.9627  138.8726  152.9373 H   0  0  0  0  0  0  0  0  0  0  0  0
  145.2774  138.5044  151.4931 H   0  0  0  0  0  0  0  0  0  0  0  0
  146.7876  137.7033  151.1088 H   0  0  0  0  0  0  0  0  0  0  0  0
  144.1627  137.9376  153.5642 H   0  0  0  0  0  0  0  0  0  0  0  0
  144.8942  136.7280  154.6013 H   0  0  0  0  0  0  0  0  0  0  0  0
  146.7818  138.2281  155.1365 H   0  0  0  0  0  0  0  0  0  0  0  0
  145.2538  138.9950  155.5233 H   0  0  0  0  0  0  0  0  0  0  0  0
  145.3566  140.1019  153.4043 H   0  0  0  0  0  0  0  0  0  0  0  0
  1  2  1  0  0  0  0
  1 21  1  0  0  0  0
  1 22  1  0  0  0  0
  1 23  1  0  0  0  0
  2  3  1  0  0  0  0
  2  4  1  0  0  0  0
  2 15  1  0  0  0  0
  3 24  1  0  0  0  0
  3 25  1  0  0  0  0
  3 26  1  0  0  0  0
  4  5  1  0  0  0  0
  4 27  1  0  0  0  0
  4 28  1  0  0  0  0
  5  6  1  0  0  0  0
  5 29  1  0  0  0  0
  6  7  2  0  0  0  0
  6  8  1  0  0  0  0
  8  9  1  0  0  0  0
  8 30  1  0  0  0  0
  9 14  1  0  0  0  0
  9 10  2  0  0  0  0
 10 11  1  0  0  0  0
 10 31  1  0  0  0  0
 11 12  2  0  0  0  0
 11 32  1  0  0  0  0
 12 13  1  0  0  0  0
 12 33  1  0  0  0  0
 13 14  2  0  0  0  0
 13 34  1  0  0  0  0
 15 20  1  0  0  0  0
 15 16  1  0  0  0  0
 15 43  1  0  0  0  0
 16 17  1  0  0  0  0
 16 35  1  0  0  0  0
 16 36  1  0  0  0  0
 17 18  1  0  0  0  0
 17 37  1  0  0  0  0
 17 38  1  0  0  0  0
 18 19  1  0  0  0  0
 19 20  1  0  0  0  0
 19 39  1  0  0  0  0
 19 40  1  0  0  0  0
 20 41  1  0  0  0  0
 20 42  1  0  0  0  0
M  CHG  1  15   1
M  END
> <s_m_source_file>
AV-unprocessed.smi

> <i_m_source_file_index>
1792

> <i_lp_mmshare_version>
43012

> <i_f3d_flags>
0

> <s_epik_input>
W0NIMl0xW0NIMl1PW0NIMl1bQ0gyXU4xQyhbQ0gzXSkoW0NIM10pW0NIMl1bTkhdQyg9TylbTkhdYzJbY0hdW2NIXVtjSF1bY0hdbjI=

> <s_epik_cmdline>
J2VwaWtfcHl0aG9uJywgJy1waCcsICc3LjAnLCAnLXRuJywgJzgnLCAnLW1hJywgJzIwMCcsICctbWV0YWxfYmluZGluZycsICctaW1hZScsICc8aW5maWxlLm1hZT4nLCAnLW9tYWUnLCAnPG91dGZpbGUubWFlPic=

> <r_epik_Ionization_Penalty>
0.602565

> <r_epik_Ionization_Penalty_Charging>
0.602531

> <r_epik_Ionization_Penalty_Neutral>
3.47415e-05

> <r_epik_State_Penalty>
0.617039

> <r_epik_Charging_Adjusted_Penalty>
1.21957

> <i_epik_Tot_Q>
1

> <i_epik_Tot_abs_Q>
1

> <r_epik_Metal_State_Penalty>
0.617041

> <b_epik_Metal_Only>
0

> <s_lp_Force_Field>
OPLS_2005

> <r_lp_Energy>
32.7628

> <b_lp_Chiralities_Consistent>
1

> <s_lp_Variant>
AV-unprocessed.smi:1792-2

> <Gold.Version>
5.8.1

> <Gold.Id.Protein>
6NUR|6NUR_protein|mol2

> <Gold.PLP.Fitness>
48.0898

> <Gold.PLP.PLP>
-37.4352

> <Gold.PLP.part.hbond>
-3.0000

> <Gold.PLP.part.metal>
0.0000

> <Gold.PLP.part.buried>
-4.6161

> <Gold.PLP.part.nonpolar>
-30.7787

> <Gold.PLP.part.repulsive>
0.3742

> <Gold.PLP.ligand.clash>
0.0000

> <Gold.PLP.ligand.torsion>
0.7220

> <Gold.PLP.Chemscore.Hbond>
3.9920

> <Gold.PLP.Chemscore.CHOScore>
0.0000

> <Gold.PLP.Chemscore.Metal>
0.0000

> <Gold.Chemscore.Hbonds>
donor molecule, donor type, donor heavy atom, donor atom, acceptor molecule, acceptor atom, score
      L1  H     5    29       P1  8028  1.00
      L1  H     8    30       P1  8028  1.00
      L1  H    15    43       P1 10175  2.00

> <Gold.PLP.Chemscore.Internal.Correction>
0.1227

> <Gold.Rescore>
     Score         DG    S(hbond)    S(metal)    S(lipo)     H(rot)  DE(clash)    DE(int)     intcor
     19.66     -21.76       2.93        0.00      89.41       1.55       0.01       2.09       ----

> <Gold.Chemscore.Fitness>
19.6643

> <Gold.Chemscore.DG>
-21.7640

> <Gold.Chemscore.ZeroCoef>
-5.4800

> <Gold.Chemscore.Hbond>
2.9295

> <Gold.Chemscore.Metal>
0.0000

> <Gold.Chemscore.Lipo>
89.4137

> <Gold.Chemscore.Internal_Hbond>
0.0000

> <Gold.Chemscore.DEClash>
0.0073

> <Gold.Chemscore.DEInternal>
2.0924

> <Gold.Chemscore.Rot>
1.5476

> <Gold.Chemscore.Internal.Correction>
   9.000000E+99

> <Gold.Chemscore.Hbonds>
donor molecule, donor type, donor heavy atom, donor atom, acceptor molecule, acceptor atom, score
      L1  H     5    29       P1  8028  0.95
      L1  H     8    30       P1  8028  0.99
      L1  H    15    43       P1 10175  0.99

> <Gold.Chemscore.Hbond.Weighted>
-9.7845

> <Gold.Chemscore.Metal.Weighted>
-0.0000

> <Gold.Chemscore.Lipo.Weighted>
-10.4614

> <Gold.Chemscore.Internal_Hbond.Weighted>
0.0000

> <Gold.Chemscore.DEClash.Weighted>
0.0073

> <Gold.Chemscore.DEInternal.Weighted>
2.0924

> <Gold.Chemscore.Rot.Weighted>
3.9619

> <Gold.Chemscore.Internal.Correction.Weighted>
   9.000000E+99

> <Gold.Protein.RotatedTorsions>
[ 6907 6896 6895 6894 ] final  -45.41 input  -60.11 | X-H torsion
[ 7974 7965 7964 7962 ] final -172.38 input  175.53 | X-H torsion
[ 8008 7997 7996 7995 ] final   64.93 input   59.86 | X-H torsion
[ 10167 10162 10161 10158 ] final  -12.63 input  -65.29 | X-H torsion
[ 10718 10713 10712 10709 ] final   71.29 input   66.30 | X-H torsion
[ 10763 10752 10751 10750 ] final  158.17 input  -60.55 | X-H torsion
[ 11005 11000 10999 10996 ] final  -37.61 input  -57.11 | X-H torsion

> <Gold.Protein.ActiveResidues>
 VAL166  LYS551  ARG553  GLY616  TRP617  ASP618  TYR619  PRO620  LYS621  CYS622 
 ASP623  PHE694  ASN695  SER759  ASP760  ASP761  ALA762  ILE779  LEU786  VAL792 
 PHE793  MET794  SER795  GLU796  ALA797  LYS798  CYS799  TRP800  GLU811  SER814 

> <Gold.Protein.RotatedAtoms>
  150.9222  134.8640  159.7496 H   0  0  0  0  0  0  0  0  0  0  0  0  # atno 6907 bound_to 6896
  152.4998  134.4201  159.9487 H   0  0  0  0  0  0  0  0  0  0  0  0  # atno 6908 bound_to 6896
  151.4234  133.3652  159.2794 H   0  0  0  0  0  0  0  0  0  0  0  0  # atno 6909 bound_to 6896
  144.7147  140.1780  143.6361 H   0  0  0  0  0  0  0  0  0  0  0  0  # atno 7974 bound_to 7965
  155.6537  140.3497  155.4757 H   0  0  0  0  0  0  0  0  0  0  0  0  # atno 8008 bound_to 7997
  155.9826  140.1177  157.0735 H   0  0  0  0  0  0  0  0  0  0  0  0  # atno 8009 bound_to 7997
  154.4196  140.1135  156.5442 H   0  0  0  0  0  0  0  0  0  0  0  0  # atno 8010 bound_to 7997
  140.7165  143.5511  150.9300 H   0  0  0  0  0  0  0  0  0  0  0  0  # atno 10167 bound_to 10162
  157.6444  130.9520  150.0768 H   0  0  0  0  0  0  0  0  0  0  0  0  # atno 10718 bound_to 10713
  154.2118  135.2786  155.2955 H   0  0  0  0  0  0  0  0  0  0  0  0  # atno 10763 bound_to 10752
  154.5772  135.5600  153.7154 H   0  0  0  0  0  0  0  0  0  0  0  0  # atno 10764 bound_to 10752
  153.0062  135.6336  154.2257 H   0  0  0  0  0  0  0  0  0  0  0  0  # atno 10765 bound_to 10752
  140.9965  133.6977  156.1944 H   0  0  0  0  0  0  0  0  0  0  0  0  # atno 11005 bound_to 11000
  145.8882  139.2361  143.1565 LP  0  0  0  0  0  0  0  0  0  0  0  0  # atno 17320 bound_to 7965
  145.9929  140.8587  143.0057 LP  0  0  0  0  0  0  0  0  0  0  0  0  # atno 17321 bound_to 7965
  139.9236  143.6577  152.3091 LP  0  0  0  0  0  0  0  0  0  0  0  0  # atno 17342 bound_to 10162
  139.7002  144.7636  151.1286 LP  0  0  0  0  0  0  0  0  0  0  0  0  # atno 17343 bound_to 10162
  156.1756  130.3648  149.9105 LP  0  0  0  0  0  0  0  0  0  0  0  0  # atno 17370 bound_to 10713
  156.7070  130.8955  151.3605 LP  0  0  0  0  0  0  0  0  0  0  0  0  # atno 17371 bound_to 10713
  140.6957  134.4618  157.5587 LP  0  0  0  0  0  0  0  0  0  0  0  0  # atno 17394 bound_to 11000
  139.9017  134.8540  156.1867 LP  0  0  0  0  0  0  0  0  0  0  0  0  # atno 17395 bound_to 11000

$$$$
