#       Name:                AV-unprocessed.smi:142
#       Creating user name   scv26
#       Creation time:       Thu Mar 26 18:34:43 2020


#       File generated by GOLD software.
#

@<TRIPOS>MOLECULE
AV-unprocessed.smi:142
    60    63     1
SMALL
NO_CHARGES


@<TRIPOS>ATOM
      1 ****        -2.2572   4.3113  -1.1695 C.3            1 S1                 0.0000
      2 ****        -1.8957   2.8404  -1.4159 C.3            1 S1                 0.0000
      3 ****        -0.4424   2.7060  -1.4863 N.am           1 S1                 0.0000
      4 ****         0.2108   1.6607  -2.0160 C.2            1 S1                 0.0000
      5 ****        -0.3585   0.7147  -2.5620 O.2            1 S1                 0.0000
      6 ****         1.7416   1.6964  -1.9072 C.3            1 S1                 0.0000
      7 ****         2.3278   0.3517  -1.7198 N.am           1 S1                 0.0000
      8 ****         2.8217  -0.3479  -2.8490 C.2            1 S1                 0.0000
      9 ****         2.7787   0.1456  -3.9769 O.2            1 S1                 0.0000
     10 ****         3.3703  -1.6720  -2.5785 C.2            1 S1                 0.0000
     11 ****         3.8799  -2.3998  -3.5867 F              1 S1                 0.0000
     12 ****         3.3783  -2.1791  -1.3286 C.2            1 S1                 0.0000
     13 ****         2.8739  -1.4931  -0.2387 N.am           1 S1                 0.0000
     14 ****         2.8930  -2.0926   1.1505 C.3            1 S1                 0.0000
     15 ****         4.1464  -1.6378   1.9063 C.3            1 S1                 0.0000
     16 ****         5.1141  -2.7613   1.6043 C.3            1 S1                 0.0000
     17 ****         4.1832  -3.9684   1.5761 C.3            1 S1                 0.0000
     18 ****         2.9492  -3.4868   1.0487 O.3            1 S1                 0.0000
     19 ****         2.3411  -0.1979  -0.4151 C.2            1 S1                 0.0000
     20 ****         1.8995   0.4379   0.5452 O.2            1 S1                 0.0000
     21 ****        -2.5269   1.9378  -0.3593 C.ar           1 S1                 0.0000
     22 ****        -1.8653   1.6623   0.8595 C.ar           1 S1                 0.0000
     23 ****        -2.4617   0.8253   1.8215 C.ar           1 S1                 0.0000
     24 ****        -3.7288   0.2589   1.5777 C.ar           1 S1                 0.0000
     25 ****        -4.3307  -0.5812   2.5372 C.2            1 S1                 0.0000
     26 ****        -5.5980  -1.1429   2.2871 C.2            1 S1                 0.0000
     27 ****        -6.2669  -0.8669   1.0788 C.2            1 S1                 0.0000
     28 ****        -5.6704  -0.0285   0.1169 C.2            1 S1                 0.0000
     29 ****        -4.4015   0.5366   0.3618 C.ar           1 S1                 0.0000
     30 ****        -3.7991   1.3755  -0.5980 C.ar           1 S1                 0.0000
     31 ****        -3.3380   4.4546  -1.1769 H              1 S1                 0.0000
     32 ****        -1.8353   4.9557  -1.9416 H              1 S1                 0.0000
     33 ****        -1.8829   4.6565  -0.2050 H              1 S1                 0.0000
     34 ****        -2.3032   2.5589  -2.3890 H              1 S1                 0.0000
     35 ****         0.1043   3.4426  -1.0645 H              1 S1                 0.0000
     36 ****         2.1328   2.1937  -2.7957 H              1 S1                 0.0000
     37 ****         2.0355   2.3517  -1.0850 H              1 S1                 0.0000
     38 ****         3.8028  -3.1620  -1.1888 H              1 S1                 0.0000
     39 ****         1.9551  -1.7955   1.6226 H              1 S1                 0.0000
     40 ****         4.4921  -0.6533   1.5891 H              1 S1                 0.0000
     41 ****         3.9177  -1.6064   2.9723 H              1 S1                 0.0000
     42 ****         5.5728  -2.6124   0.6259 H              1 S1                 0.0000
     43 ****         5.9094  -2.8535   2.3443 H              1 S1                 0.0000
     44 ****         4.5794  -4.7908   0.9801 H              1 S1                 0.0000
     45 ****         4.0095  -4.3352   2.5884 H              1 S1                 0.0000
     46 ****        -0.8951   2.0900   1.0655 H              1 S1                 0.0000
     47 ****        -1.9414   0.6214   2.7460 H              1 S1                 0.0000
     48 ****        -3.8247  -0.7983   3.4667 H              1 S1                 0.0000
     49 ****        -6.0571  -1.7863   3.0231 H              1 S1                 0.0000
     50 ****        -7.2386  -1.2988   0.8889 H              1 S1                 0.0000
     51 ****        -6.1901   0.1770  -0.8078 H              1 S1                 0.0000
     52 ****        -4.3128   1.5866  -1.5251 H              1 S1                 0.0000
     53 ****        -1.3563   0.7014  -2.6265 LP             1 S1                 0.0000
     54 ****         0.1772  -0.0401  -2.9407 LP             1 S1                 0.0000
     55 ****         2.3897   1.0572  -4.1092 LP             1 S1                 0.0000
     56 ****         3.1329  -0.3655  -4.7601 LP             1 S1                 0.0000
     57 ****         2.8750  -3.7513   0.0872 LP             1 S1                 0.0000
     58 ****         2.1911  -3.8867   1.5639 LP             1 S1                 0.0000
     59 ****         1.5253   1.3550   0.4081 LP             1 S1                 0.0000
     60 ****         1.9158   0.0362   1.4609 LP             1 S1                 0.0000
@<TRIPOS>BOND
    1    1    2 1     
    2    1   31 1     
    3    1   32 1     
    4    1   33 1     
    5    2    3 1     
    6    2   21 1     
    7    2   34 1     
    8    3    4 am    
    9    3   35 1     
   10    4    5 2     
   11    4    6 1     
   12    6    7 1     
   13    6   36 1     
   14    6   37 1     
   15    7   19 am    
   16    7    8 am    
   17    8    9 2     
   18    8   10 1     
   19   10   11 1     
   20   10   12 2     
   21   12   13 1     
   22   12   38 1     
   23   13   14 1     
   24   13   19 am    
   25   14   18 1     
   26   14   15 1     
   27   14   39 1     
   28   15   16 1     
   29   15   40 1     
   30   15   41 1     
   31   16   17 1     
   32   16   42 1     
   33   16   43 1     
   34   17   18 1     
   35   17   44 1     
   36   17   45 1     
   37   19   20 2     
   38   21   30 ar    
   39   21   22 ar    
   40   22   23 ar    
   41   22   46 1     
   42   23   24 ar    
   43   23   47 1     
   44   24   29 ar    
   45   24   25 1     
   46   25   26 2     
   47   25   48 1     
   48   26   27 1     
   49   26   49 1     
   50   27   28 2     
   51   27   50 1     
   52   28   29 1     
   53   28   51 1     
   54   29   30 ar    
   55   30   52 1     
   56    5   53 1     
   57    5   54 1     
   58    9   55 1     
   59    9   56 1     
   60   18   57 1     
   61   18   58 1     
   62   20   59 1     
   63   20   60 1     
@<TRIPOS>SUBSTRUCTURE
      1 S1             1
@<TRIPOS>SET
LONE_PAIRS      STATIC     ATOMS    <user>   **** ""
8 53 54 55 56 57 58 59 60
DONOR_HYDROGENS      STATIC     ATOMS    <user>   **** ""
1 35
ATOM$BLUE        STATIC     ATOMS    COLORGROUP SYSTEM
8 53 54 55 56 57 58 59 60
ATOM$RED        STATIC     ATOMS    COLORGROUP SYSTEM
1 35
