#       Name:                AV-unprocessed.smi:3167
#       Creating user name   scv26
#       Creation time:       Fri Mar 27 17:53:23 2020


#       File generated by GOLD software.
#

@<TRIPOS>MOLECULE
AV-unprocessed.smi:3167
    40    41     1
SMALL
NO_CHARGES


@<TRIPOS>ATOM
      1 ****        -2.1015   1.0184   0.2479 C.3            1 S1                 0.0000
      2 ****        -1.3277  -0.3136   0.3752 C.3            1 S1                 0.0000
      3 ****         0.1967  -0.0569   0.4527 C.3            1 S1                 0.0000
      4 ****         0.6921   0.6555  -0.7193 N.am           1 S1                 0.0000
      5 ****         1.9653   1.0360  -0.8872 C.2            1 S1                 0.0000
      6 ****         2.8519   0.8160  -0.0619 O.2            1 S1                 0.0000
      7 ****         2.1356   1.6769  -2.0552 N.am           1 S1                 0.0000
      8 ****         3.3396   2.2195  -2.5714 C.2            1 S1                 0.0000
      9 ****         3.4540   2.8966  -3.8160 C.2            1 S1                 0.0000
     10 ****         4.6986   3.2941  -4.0380 N.2            1 S1                 0.0000
     11 ****         5.3802   2.8765  -2.9475 N.pl3          1 S1                 0.0000
     12 ****         4.5938   2.2175  -2.0284 C.2            1 S1                 0.0000
     13 ****        -1.7907  -1.0972   1.5575 N.4            1 S1                 1.0000
     14 ****        -3.2513  -1.3134   1.6546 C.3            1 S1                 0.0000
     15 ****        -3.4150  -2.5025   2.5935 C.3            1 S1                 0.0000
     16 ****        -2.2370  -3.3954   2.2234 C.3            1 S1                 0.0000
     17 ****        -1.1539  -2.4293   1.7238 C.3            1 S1                 0.0000
     18 ****         6.3708   3.0461  -2.8466 H              1 S1                 0.0000
     19 ****        -1.7649   1.6018  -0.6090 H              1 S1                 0.0000
     20 ****        -1.9724   1.6367   1.1367 H              1 S1                 0.0000
     21 ****        -3.1699   0.8595   0.1034 H              1 S1                 0.0000
     22 ****        -1.5334  -0.9072  -0.5173 H              1 S1                 0.0000
     23 ****         0.4311   0.5205   1.3487 H              1 S1                 0.0000
     24 ****         0.7500  -0.9935   0.5285 H              1 S1                 0.0000
     25 ****         0.0249   0.8750  -1.4447 H              1 S1                 0.0000
     26 ****         1.3188   1.7904  -2.6374 H              1 S1                 0.0000
     27 ****         2.6912   3.1085  -4.5505 H              1 S1                 0.0000
     28 ****         4.9911   1.8228  -1.1053 H              1 S1                 0.0000
     29 ****        -3.7724  -0.4294   2.0234 H              1 S1                 0.0000
     30 ****        -3.6536  -1.5636   0.6714 H              1 S1                 0.0000
     31 ****        -3.3212  -2.1737   3.6295 H              1 S1                 0.0000
     32 ****        -4.3780  -3.0020   2.4833 H              1 S1                 0.0000
     33 ****        -1.9002  -4.0082   3.0600 H              1 S1                 0.0000
     34 ****        -2.5276  -4.0692   1.4163 H              1 S1                 0.0000
     35 ****        -0.7392  -2.8004   0.7855 H              1 S1                 0.0000
     36 ****        -0.3355  -2.3472   2.4397 H              1 S1                 0.0000
     37 ****        -1.5396  -0.5664   2.3794 H              1 S1                 0.0000
     38 ****         2.6369   0.3303   0.7854 LP             1 S1                 0.0000
     39 ****         3.7870   1.1231  -0.2387 LP             1 S1                 0.0000
     40 ****         5.0528   3.7898  -4.8310 LP             1 S1                 0.0000
@<TRIPOS>BOND
    1    1    2 1     
    2    1   19 1     
    3    1   20 1     
    4    1   21 1     
    5    2    3 1     
    6    2   13 1     
    7    2   22 1     
    8    3    4 1     
    9    3   23 1     
   10    3   24 1     
   11    4    5 am    
   12    4   25 1     
   13    5    6 2     
   14    5    7 am    
   15    7    8 1     
   16    7   26 1     
   17    8   12 2     
   18    8    9 1     
   19    9   10 2     
   20    9   27 1     
   21   10   11 1     
   22   11   18 1     
   23   11   12 1     
   24   12   28 1     
   25   13   17 1     
   26   13   14 1     
   27   13   37 1     
   28   14   15 1     
   29   14   29 1     
   30   14   30 1     
   31   15   16 1     
   32   15   31 1     
   33   15   32 1     
   34   16   17 1     
   35   16   33 1     
   36   16   34 1     
   37   17   35 1     
   38   17   36 1     
   39    6   38 1     
   40    6   39 1     
   41   10   40 1     
@<TRIPOS>SUBSTRUCTURE
      1 S1             1
@<TRIPOS>SET
LONE_PAIRS      STATIC     ATOMS    <user>   **** ""
3 38 39 40
DONOR_HYDROGENS      STATIC     ATOMS    <user>   **** ""
4 25 26 18 37
ATOM$BLUE        STATIC     ATOMS    COLORGROUP SYSTEM
3 38 39 40
ATOM$RED        STATIC     ATOMS    COLORGROUP SYSTEM
4 25 26 18 37
