#       Name:                AV-unprocessed.smi:1795
#       Creating user name   scv26
#       Creation time:       Fri Mar 27 08:50:07 2020


#       File generated by GOLD software.
#

@<TRIPOS>MOLECULE
AV-unprocessed.smi:1795
    54    55     1
SMALL
NO_CHARGES


@<TRIPOS>ATOM
      1 ****        -5.0072  -1.0127   2.6280 C.3            1 S1                 0.0000
      2 ****        -3.5093  -1.3158   2.5086 C.3            1 S1                 0.0000
      3 ****        -2.8851  -0.6761   1.2553 C.3            1 S1                 0.0000
      4 ****        -1.4459  -1.0333   1.1311 N.4            1 S1                 1.0000
      5 ****        -0.7760  -0.3288  -0.0114 C.3            1 S1                 0.0000
      6 ****        -0.4876   1.1393   0.3780 C.3            1 S1                 0.0000
      7 ****         0.5161  -1.0336  -0.5120 C.3            1 S1                 0.0000
      8 ****         1.1417  -0.3377  -1.6336 N.am           1 S1                 0.0000
      9 ****         2.2442   0.4242  -1.5606 C.2            1 S1                 0.0000
     10 ****         2.8784   0.5976  -0.5193 O.2            1 S1                 0.0000
     11 ****         2.6956   1.0866  -2.8692 C.3            1 S1                 0.0000
     12 ****         3.2946   2.4152  -2.6595 N.am           1 S1                 0.0000
     13 ****         4.7006   2.5021  -2.7024 C.2            1 S1                 0.0000
     14 ****         5.3456   3.6657  -2.5231 C.2            1 S1                 0.0000
     15 ****         4.5592   4.8521  -2.2811 C.2            1 S1                 0.0000
     16 ****         3.2140   4.7799  -2.2346 C.2            1 S1                 0.0000
     17 ****         2.5048   3.5097  -2.4275 C.2            1 S1                 0.0000
     18 ****         1.2761   3.4333  -2.3826 O.2            1 S1                 0.0000
     19 ****        -1.3019  -2.5148   1.1612 C.3            1 S1                 0.0000
     20 ****        -1.9819  -3.1126   2.4085 C.3            1 S1                 0.0000
     21 ****        -1.9203  -4.6441   2.4215 C.3            1 S1                 0.0000
     22 ****        -3.3494  -2.7260   2.4311 O.3            1 S1                 0.0000
     23 ****        -5.1872   0.0608   2.6909 H              1 S1                 0.0000
     24 ****        -5.4277  -1.4720   3.5231 H              1 S1                 0.0000
     25 ****        -5.5583  -1.3948   1.7682 H              1 S1                 0.0000
     26 ****        -3.0076  -0.9417   3.4030 H              1 S1                 0.0000
     27 ****        -3.4185  -1.0094   0.3633 H              1 S1                 0.0000
     28 ****        -3.0164   0.4028   1.3135 H              1 S1                 0.0000
     29 ****        -1.4746  -0.3261  -0.8499 H              1 S1                 0.0000
     30 ****        -0.1015   1.7123  -0.4643 H              1 S1                 0.0000
     31 ****         0.2500   1.1942   1.1792 H              1 S1                 0.0000
     32 ****        -1.3762   1.6704   0.7136 H              1 S1                 0.0000
     33 ****         1.2234  -1.1612   0.3094 H              1 S1                 0.0000
     34 ****         0.2874  -2.0322  -0.8834 H              1 S1                 0.0000
     35 ****         0.6914  -0.4280  -2.5330 H              1 S1                 0.0000
     36 ****         3.3999   0.4155  -3.3628 H              1 S1                 0.0000
     37 ****         1.8495   1.1686  -3.5546 H              1 S1                 0.0000
     38 ****         5.2158   1.5696  -2.8821 H              1 S1                 0.0000
     39 ****         6.4241   3.7128  -2.5561 H              1 S1                 0.0000
     40 ****         5.0524   5.8020  -2.1353 H              1 S1                 0.0000
     41 ****         2.6425   5.6781  -2.0517 H              1 S1                 0.0000
     42 ****        -1.7315  -2.9413   0.2531 H              1 S1                 0.0000
     43 ****        -0.2511  -2.8010   1.1948 H              1 S1                 0.0000
     44 ****        -1.4894  -2.7402   3.3087 H              1 S1                 0.0000
     45 ****        -0.8884  -4.9963   2.4240 H              1 S1                 0.0000
     46 ****        -2.4164  -5.0673   1.5474 H              1 S1                 0.0000
     47 ****        -2.4099  -5.0462   3.3089 H              1 S1                 0.0000
     48 ****        -0.9877  -0.7004   1.9677 H              1 S1                 0.0000
     49 ****         2.5777   0.1599   0.3280 LP             1 S1                 0.0000
     50 ****         3.6941   1.1761  -0.5211 LP             1 S1                 0.0000
     51 ****         0.8247   2.5513  -2.5178 LP             1 S1                 0.0000
     52 ****         0.7301   4.2533  -2.2110 LP             1 S1                 0.0000
     53 ****        -3.7904  -3.0544   1.5958 LP             1 S1                 0.0000
     54 ****        -3.7887  -3.1438   3.2263 LP             1 S1                 0.0000
@<TRIPOS>BOND
    1    1    2 1     
    2    1   23 1     
    3    1   24 1     
    4    1   25 1     
    5    2   22 1     
    6    2    3 1     
    7    2   26 1     
    8    3    4 1     
    9    3   27 1     
   10    3   28 1     
   11    4    5 1     
   12    4   19 1     
   13    4   48 1     
   14    5    6 1     
   15    5    7 1     
   16    5   29 1     
   17    6   30 1     
   18    6   31 1     
   19    6   32 1     
   20    7    8 1     
   21    7   33 1     
   22    7   34 1     
   23    8    9 am    
   24    8   35 1     
   25    9   10 2     
   26    9   11 1     
   27   11   12 1     
   28   11   36 1     
   29   11   37 1     
   30   12   17 am    
   31   12   13 1     
   32   13   14 2     
   33   13   38 1     
   34   14   15 1     
   35   14   39 1     
   36   15   16 2     
   37   15   40 1     
   38   16   17 1     
   39   16   41 1     
   40   17   18 2     
   41   19   20 1     
   42   19   42 1     
   43   19   43 1     
   44   20   21 1     
   45   20   22 1     
   46   20   44 1     
   47   21   45 1     
   48   21   46 1     
   49   21   47 1     
   50   10   49 1     
   51   10   50 1     
   52   18   51 1     
   53   18   52 1     
   54   22   53 1     
   55   22   54 1     
@<TRIPOS>SUBSTRUCTURE
      1 S1             1
@<TRIPOS>SET
LONE_PAIRS      STATIC     ATOMS    <user>   **** ""
6 49 50 51 52 53 54
DONOR_HYDROGENS      STATIC     ATOMS    <user>   **** ""
2 48 35
ATOM$BLUE        STATIC     ATOMS    COLORGROUP SYSTEM
6 49 50 51 52 53 54
ATOM$RED        STATIC     ATOMS    COLORGROUP SYSTEM
2 48 35
