AV-unprocessed.smi:719|AV-procd|sdf|3493|dock2
  -GOLD-   22720 0483D 1   1.00000     0.00000
 Structure written by MMmdl.
 41 43  0  0  0  0  0  0  0  0  1 V2000
  151.3527  145.0777  159.0250 C   0  0  0  0  0  0  0  0  0  0  0  0
  151.8098  144.7388  160.4480 C   0  0  0  0  0  0  0  0  0  0  0  0
  152.4061  143.3654  160.5415 C   0  0  0  0  0  0  0  0  0  0  0  0
  152.4157  142.5451  159.4098 N   0  0  0  0  0  0  0  0  0  0  0  0
  152.9729  141.3542  159.6404 C   0  0  0  0  0  0  0  0  0  0  0  0
  153.1703  140.3143  158.5851 C   0  0  0  0  0  0  0  0  0  0  0  0
  151.8661  139.6409  158.1171 C   0  0  0  0  0  0  0  0  0  0  0  0
  151.0047  140.5471  157.3610 N   0  0  0  0  0  0  0  0  0  0  0  0
  150.9678  140.6541  156.0233 C   0  0  0  0  0  0  0  0  0  0  0  0
  151.6869  139.9988  155.2690 O   0  0  0  0  0  0  0  0  0  0  0  0
  150.0235  141.6946  155.5230 C   0  0  2  0  0  0  0  0  0  0  0  0
  148.5425  141.6079  155.8563 C   0  0  2  0  0  0  0  0  0  0  0  0
  147.8292  140.3807  156.3884 C   0  0  0  0  0  0  0  0  0  0  0  0
  148.1096  139.2405  155.3958 C   0  0  0  0  0  0  0  0  0  0  0  0
  148.5686  139.9151  154.0923 C   0  0  0  0  0  0  0  0  0  0  0  0
  149.0039  141.3218  154.4558 C   0  0  2  0  0  0  0  0  0  0  0  0
  153.5346  141.1636  161.2945 S   0  0  0  0  0  0  0  0  0  0  0  0
  152.9659  142.7743  161.6503 C   0  0  0  0  0  0  0  0  0  0  0  0
  153.1179  143.3528  163.0176 C   0  0  0  0  0  0  0  0  0  0  0  0
  150.9217  146.0779  158.9824 H   0  0  0  0  0  0  0  0  0  0  0  0
  150.5958  144.3735  158.6780 H   0  0  0  0  0  0  0  0  0  0  0  0
  152.1873  145.0447  158.3239 H   0  0  0  0  0  0  0  0  0  0  0  0
  152.5362  145.4826  160.7779 H   0  0  0  0  0  0  0  0  0  0  0  0
  150.9633  144.8315  161.1290 H   0  0  0  0  0  0  0  0  0  0  0  0
  153.6681  140.7787  157.7337 H   0  0  0  0  0  0  0  0  0  0  0  0
  153.8584  139.5583  158.9657 H   0  0  0  0  0  0  0  0  0  0  0  0
  152.0972  138.7512  157.5289 H   0  0  0  0  0  0  0  0  0  0  0  0
  151.3071  139.2911  158.9850 H   0  0  0  0  0  0  0  0  0  0  0  0
  150.3923  141.1447  157.8972 H   0  0  0  0  0  0  0  0  0  0  0  0
  150.4581  142.6868  155.4189 H   0  0  0  0  0  0  0  0  0  0  0  0
  148.0501  142.5558  156.0642 H   0  0  0  0  0  0  0  0  0  0  0  0
  148.1606  140.1436  157.3996 H   0  0  0  0  0  0  0  0  0  0  0  0
  146.7599  140.5897  156.4260 H   0  0  0  0  0  0  0  0  0  0  0  0
  148.9096  138.6081  155.7818 H   0  0  0  0  0  0  0  0  0  0  0  0
  147.2396  138.6009  155.2449 H   0  0  0  0  0  0  0  0  0  0  0  0
  149.3748  139.3696  153.6014 H   0  0  0  0  0  0  0  0  0  0  0  0
  147.7350  139.9814  153.3924 H   0  0  0  0  0  0  0  0  0  0  0  0
  148.8329  142.0707  153.6849 H   0  0  0  0  0  0  0  0  0  0  0  0
  152.1703  143.7554  163.3757 H   0  0  0  0  0  0  0  0  0  0  0  0
  153.8492  144.1610  163.0139 H   0  0  0  0  0  0  0  0  0  0  0  0
  153.4531  142.5993  163.7306 H   0  0  0  0  0  0  0  0  0  0  0  0
  1  2  1  0  0  0  0
  1 20  1  0  0  0  0
  1 21  1  0  0  0  0
  1 22  1  0  0  0  0
  2  3  1  0  0  0  0
  2 23  1  0  0  0  0
  2 24  1  0  0  0  0
  3 18  2  0  0  0  0
  3  4  1  0  0  0  0
  4  5  2  0  0  0  0
  5  6  1  0  0  0  0
  5 17  1  0  0  0  0
  6  7  1  0  0  0  0
  6 25  1  0  0  0  0
  6 26  1  0  0  0  0
  7  8  1  0  0  0  0
  7 27  1  0  0  0  0
  7 28  1  0  0  0  0
  8  9  1  0  0  0  0
  8 29  1  0  0  0  0
  9 10  2  0  0  0  0
  9 11  1  0  0  0  0
 11 16  1  0  0  0  0
 11 12  1  0  0  0  0
 11 30  1  0  0  0  0
 12 16  1  0  0  0  0
 12 13  1  0  0  0  0
 12 31  1  0  0  0  0
 13 14  1  0  0  0  0
 13 32  1  0  0  0  0
 13 33  1  0  0  0  0
 14 15  1  0  0  0  0
 14 34  1  0  0  0  0
 14 35  1  0  0  0  0
 15 16  1  0  0  0  0
 15 36  1  0  0  0  0
 15 37  1  0  0  0  0
 16 38  1  0  0  0  0
 17 18  1  0  0  0  0
 18 19  1  0  0  0  0
 19 39  1  0  0  0  0
 19 40  1  0  0  0  0
 19 41  1  0  0  0  0
M  END
> <s_m_source_file>
AV-unprocessed.smi

> <i_m_source_file_index>
719

> <i_lp_mmshare_version>
43012

> <i_f3d_flags>
0

> <s_epik_input>
W0NIM11bQ0gyXWMxbmMoc2MxW0NIM10pW0NIMl1bQ0gyXVtOSF1DKD1PKVtDQEhdMltDQEhdKFtDQEBIXTIzKVtDSDJdW0NIMl1bQ0gyXTM=

> <s_epik_cmdline>
J2VwaWtfcHl0aG9uJywgJy1waCcsICc3LjAnLCAnLXRuJywgJzgnLCAnLW1hJywgJzIwMCcsICctbWV0YWxfYmluZGluZycsICctaW1hZScsICc8aW5maWxlLm1hZT4nLCAnLW9tYWUnLCAnPG91dGZpbGUubWFlPic=

> <r_epik_Ionization_Penalty>
0.00247473

> <r_epik_Ionization_Penalty_Charging>
0

> <r_epik_Ionization_Penalty_Neutral>
0.00247473

> <r_epik_State_Penalty>
0.00171502

> <r_epik_Charging_Adjusted_Penalty>
0.00171502

> <i_epik_Tot_Q>
0

> <i_epik_Tot_abs_Q>
0

> <r_epik_Metal_State_Penalty>
-0

> <b_epik_Metal_Only>
0

> <s_lp_Force_Field>
OPLS_2005

> <r_lp_Energy>
22.4904

> <b_lp_Chiralities_Consistent>
1

> <s_lp_Variant>
AV-unprocessed.smi:719-1

> <Gold.Version>
5.8.1

> <Gold.Id.Protein>
6NUR|6NUR_protein|mol2

> <Gold.PLP.Fitness>
44.2576

> <Gold.PLP.PLP>
-41.8483

> <Gold.PLP.part.hbond>
-1.0000

> <Gold.PLP.part.metal>
0.0000

> <Gold.PLP.part.buried>
-2.4608

> <Gold.PLP.part.nonpolar>
-37.4336

> <Gold.PLP.part.repulsive>
0.0635

> <Gold.PLP.ligand.clash>
0.0000

> <Gold.PLP.ligand.torsion>
0.3564

> <Gold.PLP.Chemscore.Hbond>
0.9920

> <Gold.PLP.Chemscore.CHOScore>
0.0000

> <Gold.PLP.Chemscore.Metal>
0.0000

> <Gold.Chemscore.Hbonds>
donor molecule, donor type, donor heavy atom, donor atom, acceptor molecule, acceptor atom, score
      P1  H  7989  7998       L1    10  0.98

> <Gold.PLP.Chemscore.Internal.Correction>
0.1461

> <Gold.Rescore>
     Score         DG    S(hbond)    S(metal)    S(lipo)     H(rot)  DE(clash)    DE(int)     intcor
     17.84     -18.52       0.66        0.00     123.72       1.42       0.28       0.40       ----

> <Gold.Chemscore.Fitness>
17.8393

> <Gold.Chemscore.DG>
-18.5167

> <Gold.Chemscore.ZeroCoef>
-5.4800

> <Gold.Chemscore.Hbond>
0.6585

> <Gold.Chemscore.Metal>
0.0000

> <Gold.Chemscore.Lipo>
123.7176

> <Gold.Chemscore.Internal_Hbond>
0.0000

> <Gold.Chemscore.DEClash>
0.2770

> <Gold.Chemscore.DEInternal>
0.4004

> <Gold.Chemscore.Rot>
1.4209

> <Gold.Chemscore.Internal.Correction>
   9.000000E+99

> <Gold.Chemscore.Hbonds>
donor molecule, donor type, donor heavy atom, donor atom, acceptor molecule, acceptor atom, score
      P1  H  7989  7998       L1    10  0.60

> <Gold.Chemscore.Hbond.Weighted>
-2.1993

> <Gold.Chemscore.Metal.Weighted>
-0.0000

> <Gold.Chemscore.Lipo.Weighted>
-14.4750

> <Gold.Chemscore.Internal_Hbond.Weighted>
0.0000

> <Gold.Chemscore.DEClash.Weighted>
0.2770

> <Gold.Chemscore.DEInternal.Weighted>
0.4004

> <Gold.Chemscore.Rot.Weighted>
3.6376

> <Gold.Chemscore.Internal.Correction.Weighted>
   9.000000E+99

> <Gold.Protein.RotatedTorsions>
[ 6907 6896 6895 6894 ] final  -38.05 input  -60.11 | X-H torsion
[ 7974 7965 7964 7962 ] final   86.83 input  175.53 | X-H torsion
[ 8008 7997 7996 7995 ] final  -57.86 input   59.86 | X-H torsion
[ 10167 10162 10161 10158 ] final -142.17 input  -65.29 | X-H torsion
[ 10718 10713 10712 10709 ] final   59.11 input   66.30 | X-H torsion
[ 10763 10752 10751 10750 ] final -100.03 input  -60.55 | X-H torsion
[ 11005 11000 10999 10996 ] final  -76.52 input  -57.11 | X-H torsion

> <Gold.Protein.ActiveResidues>
 VAL166  LYS551  ARG553  GLY616  TRP617  ASP618  TYR619  PRO620  LYS621  CYS622 
 ASP623  PHE694  ASN695  SER759  ASP760  ASP761  ALA762  ILE779  LEU786  VAL792 
 PHE793  MET794  SER795  GLU796  ALA797  LYS798  CYS799  TRP800  GLU811  SER814 

> <Gold.Protein.RotatedAtoms>
  151.0071  134.9368  159.7986 H   0  0  0  0  0  0  0  0  0  0  0  0  # atno 6907 bound_to 6896
  152.5293  134.3077  159.9112 H   0  0  0  0  0  0  0  0  0  0  0  0  # atno 6908 bound_to 6896
  151.3083  133.4050  159.2679 H   0  0  0  0  0  0  0  0  0  0  0  0  # atno 6909 bound_to 6896
  145.5671  139.2310  143.2427 H   0  0  0  0  0  0  0  0  0  0  0  0  # atno 7974 bound_to 7965
  154.4285  140.1097  156.5865 H   0  0  0  0  0  0  0  0  0  0  0  0  # atno 8008 bound_to 7997
  155.6057  140.3494  155.4588 H   0  0  0  0  0  0  0  0  0  0  0  0  # atno 8009 bound_to 7997
  156.0138  140.1225  157.0416 H   0  0  0  0  0  0  0  0  0  0  0  0  # atno 8010 bound_to 7997
  139.8114  143.7698  152.2663 H   0  0  0  0  0  0  0  0  0  0  0  0  # atno 10167 bound_to 10162
  157.5650  130.8864  149.9172 H   0  0  0  0  0  0  0  0  0  0  0  0  # atno 10718 bound_to 10713
  154.7546  135.4950  153.9352 H   0  0  0  0  0  0  0  0  0  0  0  0  # atno 10763 bound_to 10752
  153.1182  135.6725  153.9389 H   0  0  0  0  0  0  0  0  0  0  0  0  # atno 10764 bound_to 10752
  153.9129  135.3097  155.3427 H   0  0  0  0  0  0  0  0  0  0  0  0  # atno 10765 bound_to 10752
  141.1654  133.6987  156.7681 H   0  0  0  0  0  0  0  0  0  0  0  0  # atno 11005 bound_to 11000
  146.1810  140.6497  142.9189 LP  0  0  0  0  0  0  0  0  0  0  0  0  # atno 17320 bound_to 7965
  144.7455  140.5056  143.6839 LP  0  0  0  0  0  0  0  0  0  0  0  0  # atno 17321 bound_to 7965
  139.7848  144.7432  151.0037 LP  0  0  0  0  0  0  0  0  0  0  0  0  # atno 17342 bound_to 10162
  140.7817  143.4504  151.0421 LP  0  0  0  0  0  0  0  0  0  0  0  0  # atno 17343 bound_to 10162
  156.0699  130.3686  150.0798 LP  0  0  0  0  0  0  0  0  0  0  0  0  # atno 17370 bound_to 10713
  156.8958  130.9604  151.3583 LP  0  0  0  0  0  0  0  0  0  0  0  0  # atno 17371 bound_to 10713
  140.2484  134.8559  157.3643 LP  0  0  0  0  0  0  0  0  0  0  0  0  # atno 17394 bound_to 11000
  140.1726  134.4589  155.7822 LP  0  0  0  0  0  0  0  0  0  0  0  0  # atno 17395 bound_to 11000

$$$$
