AV-unprocessed.smi:1727|AV-procd|sdf|6966|dock2
  -GOLD-   22720 8183D 1   1.00000     0.00000
 Structure written by MMmdl.
 50 52  0  0  0  0  0  0  0  0  2 V2000
  153.1471  142.0873  162.2550 C   0  0  0  0  0  0  0  0  0  0  0  0
  152.8029  143.3580  161.4747 C   0  0  0  0  0  0  0  0  0  0  0  0
  152.4605  144.3532  162.1133 O   0  0  0  0  0  0  0  0  0  0  0  0
  152.8822  143.3476  160.1223 N   0  0  0  0  0  0  0  0  0  0  0  0
  153.2079  142.1764  159.2989 C   0  0  0  0  0  0  0  0  0  0  0  0
  151.9398  141.7259  158.5524 C   0  0  0  0  0  0  0  0  0  0  0  0
  151.3437  142.8789  157.7117 C   0  0  0  0  0  0  0  0  0  0  0  0
  150.0415  142.5028  157.1698 N   0  0  0  0  0  0  0  0  0  0  0  0
  149.8457  141.7189  156.1004 C   0  0  0  0  0  0  0  0  0  0  0  0
  150.7582  141.2153  155.4455 O   0  0  0  0  0  0  0  0  0  0  0  0
  148.5364  141.5416  155.8582 N   0  0  0  0  0  0  0  0  0  0  0  0
  147.9432  140.7413  154.8421 C   0  0  0  0  0  0  0  0  0  0  0  0
  148.5462  139.5267  154.4258 C   0  0  0  0  0  0  0  0  0  0  0  0
  147.9819  138.7880  153.3692 C   0  0  0  0  0  0  0  0  0  0  0  0
  146.8308  139.2828  152.7327 C   0  0  0  0  0  0  0  0  0  0  0  0
  146.2876  140.4473  153.1436 N   0  3  0  0  0  0  0  0  0  0  0  0
  146.7755  141.1968  154.1639 C   0  0  0  0  0  0  0  0  0  0  0  0
  146.0925  142.3901  154.4929 N   0  0  0  0  0  0  0  0  0  0  0  0
  145.8264  143.3941  153.4690 C   0  0  0  0  0  0  0  0  0  0  0  0
  144.7864  144.3243  154.0876 C   0  0  0  0  0  0  0  0  0  0  0  0
  143.9469  143.3653  154.9264 C   0  0  0  0  0  0  0  0  0  0  0  0
  144.9615  142.3251  155.4136 C   0  0  0  0  0  0  0  0  0  0  0  0
  151.2020  144.1699  158.5464 C   0  0  0  0  0  0  0  0  0  0  0  0
  152.5053  144.5001  159.2958 C   0  0  0  0  0  0  0  0  0  0  0  0
  152.5012  141.2614  161.9554 H   0  0  0  0  0  0  0  0  0  0  0  0
  153.0101  142.2450  163.3253 H   0  0  0  0  0  0  0  0  0  0  0  0
  154.1870  141.8035  162.0914 H   0  0  0  0  0  0  0  0  0  0  0  0
  153.9837  142.4487  158.5819 H   0  0  0  0  0  0  0  0  0  0  0  0
  153.6191  141.3429  159.8664 H   0  0  0  0  0  0  0  0  0  0  0  0
  152.1720  140.8736  157.9130 H   0  0  0  0  0  0  0  0  0  0  0  0
  151.2032  141.3764  159.2776 H   0  0  0  0  0  0  0  0  0  0  0  0
  152.0262  143.0924  156.8866 H   0  0  0  0  0  0  0  0  0  0  0  0
  149.2311  142.8704  157.6466 H   0  0  0  0  0  0  0  0  0  0  0  0
  147.8989  141.9327  156.5365 H   0  0  0  0  0  0  0  0  0  0  0  0
  149.4506  139.1606  154.8885 H   0  0  0  0  0  0  0  0  0  0  0  0
  148.4342  137.8623  153.0443 H   0  0  0  0  0  0  0  0  0  0  0  0
  146.3333  138.7893  151.9104 H   0  0  0  0  0  0  0  0  0  0  0  0
  146.7343  143.9300  153.1906 H   0  0  0  0  0  0  0  0  0  0  0  0
  145.4122  142.9279  152.5739 H   0  0  0  0  0  0  0  0  0  0  0  0
  145.2751  145.0547  154.7341 H   0  0  0  0  0  0  0  0  0  0  0  0
  144.2029  144.8660  153.3426 H   0  0  0  0  0  0  0  0  0  0  0  0
  143.4219  143.8607  155.7437 H   0  0  0  0  0  0  0  0  0  0  0  0
  143.2013  142.8831  154.2928 H   0  0  0  0  0  0  0  0  0  0  0  0
  144.5187  141.3288  155.4542 H   0  0  0  0  0  0  0  0  0  0  0  0
  145.3086  142.5841  156.4143 H   0  0  0  0  0  0  0  0  0  0  0  0
  150.9226  145.0041  157.9016 H   0  0  0  0  0  0  0  0  0  0  0  0
  150.3948  144.0565  159.2719 H   0  0  0  0  0  0  0  0  0  0  0  0
  152.3771  145.4141  159.8775 H   0  0  0  0  0  0  0  0  0  0  0  0
  153.3045  144.7126  158.5842 H   0  0  0  0  0  0  0  0  0  0  0  0
  145.4525  140.7799  152.6613 H   0  0  0  0  0  0  0  0  0  0  0  0
  1  2  1  0  0  0  0
  1 25  1  0  0  0  0
  1 26  1  0  0  0  0
  1 27  1  0  0  0  0
  2  3  2  0  0  0  0
  2  4  1  0  0  0  0
  4 24  1  0  0  0  0
  4  5  1  0  0  0  0
  5  6  1  0  0  0  0
  5 28  1  0  0  0  0
  5 29  1  0  0  0  0
  6  7  1  0  0  0  0
  6 30  1  0  0  0  0
  6 31  1  0  0  0  0
  7  8  1  0  0  0  0
  7 23  1  0  0  0  0
  7 32  1  0  0  0  0
  8  9  1  0  0  0  0
  8 33  1  0  0  0  0
  9 10  2  0  0  0  0
  9 11  1  0  0  0  0
 11 12  1  0  0  0  0
 11 34  1  0  0  0  0
 12 17  1  0  0  0  0
 12 13  2  0  0  0  0
 13 14  1  0  0  0  0
 13 35  1  0  0  0  0
 14 15  2  0  0  0  0
 14 36  1  0  0  0  0
 15 16  1  0  0  0  0
 15 37  1  0  0  0  0
 16 17  2  0  0  0  0
 16 50  1  0  0  0  0
 17 18  1  0  0  0  0
 18 22  1  0  0  0  0
 18 19  1  0  0  0  0
 19 20  1  0  0  0  0
 19 38  1  0  0  0  0
 19 39  1  0  0  0  0
 20 21  1  0  0  0  0
 20 40  1  0  0  0  0
 20 41  1  0  0  0  0
 21 22  1  0  0  0  0
 21 42  1  0  0  0  0
 21 43  1  0  0  0  0
 22 44  1  0  0  0  0
 22 45  1  0  0  0  0
 23 24  1  0  0  0  0
 23 46  1  0  0  0  0
 23 47  1  0  0  0  0
 24 48  1  0  0  0  0
 24 49  1  0  0  0  0
M  CHG  1  16   1
M  END
> <s_m_source_file>
AV-unprocessed.smi

> <i_m_source_file_index>
1727

> <i_lp_mmshare_version>
43012

> <i_f3d_flags>
0

> <s_epik_input>
W0NIM11DKD1PKU4xW0NIMl1bQ0gyXVtDSF0oW0NIMl1bQ0gyXTEpW05IXUMoPU8pW05IXWMyW2NIXVtjSF1bY0hdbmMyTjNbQ0gyXVtDSDJdW0NIMl1bQ0gyXTM=

> <s_epik_cmdline>
J2VwaWtfcHl0aG9uJywgJy1waCcsICc3LjAnLCAnLXRuJywgJzgnLCAnLW1hJywgJzIwMCcsICctbWV0YWxfYmluZGluZycsICctaW1hZScsICc8aW5maWxlLm1hZT4nLCAnLW9tYWUnLCAnPG91dGZpbGUubWFlPic=

> <r_lp_tautomer_probability>
0.999994

> <r_epik_Ionization_Penalty>
1.09439

> <r_epik_Ionization_Penalty_Charging>
1.09437

> <r_epik_Ionization_Penalty_Neutral>
2.13526e-05

> <r_epik_State_Penalty>
1.15094

> <r_epik_Charging_Adjusted_Penalty>
2.24531

> <i_epik_Tot_Q>
1

> <i_epik_Tot_abs_Q>
1

> <r_epik_Metal_State_Penalty>
1.23914

> <b_epik_Metal_Only>
0

> <s_lp_Force_Field>
OPLS_2005

> <r_lp_Energy>
56.6798

> <b_lp_Chiralities_Consistent>
1

> <s_lp_Variant>
AV-unprocessed.smi:1727-2

> <Gold.Version>
5.8.1

> <Gold.Id.Protein>
6NUR|6NUR_protein|mol2

> <Gold.PLP.Fitness>
51.2245

> <Gold.PLP.PLP>
-45.8689

> <Gold.PLP.part.hbond>
-3.3530

> <Gold.PLP.part.metal>
0.0000

> <Gold.PLP.part.buried>
-1.8389

> <Gold.PLP.part.nonpolar>
-40.7612

> <Gold.PLP.part.repulsive>
0.5109

> <Gold.PLP.ligand.clash>
0.0000

> <Gold.PLP.ligand.torsion>
0.9489

> <Gold.PLP.Chemscore.Hbond>
2.2889

> <Gold.PLP.Chemscore.CHOScore>
0.0000

> <Gold.PLP.Chemscore.Metal>
0.0000

> <Gold.Chemscore.Hbonds>
donor molecule, donor type, donor heavy atom, donor atom, acceptor molecule, acceptor atom, score
      L1  H    16    50       P1 10175  1.76
      P1  H  7989  7998       L1    10  0.43

> <Gold.PLP.Chemscore.Internal.Correction>
0.3868

> <Gold.Rescore>
     Score         DG    S(hbond)    S(metal)    S(lipo)     H(rot)  DE(clash)    DE(int)     intcor
     16.01     -18.34       1.23        0.00     101.48       1.22       0.32       2.01       ----

> <Gold.Chemscore.Fitness>
16.0090

> <Gold.Chemscore.DG>
-18.3363

> <Gold.Chemscore.ZeroCoef>
-5.4800

> <Gold.Chemscore.Hbond>
1.2312

> <Gold.Chemscore.Metal>
0.0000

> <Gold.Chemscore.Lipo>
101.4776

> <Gold.Chemscore.Internal_Hbond>
0.0000

> <Gold.Chemscore.DEClash>
0.3175

> <Gold.Chemscore.DEInternal>
2.0098

> <Gold.Chemscore.Rot>
1.2222

> <Gold.Chemscore.Internal.Correction>
   9.000000E+99

> <Gold.Chemscore.Hbonds>
donor molecule, donor type, donor heavy atom, donor atom, acceptor molecule, acceptor atom, score
      L1  H    16    50       P1 10175  0.26
      P1  H  7989  7998       L1    10  0.42

> <Gold.Chemscore.Hbond.Weighted>
-4.1124

> <Gold.Chemscore.Metal.Weighted>
-0.0000

> <Gold.Chemscore.Lipo.Weighted>
-11.8729

> <Gold.Chemscore.Internal_Hbond.Weighted>
0.0000

> <Gold.Chemscore.DEClash.Weighted>
0.3175

> <Gold.Chemscore.DEInternal.Weighted>
2.0098

> <Gold.Chemscore.Rot.Weighted>
3.1289

> <Gold.Chemscore.Internal.Correction.Weighted>
   9.000000E+99

> <Gold.Protein.RotatedTorsions>
[ 6907 6896 6895 6894 ] final   -6.32 input  -60.11 | X-H torsion
[ 7974 7965 7964 7962 ] final  -52.34 input  175.53 | X-H torsion
[ 8008 7997 7996 7995 ] final  179.55 input   59.86 | X-H torsion
[ 10167 10162 10161 10158 ] final -104.46 input  -65.29 | X-H torsion
[ 10718 10713 10712 10709 ] final  -12.56 input   66.30 | X-H torsion
[ 10763 10752 10751 10750 ] final  -86.27 input  -60.55 | X-H torsion
[ 11005 11000 10999 10996 ] final  -97.67 input  -57.11 | X-H torsion

> <Gold.Protein.ActiveResidues>
 VAL166  LYS551  ARG553  GLY616  TRP617  ASP618  TYR619  PRO620  LYS621  CYS622 
 ASP623  PHE694  ASN695  SER759  ASP760  ASP761  ALA762  ILE779  LEU786  VAL792 
 PHE793  MET794  SER795  GLU796  ALA797  LYS798  CYS799  TRP800  GLU811  SER814 

> <Gold.Protein.RotatedAtoms>
  151.4674  135.1043  159.9741 H   0  0  0  0  0  0  0  0  0  0  0  0  # atno 6907 bound_to 6896
  152.4829  133.8296  159.7107 H   0  0  0  0  0  0  0  0  0  0  0  0  # atno 6908 bound_to 6896
  150.8915  133.7176  159.2930 H   0  0  0  0  0  0  0  0  0  0  0  0  # atno 6909 bound_to 6896
  145.9090  140.7931  142.9705 H   0  0  0  0  0  0  0  0  0  0  0  0  # atno 7974 bound_to 7965
  156.0421  140.1306  157.0144 H   0  0  0  0  0  0  0  0  0  0  0  0  # atno 8008 bound_to 7997
  154.4396  140.1028  156.6323 H   0  0  0  0  0  0  0  0  0  0  0  0  # atno 8009 bound_to 7997
  155.5651  140.3465  155.4503 H   0  0  0  0  0  0  0  0  0  0  0  0  # atno 8010 bound_to 7997
  140.2091  143.3760  152.1066 H   0  0  0  0  0  0  0  0  0  0  0  0  # atno 10167 bound_to 10162
  156.6428  130.4933  149.6089 H   0  0  0  0  0  0  0  0  0  0  0  0  # atno 10718 bound_to 10713
  154.6205  135.5455  153.7570 H   0  0  0  0  0  0  0  0  0  0  0  0  # atno 10763 bound_to 10752
  153.0236  135.6411  154.1447 H   0  0  0  0  0  0  0  0  0  0  0  0  # atno 10764 bound_to 10752
  154.1381  135.2910  155.3148 H   0  0  0  0  0  0  0  0  0  0  0  0  # atno 10765 bound_to 10752
  141.1371  133.8188  157.0737 H   0  0  0  0  0  0  0  0  0  0  0  0  # atno 11005 bound_to 11000
  144.6741  140.1796  143.7407 LP  0  0  0  0  0  0  0  0  0  0  0  0  # atno 17320 bound_to 7965
  145.8695  139.2265  143.1669 LP  0  0  0  0  0  0  0  0  0  0  0  0  # atno 17321 bound_to 7965
  139.5187  144.7009  151.5495 LP  0  0  0  0  0  0  0  0  0  0  0  0  # atno 17342 bound_to 10162
  140.6336  143.9027  150.6627 LP  0  0  0  0  0  0  0  0  0  0  0  0  # atno 17343 bound_to 10162
  156.2145  130.6699  151.1304 LP  0  0  0  0  0  0  0  0  0  0  0  0  # atno 17370 bound_to 10713
  157.7165  131.0706  150.6304 LP  0  0  0  0  0  0  0  0  0  0  0  0  # atno 17371 bound_to 10713
  140.0495  134.9813  157.1110 LP  0  0  0  0  0  0  0  0  0  0  0  0  # atno 17394 bound_to 11000
  140.4011  134.2081  155.7163 LP  0  0  0  0  0  0  0  0  0  0  0  0  # atno 17395 bound_to 11000

$$$$
