#       Name:                AV-unprocessed.smi:655
#       Creating user name   scv26
#       Creation time:       Fri Mar 27 00:15:25 2020


#       File generated by GOLD software.
#

@<TRIPOS>MOLECULE
AV-unprocessed.smi:655
    41    42     1
SMALL
NO_CHARGES


@<TRIPOS>ATOM
      1 ****        -0.9057  -3.9177  -0.9370 C.3            1 S1                 0.0000
      2 ****        -1.3371  -2.5616  -0.3612 C.3            1 S1                 0.0000
      3 ****        -0.8265  -1.3944  -1.2243 C.3            1 S1                 0.0000
      4 ****        -1.2543  -0.0295  -0.6529 C.3            1 S1                 0.0000
      5 ****        -0.8182   0.1674   0.8195 C.3            1 S1                 0.0000
      6 ****        -1.5198   1.2877   1.3259 O.3            1 S1                 0.0000
      7 ****         0.7028   0.4343   1.0308 C.3            1 S1                 0.0000
      8 ****         1.2415   1.5914   0.3405 N.am           1 S1                 0.0000
      9 ****         1.1431   2.8672   0.8773 C.2            1 S1                 0.0000
     10 ****         1.6414   3.9735   0.2749 C.2            1 S1                 0.0000
     11 ****         1.4706   5.5266   1.0114 Cl             1 S1                 0.0000
     12 ****         2.3309   3.8584  -1.0086 C.2            1 S1                 0.0000
     13 ****         2.8181   4.7923  -1.6426 O.2            1 S1                 0.0000
     14 ****         2.4180   2.5567  -1.5094 N.am           1 S1                 0.0000
     15 ****         1.9111   1.4117  -0.8943 C.2            1 S1                 0.0000
     16 ****         2.0640   0.3186  -1.4366 O.2            1 S1                 0.0000
     17 ****        -1.3018  -1.0327   1.6686 C.3            1 S1                 0.0000
     18 ****        -0.8656  -2.3912   1.0937 C.3            1 S1                 0.0000
     19 ****         2.8925   2.4337  -2.3922 H              1 S1                 0.0000
     20 ****         0.1803  -4.0143  -0.9535 H              1 S1                 0.0000
     21 ****        -1.2670  -4.0429  -1.9581 H              1 S1                 0.0000
     22 ****        -1.3037  -4.7415  -0.3439 H              1 S1                 0.0000
     23 ****        -2.4278  -2.5339  -0.3679 H              1 S1                 0.0000
     24 ****         0.2580  -1.4508  -1.2959 H              1 S1                 0.0000
     25 ****        -1.2034  -1.4933  -2.2428 H              1 S1                 0.0000
     26 ****        -0.8811   0.7770  -1.2835 H              1 S1                 0.0000
     27 ****        -2.3421   0.0324  -0.7151 H              1 S1                 0.0000
     28 ****        -1.2874   2.0444   0.8101 H              1 S1                 0.0000
     29 ****         0.9142   0.6162   2.0864 H              1 S1                 0.0000
     30 ****         1.3134  -0.4316   0.7721 H              1 S1                 0.0000
     31 ****         0.6413   2.9892   1.8268 H              1 S1                 0.0000
     32 ****        -0.9507  -0.9368   2.6968 H              1 S1                 0.0000
     33 ****        -2.3917  -1.0251   1.7241 H              1 S1                 0.0000
     34 ****        -1.2754  -3.1918   1.7104 H              1 S1                 0.0000
     35 ****         0.2187  -2.4910   1.1500 H              1 S1                 0.0000
     36 ****        -1.2675   1.4402   2.2815 LP             1 S1                 0.0000
     37 ****        -2.5046   1.1259   1.2629 LP             1 S1                 0.0000
     38 ****         2.7590   5.7243  -1.2848 LP             1 S1                 0.0000
     39 ****         3.2734   4.6200  -2.5161 LP             1 S1                 0.0000
     40 ****         1.7055  -0.5086  -1.0040 LP             1 S1                 0.0000
     41 ****         2.5468   0.2570  -2.3101 LP             1 S1                 0.0000
@<TRIPOS>BOND
    1    1    2 1     
    2    1   20 1     
    3    1   21 1     
    4    1   22 1     
    5    2   18 1     
    6    2    3 1     
    7    2   23 1     
    8    3    4 1     
    9    3   24 1     
   10    3   25 1     
   11    4    5 1     
   12    4   26 1     
   13    4   27 1     
   14    5    6 1     
   15    5    7 1     
   16    5   17 1     
   17    6   28 1     
   18    7    8 1     
   19    7   29 1     
   20    7   30 1     
   21    8   15 1     
   22    8    9 1     
   23    9   10 2     
   24    9   31 1     
   25   10   11 1     
   26   10   12 1     
   27   12   13 2     
   28   12   14 1     
   29   14   19 1     
   30   14   15 1     
   31   15   16 2     
   32   17   18 1     
   33   17   32 1     
   34   17   33 1     
   35   18   34 1     
   36   18   35 1     
   37    6   36 1     
   38    6   37 1     
   39   13   38 1     
   40   13   39 1     
   41   16   40 1     
   42   16   41 1     
@<TRIPOS>SUBSTRUCTURE
      1 S1             1
@<TRIPOS>SET
LONE_PAIRS      STATIC     ATOMS    <user>   **** ""
6 36 37 38 39 40 41
DONOR_HYDROGENS      STATIC     ATOMS    <user>   **** ""
2 28 19
ATOM$BLUE        STATIC     ATOMS    COLORGROUP SYSTEM
6 36 37 38 39 40 41
ATOM$RED        STATIC     ATOMS    COLORGROUP SYSTEM
2 28 19
