AV-unprocessed.smi:35|AV-procd|sdf|268|dock7
  -GOLD-   2262016 33D 1   1.00000     0.00000
 Structure written by MMmdl.
 28 29  0  0  0  0  0  0  0  0  2 V2000
  153.1082  142.8887  159.9104 O   0  0  0  0  0  0  0  0  0  0  0  0
  152.3315  142.2521  159.2008 C   0  0  0  0  0  0  0  0  0  0  0  0
  152.3450  140.8896  159.1245 N   0  5  0  0  0  0  0  0  0  0  0  0
  151.4786  140.1865  158.3370 C   0  0  0  0  0  0  0  0  0  0  0  0
  151.5041  138.9599  158.2365 O   0  0  0  0  0  0  0  0  0  0  0  0
  150.5080  140.8977  157.5803 N   0  0  0  0  0  0  0  0  0  0  0  0
  149.5408  140.1370  156.6990 C   0  0  1  0  0  0  0  0  0  0  0  0
  148.5932  141.0294  156.2015 O   0  0  0  0  0  0  0  0  0  0  0  0
  148.1715  140.5763  154.9247 C   0  0  1  0  0  0  0  0  0  0  0  0
  147.5280  141.7320  154.1429 C   0  0  0  0  0  0  0  0  0  0  0  0
  148.4209  142.8226  154.0608 O   0  0  0  0  0  0  0  0  0  0  0  0
  149.4788  140.0720  154.3049 C   0  0  2  0  0  0  0  0  0  0  0  0
  149.2139  139.0948  153.3183 O   0  0  0  0  0  0  0  0  0  0  0  0
  150.2180  139.4551  155.4882 C   0  0  1  0  0  0  0  0  0  0  0  0
  151.6103  139.6928  155.3793 O   0  0  0  0  0  0  0  0  0  0  0  0
  150.4823  142.2813  157.6210 C   0  0  0  0  0  0  0  0  0  0  0  0
  151.3469  142.9690  158.3938 C   0  0  0  0  0  0  0  0  0  0  0  0
  151.2007  144.9448  158.3523 Br  0  0  0  0  0  0  0  0  0  0  0  0
  149.0175  139.4294  157.3444 H   0  0  0  0  0  0  0  0  0  0  0  0
  147.4746  139.7449  155.0524 H   0  0  0  0  0  0  0  0  0  0  0  0
  147.2210  141.4143  153.1458 H   0  0  0  0  0  0  0  0  0  0  0  0
  146.6342  142.0817  154.6604 H   0  0  0  0  0  0  0  0  0  0  0  0
  149.2086  142.6027  154.5340 H   0  0  0  0  0  0  0  0  0  0  0  0
  150.0426  140.9057  153.8825 H   0  0  0  0  0  0  0  0  0  0  0  0
  149.2262  139.5171  152.4728 H   0  0  0  0  0  0  0  0  0  0  0  0
  150.0348  138.3824  155.5680 H   0  0  0  0  0  0  0  0  0  0  0  0
  151.8763  140.2308  156.1100 H   0  0  0  0  0  0  0  0  0  0  0  0
  149.7672  142.8247  157.0212 H   0  0  0  0  0  0  0  0  0  0  0  0
  1  2  2  0  0  0  0
  2 17  1  0  0  0  0
  2  3  1  0  0  0  0
  3  4  1  0  0  0  0
  4  5  2  0  0  0  0
  4  6  1  0  0  0  0
  6  7  1  0  0  0  0
  6 16  1  0  0  0  0
  7 14  1  0  0  0  0
  7  8  1  0  0  0  0
  7 19  1  0  0  0  0
  8  9  1  0  0  0  0
  9 10  1  0  0  0  0
  9 12  1  0  0  0  0
  9 20  1  0  0  0  0
 10 11  1  0  0  0  0
 10 21  1  0  0  0  0
 10 22  1  0  0  0  0
 11 23  1  0  0  0  0
 12 13  1  0  0  0  0
 12 14  1  0  0  0  0
 12 24  1  0  0  0  0
 13 25  1  0  0  0  0
 14 15  1  0  0  0  0
 14 26  1  0  0  0  0
 15 27  1  0  0  0  0
 16 17  2  0  0  0  0
 16 28  1  0  0  0  0
 17 18  1  0  0  0  0
M  CHG  1   3  -1
M  END
> <s_m_source_file>
AV-unprocessed.smi

> <i_m_source_file_index>
35

> <i_lp_mmshare_version>
43012

> <i_f3d_flags>
0

> <s_epik_input>
Tz1jMVtuSF1jKD1PKW4oW2NIXWMxQnIpW0NAQEhdMk9bQ0BASF0oW0NIMl1bT0hdKVtDQEBIXShbT0hdKVtDQEhdMltPSF0=

> <s_epik_cmdline>
J2VwaWtfcHl0aG9uJywgJy1waCcsICc3LjAnLCAnLXRuJywgJzgnLCAnLW1hJywgJzIwMCcsICctbWV0YWxfYmluZGluZycsICctaW1hZScsICc8aW5maWxlLm1hZT4nLCAnLW9tYWUnLCAnPG91dGZpbGUubWFlPic=

> <r_epik_Ionization_Penalty>
1.06112

> <r_epik_Ionization_Penalty_Charging>
2.1796e-09

> <r_epik_Ionization_Penalty_Neutral>
1.06112

> <r_epik_State_Penalty>
1.11484

> <r_epik_Charging_Adjusted_Penalty>
1.11484

> <i_epik_Tot_Q>
-1

> <i_epik_Tot_abs_Q>
1

> <r_epik_Metal_State_Penalty>
0.0032876

> <b_epik_Metal_Only>
0

> <s_epik_Chemistry_Notes>
This compound contains an acetal/aminal-like group ( X-CH(R)-Y where X, Y are N, S, or O) that may be acid/base labile, releasing an aldehyde.

> <s_lp_Force_Field>
OPLS_2005

> <r_lp_Energy>
42.419

> <b_lp_Chiralities_Consistent>
1

> <s_lp_Variant>
AV-unprocessed.smi:35-22

> <Gold.Version>
5.8.1

> <Gold.Id.Protein>
6NUR|6NUR_protein|mol2

> <Gold.PLP.Fitness>
42.6219

> <Gold.PLP.PLP>
-30.6572

> <Gold.PLP.part.hbond>
-4.7055

> <Gold.PLP.part.metal>
0.0000

> <Gold.PLP.part.buried>
-5.0003

> <Gold.PLP.part.nonpolar>
-20.5202

> <Gold.PLP.part.repulsive>
0.0676

> <Gold.PLP.ligand.clash>
0.0000

> <Gold.PLP.ligand.torsion>
0.1509

> <Gold.PLP.Chemscore.Hbond>
2.9913

> <Gold.PLP.Chemscore.CHOScore>
1.0000

> <Gold.PLP.Chemscore.Metal>
0.0000

> <Gold.Chemscore.Hbonds>
donor molecule, donor type, donor heavy atom, donor atom, acceptor molecule, acceptor atom, score
      L1  H    13    25       P1  7957  0.83
      P1  H  7989  7998       L1    15  0.55
      P1  H  8022  8030       L1    11  1.00
      L1  C    16    28       P1  8028  1.00

> <Gold.PLP.Chemscore.Internal.Correction>
0.2927

> <Gold.Rescore>
     Score         DG    S(hbond)    S(metal)    S(lipo)     H(rot)  DE(clash)    DE(int)     intcor
      9.41      -9.89       2.07        0.00      58.05       3.63       0.03       0.44       ----

> <Gold.Chemscore.Fitness>
9.4135

> <Gold.Chemscore.DG>
-9.8859

> <Gold.Chemscore.ZeroCoef>
-5.4800

> <Gold.Chemscore.Hbond>
2.0651

> <Gold.Chemscore.Metal>
0.0000

> <Gold.Chemscore.Lipo>
58.0461

> <Gold.Chemscore.Internal_Hbond>
0.0000

> <Gold.Chemscore.DEClash>
0.0328

> <Gold.Chemscore.DEInternal>
0.4397

> <Gold.Chemscore.Rot>
3.6261

> <Gold.Chemscore.Internal.Correction>
   9.000000E+99

> <Gold.Chemscore.Hbonds>
donor molecule, donor type, donor heavy atom, donor atom, acceptor molecule, acceptor atom, score
      L1  H    13    25       P1  7957  0.80
      P1  H  7989  7998       L1    15  0.10
      P1  H  8022  8030       L1    11  0.51

> <Gold.Chemscore.Hbond.Weighted>
-6.8973

> <Gold.Chemscore.Metal.Weighted>
-0.0000

> <Gold.Chemscore.Lipo.Weighted>
-6.7914

> <Gold.Chemscore.Internal_Hbond.Weighted>
0.0000

> <Gold.Chemscore.DEClash.Weighted>
0.0328

> <Gold.Chemscore.DEInternal.Weighted>
0.4397

> <Gold.Chemscore.Rot.Weighted>
9.2828

> <Gold.Chemscore.Internal.Correction.Weighted>
   9.000000E+99

> <Gold.Protein.RotatedTorsions>
[ 6907 6896 6895 6894 ] final  -67.87 input  -60.11 | X-H torsion
[ 7974 7965 7964 7962 ] final   69.97 input  175.53 | X-H torsion
[ 8008 7997 7996 7995 ] final  -83.38 input   59.86 | X-H torsion
[ 10167 10162 10161 10158 ] final  -29.62 input  -65.29 | X-H torsion
[ 10718 10713 10712 10709 ] final  -89.69 input   66.30 | X-H torsion
[ 10763 10752 10751 10750 ] final   72.13 input  -60.55 | X-H torsion
[ 11005 11000 10999 10996 ] final   -7.72 input  -57.11 | X-H torsion

> <Gold.Protein.ActiveResidues>
 VAL166  LYS551  ARG553  GLY616  TRP617  ASP618  TYR619  PRO620  LYS621  CYS622 
 ASP623  PHE694  ASN695  SER759  ASP760  ASP761  ALA762  ILE779  LEU786  VAL792 
 PHE793  MET794  SER795  GLU796  ALA797  LYS798  CYS799  TRP800  GLU811  SER814 

> <Gold.Protein.RotatedAtoms>
  150.7386  134.5819  159.5942 H   0  0  0  0  0  0  0  0  0  0  0  0  # atno 6907 bound_to 6896
  152.3231  134.7353  160.0318 H   0  0  0  0  0  0  0  0  0  0  0  0  # atno 6908 bound_to 6896
  151.7862  133.3319  159.3522 H   0  0  0  0  0  0  0  0  0  0  0  0  # atno 6909 bound_to 6896
  145.7840  139.2901  143.1249 H   0  0  0  0  0  0  0  0  0  0  0  0  # atno 7974 bound_to 7965
  154.6184  140.0620  156.9584 H   0  0  0  0  0  0  0  0  0  0  0  0  # atno 8008 bound_to 7997
  155.1857  140.3303  155.4349 H   0  0  0  0  0  0  0  0  0  0  0  0  # atno 8009 bound_to 7997
  156.2417  140.1890  156.6951 H   0  0  0  0  0  0  0  0  0  0  0  0  # atno 8010 bound_to 7997
  140.7258  143.3914  151.1423 H   0  0  0  0  0  0  0  0  0  0  0  0  # atno 10167 bound_to 10162
  155.9985  130.4881  150.5209 H   0  0  0  0  0  0  0  0  0  0  0  0  # atno 10718 bound_to 10713
  153.0440  135.5111  154.7698 H   0  0  0  0  0  0  0  0  0  0  0  0  # atno 10763 bound_to 10752
  154.6612  135.2939  154.9866 H   0  0  0  0  0  0  0  0  0  0  0  0  # atno 10764 bound_to 10752
  154.0716  135.6676  153.4877 H   0  0  0  0  0  0  0  0  0  0  0  0  # atno 10765 bound_to 10752
  140.7158  133.8870  155.8784 H   0  0  0  0  0  0  0  0  0  0  0  0  # atno 11005 bound_to 11000
  146.0045  140.8490  143.0002 LP  0  0  0  0  0  0  0  0  0  0  0  0  # atno 17320 bound_to 7965
  144.6792  140.2401  143.7345 LP  0  0  0  0  0  0  0  0  0  0  0  0  # atno 17321 bound_to 7965
  139.7520  143.8765  152.3079 LP  0  0  0  0  0  0  0  0  0  0  0  0  # atno 17342 bound_to 10162
  139.8621  144.7111  150.9087 LP  0  0  0  0  0  0  0  0  0  0  0  0  # atno 17343 bound_to 10162
  157.3170  131.0674  151.1959 LP  0  0  0  0  0  0  0  0  0  0  0  0  # atno 17370 bound_to 10713
  157.2886  130.6785  149.6102 LP  0  0  0  0  0  0  0  0  0  0  0  0  # atno 17371 bound_to 10713
  141.0045  134.1104  157.4284 LP  0  0  0  0  0  0  0  0  0  0  0  0  # atno 17394 bound_to 11000
  139.8860  135.0077  156.6471 LP  0  0  0  0  0  0  0  0  0  0  0  0  # atno 17395 bound_to 11000

$$$$
