AV-unprocessed.smi:2790|AV-procd|sdf|10768|dock8
  -GOLD-   2272015203D 1   1.00000     0.00000
 Structure written by MMmdl.
 45 46  0  0  0  0  0  0  0  0  1 V2000
  153.0605  142.2148  161.6164 C   0  0  0  0  0  0  0  0  0  0  0  0
  152.2454  142.3944  160.4154 N   0  0  0  0  0  0  0  0  0  0  0  0
  152.9306  143.2884  159.4887 C   0  0  0  0  0  0  0  0  0  0  0  0
  151.9353  141.1152  159.7356 C   0  0  0  0  0  0  0  0  0  0  0  0
  151.0045  141.2422  158.5238 C   0  0  0  0  0  0  0  0  0  0  0  0
  149.8683  141.6951  158.6603 O   0  0  0  0  0  0  0  0  0  0  0  0
  151.4992  140.8318  157.3481 N   0  0  0  0  0  0  0  0  0  0  0  0
  150.7917  140.8939  156.0737 C   0  0  0  0  0  0  0  0  0  0  0  0
  150.1594  139.5321  155.6886 C   0  0  0  0  0  0  0  0  0  0  0  0
  149.0400  139.7802  154.6489 C   0  0  0  0  0  0  0  0  0  0  0  0
  148.2605  138.7311  154.1002 C   0  0  0  0  0  0  0  0  0  0  0  0
  147.2395  139.0389  153.1796 C   0  0  0  0  0  0  0  0  0  0  0  0
  146.9434  140.2952  152.7905 N   0  0  0  0  0  0  0  0  0  0  0  0
  147.6661  141.2997  153.3248 C   0  0  0  0  0  0  0  0  0  0  0  0
  148.7078  141.0981  154.2514 C   0  0  0  0  0  0  0  0  0  0  0  0
  151.2821  138.6198  155.1146 C   0  0  0  0  0  0  0  0  0  0  0  0
  150.8030  137.1859  154.8268 C   0  0  0  0  0  0  0  0  0  0  0  0
  150.2707  136.5230  156.1046 C   0  0  0  0  0  0  0  0  0  0  0  0
  149.1740  137.3777  156.7538 C   0  0  0  0  0  0  0  0  0  0  0  0
  149.6530  138.8261  156.9851 C   0  0  0  0  0  0  0  0  0  0  0  0
  152.5386  141.6325  162.3761 H   0  0  0  0  0  0  0  0  0  0  0  0
  153.2961  143.1788  162.0687 H   0  0  0  0  0  0  0  0  0  0  0  0
  154.0005  141.7106  161.3869 H   0  0  0  0  0  0  0  0  0  0  0  0
  152.3182  143.4723  158.6053 H   0  0  0  0  0  0  0  0  0  0  0  0
  153.8850  142.8728  159.1608 H   0  0  0  0  0  0  0  0  0  0  0  0
  153.1235  144.2553  159.9550 H   0  0  0  0  0  0  0  0  0  0  0  0
  152.8620  140.6563  159.3878 H   0  0  0  0  0  0  0  0  0  0  0  0
  151.4921  140.4179  160.4493 H   0  0  0  0  0  0  0  0  0  0  0  0
  152.4418  140.4689  157.3319 H   0  0  0  0  0  0  0  0  0  0  0  0
  150.0185  141.6597  156.1518 H   0  0  0  0  0  0  0  0  0  0  0  0
  151.4773  141.2260  155.2919 H   0  0  0  0  0  0  0  0  0  0  0  0
  148.4171  137.6976  154.3645 H   0  0  0  0  0  0  0  0  0  0  0  0
  146.6396  138.2514  152.7484 H   0  0  0  0  0  0  0  0  0  0  0  0
  147.4014  142.2985  153.0107 H   0  0  0  0  0  0  0  0  0  0  0  0
  149.2246  141.9571  154.6497 H   0  0  0  0  0  0  0  0  0  0  0  0
  151.7320  139.0458  154.2191 H   0  0  0  0  0  0  0  0  0  0  0  0
  152.1001  138.5629  155.8346 H   0  0  0  0  0  0  0  0  0  0  0  0
  150.0271  137.1941  154.0604 H   0  0  0  0  0  0  0  0  0  0  0  0
  151.6264  136.5955  154.4236 H   0  0  0  0  0  0  0  0  0  0  0  0
  149.8858  135.5280  155.8795 H   0  0  0  0  0  0  0  0  0  0  0  0
  151.0899  136.3851  156.8115 H   0  0  0  0  0  0  0  0  0  0  0  0
  148.2848  137.3622  156.1244 H   0  0  0  0  0  0  0  0  0  0  0  0
  148.8778  136.9329  157.7041 H   0  0  0  0  0  0  0  0  0  0  0  0
  150.4692  138.7909  157.7085 H   0  0  0  0  0  0  0  0  0  0  0  0
  148.8734  139.4046  157.4801 H   0  0  0  0  0  0  0  0  0  0  0  0
  1  2  1  0  0  0  0
  1 21  1  0  0  0  0
  1 22  1  0  0  0  0
  1 23  1  0  0  0  0
  2  3  1  0  0  0  0
  2  4  1  0  0  0  0
  3 24  1  0  0  0  0
  3 25  1  0  0  0  0
  3 26  1  0  0  0  0
  4  5  1  0  0  0  0
  4 27  1  0  0  0  0
  4 28  1  0  0  0  0
  5  6  2  0  0  0  0
  5  7  1  0  0  0  0
  7  8  1  0  0  0  0
  7 29  1  0  0  0  0
  8  9  1  0  0  0  0
  8 30  1  0  0  0  0
  8 31  1  0  0  0  0
  9 20  1  0  0  0  0
  9 10  1  0  0  0  0
  9 16  1  0  0  0  0
 10 15  1  0  0  0  0
 10 11  2  0  0  0  0
 11 12  1  0  0  0  0
 11 32  1  0  0  0  0
 12 13  2  0  0  0  0
 12 33  1  0  0  0  0
 13 14  1  0  0  0  0
 14 15  2  0  0  0  0
 14 34  1  0  0  0  0
 15 35  1  0  0  0  0
 16 17  1  0  0  0  0
 16 36  1  0  0  0  0
 16 37  1  0  0  0  0
 17 18  1  0  0  0  0
 17 38  1  0  0  0  0
 17 39  1  0  0  0  0
 18 19  1  0  0  0  0
 18 40  1  0  0  0  0
 18 41  1  0  0  0  0
 19 20  1  0  0  0  0
 19 42  1  0  0  0  0
 19 43  1  0  0  0  0
 20 44  1  0  0  0  0
 20 45  1  0  0  0  0
M  END
> <s_m_source_file>
AV-unprocessed.smi

> <i_m_source_file_index>
2790

> <i_lp_mmshare_version>
43012

> <i_f3d_flags>
0

> <s_epik_input>
W0NIM11OKFtDSDNdKVtDSDJdQyg9TylbTkhdW0NIMl1DMShbQ0gyXVtDSDJdW0NIMl1bQ0gyXVtDSDJdMSljMltjSF1bY0hdbltjSF1bY0hdMg==

> <s_epik_cmdline>
J2VwaWtfcHl0aG9uJywgJy1waCcsICc3LjAnLCAnLXRuJywgJzgnLCAnLW1hJywgJzIwMCcsICctbWV0YWxfYmluZGluZycsICctaW1hZScsICc8aW5maWxlLm1hZT4nLCAnLW9tYWUnLCAnPG91dGZpbGUubWFlPic=

> <r_epik_Ionization_Penalty>
1.73486

> <r_epik_Ionization_Penalty_Charging>
0

> <r_epik_Ionization_Penalty_Neutral>
1.73486

> <r_epik_State_Penalty>
1.84779

> <r_epik_Charging_Adjusted_Penalty>
1.84779

> <i_epik_Tot_Q>
0

> <i_epik_Tot_abs_Q>
0

> <r_epik_Metal_State_Penalty>
1.83713

> <b_epik_Metal_Only>
0

> <s_lp_Force_Field>
OPLS_2005

> <r_lp_Energy>
21.958

> <b_lp_Chiralities_Consistent>
1

> <s_lp_Variant>
AV-unprocessed.smi:2790-3

> <Gold.Version>
5.8.1

> <Gold.Id.Protein>
6NUR|6NUR_protein|mol2

> <Gold.PLP.Fitness>
36.9467

> <Gold.PLP.PLP>
-37.8520

> <Gold.PLP.part.hbond>
-0.2319

> <Gold.PLP.part.metal>
0.0000

> <Gold.PLP.part.buried>
-4.1621

> <Gold.PLP.part.nonpolar>
-33.0130

> <Gold.PLP.part.repulsive>
0.3732

> <Gold.PLP.ligand.clash>
0.0000

> <Gold.PLP.ligand.torsion>
0.4697

> <Gold.PLP.Chemscore.Hbond>
0.0000

> <Gold.PLP.Chemscore.CHOScore>
0.0000

> <Gold.PLP.Chemscore.Metal>
0.0000

> <Gold.PLP.Chemscore.Internal.Correction>
0.0341

> <Gold.Rescore>
     Score         DG    S(hbond)    S(metal)    S(lipo)     H(rot)  DE(clash)    DE(int)     intcor
     12.68     -13.84       0.00        0.00     105.41       1.55       0.27       0.90       ----

> <Gold.Chemscore.Fitness>
12.6790

> <Gold.Chemscore.DG>
-13.8437

> <Gold.Chemscore.ZeroCoef>
-5.4800

> <Gold.Chemscore.Hbond>
0.0000

> <Gold.Chemscore.Metal>
0.0000

> <Gold.Chemscore.Lipo>
105.4108

> <Gold.Chemscore.Internal_Hbond>
0.0000

> <Gold.Chemscore.DEClash>
0.2685

> <Gold.Chemscore.DEInternal>
0.8963

> <Gold.Chemscore.Rot>
1.5505

> <Gold.Chemscore.Internal.Correction>
   9.000000E+99

> <Gold.Chemscore.Hbond.Weighted>
-0.0000

> <Gold.Chemscore.Metal.Weighted>
-0.0000

> <Gold.Chemscore.Lipo.Weighted>
-12.3331

> <Gold.Chemscore.Internal_Hbond.Weighted>
0.0000

> <Gold.Chemscore.DEClash.Weighted>
0.2685

> <Gold.Chemscore.DEInternal.Weighted>
0.8963

> <Gold.Chemscore.Rot.Weighted>
3.9693

> <Gold.Chemscore.Internal.Correction.Weighted>
   9.000000E+99

> <Gold.Protein.RotatedTorsions>
[ 6907 6896 6895 6894 ] final   50.05 input  -60.11 | X-H torsion
[ 7974 7965 7964 7962 ] final  112.73 input  175.53 | X-H torsion
[ 8008 7997 7996 7995 ] final  -38.41 input   59.86 | X-H torsion
[ 10167 10162 10161 10158 ] final   -0.59 input  -65.29 | X-H torsion
[ 10718 10713 10712 10709 ] final  152.64 input   66.30 | X-H torsion
[ 10763 10752 10751 10750 ] final  -98.57 input  -60.55 | X-H torsion
[ 11005 11000 10999 10996 ] final  160.81 input  -57.11 | X-H torsion

> <Gold.Protein.ActiveResidues>
 VAL166  LYS551  ARG553  GLY616  TRP617  ASP618  TYR619  PRO620  LYS621  CYS622 
 ASP623  PHE694  ASN695  SER759  ASP760  ASP761  ALA762  ILE779  LEU786  VAL792 
 PHE793  MET794  SER795  GLU796  ALA797  LYS798  CYS799  TRP800  GLU811  SER814 

> <Gold.Protein.RotatedAtoms>
  152.2976  134.7649  160.0364 H   0  0  0  0  0  0  0  0  0  0  0  0  # atno 6907 bound_to 6896
  151.8174  133.3384  159.3582 H   0  0  0  0  0  0  0  0  0  0  0  0  # atno 6908 bound_to 6896
  150.7258  134.5536  159.5851 H   0  0  0  0  0  0  0  0  0  0  0  0  # atno 6909 bound_to 6896
  145.2258  139.2841  143.4194 H   0  0  0  0  0  0  0  0  0  0  0  0  # atno 7974 bound_to 7965
  154.4037  140.1578  156.2695 H   0  0  0  0  0  0  0  0  0  0  0  0  # atno 8008 bound_to 7997
  155.8965  140.3435  155.5973 H   0  0  0  0  0  0  0  0  0  0  0  0  # atno 8009 bound_to 7997
  155.7497  140.0803  157.2197 H   0  0  0  0  0  0  0  0  0  0  0  0  # atno 8010 bound_to 7997
  140.6774  143.6876  150.8054 H   0  0  0  0  0  0  0  0  0  0  0  0  # atno 10167 bound_to 10162
  157.2552  131.0787  151.1703 H   0  0  0  0  0  0  0  0  0  0  0  0  # atno 10718 bound_to 10713
  154.7425  135.5004  153.9147 H   0  0  0  0  0  0  0  0  0  0  0  0  # atno 10763 bound_to 10752
  153.1058  135.6697  153.9598 H   0  0  0  0  0  0  0  0  0  0  0  0  # atno 10764 bound_to 10752
  153.9371  135.3071  155.3423 H   0  0  0  0  0  0  0  0  0  0  0  0  # atno 10765 bound_to 10752
  140.2096  134.8277  157.3106 H   0  0  0  0  0  0  0  0  0  0  0  0  # atno 11005 bound_to 11000
  146.3365  140.2578  142.8601 LP  0  0  0  0  0  0  0  0  0  0  0  0  # atno 17320 bound_to 7965
  144.9722  140.8380  143.5448 LP  0  0  0  0  0  0  0  0  0  0  0  0  # atno 17321 bound_to 7965
  140.0571  143.5192  152.2646 LP  0  0  0  0  0  0  0  0  0  0  0  0  # atno 17342 bound_to 10162
  139.6075  144.7600  151.3029 LP  0  0  0  0  0  0  0  0  0  0  0  0  # atno 17343 bound_to 10162
  157.3235  130.6949  149.6283 LP  0  0  0  0  0  0  0  0  0  0  0  0  # atno 17370 bound_to 10713
  155.9665  130.4328  150.4980 LP  0  0  0  0  0  0  0  0  0  0  0  0  # atno 17371 bound_to 10713
  140.1965  134.4307  155.7686 LP  0  0  0  0  0  0  0  0  0  0  0  0  # atno 17394 bound_to 11000
  141.2226  133.7052  156.8114 LP  0  0  0  0  0  0  0  0  0  0  0  0  # atno 17395 bound_to 11000

$$$$
