#       Name:                AV-unprocessed.smi:102
#       Creating user name   scv26
#       Creation time:       Thu Mar 26 17:50:07 2020


#       File generated by GOLD software.
#

@<TRIPOS>MOLECULE
AV-unprocessed.smi:102
    56    57     1
SMALL
NO_CHARGES


@<TRIPOS>ATOM
      1 ****        -3.7131   2.7706  -2.6185 C.3            1 S1                 0.0000
      2 ****        -3.5069   1.4898  -1.8213 C.2            1 S1                 0.0000
      3 ****        -3.7316   0.3843  -2.3139 O.2            1 S1                 0.0000
      4 ****        -3.0690   1.7293  -0.5723 O.3            1 S1                 0.0000
      5 ****        -2.7886   0.6534   0.3133 C.3            1 S1                 0.0000
      6 ****        -1.3381   0.1764   0.1459 C.3            1 S1                 0.0000
      7 ****        -1.2221  -0.6919  -0.9762 O.3            1 S1                 0.0000
      8 ****        -0.1011  -1.5154  -0.8301 C.3            1 S1                 0.0000
      9 ****         0.9691  -1.0926  -1.8192 N.am           1 S1                 0.0000
     10 ****         0.9385   0.1486  -2.4345 C.2            1 S1                 0.0000
     11 ****         1.9002   0.5208  -3.3034 C.2            1 S1                 0.0000
     12 ****         1.8445   1.7318  -3.8840 F              1 S1                 0.0000
     13 ****         2.9970  -0.3969  -3.6060 C.2            1 S1                 0.0000
     14 ****         3.8711  -0.0510  -4.3992 O.2            1 S1                 0.0000
     15 ****         3.0017  -1.6122  -2.9856 N.pl3          1 S1                -1.0000
     16 ****         2.0320  -1.9925  -2.1032 C.2            1 S1                 0.0000
     17 ****         2.0327  -3.0806  -1.5273 O.2            1 S1                 0.0000
     18 ****         0.3571  -1.4001   0.6431 C.3            1 S1                 0.0000
     19 ****         1.5246  -0.5828   0.7527 O.3            1 S1                 0.0000
     20 ****         2.5282  -0.9202   1.5806 C.2            1 S1                 0.0000
     21 ****         3.6981   0.0505   1.4959 C.3            1 S1                 0.0000
     22 ****         2.5494  -1.8861   2.3433 O.2            1 S1                 0.0000
     23 ****        -0.8521  -0.7208   1.2786 C.3            1 S1                 0.0000
     24 ****        -0.5371   0.0185   2.4533 O.3            1 S1                 0.0000
     25 ****        -0.5286  -0.5899   3.6519 C.2            1 S1                 0.0000
     26 ****        -0.1526   0.3596   4.7813 C.3            1 S1                 0.0000
     27 ****        -0.7775  -1.7764   3.8650 O.2            1 S1                 0.0000
     28 ****        -4.4673   3.3964  -2.1415 H              1 S1                 0.0000
     29 ****        -4.0435   2.5412  -3.6317 H              1 S1                 0.0000
     30 ****        -2.7813   3.3333  -2.6783 H              1 S1                 0.0000
     31 ****        -2.9239   1.0342   1.3258 H              1 S1                 0.0000
     32 ****        -3.4955  -0.1690   0.1942 H              1 S1                 0.0000
     33 ****        -0.6619   1.0257   0.0310 H              1 S1                 0.0000
     34 ****        -0.3880  -2.5276  -1.1198 H              1 S1                 0.0000
     35 ****         0.1400   0.8439  -2.2257 H              1 S1                 0.0000
     36 ****         0.5193  -2.4007   1.0461 H              1 S1                 0.0000
     37 ****         3.3508   1.0504   1.2346 H              1 S1                 0.0000
     38 ****         4.4042  -0.2806   0.7342 H              1 S1                 0.0000
     39 ****         4.2185   0.1046   2.4523 H              1 S1                 0.0000
     40 ****        -1.6232  -1.4659   1.4825 H              1 S1                 0.0000
     41 ****        -0.7727   1.2556   4.7478 H              1 S1                 0.0000
     42 ****         0.8925   0.6560   4.6910 H              1 S1                 0.0000
     43 ****        -0.2931  -0.1218   5.7493 H              1 S1                 0.0000
     44 ****        -4.0568   0.3139  -3.2570 LP             1 S1                 0.0000
     45 ****        -3.5889  -0.4433  -1.7711 LP             1 S1                 0.0000
     46 ****        -1.1259  -0.1462  -1.8087 LP             1 S1                 0.0000
     47 ****        -2.0432  -1.2589  -1.0425 LP             1 S1                 0.0000
     48 ****         3.8270   0.8504  -4.8301 LP             1 S1                 0.0000
     49 ****         4.6258  -0.6711  -4.6133 LP             1 S1                 0.0000
     50 ****         3.7455  -2.2500  -3.1854 LP             1 S1                 0.0000
     51 ****         1.3010  -3.3063  -0.8841 LP             1 S1                 0.0000
     52 ****         2.7649  -3.7387  -1.7028 LP             1 S1                 0.0000
     53 ****         1.7669  -2.5074   2.3851 LP             1 S1                 0.0000
     54 ****         3.3491  -2.0495   2.9210 LP             1 S1                 0.0000
     55 ****        -1.0132  -2.3822   3.1050 LP             1 S1                 0.0000
     56 ****        -0.7441  -2.1345   4.7980 LP             1 S1                 0.0000
@<TRIPOS>BOND
    1    1    2 1     
    2    1   28 1     
    3    1   29 1     
    4    1   30 1     
    5    2    3 2     
    6    2    4 1     
    7    4    5 1     
    8    5    6 1     
    9    5   31 1     
   10    5   32 1     
   11    6   23 1     
   12    6    7 1     
   13    6   33 1     
   14    7    8 1     
   15    8    9 1     
   16    8   18 1     
   17    8   34 1     
   18    9   16 am    
   19    9   10 1     
   20   10   11 2     
   21   10   35 1     
   22   11   12 1     
   23   11   13 1     
   24   13   14 2     
   25   13   15 1     
   26   15   16 1     
   27   16   17 2     
   28   18   19 1     
   29   18   23 1     
   30   18   36 1     
   31   19   20 1     
   32   20   21 1     
   33   20   22 2     
   34   21   37 1     
   35   21   38 1     
   36   21   39 1     
   37   23   24 1     
   38   23   40 1     
   39   24   25 1     
   40   25   26 1     
   41   25   27 2     
   42   26   41 1     
   43   26   42 1     
   44   26   43 1     
   45    3   44 1     
   46    3   45 1     
   47    7   46 1     
   48    7   47 1     
   49   14   48 1     
   50   14   49 1     
   51   15   50 1     
   52   17   51 1     
   53   17   52 1     
   54   22   53 1     
   55   22   54 1     
   56   27   55 1     
   57   27   56 1     
@<TRIPOS>SUBSTRUCTURE
      1 S1             1
@<TRIPOS>SET
LONE_PAIRS      STATIC     ATOMS    <user>   **** ""
13 44 45 46 47 48 49 50 51 52 53 54 55 56
ATOM$BLUE        STATIC     ATOMS    COLORGROUP SYSTEM
13 44 45 46 47 48 49 50 51 52 53 54 55 56
