AV-unprocessed.smi:33|AV-procd|sdf|202|dock6
  -GOLD-   2262015483D 1   1.00000     0.00000
 Structure written by MMmdl.
 67 72  0  0  0  0  0  0  0  0  1 V2000
  153.8104  139.9076  159.4095 O   0  0  0  0  0  0  0  0  0  0  0  0
  152.7043  140.4488  159.4714 C   0  0  0  0  0  0  0  0  0  0  0  0
  151.5429  139.7961  159.2691 O   0  0  0  0  0  0  0  0  0  0  0  0
  151.5559  138.4199  158.9246 C   0  0  0  0  0  0  0  0  0  0  0  0
  150.1677  137.8146  159.1607 C   0  0  1  0  0  0  0  0  0  0  0  0
  149.7510  138.0592  160.4957 O   0  0  0  0  0  0  0  0  0  0  0  0
  148.3686  137.9001  160.5766 C   0  0  2  0  0  0  0  0  0  0  0  0
  148.1005  136.4755  160.9706 N   0  0  0  0  0  0  0  0  0  0  0  0
  147.7422  135.3905  160.1934 C   0  0  0  0  0  0  0  0  0  0  0  0
  147.6124  134.2596  160.8330 N   0  0  0  0  0  0  0  0  0  0  0  0
  147.9303  134.5793  162.1456 C   0  0  0  0  0  0  0  0  0  0  0  0
  148.0058  133.8364  163.3543 C   0  0  0  0  0  0  0  0  0  0  0  0
  147.7242  132.5144  163.4216 N   0  0  0  0  0  0  0  0  0  0  0  0
  148.8278  131.5743  163.1720 C   0  0  0  0  0  0  0  0  0  0  0  0
  149.7997  131.9431  162.5096 O   0  0  0  0  0  0  0  0  0  0  0  0
  148.7533  130.1564  163.6651 C   0  0  0  0  0  0  0  0  0  0  0  0
  147.9401  129.8378  164.7750 C   0  0  0  0  0  0  0  0  0  0  0  0
  147.8581  128.5104  165.2384 C   0  0  0  0  0  0  0  0  0  0  0  0
  148.5741  127.4900  164.5840 C   0  0  0  0  0  0  0  0  0  0  0  0
  149.3626  127.7953  163.4584 C   0  0  0  0  0  0  0  0  0  0  0  0
  149.4445  129.1223  162.9938 C   0  0  0  0  0  0  0  0  0  0  0  0
  146.3362  132.1464  163.7358 C   0  0  0  0  0  0  0  0  0  0  0  0
  145.8963  131.0569  163.3634 O   0  0  0  0  0  0  0  0  0  0  0  0
  145.4406  133.1054  164.4669 C   0  0  0  0  0  0  0  0  0  0  0  0
  144.0820  133.2238  164.1007 C   0  0  0  0  0  0  0  0  0  0  0  0
  143.2353  134.1114  164.7925 C   0  0  0  0  0  0  0  0  0  0  0  0
  143.7365  134.8705  165.8671 C   0  0  0  0  0  0  0  0  0  0  0  0
  145.0827  134.7352  166.2565 C   0  0  0  0  0  0  0  0  0  0  0  0
  145.9308  133.8499  165.5636 C   0  0  0  0  0  0  0  0  0  0  0  0
  148.3785  134.4919  164.4840 N   0  0  0  0  0  0  0  0  0  0  0  0
  148.6570  135.7979  164.4314 C   0  0  0  0  0  0  0  0  0  0  0  0
  148.6223  136.6181  163.3779 N   0  0  0  0  0  0  0  0  0  0  0  0
  148.2484  135.9612  162.2413 C   0  0  0  0  0  0  0  0  0  0  0  0
  147.7946  138.2274  159.1832 C   0  0  1  0  0  0  0  0  0  0  0  0
  146.9859  139.3859  159.1967 O   0  0  0  0  0  0  0  0  0  0  0  0
  149.0475  138.4582  158.3423 C   0  0  2  0  0  0  0  0  0  0  0  0
  148.9347  137.8988  157.1370 F   0  0  0  0  0  0  0  0  0  0  0  0
  152.5138  141.8966  159.7744 C   0  0  0  0  0  0  0  0  0  0  0  0
  151.6692  142.6717  158.9457 C   0  0  0  0  0  0  0  0  0  0  0  0
  151.4664  144.0406  159.2075 C   0  0  0  0  0  0  0  0  0  0  0  0
  152.1066  144.6517  160.3011 C   0  0  0  0  0  0  0  0  0  0  0  0
  152.9505  143.8921  161.1325 C   0  0  0  0  0  0  0  0  0  0  0  0
  153.1542  142.5224  160.8726 C   0  0  0  0  0  0  0  0  0  0  0  0
  151.8249  138.3181  157.8723 H   0  0  0  0  0  0  0  0  0  0  0  0
  152.3095  137.8888  159.5077 H   0  0  0  0  0  0  0  0  0  0  0  0
  150.1984  136.7370  158.9955 H   0  0  0  0  0  0  0  0  0  0  0  0
  147.9453  138.5021  161.3818 H   0  0  0  0  0  0  0  0  0  0  0  0
  147.5758  135.4545  159.1281 H   0  0  0  0  0  0  0  0  0  0  0  0
  147.3873  130.6130  165.2860 H   0  0  0  0  0  0  0  0  0  0  0  0
  147.2452  128.2754  166.0962 H   0  0  0  0  0  0  0  0  0  0  0  0
  148.5124  126.4727  164.9413 H   0  0  0  0  0  0  0  0  0  0  0  0
  149.9049  127.0115  162.9505 H   0  0  0  0  0  0  0  0  0  0  0  0
  150.0503  129.3436  162.1270 H   0  0  0  0  0  0  0  0  0  0  0  0
  143.6873  132.6460  163.2773 H   0  0  0  0  0  0  0  0  0  0  0  0
  142.2005  134.2092  164.4988 H   0  0  0  0  0  0  0  0  0  0  0  0
  143.0862  135.5505  166.3974 H   0  0  0  0  0  0  0  0  0  0  0  0
  145.4651  135.3092  167.0875 H   0  0  0  0  0  0  0  0  0  0  0  0
  146.9612  133.7501  165.8738 H   0  0  0  0  0  0  0  0  0  0  0  0
  148.9497  136.2510  165.3671 H   0  0  0  0  0  0  0  0  0  0  0  0
  147.1971  137.3987  158.8039 H   0  0  0  0  0  0  0  0  0  0  0  0
  146.5877  139.4842  158.3450 H   0  0  0  0  0  0  0  0  0  0  0  0
  149.2404  139.5234  158.2028 H   0  0  0  0  0  0  0  0  0  0  0  0
  151.1660  142.2249  158.1004 H   0  0  0  0  0  0  0  0  0  0  0  0
  150.8185  144.6217  158.5677 H   0  0  0  0  0  0  0  0  0  0  0  0
  151.9506  145.7015  160.5017 H   0  0  0  0  0  0  0  0  0  0  0  0
  153.4432  144.3607  161.9717 H   0  0  0  0  0  0  0  0  0  0  0  0
  153.8085  141.9687  161.5301 H   0  0  0  0  0  0  0  0  0  0  0  0
  1  2  2  0  0  0  0
  2  3  1  0  0  0  0
  2 38  1  0  0  0  0
  3  4  1  0  0  0  0
  4  5  1  0  0  0  0
  4 44  1  0  0  0  0
  4 45  1  0  0  0  0
  5 36  1  0  0  0  0
  5  6  1  0  0  0  0
  5 46  1  0  0  0  0
  6  7  1  0  0  0  0
  7  8  1  0  0  0  0
  7 34  1  0  0  0  0
  7 47  1  0  0  0  0
  8 33  1  0  0  0  0
  8  9  1  0  0  0  0
  9 10  2  0  0  0  0
  9 48  1  0  0  0  0
 10 11  1  0  0  0  0
 11 33  2  0  0  0  0
 11 12  1  0  0  0  0
 12 13  1  0  0  0  0
 12 30  2  0  0  0  0
 13 14  1  0  0  0  0
 13 22  1  0  0  0  0
 14 15  2  0  0  0  0
 14 16  1  0  0  0  0
 16 21  1  0  0  0  0
 16 17  2  0  0  0  0
 17 18  1  0  0  0  0
 17 49  1  0  0  0  0
 18 19  2  0  0  0  0
 18 50  1  0  0  0  0
 19 20  1  0  0  0  0
 19 51  1  0  0  0  0
 20 21  2  0  0  0  0
 20 52  1  0  0  0  0
 21 53  1  0  0  0  0
 22 23  2  0  0  0  0
 22 24  1  0  0  0  0
 24 29  1  0  0  0  0
 24 25  2  0  0  0  0
 25 26  1  0  0  0  0
 25 54  1  0  0  0  0
 26 27  2  0  0  0  0
 26 55  1  0  0  0  0
 27 28  1  0  0  0  0
 27 56  1  0  0  0  0
 28 29  2  0  0  0  0
 28 57  1  0  0  0  0
 29 58  1  0  0  0  0
 30 31  1  0  0  0  0
 31 32  2  0  0  0  0
 31 59  1  0  0  0  0
 32 33  1  0  0  0  0
 34 35  1  0  0  0  0
 34 36  1  0  0  0  0
 34 60  1  0  0  0  0
 35 61  1  0  0  0  0
 36 37  1  0  0  0  0
 36 62  1  0  0  0  0
 38 43  1  0  0  0  0
 38 39  2  0  0  0  0
 39 40  1  0  0  0  0
 39 63  1  0  0  0  0
 40 41  2  0  0  0  0
 40 64  1  0  0  0  0
 41 42  1  0  0  0  0
 41 65  1  0  0  0  0
 42 43  2  0  0  0  0
 42 66  1  0  0  0  0
 43 67  1  0  0  0  0
M  END
> <s_m_source_file>
AV-unprocessed.smi

> <i_m_source_file_index>
33

> <i_lp_mmshare_version>
43012

> <i_f3d_flags>
0

> <s_epik_input>
W2NIXTFbY0hdW2NIXVtjSF1bY0hdYzFDKD1PKU9bQ0gyXVtDQEBIXTJPW0NASF0oW0NAQEhdKFtPSF0pW0NAQEhdMkYpbihbY0hdbjMpYyhjMzQpbltjSF1uYzROKEMoPU8pYzVbY0hdW2NIXVtjSF1bY0hdW2NIXTUpQyg9TyljNltjSF1bY0hdW2NIXVtjSF1bY0hdNg==

> <s_epik_cmdline>
J2VwaWtfcHl0aG9uJywgJy1waCcsICc3LjAnLCAnLXRuJywgJzgnLCAnLW1hJywgJzIwMCcsICctbWV0YWxfYmluZGluZycsICctaW1hZScsICc8aW5maWxlLm1hZT4nLCAnLW9tYWUnLCAnPG91dGZpbGUubWFlPic=

> <r_lp_tautomer_probability>
1

> <r_epik_Ionization_Penalty>
0.00067664

> <r_epik_Ionization_Penalty_Charging>
0

> <r_epik_Ionization_Penalty_Neutral>
0.00067664

> <r_epik_State_Penalty>
0.000428095

> <r_epik_Charging_Adjusted_Penalty>
0.000428095

> <i_epik_Tot_Q>
0

> <i_epik_Tot_abs_Q>
0

> <r_epik_Metal_State_Penalty>
-0

> <b_epik_Metal_Only>
0

> <s_epik_Chemistry_Notes>
This compound has an ester and may undergo hydrolysis at high or low pH. This compound contains an acetal/aminal-like group ( X-CH(R)-Y where X, Y are N, S, or O) that may be acid/base labile, releasing an aldehyde.

> <s_lp_Force_Field>
OPLS_2005

> <r_lp_Energy>
69.1038

> <b_lp_Chiralities_Consistent>
1

> <s_lp_Variant>
AV-unprocessed.smi:33-4

> <Gold.Version>
5.8.1

> <Gold.Id.Protein>
6NUR|6NUR_protein|mol2

> <Gold.PLP.Fitness>
58.5820

> <Gold.PLP.PLP>
-56.3967

> <Gold.PLP.part.hbond>
-3.4592

> <Gold.PLP.part.metal>
0.0000

> <Gold.PLP.part.buried>
-4.7326

> <Gold.PLP.part.nonpolar>
-46.4116

> <Gold.PLP.part.repulsive>
0.0499

> <Gold.PLP.ligand.clash>
0.0997

> <Gold.PLP.ligand.torsion>
4.2475

> <Gold.PLP.Chemscore.Hbond>
2.3495

> <Gold.PLP.Chemscore.CHOScore>
0.0000

> <Gold.PLP.Chemscore.Metal>
0.0000

> <Gold.Chemscore.Hbonds>
donor molecule, donor type, donor heavy atom, donor atom, acceptor molecule, acceptor atom, score
      P1  H  6931  6943       L1    32  0.06
      P1  H  7997  8008       L1     1  0.05

> <Gold.PLP.Chemscore.Internal.Correction>
3.7316

> <Gold.Rescore>
     Score         DG    S(hbond)    S(metal)    S(lipo)     H(rot)  DE(clash)    DE(int)     intcor
     11.37     -20.23       1.81        0.00     129.68       2.52       0.19       8.67       ----

> <Gold.Chemscore.Fitness>
11.3707

> <Gold.Chemscore.DG>
-20.2259

> <Gold.Chemscore.ZeroCoef>
-5.4800

> <Gold.Chemscore.Hbond>
1.8075

> <Gold.Chemscore.Metal>
0.0000

> <Gold.Chemscore.Lipo>
129.6752

> <Gold.Chemscore.Internal_Hbond>
0.0000

> <Gold.Chemscore.DEClash>
0.1889

> <Gold.Chemscore.DEInternal>
8.6663

> <Gold.Chemscore.Rot>
2.5247

> <Gold.Chemscore.Internal.Correction>
   9.000000E+99

> <Gold.Chemscore.Hbonds>
donor molecule, donor type, donor heavy atom, donor atom, acceptor molecule, acceptor atom, score
      P1  H  7997  8008       L1     1  0.09

> <Gold.Chemscore.Hbond.Weighted>
-6.0371

> <Gold.Chemscore.Metal.Weighted>
-0.0000

> <Gold.Chemscore.Lipo.Weighted>
-15.1720

> <Gold.Chemscore.Internal_Hbond.Weighted>
0.0000

> <Gold.Chemscore.DEClash.Weighted>
0.1889

> <Gold.Chemscore.DEInternal.Weighted>
8.6663

> <Gold.Chemscore.Rot.Weighted>
6.4633

> <Gold.Chemscore.Internal.Correction.Weighted>
   9.000000E+99

> <Gold.Protein.RotatedTorsions>
[ 6907 6896 6895 6894 ] final   52.30 input  -60.11 | X-H torsion
[ 7974 7965 7964 7962 ] final  140.22 input  175.53 | X-H torsion
[ 8008 7997 7996 7995 ] final -103.66 input   59.86 | X-H torsion
[ 10167 10162 10161 10158 ] final  -13.10 input  -65.29 | X-H torsion
[ 10718 10713 10712 10709 ] final  126.47 input   66.30 | X-H torsion
[ 10763 10752 10751 10750 ] final  -24.71 input  -60.55 | X-H torsion
[ 11005 11000 10999 10996 ] final  -44.37 input  -57.11 | X-H torsion

> <Gold.Protein.ActiveResidues>
 VAL166  LYS551  ARG553  GLY616  TRP617  ASP618  TYR619  PRO620  LYS621  CYS622 
 ASP623  PHE694  ASN695  SER759  ASP760  ASP761  ALA762  ILE779  LEU786  VAL792 
 PHE793  MET794  SER795  GLU796  ALA797  LYS798  CYS799  TRP800  GLU811  SER814 

> <Gold.Protein.RotatedAtoms>
  152.3219  134.7370  160.0311 H   0  0  0  0  0  0  0  0  0  0  0  0  # atno 6907 bound_to 6896
  151.7815  133.3345  159.3481 H   0  0  0  0  0  0  0  0  0  0  0  0  # atno 6908 bound_to 6896
  150.7374  134.5857  159.6006 H   0  0  0  0  0  0  0  0  0  0  0  0  # atno 6909 bound_to 6896
  144.9206  139.5172  143.5665 H   0  0  0  0  0  0  0  0  0  0  0  0  # atno 7974 bound_to 7965
  154.8741  140.0421  157.1742 H   0  0  0  0  0  0  0  0  0  0  0  0  # atno 8008 bound_to 7997
  154.8708  140.2958  155.5462 H   0  0  0  0  0  0  0  0  0  0  0  0  # atno 8009 bound_to 7997
  156.2999  140.2429  156.3696 H   0  0  0  0  0  0  0  0  0  0  0  0  # atno 8010 bound_to 7997
  140.7175  143.5462  150.9353 H   0  0  0  0  0  0  0  0  0  0  0  0  # atno 10167 bound_to 10162
  157.5416  131.1096  150.8849 H   0  0  0  0  0  0  0  0  0  0  0  0  # atno 10718 bound_to 10713
  153.6882  135.6963  153.5098 H   0  0  0  0  0  0  0  0  0  0  0  0  # atno 10763 bound_to 10752
  153.2433  135.4299  155.0720 H   0  0  0  0  0  0  0  0  0  0  0  0  # atno 10764 bound_to 10752
  154.8380  135.3513  154.6424 H   0  0  0  0  0  0  0  0  0  0  0  0  # atno 10765 bound_to 10752
  141.0446  133.6766  156.2863 H   0  0  0  0  0  0  0  0  0  0  0  0  # atno 11005 bound_to 11000
  146.3203  139.8083  142.8951 LP  0  0  0  0  0  0  0  0  0  0  0  0  # atno 17320 bound_to 7965
  145.3302  141.0264  143.3451 LP  0  0  0  0  0  0  0  0  0  0  0  0  # atno 17321 bound_to 7965
  139.9185  143.6634  152.3101 LP  0  0  0  0  0  0  0  0  0  0  0  0  # atno 17342 bound_to 10162
  139.7042  144.7630  151.1221 LP  0  0  0  0  0  0  0  0  0  0  0  0  # atno 17343 bound_to 10162
  156.9400  130.5381  149.5280 LP  0  0  0  0  0  0  0  0  0  0  0  0  # atno 17370 bound_to 10713
  156.0501  130.5572  150.8971 LP  0  0  0  0  0  0  0  0  0  0  0  0  # atno 17371 bound_to 10713
  140.6171  134.5399  157.5542 LP  0  0  0  0  0  0  0  0  0  0  0  0  # atno 17394 bound_to 11000
  139.9302  134.7979  156.0954 LP  0  0  0  0  0  0  0  0  0  0  0  0  # atno 17395 bound_to 11000

$$$$
