AV-unprocessed.smi:2058|AV-procd|sdf|8344|dock9
  -GOLD-   2272011 13D 1   1.00000     0.00000
 Structure written by MMmdl.
 42 43  0  0  0  0  0  0  0  0  1 V2000
  149.6207  132.6067  154.9593 C   0  0  0  0  0  0  0  0  0  0  0  0
  148.4918  133.4205  154.3076 C   0  0  2  0  0  0  0  0  0  0  0  0
  147.9637  132.8025  152.9963 C   0  0  0  0  0  0  0  0  0  0  0  0
  147.8618  131.3959  153.0890 O   0  0  0  0  0  0  0  0  0  0  0  0
  148.9127  134.8046  154.1014 N   0  0  0  0  0  0  0  0  0  0  0  0
  149.3669  135.6313  155.0541 C   0  0  0  0  0  0  0  0  0  0  0  0
  149.5053  135.2982  156.2307 O   0  0  0  0  0  0  0  0  0  0  0  0
  149.6518  136.8429  154.5462 N   0  0  0  0  0  0  0  0  0  0  0  0
  150.1282  138.0035  155.2152 C   0  0  0  0  0  0  0  0  0  0  0  0
  150.3503  137.9169  156.6031 C   0  0  0  0  0  0  0  0  0  0  0  0
  150.8365  139.0413  157.2960 C   0  0  0  0  0  0  0  0  0  0  0  0
  151.0969  140.2328  156.5798 C   0  0  0  0  0  0  0  0  0  0  0  0
  151.5813  141.3749  157.2544 N   0  0  0  0  0  0  0  0  0  0  0  0
  152.0174  141.1500  158.6343 C   0  0  0  0  0  0  0  0  0  0  0  0
  152.8898  142.3128  159.1375 C   0  0  0  0  0  0  0  0  0  0  0  0
  152.1706  143.6581  158.9613 C   0  0  0  0  0  0  0  0  0  0  0  0
  151.7445  143.8377  157.4969 C   0  0  0  0  0  0  0  0  0  0  0  0
  150.8951  142.6481  157.0172 C   0  0  0  0  0  0  0  0  0  0  0  0
  150.9002  140.3111  155.2411 N   0  0  0  0  0  0  0  0  0  0  0  0
  150.4324  139.2312  154.5802 C   0  0  0  0  0  0  0  0  0  0  0  0
  149.3093  131.5761  155.1313 H   0  0  0  0  0  0  0  0  0  0  0  0
  149.9007  133.0305  155.9242 H   0  0  0  0  0  0  0  0  0  0  0  0
  150.5153  132.5852  154.3362 H   0  0  0  0  0  0  0  0  0  0  0  0
  147.6633  133.4283  155.0181 H   0  0  0  0  0  0  0  0  0  0  0  0
  146.9725  133.1982  152.7743 H   0  0  0  0  0  0  0  0  0  0  0  0
  148.6021  133.0640  152.1517 H   0  0  0  0  0  0  0  0  0  0  0  0
  148.1623  131.0197  152.2761 H   0  0  0  0  0  0  0  0  0  0  0  0
  148.8322  135.1637  153.1615 H   0  0  0  0  0  0  0  0  0  0  0  0
  149.5438  136.9375  153.5469 H   0  0  0  0  0  0  0  0  0  0  0  0
  150.1515  136.9986  157.1361 H   0  0  0  0  0  0  0  0  0  0  0  0
  151.0173  138.9738  158.3584 H   0  0  0  0  0  0  0  0  0  0  0  0
  151.1328  141.0512  159.2648 H   0  0  0  0  0  0  0  0  0  0  0  0
  152.5761  140.2207  158.7361 H   0  0  0  0  0  0  0  0  0  0  0  0
  153.1470  142.1602  160.1858 H   0  0  0  0  0  0  0  0  0  0  0  0
  153.8311  142.3270  158.5863 H   0  0  0  0  0  0  0  0  0  0  0  0
  151.2928  143.6943  159.6077 H   0  0  0  0  0  0  0  0  0  0  0  0
  152.8213  144.4772  159.2688 H   0  0  0  0  0  0  0  0  0  0  0  0
  151.1850  144.7659  157.3801 H   0  0  0  0  0  0  0  0  0  0  0  0
  152.6312  143.9290  156.8683 H   0  0  0  0  0  0  0  0  0  0  0  0
  150.6841  142.7697  155.9538 H   0  0  0  0  0  0  0  0  0  0  0  0
  149.9364  142.6401  157.5378 H   0  0  0  0  0  0  0  0  0  0  0  0
  150.3254  139.3727  153.5166 H   0  0  0  0  0  0  0  0  0  0  0  0
  1  2  1  0  0  0  0
  1 21  1  0  0  0  0
  1 22  1  0  0  0  0
  1 23  1  0  0  0  0
  2  3  1  0  0  0  0
  2  5  1  0  0  0  0
  2 24  1  0  0  0  0
  3  4  1  0  0  0  0
  3 25  1  0  0  0  0
  3 26  1  0  0  0  0
  4 27  1  0  0  0  0
  5  6  1  0  0  0  0
  5 28  1  0  0  0  0
  6  7  2  0  0  0  0
  6  8  1  0  0  0  0
  8  9  1  0  0  0  0
  8 29  1  0  0  0  0
  9 20  1  0  0  0  0
  9 10  2  0  0  0  0
 10 11  1  0  0  0  0
 10 30  1  0  0  0  0
 11 12  2  0  0  0  0
 11 31  1  0  0  0  0
 12 13  1  0  0  0  0
 12 19  1  0  0  0  0
 13 18  1  0  0  0  0
 13 14  1  0  0  0  0
 14 15  1  0  0  0  0
 14 32  1  0  0  0  0
 14 33  1  0  0  0  0
 15 16  1  0  0  0  0
 15 34  1  0  0  0  0
 15 35  1  0  0  0  0
 16 17  1  0  0  0  0
 16 36  1  0  0  0  0
 16 37  1  0  0  0  0
 17 18  1  0  0  0  0
 17 38  1  0  0  0  0
 17 39  1  0  0  0  0
 18 40  1  0  0  0  0
 18 41  1  0  0  0  0
 19 20  2  0  0  0  0
 20 42  1  0  0  0  0
M  END
> <s_m_source_file>
AV-unprocessed.smi

> <i_m_source_file_index>
2058

> <i_lp_mmshare_version>
43012

> <i_f3d_flags>
0

> <s_epik_input>
W09IXVtDSDJdW0NAQEhdKFtDSDNdKVtOSF1DKD1PKVtOSF1jMVtjSF1bY0hdYyhuW2NIXTEpTjJbQ0gyXVtDSDJdW0NIMl1bQ0gyXVtDSDJdMg==

> <s_epik_cmdline>
J2VwaWtfcHl0aG9uJywgJy1waCcsICc3LjAnLCAnLXRuJywgJzgnLCAnLW1hJywgJzIwMCcsICctbWV0YWxfYmluZGluZycsICctaW1hZScsICc8aW5maWxlLm1hZT4nLCAnLW9tYWUnLCAnPG91dGZpbGUubWFlPic=

> <r_lp_tautomer_probability>
1

> <r_epik_Ionization_Penalty>
0.104828

> <r_epik_Ionization_Penalty_Charging>
0

> <r_epik_Ionization_Penalty_Neutral>
0.104828

> <r_epik_State_Penalty>
0.0887547

> <r_epik_Charging_Adjusted_Penalty>
0.0887547

> <i_epik_Tot_Q>
0

> <i_epik_Tot_abs_Q>
0

> <r_epik_Metal_State_Penalty>
0.0759464

> <b_epik_Metal_Only>
0

> <s_lp_Force_Field>
OPLS_2005

> <r_lp_Energy>
20.4208

> <b_lp_Chiralities_Consistent>
1

> <s_lp_Variant>
AV-unprocessed.smi:2058-1

> <Gold.Version>
5.8.1

> <Gold.Id.Protein>
6NUR|6NUR_protein|mol2

> <Gold.PLP.Fitness>
48.5162

> <Gold.PLP.PLP>
-35.9205

> <Gold.PLP.part.hbond>
-4.0000

> <Gold.PLP.part.metal>
0.0000

> <Gold.PLP.part.buried>
-2.7538

> <Gold.PLP.part.nonpolar>
-28.8249

> <Gold.PLP.part.repulsive>
0.1300

> <Gold.PLP.ligand.clash>
0.0000

> <Gold.PLP.ligand.torsion>
0.3637

> <Gold.PLP.Chemscore.Hbond>
3.3000

> <Gold.PLP.Chemscore.CHOScore>
0.9889

> <Gold.PLP.Chemscore.Metal>
0.0000

> <Gold.Chemscore.Hbonds>
donor molecule, donor type, donor heavy atom, donor atom, acceptor molecule, acceptor atom, score
      L1  H     4    27       P1 10747  0.70
      L1  H     5    28       P1  7948  1.00
      L1  H     8    29       P1  7948  1.00
      P1  H  7989  7998       L1    19  0.30
      L1  C    20    42       P1  7957  0.97

> <Gold.PLP.Chemscore.Internal.Correction>
0.4563

> <Gold.Rescore>
     Score         DG    S(hbond)    S(metal)    S(lipo)     H(rot)  DE(clash)    DE(int)     intcor
     16.45     -19.13       2.62        0.00      86.54       2.05       0.05       2.64       ----

> <Gold.Chemscore.Fitness>
16.4469

> <Gold.Chemscore.DG>
-19.1341

> <Gold.Chemscore.ZeroCoef>
-5.4800

> <Gold.Chemscore.Hbond>
2.6243

> <Gold.Chemscore.Metal>
0.0000

> <Gold.Chemscore.Lipo>
86.5389

> <Gold.Chemscore.Internal_Hbond>
0.0000

> <Gold.Chemscore.DEClash>
0.0494

> <Gold.Chemscore.DEInternal>
2.6378

> <Gold.Chemscore.Rot>
2.0453

> <Gold.Chemscore.Internal.Correction>
   9.000000E+99

> <Gold.Chemscore.Hbonds>
donor molecule, donor type, donor heavy atom, donor atom, acceptor molecule, acceptor atom, score
      L1  H     4    27       P1 10747  0.68
      L1  H     5    28       P1  7948  0.50
      L1  H     8    29       P1  7948  0.78

> <Gold.Chemscore.Hbond.Weighted>
-8.7650

> <Gold.Chemscore.Metal.Weighted>
-0.0000

> <Gold.Chemscore.Lipo.Weighted>
-10.1251

> <Gold.Chemscore.Internal_Hbond.Weighted>
0.0000

> <Gold.Chemscore.DEClash.Weighted>
0.0494

> <Gold.Chemscore.DEInternal.Weighted>
2.6378

> <Gold.Chemscore.Rot.Weighted>
5.2360

> <Gold.Chemscore.Internal.Correction.Weighted>
   9.000000E+99

> <Gold.Protein.RotatedTorsions>
[ 6907 6896 6895 6894 ] final  -73.65 input  -60.11 | X-H torsion
[ 7974 7965 7964 7962 ] final -142.04 input  175.53 | X-H torsion
[ 8008 7997 7996 7995 ] final  168.45 input   59.86 | X-H torsion
[ 10167 10162 10161 10158 ] final  127.39 input  -65.29 | X-H torsion
[ 10718 10713 10712 10709 ] final  133.40 input   66.30 | X-H torsion
[ 10763 10752 10751 10750 ] final -138.38 input  -60.55 | X-H torsion
[ 11005 11000 10999 10996 ] final   -9.83 input  -57.11 | X-H torsion

> <Gold.Protein.ActiveResidues>
 VAL166  LYS551  ARG553  GLY616  TRP617  ASP618  TYR619  PRO620  LYS621  CYS622 
 ASP623  PHE694  ASN695  SER759  ASP760  ASP761  ALA762  ILE779  LEU786  VAL792 
 PHE793  MET794  SER795  GLU796  ALA797  LYS798  CYS799  TRP800  GLU811  SER814 

> <Gold.Protein.RotatedAtoms>
  150.7122  134.4985  159.5549 H   0  0  0  0  0  0  0  0  0  0  0  0  # atno 6907 bound_to 6896
  152.2587  134.8054  160.0443 H   0  0  0  0  0  0  0  0  0  0  0  0  # atno 6908 bound_to 6896
  151.8775  133.3453  159.3792 H   0  0  0  0  0  0  0  0  0  0  0  0  # atno 6909 bound_to 6896
  144.8474  140.6007  143.5413 H   0  0  0  0  0  0  0  0  0  0  0  0  # atno 7974 bound_to 7965
  156.1546  140.1590  156.8714 H   0  0  0  0  0  0  0  0  0  0  0  0  # atno 8008 bound_to 7997
  154.5103  140.0803  156.8012 H   0  0  0  0  0  0  0  0  0  0  0  0  # atno 8009 bound_to 7997
  155.3829  140.3406  155.4250 H   0  0  0  0  0  0  0  0  0  0  0  0  # atno 8010 bound_to 7997
  139.5581  144.6863  151.4123 H   0  0  0  0  0  0  0  0  0  0  0  0  # atno 10167 bound_to 10162
  157.4777  131.1084  150.9722 H   0  0  0  0  0  0  0  0  0  0  0  0  # atno 10718 bound_to 10713
  154.8638  135.3614  154.5376 H   0  0  0  0  0  0  0  0  0  0  0  0  # atno 10763 bound_to 10752
  153.5999  135.7013  153.5393 H   0  0  0  0  0  0  0  0  0  0  0  0  # atno 10764 bound_to 10752
  153.3300  135.4127  155.1449 H   0  0  0  0  0  0  0  0  0  0  0  0  # atno 10765 bound_to 10752
  140.7383  133.8691  155.8947 H   0  0  0  0  0  0  0  0  0  0  0  0  # atno 11005 bound_to 11000
  145.4570  139.1517  143.3887 LP  0  0  0  0  0  0  0  0  0  0  0  0  # atno 17320 bound_to 7965
  146.2755  140.4698  142.8797 LP  0  0  0  0  0  0  0  0  0  0  0  0  # atno 17321 bound_to 7965
  140.6857  143.7979  150.7183 LP  0  0  0  0  0  0  0  0  0  0  0  0  # atno 17342 bound_to 10162
  140.1446  143.4411  152.2171 LP  0  0  0  0  0  0  0  0  0  0  0  0  # atno 17343 bound_to 10162
  157.0466  130.5770  149.5364 LP  0  0  0  0  0  0  0  0  0  0  0  0  # atno 17370 bound_to 10713
  156.0105  130.5196  150.7973 LP  0  0  0  0  0  0  0  0  0  0  0  0  # atno 17371 bound_to 10713
  140.9859  134.1343  157.4452 LP  0  0  0  0  0  0  0  0  0  0  0  0  # atno 17394 bound_to 11000
  139.8811  135.0025  156.6132 LP  0  0  0  0  0  0  0  0  0  0  0  0  # atno 17395 bound_to 11000

$$$$
