AV-unprocessed.smi:334|AV-procd|sdf|2366|dock5
  -GOLD-   2262022283D 1   1.00000     0.00000
 Structure written by MMmdl.
 44 46  0  0  0  0  0  0  0  0  3 V2000
  145.7296  134.5449  154.2023 C   0  0  0  0  0  0  0  0  0  0  0  0
  147.1393  135.0408  154.5652 C   0  0  2  0  0  0  0  0  0  0  0  0
  147.4150  136.3016  153.8860 N   0  0  0  0  0  0  0  0  0  0  0  0
  146.8201  137.4808  154.1314 C   0  0  0  0  0  0  0  0  0  0  0  0
  145.8847  137.6076  154.9205 O   0  0  0  0  0  0  0  0  0  0  0  0
  147.3649  138.7222  153.4045 C   0  0  0  0  0  0  0  0  0  0  0  0
  148.4843  139.3913  154.0937 N   0  0  0  0  0  0  0  0  0  0  0  0
  149.7196  138.7140  154.1168 C   0  0  0  0  0  0  0  0  0  0  0  0
  150.8028  139.2220  154.7363 C   0  0  0  0  0  0  0  0  0  0  0  0
  152.0593  138.5062  154.7621 N   0  3  0  0  0  0  0  0  0  0  0  0
  153.0012  138.9927  155.3791 O   0  0  0  0  0  0  0  0  0  0  0  0
  152.1463  137.4352  154.1688 O   0  5  0  0  0  0  0  0  0  0  0  0
  150.6651  140.5102  155.3874 C   0  0  0  0  0  0  0  0  0  0  0  0
  149.4854  141.1609  155.3733 C   0  0  0  0  0  0  0  0  0  0  0  0
  148.3049  140.6019  154.7070 C   0  0  0  0  0  0  0  0  0  0  0  0
  147.2188  141.1810  154.7092 O   0  0  0  0  0  0  0  0  0  0  0  0
  148.2316  134.0123  154.1885 C   0  0  2  0  0  0  0  0  0  0  0  0
  148.0139  133.3052  152.8324 C   0  0  0  0  0  0  0  0  0  0  0  0
  148.1700  131.8153  153.1911 C   0  0  2  0  0  0  0  0  0  0  0  0
  146.9248  131.3509  153.9696 C   0  0  0  0  0  0  0  0  0  0  0  0
  147.1147  132.0199  155.3429 C   0  0  0  0  0  0  0  0  0  0  0  0
  148.4228  132.8149  155.1553 C   0  0  1  0  0  0  0  0  0  0  0  0
  149.2298  131.8567  154.2859 C   0  0  0  0  0  0  0  0  0  0  0  0
  145.4959  133.6110  154.7134 H   0  0  0  0  0  0  0  0  0  0  0  0
  145.6334  134.3702  153.1302 H   0  0  0  0  0  0  0  0  0  0  0  0
  144.9691  135.2714  154.4903 H   0  0  0  0  0  0  0  0  0  0  0  0
  147.1716  135.2081  155.6431 H   0  0  0  0  0  0  0  0  0  0  0  0
  148.1684  136.2905  153.2142 H   0  0  0  0  0  0  0  0  0  0  0  0
  147.6643  138.4186  152.4006 H   0  0  0  0  0  0  0  0  0  0  0  0
  146.5437  139.4250  153.2523 H   0  0  0  0  0  0  0  0  0  0  0  0
  149.7160  137.7590  153.6111 H   0  0  0  0  0  0  0  0  0  0  0  0
  151.5069  140.9628  155.8907 H   0  0  0  0  0  0  0  0  0  0  0  0
  149.4050  142.1191  155.8655 H   0  0  0  0  0  0  0  0  0  0  0  0
  149.1852  134.5422  154.1456 H   0  0  0  0  0  0  0  0  0  0  0  0
  147.0382  133.5137  152.3915 H   0  0  0  0  0  0  0  0  0  0  0  0
  148.7734  133.6165  152.1141 H   0  0  0  0  0  0  0  0  0  0  0  0
  148.4122  131.1828  152.3368 H   0  0  0  0  0  0  0  0  0  0  0  0
  145.9967  131.6546  153.4843 H   0  0  0  0  0  0  0  0  0  0  0  0
  146.9093  130.2651  154.0711 H   0  0  0  0  0  0  0  0  0  0  0  0
  146.2678  132.6412  155.6323 H   0  0  0  0  0  0  0  0  0  0  0  0
  147.2390  131.2634  156.1187 H   0  0  0  0  0  0  0  0  0  0  0  0
  148.9071  133.0829  156.0948 H   0  0  0  0  0  0  0  0  0  0  0  0
  149.4060  130.8874  154.7558 H   0  0  0  0  0  0  0  0  0  0  0  0
  150.1829  132.2701  153.9511 H   0  0  0  0  0  0  0  0  0  0  0  0
  1  2  1  0  0  0  0
  1 24  1  0  0  0  0
  1 25  1  0  0  0  0
  1 26  1  0  0  0  0
  2  3  1  0  0  0  0
  2 17  1  0  0  0  0
  2 27  1  0  0  0  0
  3  4  1  0  0  0  0
  3 28  1  0  0  0  0
  4  5  2  0  0  0  0
  4  6  1  0  0  0  0
  6  7  1  0  0  0  0
  6 29  1  0  0  0  0
  6 30  1  0  0  0  0
  7 15  1  0  0  0  0
  7  8  1  0  0  0  0
  8  9  2  0  0  0  0
  8 31  1  0  0  0  0
  9 10  1  0  0  0  0
  9 13  1  0  0  0  0
 10 11  2  0  0  0  0
 10 12  1  0  0  0  0
 13 14  2  0  0  0  0
 13 32  1  0  0  0  0
 14 15  1  0  0  0  0
 14 33  1  0  0  0  0
 15 16  2  0  0  0  0
 17 22  1  0  0  0  0
 17 18  1  0  0  0  0
 17 34  1  0  0  0  0
 18 19  1  0  0  0  0
 18 35  1  0  0  0  0
 18 36  1  0  0  0  0
 19 23  1  0  0  0  0
 19 20  1  0  0  0  0
 19 37  1  0  0  0  0
 20 21  1  0  0  0  0
 20 38  1  0  0  0  0
 20 39  1  0  0  0  0
 21 22  1  0  0  0  0
 21 40  1  0  0  0  0
 21 41  1  0  0  0  0
 22 23  1  0  0  0  0
 22 42  1  0  0  0  0
 23 43  1  0  0  0  0
 23 44  1  0  0  0  0
M  CHG  1  10   1
M  CHG  1  12  -1
M  END
> <s_m_source_file>
AV-unprocessed.smi

> <i_m_source_file_index>
334

> <i_lp_mmshare_version>
43012

> <i_f3d_flags>
0

> <s_epik_input>
W0NIMl0xW0NIMl1bQ0BIXShbQ0gyXTIpW0NAQEhdKFtDSDJdW0NAQEhdMTIpW0NASF0oW0NIM10pW05IXUMoPU8pW0NIMl1uM1tjSF1jKFtOK10oPU8pW08tXSlbY0hdW2NIXWMzPU8=

> <s_epik_cmdline>
J2VwaWtfcHl0aG9uJywgJy1waCcsICc3LjAnLCAnLXRuJywgJzgnLCAnLW1hJywgJzIwMCcsICctbWV0YWxfYmluZGluZycsICctaW1hZScsICc8aW5maWxlLm1hZT4nLCAnLW9tYWUnLCAnPG91dGZpbGUubWFlPic=

> <r_lp_tautomer_probability>
1

> <r_epik_Ionization_Penalty>
2.17081e-08

> <r_epik_Ionization_Penalty_Charging>
8.1195e-11

> <r_epik_Ionization_Penalty_Neutral>
2.16269e-08

> <r_epik_State_Penalty>
-0

> <r_epik_Charging_Adjusted_Penalty>
8.1195e-11

> <i_epik_Tot_Q>
0

> <i_epik_Tot_abs_Q>
2

> <r_epik_Metal_State_Penalty>
-0

> <b_epik_Metal_Only>
0

> <s_lp_Force_Field>
OPLS_2005

> <r_lp_Energy>
61.6433

> <b_lp_Chiralities_Consistent>
1

> <s_lp_Variant>
AV-unprocessed.smi:334-5

> <Gold.Version>
5.8.1

> <Gold.Id.Protein>
6NUR|6NUR_protein|mol2

> <Gold.PLP.Fitness>
44.1394

> <Gold.PLP.PLP>
-34.4045

> <Gold.PLP.part.hbond>
-3.0000

> <Gold.PLP.part.metal>
0.0000

> <Gold.PLP.part.buried>
-0.8578

> <Gold.PLP.part.nonpolar>
-30.6906

> <Gold.PLP.part.repulsive>
0.3328

> <Gold.PLP.ligand.clash>
0.0000

> <Gold.PLP.ligand.torsion>
0.9670

> <Gold.PLP.Chemscore.Hbond>
2.8800

> <Gold.PLP.Chemscore.CHOScore>
1.0000

> <Gold.PLP.Chemscore.Metal>
0.0000

> <Gold.Chemscore.Hbonds>
donor molecule, donor type, donor heavy atom, donor atom, acceptor molecule, acceptor atom, score
      L1  H     3    28       P1  7948  1.00
      P1  H  7997  8008       L1    11  1.00
      P1  H 10752 10765       L1    12  0.86
      L1  C     8    31       P1  7948  1.00

> <Gold.PLP.Chemscore.Internal.Correction>
0.0288

> <Gold.Rescore>
     Score         DG    S(hbond)    S(metal)    S(lipo)     H(rot)  DE(clash)    DE(int)     intcor
     17.41     -18.48       2.84        0.00      68.20       1.75       0.07       0.99       ----

> <Gold.Chemscore.Fitness>
17.4139

> <Gold.Chemscore.DG>
-18.4812

> <Gold.Chemscore.ZeroCoef>
-5.4800

> <Gold.Chemscore.Hbond>
2.8429

> <Gold.Chemscore.Metal>
0.0000

> <Gold.Chemscore.Lipo>
68.1984

> <Gold.Chemscore.Internal_Hbond>
0.0000

> <Gold.Chemscore.DEClash>
0.0743

> <Gold.Chemscore.DEInternal>
0.9930

> <Gold.Chemscore.Rot>
1.7474

> <Gold.Chemscore.Internal.Correction>
   9.000000E+99

> <Gold.Chemscore.Hbonds>
donor molecule, donor type, donor heavy atom, donor atom, acceptor molecule, acceptor atom, score
      L1  H     3    28       P1  7948  0.96
      P1  H  7997  8008       L1    11  0.99
      P1  H 10752 10765       L1    12  0.86

> <Gold.Chemscore.Hbond.Weighted>
-9.4953

> <Gold.Chemscore.Metal.Weighted>
-0.0000

> <Gold.Chemscore.Lipo.Weighted>
-7.9792

> <Gold.Chemscore.Internal_Hbond.Weighted>
0.0000

> <Gold.Chemscore.DEClash.Weighted>
0.0743

> <Gold.Chemscore.DEInternal.Weighted>
0.9930

> <Gold.Chemscore.Rot.Weighted>
4.4733

> <Gold.Chemscore.Internal.Correction.Weighted>
   9.000000E+99

> <Gold.Protein.RotatedTorsions>
[ 6907 6896 6895 6894 ] final   59.29 input  -60.11 | X-H torsion
[ 7974 7965 7964 7962 ] final   -9.14 input  175.53 | X-H torsion
[ 8008 7997 7996 7995 ] final  -28.57 input   59.86 | X-H torsion
[ 10167 10162 10161 10158 ] final  -11.70 input  -65.29 | X-H torsion
[ 10718 10713 10712 10709 ] final   62.21 input   66.30 | X-H torsion
[ 10763 10752 10751 10750 ] final  151.32 input  -60.55 | X-H torsion
[ 11005 11000 10999 10996 ] final  138.07 input  -57.11 | X-H torsion

> <Gold.Protein.ActiveResidues>
 VAL166  LYS551  ARG553  GLY616  TRP617  ASP618  TYR619  PRO620  LYS621  CYS622 
 ASP623  PHE694  ASN695  SER759  ASP760  ASP761  ALA762  ILE779  LEU786  VAL792 
 PHE793  MET794  SER795  GLU796  ALA797  LYS798  CYS799  TRP800  GLU811  SER814 

> <Gold.Protein.RotatedAtoms>
  152.3901  134.6454  160.0110 H   0  0  0  0  0  0  0  0  0  0  0  0  # atno 6907 bound_to 6896
  151.6691  133.3309  159.3200 H   0  0  0  0  0  0  0  0  0  0  0  0  # atno 6908 bound_to 6896
  150.7819  134.6815  159.6491 H   0  0  0  0  0  0  0  0  0  0  0  0  # atno 6909 bound_to 6896
  146.2260  140.2573  142.8350 H   0  0  0  0  0  0  0  0  0  0  0  0  # atno 7974 bound_to 7965
  154.4326  140.1841  156.1111 H   0  0  0  0  0  0  0  0  0  0  0  0  # atno 8008 bound_to 7997
  156.0217  140.3340  155.7020 H   0  0  0  0  0  0  0  0  0  0  0  0  # atno 8009 bound_to 7997
  155.5966  140.0636  157.2735 H   0  0  0  0  0  0  0  0  0  0  0  0  # atno 8010 bound_to 7997
  140.7144  143.5611  150.9194 H   0  0  0  0  0  0  0  0  0  0  0  0  # atno 10167 bound_to 10162
  157.5884  130.9037  149.9558 H   0  0  0  0  0  0  0  0  0  0  0  0  # atno 10718 bound_to 10713
  154.1019  135.2845  155.3249 H   0  0  0  0  0  0  0  0  0  0  0  0  # atno 10763 bound_to 10752
  154.6549  135.5355  153.7950 H   0  0  0  0  0  0  0  0  0  0  0  0  # atno 10764 bound_to 10752
  153.0376  135.6519  154.1182 H   0  0  0  0  0  0  0  0  0  0  0  0  # atno 10765 bound_to 10752
  140.0158  134.9419  157.0373 H   0  0  0  0  0  0  0  0  0  0  0  0  # atno 11005 bound_to 11000
  144.9366  140.8033  143.5656 LP  0  0  0  0  0  0  0  0  0  0  0  0  # atno 17320 bound_to 7965
  145.2521  139.2027  143.4937 LP  0  0  0  0  0  0  0  0  0  0  0  0  # atno 17321 bound_to 7965
  139.9336  143.6464  152.3070 LP  0  0  0  0  0  0  0  0  0  0  0  0  # atno 17342 bound_to 10162
  139.6923  144.7645  151.1416 LP  0  0  0  0  0  0  0  0  0  0  0  0  # atno 17343 bound_to 10162
  156.0935  130.3661  150.0349 LP  0  0  0  0  0  0  0  0  0  0  0  0  # atno 17370 bound_to 10713
  156.8476  130.9448  151.3628 LP  0  0  0  0  0  0  0  0  0  0  0  0  # atno 17371 bound_to 10713
  140.4474  134.1618  155.7178 LP  0  0  0  0  0  0  0  0  0  0  0  0  # atno 17394 bound_to 11000
  141.1742  133.8548  157.1476 LP  0  0  0  0  0  0  0  0  0  0  0  0  # atno 17395 bound_to 11000

$$$$
