AV-unprocessed.smi:281|AV-procd|sdf|2111|dock3
  -GOLD-   2262021403D 1   1.00000     0.00000
 Structure written by MMmdl.
 55 59  0  0  0  0  0  0  0  0  1 V2000
  152.8117  142.3749  162.1377 C   0  0  0  0  0  0  0  0  0  0  0  0
  153.5328  141.5640  161.0566 C   0  0  2  0  0  0  0  0  0  0  0  0
  152.5977  141.2102  159.8870 C   0  0  0  0  0  0  0  0  0  0  0  0
  153.2828  140.3360  158.9431 N   0  0  0  0  0  0  0  0  0  0  0  0
  152.6788  140.2151  157.7341 C   0  0  0  0  0  0  0  0  0  0  0  0
  153.0772  139.2459  156.8670 N   0  0  0  0  0  0  0  0  0  0  0  0
  152.4791  139.1152  155.6794 C   0  0  0  0  0  0  0  0  0  0  0  0
  151.4800  139.8342  155.1648 N   0  0  0  0  0  0  0  0  0  0  0  0
  151.0788  140.8118  156.0265 C   0  0  0  0  0  0  0  0  0  0  0  0
  151.6223  141.0726  157.3162 C   0  0  0  0  0  0  0  0  0  0  0  0
  150.9764  142.1615  157.8896 N   0  0  0  0  0  0  0  0  0  0  0  0
  150.0950  142.5161  156.9956 C   0  0  0  0  0  0  0  0  0  0  0  0
  150.0739  141.7482  155.8530 N   0  0  0  0  0  0  0  0  0  0  0  0
  149.1893  141.9124  154.7091 C   0  0  0  0  0  0  0  0  0  0  0  0
  147.7293  141.4444  154.9499 C   0  0  2  0  0  0  0  0  0  0  0  0
  147.2546  142.1131  156.1020 O   0  0  0  0  0  0  0  0  0  0  0  0
  147.5757  139.9348  155.1356 C   0  0  0  0  0  0  0  0  0  0  0  0
  147.0985  139.4174  153.7732 C   0  0  0  0  0  0  0  0  0  0  0  0
  146.9426  140.5618  152.9439 O   0  0  0  0  0  0  0  0  0  0  0  0
  146.7854  141.7034  153.7712 C   0  0  0  0  0  0  0  0  0  0  0  0
  153.8172  139.1306  159.5700 C   0  0  0  0  0  0  0  0  0  0  0  0
  154.7320  139.4978  160.7658 C   0  0  2  0  0  0  0  0  0  0  0  0
  156.0609  140.1086  160.3293 C   0  0  0  0  0  0  0  0  0  0  0  0
  156.9259  138.8867  160.0448 C   0  0  0  0  0  0  0  0  0  0  0  0
  156.4747  137.8821  160.9444 O   0  0  0  0  0  0  0  0  0  0  0  0
  155.2535  138.2833  161.5602 C   0  0  2  0  0  0  0  0  0  0  0  0
  154.2996  137.0894  161.7098 C   0  0  0  0  0  0  0  0  0  0  0  0
  154.0261  140.3663  161.6573 O   0  0  0  0  0  0  0  0  0  0  0  0
  152.4276  143.3118  161.7343 H   0  0  0  0  0  0  0  0  0  0  0  0
  153.4869  142.6172  162.9587 H   0  0  0  0  0  0  0  0  0  0  0  0
  151.9701  141.8188  162.5517 H   0  0  0  0  0  0  0  0  0  0  0  0
  154.3692  142.1586  160.6868 H   0  0  0  0  0  0  0  0  0  0  0  0
  151.7094  140.6972  160.2584 H   0  0  0  0  0  0  0  0  0  0  0  0
  152.2542  142.1256  159.4063 H   0  0  0  0  0  0  0  0  0  0  0  0
  152.8538  138.3194  155.0527 H   0  0  0  0  0  0  0  0  0  0  0  0
  149.4261  143.3500  157.1507 H   0  0  0  0  0  0  0  0  0  0  0  0
  149.2001  142.9662  154.4265 H   0  0  0  0  0  0  0  0  0  0  0  0
  149.6208  141.3706  153.8663 H   0  0  0  0  0  0  0  0  0  0  0  0
  147.7605  142.9025  156.2203 H   0  0  0  0  0  0  0  0  0  0  0  0
  148.4946  139.4535  155.4699 H   0  0  0  0  0  0  0  0  0  0  0  0
  146.8118  139.7084  155.8815 H   0  0  0  0  0  0  0  0  0  0  0  0
  147.8137  138.7283  153.3234 H   0  0  0  0  0  0  0  0  0  0  0  0
  146.1437  138.8994  153.8692 H   0  0  0  0  0  0  0  0  0  0  0  0
  145.7460  141.7413  154.1029 H   0  0  0  0  0  0  0  0  0  0  0  0
  146.9982  142.6306  153.2397 H   0  0  0  0  0  0  0  0  0  0  0  0
  152.9738  138.5291  159.9105 H   0  0  0  0  0  0  0  0  0  0  0  0
  154.3654  138.5333  158.8403 H   0  0  0  0  0  0  0  0  0  0  0  0
  155.9826  140.7773  159.4714 H   0  0  0  0  0  0  0  0  0  0  0  0
  156.4976  140.6750  161.1533 H   0  0  0  0  0  0  0  0  0  0  0  0
  156.7719  138.5367  159.0234 H   0  0  0  0  0  0  0  0  0  0  0  0
  157.9891  139.0902  160.1752 H   0  0  0  0  0  0  0  0  0  0  0  0
  155.5265  138.6278  162.5593 H   0  0  0  0  0  0  0  0  0  0  0  0
  153.3546  137.3966  162.1588 H   0  0  0  0  0  0  0  0  0  0  0  0
  154.7385  136.3249  162.3512 H   0  0  0  0  0  0  0  0  0  0  0  0
  154.0843  136.6227  160.7485 H   0  0  0  0  0  0  0  0  0  0  0  0
  1  2  1  0  0  0  0
  1 29  1  0  0  0  0
  1 30  1  0  0  0  0
  1 31  1  0  0  0  0
  2 28  1  0  0  0  0
  2  3  1  0  0  0  0
  2 32  1  0  0  0  0
  3  4  1  0  0  0  0
  3 33  1  0  0  0  0
  3 34  1  0  0  0  0
  4  5  1  0  0  0  0
  4 21  1  0  0  0  0
  5 10  1  0  0  0  0
  5  6  2  0  0  0  0
  6  7  1  0  0  0  0
  7  8  2  0  0  0  0
  7 35  1  0  0  0  0
  8  9  1  0  0  0  0
  9 13  1  0  0  0  0
  9 10  2  0  0  0  0
 10 11  1  0  0  0  0
 11 12  2  0  0  0  0
 12 13  1  0  0  0  0
 12 36  1  0  0  0  0
 13 14  1  0  0  0  0
 14 15  1  0  0  0  0
 14 37  1  0  0  0  0
 14 38  1  0  0  0  0
 15 20  1  0  0  0  0
 15 16  1  0  0  0  0
 15 17  1  0  0  0  0
 16 39  1  0  0  0  0
 17 18  1  0  0  0  0
 17 40  1  0  0  0  0
 17 41  1  0  0  0  0
 18 19  1  0  0  0  0
 18 42  1  0  0  0  0
 18 43  1  0  0  0  0
 19 20  1  0  0  0  0
 20 44  1  0  0  0  0
 20 45  1  0  0  0  0
 21 22  1  0  0  0  0
 21 46  1  0  0  0  0
 21 47  1  0  0  0  0
 22 26  1  0  0  0  0
 22 23  1  0  0  0  0
 22 28  1  0  0  0  0
 23 24  1  0  0  0  0
 23 48  1  0  0  0  0
 23 49  1  0  0  0  0
 24 25  1  0  0  0  0
 24 50  1  0  0  0  0
 24 51  1  0  0  0  0
 25 26  1  0  0  0  0
 26 27  1  0  0  0  0
 26 52  1  0  0  0  0
 27 53  1  0  0  0  0
 27 54  1  0  0  0  0
 27 55  1  0  0  0  0
M  END
> <s_m_source_file>
AV-unprocessed.smi

> <i_m_source_file_index>
281

> <i_lp_mmshare_version>
43012

> <i_f3d_flags>
0

> <s_epik_input>
W0NIM11bQ0BASF0xT1tDSDJdW0NIMl1bQ0BAXTEyW0NIMl1OKFtDSDJdW0NASF0oTzIpW0NIM10pYyhuW2NIXW4zKWMoYzM0KW5bY0hdbjRbQ0gyXVtDQEBdNShbT0hdKVtDSDJdW0NIMl1PW0NIMl01

> <s_epik_cmdline>
J2VwaWtfcHl0aG9uJywgJy1waCcsICc3LjAnLCAnLXRuJywgJzgnLCAnLW1hJywgJzIwMCcsICctbWV0YWxfYmluZGluZycsICctaW1hZScsICc8aW5maWxlLm1hZT4nLCAnLW9tYWUnLCAnPG91dGZpbGUubWFlPic=

> <r_lp_tautomer_probability>
1

> <r_epik_Ionization_Penalty>
0.00571331

> <r_epik_Ionization_Penalty_Charging>
0

> <r_epik_Ionization_Penalty_Neutral>
0.00571331

> <r_epik_State_Penalty>
0.00399586

> <r_epik_Charging_Adjusted_Penalty>
0.00399586

> <i_epik_Tot_Q>
0

> <i_epik_Tot_abs_Q>
0

> <r_epik_Metal_State_Penalty>
-0

> <b_epik_Metal_Only>
0

> <s_lp_Force_Field>
OPLS_2005

> <r_lp_Energy>
56.9308

> <b_lp_Chiralities_Consistent>
1

> <s_lp_Variant>
AV-unprocessed.smi:281-11

> <Gold.Version>
5.8.1

> <Gold.Id.Protein>
6NUR|6NUR_protein|mol2

> <Gold.PLP.Fitness>
49.4279

> <Gold.PLP.PLP>
-41.5496

> <Gold.PLP.part.hbond>
-3.6367

> <Gold.PLP.part.metal>
0.0000

> <Gold.PLP.part.buried>
1.2478

> <Gold.PLP.part.nonpolar>
-37.7551

> <Gold.PLP.part.repulsive>
0.2930

> <Gold.PLP.ligand.clash>
0.2615

> <Gold.PLP.ligand.torsion>
0.7060

> <Gold.PLP.Chemscore.Hbond>
2.2368

> <Gold.PLP.Chemscore.CHOScore>
0.8481

> <Gold.PLP.Chemscore.Metal>
0.0000

> <Gold.Chemscore.Hbonds>
donor molecule, donor type, donor heavy atom, donor atom, acceptor molecule, acceptor atom, score
      L1  H    16    39       P1  8028  0.62
      P1  H  7989  7998       L1     8  1.00
      P1  H  7997  8008       L1     6  0.47
      L1  C    12    36       P1  8028  0.90

> <Gold.PLP.Chemscore.Internal.Correction>
0.2971

> <Gold.Rescore>
     Score         DG    S(hbond)    S(metal)    S(lipo)     H(rot)  DE(clash)    DE(int)     intcor
     11.34     -14.59       0.86        0.00      99.02       2.09       0.50       2.74       ----

> <Gold.Chemscore.Fitness>
11.3410

> <Gold.Chemscore.DG>
-14.5871

> <Gold.Chemscore.ZeroCoef>
-5.4800

> <Gold.Chemscore.Hbond>
0.8620

> <Gold.Chemscore.Metal>
0.0000

> <Gold.Chemscore.Lipo>
99.0214

> <Gold.Chemscore.Internal_Hbond>
0.0000

> <Gold.Chemscore.DEClash>
0.5022

> <Gold.Chemscore.DEInternal>
2.7439

> <Gold.Chemscore.Rot>
2.0927

> <Gold.Chemscore.Internal.Correction>
   9.000000E+99

> <Gold.Chemscore.Hbonds>
donor molecule, donor type, donor heavy atom, donor atom, acceptor molecule, acceptor atom, score
      L1  H    16    39       P1  8028  0.18
      P1  H  7989  7998       L1     8  0.29
      P1  H  7997  8008       L1     6  0.01

> <Gold.Chemscore.Hbond.Weighted>
-2.8789

> <Gold.Chemscore.Metal.Weighted>
-0.0000

> <Gold.Chemscore.Lipo.Weighted>
-11.5855

> <Gold.Chemscore.Internal_Hbond.Weighted>
0.0000

> <Gold.Chemscore.DEClash.Weighted>
0.5022

> <Gold.Chemscore.DEInternal.Weighted>
2.7439

> <Gold.Chemscore.Rot.Weighted>
5.3573

> <Gold.Chemscore.Internal.Correction.Weighted>
   9.000000E+99

> <Gold.Protein.RotatedTorsions>
[ 6907 6896 6895 6894 ] final  -73.30 input  -60.11 | X-H torsion
[ 7974 7965 7964 7962 ] final  -84.78 input  175.53 | X-H torsion
[ 8008 7997 7996 7995 ] final  -35.47 input   59.86 | X-H torsion
[ 10167 10162 10161 10158 ] final  -21.18 input  -65.29 | X-H torsion
[ 10718 10713 10712 10709 ] final  -76.03 input   66.30 | X-H torsion
[ 10763 10752 10751 10750 ] final  -65.92 input  -60.55 | X-H torsion
[ 11005 11000 10999 10996 ] final -138.10 input  -57.11 | X-H torsion

> <Gold.Protein.ActiveResidues>
 VAL166  LYS551  ARG553  GLY616  TRP617  ASP618  TYR619  PRO620  LYS621  CYS622 
 ASP623  PHE694  ASN695  SER759  ASP760  ASP761  ALA762  ILE779  LEU786  VAL792 
 PHE793  MET794  SER795  GLU796  ALA797  LYS798  CYS799  TRP800  GLU811  SER814 

> <Gold.Protein.RotatedAtoms>
  150.7136  134.5037  159.5573 H   0  0  0  0  0  0  0  0  0  0  0  0  # atno 6907 bound_to 6896
  152.2629  134.8012  160.0436 H   0  0  0  0  0  0  0  0  0  0  0  0  # atno 6908 bound_to 6896
  151.8720  133.3442  159.3774 H   0  0  0  0  0  0  0  0  0  0  0  0  # atno 6909 bound_to 6896
  145.5020  140.9546  143.1754 H   0  0  0  0  0  0  0  0  0  0  0  0  # atno 7974 bound_to 7965
  154.4095  140.1656  156.2216 H   0  0  0  0  0  0  0  0  0  0  0  0  # atno 8008 bound_to 7997
  155.9358  140.3411  155.6263 H   0  0  0  0  0  0  0  0  0  0  0  0  # atno 8009 bound_to 7997
  155.7050  140.0749  157.2385 H   0  0  0  0  0  0  0  0  0  0  0  0  # atno 8010 bound_to 7997
  140.7280  143.4652  151.0324 H   0  0  0  0  0  0  0  0  0  0  0  0  # atno 10167 bound_to 10162
  156.0188  130.4455  150.3133 H   0  0  0  0  0  0  0  0  0  0  0  0  # atno 10718 bound_to 10713
  154.3522  135.6134  153.5648 H   0  0  0  0  0  0  0  0  0  0  0  0  # atno 10763 bound_to 10752
  152.9797  135.5795  154.4730 H   0  0  0  0  0  0  0  0  0  0  0  0  # atno 10764 bound_to 10752
  154.4453  135.2851  155.1796 H   0  0  0  0  0  0  0  0  0  0  0  0  # atno 10765 bound_to 10752
  140.8648  134.2124  157.4686 H   0  0  0  0  0  0  0  0  0  0  0  0  # atno 11005 bound_to 11000
  144.7775  139.6598  143.7169 LP  0  0  0  0  0  0  0  0  0  0  0  0  # atno 17320 bound_to 7965
  146.2220  139.5653  142.9612 LP  0  0  0  0  0  0  0  0  0  0  0  0  # atno 17321 bound_to 7965
  139.8339  143.7653  152.3180 LP  0  0  0  0  0  0  0  0  0  0  0  0  # atno 17342 bound_to 10162
  139.7779  144.7454  151.0130 LP  0  0  0  0  0  0  0  0  0  0  0  0  # atno 17343 bound_to 10162
  157.1234  131.0253  151.2999 LP  0  0  0  0  0  0  0  0  0  0  0  0  # atno 17370 bound_to 10713
  157.4609  130.7653  149.7235 LP  0  0  0  0  0  0  0  0  0  0  0  0  # atno 17371 bound_to 10713
  139.8708  134.9747  156.4854 LP  0  0  0  0  0  0  0  0  0  0  0  0  # atno 17394 bound_to 11000
  140.8641  133.8037  155.9296 LP  0  0  0  0  0  0  0  0  0  0  0  0  # atno 17395 bound_to 11000

$$$$
