AV-unprocessed.smi:480|AV-procd|sdf|2678|dock2
  -GOLD-   2262023103D 1   1.00000     0.00000
 Structure written by MMmdl.
 47 49  0  0  0  0  0  0  0  0  2 V2000
  148.9587  141.1098  154.3014 C   0  0  0  0  0  0  0  0  0  0  0  0
  149.7149  140.2924  155.3578 C   0  0  0  0  0  0  0  0  0  0  0  0
  150.4244  141.1535  156.3578 C   0  0  0  0  0  0  0  0  0  0  0  0
  150.3408  142.5122  156.4480 N   0  3  0  0  0  0  0  0  0  0  0  0
  151.1490  142.9711  157.4878 C   0  0  0  0  0  0  0  0  0  0  0  0
  151.3757  144.2578  157.9664 C   0  0  0  0  0  0  0  0  0  0  0  0
  152.2698  144.3808  159.0502 C   0  0  0  0  0  0  0  0  0  0  0  0
  152.9004  143.2524  159.6137 C   0  0  0  0  0  0  0  0  0  0  0  0
  152.6630  141.9532  159.1185 C   0  0  0  0  0  0  0  0  0  0  0  0
  151.7748  141.8404  158.0495 C   0  0  0  0  0  0  0  0  0  0  0  0
  151.3008  140.7428  157.3229 N   0  0  0  0  0  0  0  0  0  0  0  0
  151.7687  139.3955  157.6878 C   0  0  0  0  0  0  0  0  0  0  0  0
  152.4512  138.6401  156.5239 C   0  0  2  0  0  0  0  0  0  0  0  0
  152.8573  139.5911  155.5628 O   0  0  0  0  0  0  0  0  0  0  0  0
  151.5630  137.5875  155.8350 C   0  0  0  0  0  0  0  0  0  0  0  0
  151.7700  136.3289  156.4642 O   0  0  0  0  0  0  0  0  0  0  0  0
  151.1121  135.2295  155.9612 C   0  0  0  0  0  0  0  0  0  0  0  0
  151.3973  133.9856  156.5600 C   0  0  0  0  0  0  0  0  0  0  0  0
  150.7571  132.8117  156.1202 C   0  0  0  0  0  0  0  0  0  0  0  0
  149.8255  132.8687  155.0653 C   0  0  0  0  0  0  0  0  0  0  0  0
  149.1387  131.6050  154.5903 C   0  0  0  0  0  0  0  0  0  0  0  0
  148.2133  131.8644  153.4768 C   0  0  0  0  0  0  0  0  0  0  0  0
  147.4852  132.0677  152.6009 N   0  0  0  0  0  0  0  0  0  0  0  0
  149.5414  134.1054  154.4527 C   0  0  0  0  0  0  0  0  0  0  0  0
  150.1804  135.2799  154.8949 C   0  0  0  0  0  0  0  0  0  0  0  0
  148.4381  140.4516  153.6057 H   0  0  0  0  0  0  0  0  0  0  0  0
  149.6353  141.7348  153.7179 H   0  0  0  0  0  0  0  0  0  0  0  0
  148.2136  141.7583  154.7622 H   0  0  0  0  0  0  0  0  0  0  0  0
  149.0098  139.6413  155.8732 H   0  0  0  0  0  0  0  0  0  0  0  0
  150.4463  139.6444  154.8746 H   0  0  0  0  0  0  0  0  0  0  0  0
  150.8947  145.1236  157.5355 H   0  0  0  0  0  0  0  0  0  0  0  0
  152.4770  145.3602  159.4565 H   0  0  0  0  0  0  0  0  0  0  0  0
  153.5799  143.3853  160.4431 H   0  0  0  0  0  0  0  0  0  0  0  0
  153.1503  141.0948  159.5569 H   0  0  0  0  0  0  0  0  0  0  0  0
  152.4616  139.5042  158.5225 H   0  0  0  0  0  0  0  0  0  0  0  0
  150.9200  138.8292  158.0741 H   0  0  0  0  0  0  0  0  0  0  0  0
  153.3561  138.1504  156.8846 H   0  0  0  0  0  0  0  0  0  0  0  0
  152.0934  139.8914  155.0945 H   0  0  0  0  0  0  0  0  0  0  0  0
  150.5195  137.9021  155.8827 H   0  0  0  0  0  0  0  0  0  0  0  0
  151.8355  137.4924  154.7827 H   0  0  0  0  0  0  0  0  0  0  0  0
  152.1082  133.9330  157.3717 H   0  0  0  0  0  0  0  0  0  0  0  0
  150.9837  131.8669  156.5922 H   0  0  0  0  0  0  0  0  0  0  0  0
  149.8835  130.8810  154.2584 H   0  0  0  0  0  0  0  0  0  0  0  0
  148.5773  131.1481  155.4059 H   0  0  0  0  0  0  0  0  0  0  0  0
  148.8330  134.1570  153.6387 H   0  0  0  0  0  0  0  0  0  0  0  0
  149.9435  136.2082  154.3976 H   0  0  0  0  0  0  0  0  0  0  0  0
  149.7637  143.0811  155.8420 H   0  0  0  0  0  0  0  0  0  0  0  0
  1  2  1  0  0  0  0
  1 26  1  0  0  0  0
  1 27  1  0  0  0  0
  1 28  1  0  0  0  0
  2  3  1  0  0  0  0
  2 29  1  0  0  0  0
  2 30  1  0  0  0  0
  3 11  1  0  0  0  0
  3  4  2  0  0  0  0
  4  5  1  0  0  0  0
  4 47  1  0  0  0  0
  5 10  2  0  0  0  0
  5  6  1  0  0  0  0
  6  7  2  0  0  0  0
  6 31  1  0  0  0  0
  7  8  1  0  0  0  0
  7 32  1  0  0  0  0
  8  9  2  0  0  0  0
  8 33  1  0  0  0  0
  9 10  1  0  0  0  0
  9 34  1  0  0  0  0
 10 11  1  0  0  0  0
 11 12  1  0  0  0  0
 12 13  1  0  0  0  0
 12 35  1  0  0  0  0
 12 36  1  0  0  0  0
 13 14  1  0  0  0  0
 13 15  1  0  0  0  0
 13 37  1  0  0  0  0
 14 38  1  0  0  0  0
 15 16  1  0  0  0  0
 15 39  1  0  0  0  0
 15 40  1  0  0  0  0
 16 17  1  0  0  0  0
 17 25  1  0  0  0  0
 17 18  2  0  0  0  0
 18 19  1  0  0  0  0
 18 41  1  0  0  0  0
 19 20  2  0  0  0  0
 19 42  1  0  0  0  0
 20 21  1  0  0  0  0
 20 24  1  0  0  0  0
 21 22  1  0  0  0  0
 21 43  1  0  0  0  0
 21 44  1  0  0  0  0
 22 23  3  0  0  0  0
 24 25  2  0  0  0  0
 24 45  1  0  0  0  0
 25 46  1  0  0  0  0
M  CHG  1   4   1
M  END
> <s_m_source_file>
AV-unprocessed.smi

> <i_m_source_file_index>
480

> <i_lp_mmshare_version>
43012

> <i_f3d_flags>
0

> <s_epik_input>
W2NIXTFbY0hdW2NIXVtjSF1jKGMxMiluKGMobjIpW0NIMl1bQ0gzXSlbQ0gyXVtDQEhdKFtPSF0pW0NIMl1PYzNbY0hdW2NIXWMoW0NIMl1DI04pW2NIXVtjSF0z

> <s_epik_cmdline>
J2VwaWtfcHl0aG9uJywgJy1waCcsICc3LjAnLCAnLXRuJywgJzgnLCAnLW1hJywgJzIwMCcsICctbWV0YWxfYmluZGluZycsICctaW1hZScsICc8aW5maWxlLm1hZT4nLCAnLW9tYWUnLCAnPG91dGZpbGUubWFlPic=

> <r_lp_tautomer_probability>
1

> <r_epik_Ionization_Penalty>
1.03158

> <r_epik_Ionization_Penalty_Charging>
1.03158

> <r_epik_Ionization_Penalty_Neutral>
2.3994e-06

> <r_epik_State_Penalty>
1.08278

> <r_epik_Charging_Adjusted_Penalty>
2.11436

> <i_epik_Tot_Q>
1

> <i_epik_Tot_abs_Q>
1

> <r_epik_Metal_State_Penalty>
5.07177

> <b_epik_Metal_Only>
0

> <s_lp_Force_Field>
OPLS_2005

> <r_lp_Energy>
18.4444

> <b_lp_Chiralities_Consistent>
1

> <s_lp_Variant>
AV-unprocessed.smi:480-3

> <Gold.Version>
5.8.1

> <Gold.Id.Protein>
6NUR|6NUR_protein|mol2

> <Gold.PLP.Fitness>
58.9659

> <Gold.PLP.PLP>
-51.8347

> <Gold.PLP.part.hbond>
-2.5284

> <Gold.PLP.part.metal>
0.0000

> <Gold.PLP.part.buried>
-4.9133

> <Gold.PLP.part.nonpolar>
-45.1241

> <Gold.PLP.part.repulsive>
0.2063

> <Gold.PLP.ligand.clash>
0.0427

> <Gold.PLP.ligand.torsion>
1.0654

> <Gold.PLP.Chemscore.Hbond>
3.0471

> <Gold.PLP.Chemscore.CHOScore>
0.0000

> <Gold.PLP.Chemscore.Metal>
0.0000

> <Gold.Chemscore.Hbonds>
donor molecule, donor type, donor heavy atom, donor atom, acceptor molecule, acceptor atom, score
      L1  H     4    47       P1  8028  1.82
      P1  H  7997  8008       L1    14  0.95

> <Gold.PLP.Chemscore.Internal.Correction>
0.1632

> <Gold.Rescore>
     Score         DG    S(hbond)    S(metal)    S(lipo)     H(rot)  DE(clash)    DE(int)     intcor
     19.08     -20.24       1.81        0.00     132.93       2.67       0.02       1.14       ----

> <Gold.Chemscore.Fitness>
19.0808

> <Gold.Chemscore.DG>
-20.2383

> <Gold.Chemscore.ZeroCoef>
-5.4800

> <Gold.Chemscore.Hbond>
1.8094

> <Gold.Chemscore.Metal>
0.0000

> <Gold.Chemscore.Lipo>
132.9269

> <Gold.Chemscore.Internal_Hbond>
0.0000

> <Gold.Chemscore.DEClash>
0.0163

> <Gold.Chemscore.DEInternal>
1.1412

> <Gold.Chemscore.Rot>
2.6710

> <Gold.Chemscore.Internal.Correction>
   9.000000E+99

> <Gold.Chemscore.Hbonds>
donor molecule, donor type, donor heavy atom, donor atom, acceptor molecule, acceptor atom, score
      L1  H     4    47       P1  8028  0.88
      P1  H  7997  8008       L1    14  0.21

> <Gold.Chemscore.Hbond.Weighted>
-6.0435

> <Gold.Chemscore.Metal.Weighted>
-0.0000

> <Gold.Chemscore.Lipo.Weighted>
-15.5525

> <Gold.Chemscore.Internal_Hbond.Weighted>
0.0000

> <Gold.Chemscore.DEClash.Weighted>
0.0163

> <Gold.Chemscore.DEInternal.Weighted>
1.1412

> <Gold.Chemscore.Rot.Weighted>
6.8377

> <Gold.Chemscore.Internal.Correction.Weighted>
   9.000000E+99

> <Gold.Protein.RotatedTorsions>
[ 6907 6896 6895 6894 ] final  162.41 input  -60.11 | X-H torsion
[ 7974 7965 7964 7962 ] final -125.30 input  175.53 | X-H torsion
[ 8008 7997 7996 7995 ] final  -43.87 input   59.86 | X-H torsion
[ 10167 10162 10161 10158 ] final  -12.73 input  -65.29 | X-H torsion
[ 10718 10713 10712 10709 ] final   89.54 input   66.30 | X-H torsion
[ 10763 10752 10751 10750 ] final -131.15 input  -60.55 | X-H torsion
[ 11005 11000 10999 10996 ] final  -96.23 input  -57.11 | X-H torsion

> <Gold.Protein.ActiveResidues>
 VAL166  LYS551  ARG553  GLY616  TRP617  ASP618  TYR619  PRO620  LYS621  CYS622 
 ASP623  PHE694  ASN695  SER759  ASP760  ASP761  ALA762  ILE779  LEU786  VAL792 
 PHE793  MET794  SER795  GLU796  ALA797  LYS798  CYS799  TRP800  GLU811  SER814 

> <Gold.Protein.RotatedAtoms>
  151.9409  133.3637  159.3964 H   0  0  0  0  0  0  0  0  0  0  0  0  # atno 6907 bound_to 6896
  150.6998  134.4440  159.5315 H   0  0  0  0  0  0  0  0  0  0  0  0  # atno 6908 bound_to 6896
  152.2097  134.8513  160.0549 H   0  0  0  0  0  0  0  0  0  0  0  0  # atno 6909 bound_to 6896
  144.9990  140.7803  143.4508 H   0  0  0  0  0  0  0  0  0  0  0  0  # atno 7974 bound_to 7965
  154.3997  140.1437  156.3589 H   0  0  0  0  0  0  0  0  0  0  0  0  # atno 8008 bound_to 7997
  155.8199  140.3470  155.5487 H   0  0  0  0  0  0  0  0  0  0  0  0  # atno 8009 bound_to 7997
  155.8298  140.0910  157.1789 H   0  0  0  0  0  0  0  0  0  0  0  0  # atno 8010 bound_to 7997
  140.7167  143.5501  150.9310 H   0  0  0  0  0  0  0  0  0  0  0  0  # atno 10167 bound_to 10162
  157.6955  131.0337  150.3441 H   0  0  0  0  0  0  0  0  0  0  0  0  # atno 10718 bound_to 10713
  154.8752  135.3839  154.4199 H   0  0  0  0  0  0  0  0  0  0  0  0  # atno 10763 bound_to 10752
  153.4903  135.7030  153.5893 H   0  0  0  0  0  0  0  0  0  0  0  0  # atno 10764 bound_to 10752
  153.4269  135.3888  155.2113 H   0  0  0  0  0  0  0  0  0  0  0  0  # atno 10765 bound_to 10752
  141.1418  133.8082  157.0543 H   0  0  0  0  0  0  0  0  0  0  0  0  # atno 11005 bound_to 11000
  145.2179  139.2173  143.5108 LP  0  0  0  0  0  0  0  0  0  0  0  0  # atno 17320 bound_to 7965
  146.3448  140.2031  142.8589 LP  0  0  0  0  0  0  0  0  0  0  0  0  # atno 17321 bound_to 7965
  139.9226  143.6588  152.3093 LP  0  0  0  0  0  0  0  0  0  0  0  0  # atno 17342 bound_to 10162
  139.7010  144.7635  151.1273 LP  0  0  0  0  0  0  0  0  0  0  0  0  # atno 17343 bound_to 10162
  156.3898  130.3896  149.7038 LP  0  0  0  0  0  0  0  0  0  0  0  0  # atno 17370 bound_to 10713
  156.4392  130.7853  151.2874 LP  0  0  0  0  0  0  0  0  0  0  0  0  # atno 17371 bound_to 10713
  140.0612  134.9754  157.1308 LP  0  0  0  0  0  0  0  0  0  0  0  0  # atno 17394 bound_to 11000
  140.3846  134.2250  155.7169 LP  0  0  0  0  0  0  0  0  0  0  0  0  # atno 17395 bound_to 11000

$$$$
