AV-unprocessed.smi:281|AV-procd|sdf|2106|dock9
  -GOLD-   2262021403D 1   1.00000     0.00000
 Structure written by MMmdl.
 55 59  0  0  0  0  0  0  0  0  1 V2000
  153.6965  140.5828  160.9877 C   0  0  0  0  0  0  0  0  0  0  0  0
  153.3137  141.3969  159.7476 C   0  0  1  0  0  0  0  0  0  0  0  0
  152.6024  140.5352  158.6895 C   0  0  0  0  0  0  0  0  0  0  0  0
  152.1648  141.3736  157.5828 N   0  0  0  0  0  0  0  0  0  0  0  0
  151.6835  140.6854  156.5272 C   0  0  0  0  0  0  0  0  0  0  0  0
  152.5029  139.7623  155.9681 N   0  0  0  0  0  0  0  0  0  0  0  0
  152.0853  139.0496  154.9173 C   0  0  0  0  0  0  0  0  0  0  0  0
  150.9112  139.1037  154.2845 N   0  0  0  0  0  0  0  0  0  0  0  0
  150.0872  140.0364  154.8433 C   0  0  0  0  0  0  0  0  0  0  0  0
  150.3895  140.8633  155.9614 C   0  0  0  0  0  0  0  0  0  0  0  0
  149.3062  141.6839  156.2516 N   0  0  0  0  0  0  0  0  0  0  0  0
  148.4137  141.3595  155.3563 C   0  0  0  0  0  0  0  0  0  0  0  0
  148.8027  140.3857  154.4634 N   0  0  0  0  0  0  0  0  0  0  0  0
  148.0139  139.8363  153.3706 C   0  0  0  0  0  0  0  0  0  0  0  0
  146.7802  139.0245  153.8359 C   0  0  1  0  0  0  0  0  0  0  0  0
  145.9867  138.7022  152.7084 O   0  0  0  0  0  0  0  0  0  0  0  0
  147.1725  137.7314  154.5547 C   0  0  0  0  0  0  0  0  0  0  0  0
  146.8129  138.0054  156.0099 C   0  0  0  0  0  0  0  0  0  0  0  0
  145.6538  138.8109  155.8960 O   0  0  0  0  0  0  0  0  0  0  0  0
  145.9083  139.7617  154.8723 C   0  0  0  0  0  0  0  0  0  0  0  0
  151.2992  142.4621  158.0148 C   0  0  0  0  0  0  0  0  0  0  0  0
  151.9981  143.3098  159.1074 C   0  0  1  0  0  0  0  0  0  0  0  0
  153.1376  144.1620  158.5574 C   0  0  0  0  0  0  0  0  0  0  0  0
  152.4216  145.4058  158.0431 C   0  0  0  0  0  0  0  0  0  0  0  0
  151.2841  145.5685  158.8819 O   0  0  0  0  0  0  0  0  0  0  0  0
  151.1118  144.4191  159.7066 C   0  0  1  0  0  0  0  0  0  0  0  0
  149.6221  144.0944  159.8910 C   0  0  0  0  0  0  0  0  0  0  0  0
  152.4473  142.4538  160.1630 O   0  0  0  0  0  0  0  0  0  0  0  0
  154.3706  139.7661  160.7285 H   0  0  0  0  0  0  0  0  0  0  0  0
  152.8154  140.1521  161.4642 H   0  0  0  0  0  0  0  0  0  0  0  0
  154.2008  141.2090  161.7240 H   0  0  0  0  0  0  0  0  0  0  0  0
  154.2249  141.8188  159.3214 H   0  0  0  0  0  0  0  0  0  0  0  0
  153.2759  139.7595  158.3223 H   0  0  0  0  0  0  0  0  0  0  0  0
  151.7431  140.0335  159.1360 H   0  0  0  0  0  0  0  0  0  0  0  0
  152.7939  138.3347  154.5260 H   0  0  0  0  0  0  0  0  0  0  0  0
  147.4410  141.8280  155.3235 H   0  0  0  0  0  0  0  0  0  0  0  0
  147.7026  140.6599  152.7263 H   0  0  0  0  0  0  0  0  0  0  0  0
  148.6676  139.2073  152.7649 H   0  0  0  0  0  0  0  0  0  0  0  0
  145.2079  139.2375  152.7276 H   0  0  0  0  0  0  0  0  0  0  0  0
  146.5799  136.8878  154.1964 H   0  0  0  0  0  0  0  0  0  0  0  0
  148.2234  137.4668  154.4317 H   0  0  0  0  0  0  0  0  0  0  0  0
  146.6198  137.0941  156.5761 H   0  0  0  0  0  0  0  0  0  0  0  0
  147.6040  138.5654  156.5111 H   0  0  0  0  0  0  0  0  0  0  0  0
  146.4525  140.5903  155.3262 H   0  0  0  0  0  0  0  0  0  0  0  0
  144.9814  140.1629  154.4598 H   0  0  0  0  0  0  0  0  0  0  0  0
  151.0199  143.0814  157.1614 H   0  0  0  0  0  0  0  0  0  0  0  0
  150.3793  142.0311  158.4097 H   0  0  0  0  0  0  0  0  0  0  0  0
  153.8132  144.4441  159.3663 H   0  0  0  0  0  0  0  0  0  0  0  0
  153.7306  143.6687  157.7864 H   0  0  0  0  0  0  0  0  0  0  0  0
  153.0600  146.2894  158.0621 H   0  0  0  0  0  0  0  0  0  0  0  0
  152.0816  145.2568  157.0177 H   0  0  0  0  0  0  0  0  0  0  0  0
  151.5239  144.6889  160.6805 H   0  0  0  0  0  0  0  0  0  0  0  0
  149.4887  143.1971  160.4957 H   0  0  0  0  0  0  0  0  0  0  0  0
  149.1216  143.9385  158.9351 H   0  0  0  0  0  0  0  0  0  0  0  0
  149.1098  144.9133  160.3962 H   0  0  0  0  0  0  0  0  0  0  0  0
  1  2  1  0  0  0  0
  1 29  1  0  0  0  0
  1 30  1  0  0  0  0
  1 31  1  0  0  0  0
  2 28  1  0  0  0  0
  2  3  1  0  0  0  0
  2 32  1  0  0  0  0
  3  4  1  0  0  0  0
  3 33  1  0  0  0  0
  3 34  1  0  0  0  0
  4  5  1  0  0  0  0
  4 21  1  0  0  0  0
  5 10  1  0  0  0  0
  5  6  2  0  0  0  0
  6  7  1  0  0  0  0
  7  8  2  0  0  0  0
  7 35  1  0  0  0  0
  8  9  1  0  0  0  0
  9 13  1  0  0  0  0
  9 10  2  0  0  0  0
 10 11  1  0  0  0  0
 11 12  2  0  0  0  0
 12 13  1  0  0  0  0
 12 36  1  0  0  0  0
 13 14  1  0  0  0  0
 14 15  1  0  0  0  0
 14 37  1  0  0  0  0
 14 38  1  0  0  0  0
 15 20  1  0  0  0  0
 15 16  1  0  0  0  0
 15 17  1  0  0  0  0
 16 39  1  0  0  0  0
 17 18  1  0  0  0  0
 17 40  1  0  0  0  0
 17 41  1  0  0  0  0
 18 19  1  0  0  0  0
 18 42  1  0  0  0  0
 18 43  1  0  0  0  0
 19 20  1  0  0  0  0
 20 44  1  0  0  0  0
 20 45  1  0  0  0  0
 21 22  1  0  0  0  0
 21 46  1  0  0  0  0
 21 47  1  0  0  0  0
 22 26  1  0  0  0  0
 22 23  1  0  0  0  0
 22 28  1  0  0  0  0
 23 24  1  0  0  0  0
 23 48  1  0  0  0  0
 23 49  1  0  0  0  0
 24 25  1  0  0  0  0
 24 50  1  0  0  0  0
 24 51  1  0  0  0  0
 25 26  1  0  0  0  0
 26 27  1  0  0  0  0
 26 52  1  0  0  0  0
 27 53  1  0  0  0  0
 27 54  1  0  0  0  0
 27 55  1  0  0  0  0
M  END
> <s_m_source_file>
AV-unprocessed.smi

> <i_m_source_file_index>
281

> <i_lp_mmshare_version>
43012

> <i_f3d_flags>
0

> <s_epik_input>
W0NIM11bQ0BASF0xT1tDSDJdW0NIMl1bQ0BAXTEyW0NIMl1OKFtDSDJdW0NASF0oTzIpW0NIM10pYyhuW2NIXW4zKWMoYzM0KW5bY0hdbjRbQ0gyXVtDQEBdNShbT0hdKVtDSDJdW0NIMl1PW0NIMl01

> <s_epik_cmdline>
J2VwaWtfcHl0aG9uJywgJy1waCcsICc3LjAnLCAnLXRuJywgJzgnLCAnLW1hJywgJzIwMCcsICctbWV0YWxfYmluZGluZycsICctaW1hZScsICc8aW5maWxlLm1hZT4nLCAnLW9tYWUnLCAnPG91dGZpbGUubWFlPic=

> <r_lp_tautomer_probability>
1

> <r_epik_Ionization_Penalty>
0.00571331

> <r_epik_Ionization_Penalty_Charging>
0

> <r_epik_Ionization_Penalty_Neutral>
0.00571331

> <r_epik_State_Penalty>
0.00399586

> <r_epik_Charging_Adjusted_Penalty>
0.00399586

> <i_epik_Tot_Q>
0

> <i_epik_Tot_abs_Q>
0

> <r_epik_Metal_State_Penalty>
-0

> <b_epik_Metal_Only>
0

> <s_lp_Force_Field>
OPLS_2005

> <r_lp_Energy>
56.3854

> <b_lp_Chiralities_Consistent>
1

> <s_lp_Variant>
AV-unprocessed.smi:281-6

> <Gold.Version>
5.8.1

> <Gold.Id.Protein>
6NUR|6NUR_protein|mol2

> <Gold.PLP.Fitness>
47.6889

> <Gold.PLP.PLP>
-41.9121

> <Gold.PLP.part.hbond>
-3.8081

> <Gold.PLP.part.metal>
0.0000

> <Gold.PLP.part.buried>
-1.4824

> <Gold.PLP.part.nonpolar>
-36.6684

> <Gold.PLP.part.repulsive>
0.6233

> <Gold.PLP.ligand.clash>
0.0000

> <Gold.PLP.ligand.torsion>
0.1730

> <Gold.PLP.Chemscore.Hbond>
2.0000

> <Gold.PLP.Chemscore.CHOScore>
0.0000

> <Gold.PLP.Chemscore.Metal>
0.0000

> <Gold.Chemscore.Hbonds>
donor molecule, donor type, donor heavy atom, donor atom, acceptor molecule, acceptor atom, score
      L1  H    16    39       P1 10175  1.00
      P1  H  7997  8010       L1     6  1.00

> <Gold.PLP.Chemscore.Internal.Correction>
0.1228

> <Gold.Rescore>
     Score         DG    S(hbond)    S(metal)    S(lipo)     H(rot)  DE(clash)    DE(int)     intcor
     14.77     -18.36       1.56        0.00     111.31       2.09       1.92       1.67       ----

> <Gold.Chemscore.Fitness>
14.7710

> <Gold.Chemscore.DG>
-18.3550

> <Gold.Chemscore.ZeroCoef>
-5.4800

> <Gold.Chemscore.Hbond>
1.5596

> <Gold.Chemscore.Metal>
0.0000

> <Gold.Chemscore.Lipo>
111.3089

> <Gold.Chemscore.Internal_Hbond>
0.0000

> <Gold.Chemscore.DEClash>
1.9179

> <Gold.Chemscore.DEInternal>
1.6660

> <Gold.Chemscore.Rot>
2.0927

> <Gold.Chemscore.Internal.Correction>
   9.000000E+99

> <Gold.Chemscore.Hbonds>
donor molecule, donor type, donor heavy atom, donor atom, acceptor molecule, acceptor atom, score
      L1  H    16    39       P1 10175  0.98
      P1  H  7997  8010       L1     6  0.86

> <Gold.Chemscore.Hbond.Weighted>
-5.2092

> <Gold.Chemscore.Metal.Weighted>
-0.0000

> <Gold.Chemscore.Lipo.Weighted>
-13.0231

> <Gold.Chemscore.Internal_Hbond.Weighted>
0.0000

> <Gold.Chemscore.DEClash.Weighted>
1.9179

> <Gold.Chemscore.DEInternal.Weighted>
1.6660

> <Gold.Chemscore.Rot.Weighted>
5.3573

> <Gold.Chemscore.Internal.Correction.Weighted>
   9.000000E+99

> <Gold.Protein.RotatedTorsions>
[ 6907 6896 6895 6894 ] final  148.67 input  -60.11 | X-H torsion
[ 7974 7965 7964 7962 ] final  119.47 input  175.53 | X-H torsion
[ 8008 7997 7996 7995 ] final   87.49 input   59.86 | X-H torsion
[ 10167 10162 10161 10158 ] final  -70.33 input  -65.29 | X-H torsion
[ 10718 10713 10712 10709 ] final -174.62 input   66.30 | X-H torsion
[ 10763 10752 10751 10750 ] final   54.80 input  -60.55 | X-H torsion
[ 11005 11000 10999 10996 ] final  132.00 input  -57.11 | X-H torsion

> <Gold.Protein.ActiveResidues>
 VAL166  LYS551  ARG553  GLY616  TRP617  ASP618  TYR619  PRO620  LYS621  CYS622 
 ASP623  PHE694  ASN695  SER759  ASP760  ASP761  ALA762  ILE779  LEU786  VAL792 
 PHE793  MET794  SER795  GLU796  ALA797  LYS798  CYS799  TRP800  GLU811  SER814 

> <Gold.Protein.RotatedAtoms>
  152.1384  133.4449  159.4754 H   0  0  0  0  0  0  0  0  0  0  0  0  # atno 6907 bound_to 6896
  150.6884  134.2336  159.4453 H   0  0  0  0  0  0  0  0  0  0  0  0  # atno 6908 bound_to 6896
  152.0225  134.9814  160.0621 H   0  0  0  0  0  0  0  0  0  0  0  0  # atno 6909 bound_to 6896
  145.1427  139.3258  143.4607 H   0  0  0  0  0  0  0  0  0  0  0  0  # atno 7974 bound_to 7965
  155.9760  140.3381  155.6619 H   0  0  0  0  0  0  0  0  0  0  0  0  # atno 8008 bound_to 7997
  155.6611  140.0716  157.2572 H   0  0  0  0  0  0  0  0  0  0  0  0  # atno 8009 bound_to 7997
  154.4179  140.1708  156.1765 H   0  0  0  0  0  0  0  0  0  0  0  0  # atno 8010 bound_to 7997
  140.5361  143.2318  151.7175 H   0  0  0  0  0  0  0  0  0  0  0  0  # atno 10167 bound_to 10162
  156.7879  130.9507  151.3120 H   0  0  0  0  0  0  0  0  0  0  0  0  # atno 10718 bound_to 10713
  152.9809  135.5732  154.4962 H   0  0  0  0  0  0  0  0  0  0  0  0  # atno 10763 bound_to 10752
  154.4489  135.2778  155.1797 H   0  0  0  0  0  0  0  0  0  0  0  0  # atno 10764 bound_to 10752
  154.3433  135.6224  153.5660 H   0  0  0  0  0  0  0  0  0  0  0  0  # atno 10765 bound_to 10752
  139.9763  134.9562  156.9519 H   0  0  0  0  0  0  0  0  0  0  0  0  # atno 11005 bound_to 11000
  146.3503  140.1471  142.8593 LP  0  0  0  0  0  0  0  0  0  0  0  0  # atno 17320 bound_to 7965
  145.0515  140.9021  143.4993 LP  0  0  0  0  0  0  0  0  0  0  0  0  # atno 17321 bound_to 7965
  139.4971  144.4041  152.0151 LP  0  0  0  0  0  0  0  0  0  0  0  0  # atno 17342 bound_to 10162
  140.3146  144.3498  150.6025 LP  0  0  0  0  0  0  0  0  0  0  0  0  # atno 17343 bound_to 10162
  157.6615  130.8970  149.9840 LP  0  0  0  0  0  0  0  0  0  0  0  0  # atno 17370 bound_to 10713
  156.1177  130.3647  149.9939 LP  0  0  0  0  0  0  0  0  0  0  0  0  # atno 17371 bound_to 10713
  140.5187  134.0929  155.7287 LP  0  0  0  0  0  0  0  0  0  0  0  0  # atno 17394 bound_to 11000
  141.1440  133.9088  157.2259 LP  0  0  0  0  0  0  0  0  0  0  0  0  # atno 17395 bound_to 11000

$$$$
