AV-unprocessed.smi:2833|AV-procd|sdf|10915|dock4
  -GOLD-   2272015363D 1   1.00000     0.00000
 Structure written by MMmdl.
 28 29  0  0  0  0  0  0  0  0  1 V2000
  151.5944  136.8818  154.3302 O   0  0  0  0  0  0  0  0  0  0  0  0
  151.4312  138.2393  154.6825 C   0  0  0  0  0  0  0  0  0  0  0  0
  151.9896  138.4934  156.0911 C   0  0  1  0  0  0  0  0  0  0  0  0
  151.7252  139.9408  156.5529 C   0  0  0  0  0  0  0  0  0  0  0  0
  152.1821  140.1218  157.9252 N   0  0  0  0  0  0  0  0  0  0  0  0
  152.1025  141.4470  158.3777 C   0  0  0  0  0  0  0  0  0  0  0  0
  151.3235  142.3145  157.6860 N   0  0  0  0  0  0  0  0  0  0  0  0
  151.2426  143.5902  158.1220 C   0  0  0  0  0  0  0  0  0  0  0  0
  151.9278  144.0620  159.2588 C   0  0  0  0  0  0  0  0  0  0  0  0
  151.7792  145.7061  159.7600 Cl  0  0  0  0  0  0  0  0  0  0  0  0
  152.7367  143.1607  159.9766 C   0  0  0  0  0  0  0  0  0  0  0  0
  152.8260  141.8282  159.5295 C   0  0  0  0  0  0  0  0  0  0  0  0
  153.5944  140.9338  160.1972 F   0  0  0  0  0  0  0  0  0  0  0  0
  151.5875  139.1588  158.8426 C   0  0  0  0  0  0  0  0  0  0  0  0
  151.8285  137.7298  158.3293 C   0  0  0  0  0  0  0  0  0  0  0  0
  151.3292  137.6133  157.0000 O   0  0  0  0  0  0  0  0  0  0  0  0
  151.1447  136.7267  153.5136 H   0  0  0  0  0  0  0  0  0  0  0  0
  151.9782  138.8310  153.9479 H   0  0  0  0  0  0  0  0  0  0  0  0
  150.3819  138.5280  154.6129 H   0  0  0  0  0  0  0  0  0  0  0  0
  153.0656  138.3062  156.0993 H   0  0  0  0  0  0  0  0  0  0  0  0
  152.2454  140.6437  155.9008 H   0  0  0  0  0  0  0  0  0  0  0  0
  150.6594  140.1646  156.4854 H   0  0  0  0  0  0  0  0  0  0  0  0
  150.6119  144.2522  157.5471 H   0  0  0  0  0  0  0  0  0  0  0  0
  153.2783  143.4830  160.8538 H   0  0  0  0  0  0  0  0  0  0  0  0
  152.0194  139.2783  159.8371 H   0  0  0  0  0  0  0  0  0  0  0  0
  150.5159  139.3443  158.9299 H   0  0  0  0  0  0  0  0  0  0  0  0
  152.8904  137.4798  158.3549 H   0  0  0  0  0  0  0  0  0  0  0  0
  151.3158  137.0095  158.9667 H   0  0  0  0  0  0  0  0  0  0  0  0
  1  2  1  0  0  0  0
  1 17  1  0  0  0  0
  2  3  1  0  0  0  0
  2 18  1  0  0  0  0
  2 19  1  0  0  0  0
  3 16  1  0  0  0  0
  3  4  1  0  0  0  0
  3 20  1  0  0  0  0
  4  5  1  0  0  0  0
  4 21  1  0  0  0  0
  4 22  1  0  0  0  0
  5  6  1  0  0  0  0
  5 14  1  0  0  0  0
  6 12  1  0  0  0  0
  6  7  2  0  0  0  0
  7  8  1  0  0  0  0
  8  9  2  0  0  0  0
  8 23  1  0  0  0  0
  9 10  1  0  0  0  0
  9 11  1  0  0  0  0
 11 12  2  0  0  0  0
 11 24  1  0  0  0  0
 12 13  1  0  0  0  0
 14 15  1  0  0  0  0
 14 25  1  0  0  0  0
 14 26  1  0  0  0  0
 15 16  1  0  0  0  0
 15 27  1  0  0  0  0
 15 28  1  0  0  0  0
M  END
> <s_m_source_file>
AV-unprocessed.smi

> <i_m_source_file_index>
2833

> <i_lp_mmshare_version>
43012

> <i_f3d_flags>
0

> <s_epik_input>
W09IXVtDSDJdW0NAQEhdMVtDSDJdTihbQ0gyXVtDSDJdTzEpYzJuW2NIXWMoQ2wpW2NIXWMyRg==

> <s_epik_cmdline>
J2VwaWtfcHl0aG9uJywgJy1waCcsICc3LjAnLCAnLXRuJywgJzgnLCAnLW1hJywgJzIwMCcsICctbWV0YWxfYmluZGluZycsICctaW1hZScsICc8aW5maWxlLm1hZT4nLCAnLW9tYWUnLCAnPG91dGZpbGUubWFlPic=

> <r_lp_tautomer_probability>
1

> <r_epik_Ionization_Penalty>
1.06846e-07

> <r_epik_Ionization_Penalty_Charging>
0

> <r_epik_Ionization_Penalty_Neutral>
1.06846e-07

> <r_epik_State_Penalty>
-0

> <r_epik_Charging_Adjusted_Penalty>
0

> <i_epik_Tot_Q>
0

> <i_epik_Tot_abs_Q>
0

> <r_epik_Metal_State_Penalty>
-0

> <b_epik_Metal_Only>
0

> <s_lp_Force_Field>
OPLS_2005

> <r_lp_Energy>
22.731

> <b_lp_Chiralities_Consistent>
1

> <s_lp_Variant>
AV-unprocessed.smi:2833-2

> <Gold.Version>
5.8.1

> <Gold.Id.Protein>
6NUR|6NUR_protein|mol2

> <Gold.PLP.Fitness>
46.1954

> <Gold.PLP.PLP>
-36.5053

> <Gold.PLP.part.hbond>
-2.8627

> <Gold.PLP.part.metal>
0.0000

> <Gold.PLP.part.buried>
-5.2018

> <Gold.PLP.part.nonpolar>
-28.1410

> <Gold.PLP.part.repulsive>
0.0537

> <Gold.PLP.ligand.clash>
0.0000

> <Gold.PLP.ligand.torsion>
0.2711

> <Gold.PLP.Chemscore.Hbond>
2.3748

> <Gold.PLP.Chemscore.CHOScore>
1.0000

> <Gold.PLP.Chemscore.Metal>
0.0000

> <Gold.Chemscore.Hbonds>
donor molecule, donor type, donor heavy atom, donor atom, acceptor molecule, acceptor atom, score
      L1  H     1    17       P1  7949  0.69
      P1  H 10752 10764       L1     1  0.95
      L1  C     8    23       P1  8028  0.90

> <Gold.PLP.Chemscore.Internal.Correction>
0.1079

> <Gold.Rescore>
     Score         DG    S(hbond)    S(metal)    S(lipo)     H(rot)  DE(clash)    DE(int)     intcor
     15.48     -16.61       1.74        0.00      84.39       1.78       0.00       1.13       ----

> <Gold.Chemscore.Fitness>
15.4838

> <Gold.Chemscore.DG>
-16.6139

> <Gold.Chemscore.ZeroCoef>
-5.4800

> <Gold.Chemscore.Hbond>
1.7397

> <Gold.Chemscore.Metal>
0.0000

> <Gold.Chemscore.Lipo>
84.3875

> <Gold.Chemscore.Internal_Hbond>
0.0000

> <Gold.Chemscore.DEClash>
0.0009

> <Gold.Chemscore.DEInternal>
1.1292

> <Gold.Chemscore.Rot>
1.7773

> <Gold.Chemscore.Internal.Correction>
   9.000000E+99

> <Gold.Chemscore.Hbonds>
donor molecule, donor type, donor heavy atom, donor atom, acceptor molecule, acceptor atom, score
      L1  H     1    17       P1  7949  0.29
      P1  H 10752 10764       L1     1  0.21

> <Gold.Chemscore.Hbond.Weighted>
-5.8104

> <Gold.Chemscore.Metal.Weighted>
-0.0000

> <Gold.Chemscore.Lipo.Weighted>
-9.8733

> <Gold.Chemscore.Internal_Hbond.Weighted>
0.0000

> <Gold.Chemscore.DEClash.Weighted>
0.0009

> <Gold.Chemscore.DEInternal.Weighted>
1.1292

> <Gold.Chemscore.Rot.Weighted>
4.5499

> <Gold.Chemscore.Internal.Correction.Weighted>
   9.000000E+99

> <Gold.Protein.RotatedTorsions>
[ 6907 6896 6895 6894 ] final -142.52 input  -60.11 | X-H torsion
[ 7974 7965 7964 7962 ] final -117.83 input  175.53 | X-H torsion
[ 8008 7997 7996 7995 ] final  154.58 input   59.86 | X-H torsion
[ 10167 10162 10161 10158 ] final   -5.83 input  -65.29 | X-H torsion
[ 10718 10713 10712 10709 ] final   57.25 input   66.30 | X-H torsion
[ 10763 10752 10751 10750 ] final  -89.07 input  -60.55 | X-H torsion
[ 11005 11000 10999 10996 ] final -141.08 input  -57.11 | X-H torsion

> <Gold.Protein.ActiveResidues>
 VAL166  LYS551  ARG553  GLY616  TRP617  ASP618  TYR619  PRO620  LYS621  CYS622 
 ASP623  PHE694  ASN695  SER759  ASP760  ASP761  ALA762  ILE779  LEU786  VAL792 
 PHE793  MET794  SER795  GLU796  ALA797  LYS798  CYS799  TRP800  GLU811  SER814 

> <Gold.Protein.RotatedAtoms>
  151.0882  133.5336  159.2616 H   0  0  0  0  0  0  0  0  0  0  0  0  # atno 6907 bound_to 6896
  151.2214  135.0519  159.8961 H   0  0  0  0  0  0  0  0  0  0  0  0  # atno 6908 bound_to 6896
  152.5431  134.0684  159.8237 H   0  0  0  0  0  0  0  0  0  0  0  0  # atno 6909 bound_to 6896
  145.0808  140.8424  143.4040 H   0  0  0  0  0  0  0  0  0  0  0  0  # atno 7974 bound_to 7965
  156.2523  140.1962  156.6669 H   0  0  0  0  0  0  0  0  0  0  0  0  # atno 8008 bound_to 7997
  154.6422  140.0582  156.9885 H   0  0  0  0  0  0  0  0  0  0  0  0  # atno 8009 bound_to 7997
  155.1545  140.3254  155.4427 H   0  0  0  0  0  0  0  0  0  0  0  0  # atno 8010 bound_to 7997
  140.6976  143.6264  150.8564 H   0  0  0  0  0  0  0  0  0  0  0  0  # atno 10167 bound_to 10162
  157.5499  130.8758  149.8947 H   0  0  0  0  0  0  0  0  0  0  0  0  # atno 10718 bound_to 10713
  154.6513  135.5354  153.7905 H   0  0  0  0  0  0  0  0  0  0  0  0  # atno 10763 bound_to 10752
  153.0388  135.6483  154.1012 H   0  0  0  0  0  0  0  0  0  0  0  0  # atno 10764 bound_to 10752
  154.0929  135.2938  155.3247 H   0  0  0  0  0  0  0  0  0  0  0  0  # atno 10765 bound_to 10752
  140.8359  134.2460  157.4834 H   0  0  0  0  0  0  0  0  0  0  0  0  # atno 11005 bound_to 11000
  145.1181  139.2712  143.5603 LP  0  0  0  0  0  0  0  0  0  0  0  0  # atno 17320 bound_to 7965
  146.3531  140.0796  142.8618 LP  0  0  0  0  0  0  0  0  0  0  0  0  # atno 17321 bound_to 7965
  139.9983  143.5771  152.2885 LP  0  0  0  0  0  0  0  0  0  0  0  0  # atno 17342 bound_to 10162
  139.6452  144.7657  151.2259 LP  0  0  0  0  0  0  0  0  0  0  0  0  # atno 17343 bound_to 10162
  156.0568  130.3707  150.1074 LP  0  0  0  0  0  0  0  0  0  0  0  0  # atno 17370 bound_to 10713
  156.9247  130.9694  151.3543 LP  0  0  0  0  0  0  0  0  0  0  0  0  # atno 17371 bound_to 10713
  139.8704  134.9610  156.4384 LP  0  0  0  0  0  0  0  0  0  0  0  0  # atno 17394 bound_to 11000
  140.8947  133.7822  155.9612 LP  0  0  0  0  0  0  0  0  0  0  0  0  # atno 17395 bound_to 11000

$$$$
