AV-unprocessed.smi:1243|AV-procd|sdf|5219|dock4
  -GOLD-   22720 4313D 1   1.00000     0.00000
 Structure written by MMmdl.
 51 52  0  0  0  0  0  0  0  0  2 V2000
  148.2327  140.2416  153.9062 C   0  0  0  0  0  0  0  0  0  0  0  0
  148.8836  138.9847  154.0563 O   0  0  0  0  0  0  0  0  0  0  0  0
  149.9961  138.9111  154.8728 C   0  0  0  0  0  0  0  0  0  0  0  0
  150.4112  140.0394  155.5015 N   0  0  0  0  0  0  0  0  0  0  0  0
  151.4955  139.9683  156.3007 C   0  0  0  0  0  0  0  0  0  0  0  0
  152.2143  138.7790  156.5198 C   0  0  0  0  0  0  0  0  0  0  0  0
  151.7856  137.6072  155.8696 C   0  0  0  0  0  0  0  0  0  0  0  0
  150.6576  137.6690  155.0158 C   0  0  0  0  0  0  0  0  0  0  0  0
  150.1295  136.5417  154.3286 N   0  0  0  0  0  0  0  0  0  0  0  0
  150.3178  135.2387  154.5951 C   0  0  0  0  0  0  0  0  0  0  0  0
  151.0182  134.7913  155.5030 O   0  0  0  0  0  0  0  0  0  0  0  0
  149.6494  134.4656  153.7272 N   0  0  0  0  0  0  0  0  0  0  0  0
  149.6586  133.0032  153.7076 C   0  0  0  0  0  0  0  0  0  0  0  0
  148.3280  132.3780  153.1887 C   0  0  0  0  0  0  0  0  0  0  0  0
  147.3373  132.1611  154.3608 C   0  0  0  0  0  0  0  0  0  0  0  0
  147.6320  133.3640  152.2173 C   0  0  0  0  0  0  0  0  0  0  0  0
  148.5760  131.0647  152.4899 N   0  3  0  0  0  0  0  0  0  0  0  0
  147.3747  130.4008  151.9065 C   0  0  0  0  0  0  0  0  0  0  0  0
  147.7848  129.1959  151.0340 C   0  0  0  0  0  0  0  0  0  0  0  0
  148.5692  128.2119  151.7787 N   0  0  0  0  0  0  0  0  0  0  0  0
  147.7796  127.4634  152.7508 C   0  0  0  0  0  0  0  0  0  0  0  0
  149.7431  128.8598  152.3622 C   0  0  0  0  0  0  0  0  0  0  0  0
  149.3659  130.0589  153.2571 C   0  0  0  0  0  0  0  0  0  0  0  0
  147.3845  140.1295  153.2309 H   0  0  0  0  0  0  0  0  0  0  0  0
  148.9023  140.9878  153.4758 H   0  0  0  0  0  0  0  0  0  0  0  0
  147.8500  140.6105  154.8588 H   0  0  0  0  0  0  0  0  0  0  0  0
  151.7950  140.8857  156.7853 H   0  0  0  0  0  0  0  0  0  0  0  0
  153.0721  138.7646  157.1757 H   0  0  0  0  0  0  0  0  0  0  0  0
  152.3179  136.6859  156.0493 H   0  0  0  0  0  0  0  0  0  0  0  0
  149.6044  136.7554  153.4931 H   0  0  0  0  0  0  0  0  0  0  0  0
  149.1023  134.9244  153.0134 H   0  0  0  0  0  0  0  0  0  0  0  0
  150.4902  132.7174  153.0647 H   0  0  0  0  0  0  0  0  0  0  0  0
  149.9084  132.6261  154.6994 H   0  0  0  0  0  0  0  0  0  0  0  0
  146.9590  133.1057  154.7527 H   0  0  0  0  0  0  0  0  0  0  0  0
  147.7998  131.6491  155.2045 H   0  0  0  0  0  0  0  0  0  0  0  0
  146.4700  131.5788  154.0471 H   0  0  0  0  0  0  0  0  0  0  0  0
  147.2577  134.2465  152.7376 H   0  0  0  0  0  0  0  0  0  0  0  0
  146.7779  132.8994  151.7227 H   0  0  0  0  0  0  0  0  0  0  0  0
  148.3070  133.7342  151.4461 H   0  0  0  0  0  0  0  0  0  0  0  0
  146.6865  130.0871  152.6907 H   0  0  0  0  0  0  0  0  0  0  0  0
  146.8217  131.0828  151.2643 H   0  0  0  0  0  0  0  0  0  0  0  0
  146.9020  128.7147  150.6113 H   0  0  0  0  0  0  0  0  0  0  0  0
  148.3791  129.5449  150.1885 H   0  0  0  0  0  0  0  0  0  0  0  0
  148.3967  126.7049  153.2336 H   0  0  0  0  0  0  0  0  0  0  0  0
  146.9569  126.9500  152.2521 H   0  0  0  0  0  0  0  0  0  0  0  0
  147.3573  128.0985  153.5286 H   0  0  0  0  0  0  0  0  0  0  0  0
  150.3190  128.1283  152.9304 H   0  0  0  0  0  0  0  0  0  0  0  0
  150.3908  129.1990  151.5525 H   0  0  0  0  0  0  0  0  0  0  0  0
  150.2960  130.4879  153.6235 H   0  0  0  0  0  0  0  0  0  0  0  0
  148.8140  129.7193  154.1329 H   0  0  0  0  0  0  0  0  0  0  0  0
  149.1538  131.3026  151.6965 H   0  0  0  0  0  0  0  0  0  0  0  0
  1  2  1  0  0  0  0
  1 24  1  0  0  0  0
  1 25  1  0  0  0  0
  1 26  1  0  0  0  0
  2  3  1  0  0  0  0
  3  8  1  0  0  0  0
  3  4  2  0  0  0  0
  4  5  1  0  0  0  0
  5  6  2  0  0  0  0
  5 27  1  0  0  0  0
  6  7  1  0  0  0  0
  6 28  1  0  0  0  0
  7  8  2  0  0  0  0
  7 29  1  0  0  0  0
  8  9  1  0  0  0  0
  9 10  1  0  0  0  0
  9 30  1  0  0  0  0
 10 11  2  0  0  0  0
 10 12  1  0  0  0  0
 12 13  1  0  0  0  0
 12 31  1  0  0  0  0
 13 14  1  0  0  0  0
 13 32  1  0  0  0  0
 13 33  1  0  0  0  0
 14 15  1  0  0  0  0
 14 16  1  0  0  0  0
 14 17  1  0  0  0  0
 15 34  1  0  0  0  0
 15 35  1  0  0  0  0
 15 36  1  0  0  0  0
 16 37  1  0  0  0  0
 16 38  1  0  0  0  0
 16 39  1  0  0  0  0
 17 23  1  0  0  0  0
 17 18  1  0  0  0  0
 17 51  1  0  0  0  0
 18 19  1  0  0  0  0
 18 40  1  0  0  0  0
 18 41  1  0  0  0  0
 19 20  1  0  0  0  0
 19 42  1  0  0  0  0
 19 43  1  0  0  0  0
 20 21  1  0  0  0  0
 20 22  1  0  0  0  0
 21 44  1  0  0  0  0
 21 45  1  0  0  0  0
 21 46  1  0  0  0  0
 22 23  1  0  0  0  0
 22 47  1  0  0  0  0
 22 48  1  0  0  0  0
 23 49  1  0  0  0  0
 23 50  1  0  0  0  0
M  CHG  1  17   1
M  END
> <s_m_source_file>
AV-unprocessed.smi

> <i_m_source_file_index>
1243

> <i_lp_mmshare_version>
43012

> <i_f3d_flags>
0

> <s_epik_input>
W0NIM11PYzFuW2NIXVtjSF1bY0hdYzFbTkhdQyg9TylbTkhdW0NIMl1DKFtDSDNdKShbQ0gzXSlOMltDSDJdW0NIMl1OKFtDSDNdKVtDSDJdW0NIMl0y

> <s_epik_cmdline>
J2VwaWtfcHl0aG9uJywgJy1waCcsICc3LjAnLCAnLXRuJywgJzgnLCAnLW1hJywgJzIwMCcsICctbWV0YWxfYmluZGluZycsICctaW1hZScsICc8aW5maWxlLm1hZT4nLCAnLW9tYWUnLCAnPG91dGZpbGUubWFlPic=

> <r_epik_Ionization_Penalty>
0.0907124

> <r_epik_Ionization_Penalty_Charging>
0.0886444

> <r_epik_Ionization_Penalty_Neutral>
0.00206798

> <r_epik_State_Penalty>
1.00524

> <r_epik_Charging_Adjusted_Penalty>
1.09388

> <i_epik_Tot_Q>
1

> <i_epik_Tot_abs_Q>
1

> <r_epik_Metal_State_Penalty>
1.00525

> <b_epik_Metal_Only>
0

> <s_lp_Force_Field>
OPLS_2005

> <r_lp_Energy>
29.8833

> <b_lp_Chiralities_Consistent>
1

> <s_lp_Variant>
AV-unprocessed.smi:1243-2

> <Gold.Version>
5.8.1

> <Gold.Id.Protein>
6NUR|6NUR_protein|mol2

> <Gold.PLP.Fitness>
44.4752

> <Gold.PLP.PLP>
-34.4200

> <Gold.PLP.part.hbond>
-5.8660

> <Gold.PLP.part.metal>
0.0000

> <Gold.PLP.part.buried>
1.7786

> <Gold.PLP.part.nonpolar>
-31.0215

> <Gold.PLP.part.repulsive>
0.8954

> <Gold.PLP.ligand.clash>
0.0000

> <Gold.PLP.ligand.torsion>
0.9178

> <Gold.PLP.Chemscore.Hbond>
3.9238

> <Gold.PLP.Chemscore.CHOScore>
0.0000

> <Gold.PLP.Chemscore.Metal>
0.0000

> <Gold.Chemscore.Hbonds>
donor molecule, donor type, donor heavy atom, donor atom, acceptor molecule, acceptor atom, score
      L1  H     9    30       P1  7948  0.98
      L1  H    12    31       P1  7948  0.58
      L1  H    17    51       P1 10747  0.49
      P1  H 10752 10763       L1    11  0.42

> <Gold.PLP.Chemscore.Internal.Correction>
0.1193

> <Gold.Rescore>
     Score         DG    S(hbond)    S(metal)    S(lipo)     H(rot)  DE(clash)    DE(int)     intcor
     15.38     -17.19       2.10        0.00      77.84       1.72       0.05       1.75       ----

> <Gold.Chemscore.Fitness>
15.3842

> <Gold.Chemscore.DG>
-17.1892

> <Gold.Chemscore.ZeroCoef>
-5.4800

> <Gold.Chemscore.Hbond>
2.0982

> <Gold.Chemscore.Metal>
0.0000

> <Gold.Chemscore.Lipo>
77.8430

> <Gold.Chemscore.Internal_Hbond>
0.0000

> <Gold.Chemscore.DEClash>
0.0516

> <Gold.Chemscore.DEInternal>
1.7534

> <Gold.Chemscore.Rot>
1.7213

> <Gold.Chemscore.Internal.Correction>
   9.000000E+99

> <Gold.Chemscore.Hbonds>
donor molecule, donor type, donor heavy atom, donor atom, acceptor molecule, acceptor atom, score
      L1  H     9    30       P1  7948  0.65
      L1  H    12    31       P1  7948  0.04
      L1  H    17    51       P1 10747  0.21
      P1  H 10752 10763       L1    11  0.08

> <Gold.Chemscore.Hbond.Weighted>
-7.0081

> <Gold.Chemscore.Metal.Weighted>
-0.0000

> <Gold.Chemscore.Lipo.Weighted>
-9.1076

> <Gold.Chemscore.Internal_Hbond.Weighted>
0.0000

> <Gold.Chemscore.DEClash.Weighted>
0.0516

> <Gold.Chemscore.DEInternal.Weighted>
1.7534

> <Gold.Chemscore.Rot.Weighted>
4.4066

> <Gold.Chemscore.Internal.Correction.Weighted>
   9.000000E+99

> <Gold.Protein.RotatedTorsions>
[ 6907 6896 6895 6894 ] final   11.20 input  -60.11 | X-H torsion
[ 7974 7965 7964 7962 ] final    5.49 input  175.53 | X-H torsion
[ 8008 7997 7996 7995 ] final  -87.70 input   59.86 | X-H torsion
[ 10167 10162 10161 10158 ] final  -31.66 input  -65.29 | X-H torsion
[ 10718 10713 10712 10709 ] final   -3.74 input   66.30 | X-H torsion
[ 10763 10752 10751 10750 ] final   70.15 input  -60.55 | X-H torsion
[ 11005 11000 10999 10996 ] final  133.78 input  -57.11 | X-H torsion

> <Gold.Protein.ActiveResidues>
 VAL166  LYS551  ARG553  GLY616  TRP617  ASP618  TYR619  PRO620  LYS621  CYS622 
 ASP623  PHE694  ASN695  SER759  ASP760  ASP761  ALA762  ILE779  LEU786  VAL792 
 PHE793  MET794  SER795  GLU796  ALA797  LYS798  CYS799  TRP800  GLU811  SER814 

> <Gold.Protein.RotatedAtoms>
  151.7505  135.0834  160.0329 H   0  0  0  0  0  0  0  0  0  0  0  0  # atno 6907 bound_to 6896
  152.3420  133.6074  159.5892 H   0  0  0  0  0  0  0  0  0  0  0  0  # atno 6908 bound_to 6896
  150.7485  133.9623  159.3561 H   0  0  0  0  0  0  0  0  0  0  0  0  # atno 6909 bound_to 6896
  146.2440  140.0376  142.8384 H   0  0  0  0  0  0  0  0  0  0  0  0  # atno 7974 bound_to 7965
  154.6663  140.0562  157.0117 H   0  0  0  0  0  0  0  0  0  0  0  0  # atno 8008 bound_to 7997
  155.1155  140.3242  155.4492 H   0  0  0  0  0  0  0  0  0  0  0  0  # atno 8009 bound_to 7997
  156.2639  140.2007  156.6278 H   0  0  0  0  0  0  0  0  0  0  0  0  # atno 8010 bound_to 7997
  140.7233  143.3754  151.1700 H   0  0  0  0  0  0  0  0  0  0  0  0  # atno 10167 bound_to 10162
  156.7716  130.5302  149.5766 H   0  0  0  0  0  0  0  0  0  0  0  0  # atno 10718 bound_to 10713
  153.0326  135.5184  154.7397 H   0  0  0  0  0  0  0  0  0  0  0  0  # atno 10763 bound_to 10752
  154.6400  135.2911  155.0117 H   0  0  0  0  0  0  0  0  0  0  0  0  # atno 10764 bound_to 10752
  154.1038  135.6632  153.4925 H   0  0  0  0  0  0  0  0  0  0  0  0  # atno 10765 bound_to 10752
  139.9873  134.9527  156.9773 H   0  0  0  0  0  0  0  0  0  0  0  0  # atno 11005 bound_to 11000
  145.1098  140.9398  143.4663 LP  0  0  0  0  0  0  0  0  0  0  0  0  # atno 17320 bound_to 7965
  145.0587  139.3122  143.5891 LP  0  0  0  0  0  0  0  0  0  0  0  0  # atno 17321 bound_to 7965
  139.7333  143.9038  152.3026 LP  0  0  0  0  0  0  0  0  0  0  0  0  # atno 17342 bound_to 10162
  139.8835  144.7005  150.8851 LP  0  0  0  0  0  0  0  0  0  0  0  0  # atno 17343 bound_to 10162
  156.1274  130.6153  151.0284 LP  0  0  0  0  0  0  0  0  0  0  0  0  # atno 17370 bound_to 10713
  157.6688  131.0866  150.7663 LP  0  0  0  0  0  0  0  0  0  0  0  0  # atno 17371 bound_to 10713
  140.4977  134.1129  155.7244 LP  0  0  0  0  0  0  0  0  0  0  0  0  # atno 17394 bound_to 11000
  141.1536  133.8924  157.2036 LP  0  0  0  0  0  0  0  0  0  0  0  0  # atno 17395 bound_to 11000

$$$$
