AV-unprocessed.smi:290|AV-procd|sdf|2227|dock5
  -GOLD-   2262022 83D 1   1.00000     0.00000
 Structure written by MMmdl.
 59 62  0  0  0  0  0  0  0  0  2 V2000
  152.4818  144.7787  157.8487 C   0  0  0  0  0  0  0  0  0  0  0  0
  151.9820  143.9280  159.0267 C   0  0  2  0  0  0  0  0  0  0  0  0
  153.0934  143.6700  159.8803 O   0  0  0  0  0  0  0  0  0  0  0  0
  152.8800  142.4357  160.5413 C   0  0  0  0  0  0  0  0  0  0  0  0
  152.3031  141.5709  159.4315 C   0  0  0  0  0  0  0  0  0  0  0  0
  151.3829  142.5339  158.6841 C   0  0  1  0  0  0  0  0  0  0  0  0
  150.1004  142.4545  159.2838 O   0  0  0  0  0  0  0  0  0  0  0  0
  151.2326  142.1993  157.1765 C   0  0  0  0  0  0  0  0  0  0  0  0
  150.6891  140.8722  156.9316 N   0  0  0  0  0  0  0  0  0  0  0  0
  149.3949  140.4578  157.1505 C   0  0  0  0  0  0  0  0  0  0  0  0
  149.1490  139.2148  156.8389 N   0  0  0  0  0  0  0  0  0  0  0  0
  150.3691  138.7292  156.3823 C   0  0  0  0  0  0  0  0  0  0  0  0
  150.8127  137.4706  155.8834 C   0  0  0  0  0  0  0  0  0  0  0  0
  149.9948  136.3907  155.7690 N   0  0  0  0  0  0  0  0  0  0  0  0
  150.6320  135.0796  155.6696 C   0  0  0  0  0  0  0  0  0  0  0  0
  149.7655  134.2437  154.7220 C   0  0  0  0  0  0  0  0  0  0  0  0
  148.4053  134.9456  154.7937 C   0  0  2  0  0  0  0  0  0  0  0  0
  147.4665  134.6624  153.6708 N   0  3  2  0  0  0  0  0  0  0  0  0
  146.1210  135.2350  153.9128 C   0  0  0  0  0  0  0  0  0  0  0  0
  147.4127  133.2462  153.2157 C   0  0  0  0  0  0  0  0  0  0  0  0
  146.5166  133.0820  151.9784 C   0  0  0  0  0  0  0  0  0  0  0  0
  146.3596  131.7115  151.6753 O   0  0  0  0  0  0  0  0  0  0  0  0
  148.7844  136.4251  154.9489 C   0  0  1  0  0  0  0  0  0  0  0  0
  147.6616  137.2658  155.5830 C   0  0  0  0  0  0  0  0  0  0  0  0
  152.1176  137.3737  155.5134 N   0  0  0  0  0  0  0  0  0  0  0  0
  152.9339  138.4258  155.6239 C   0  0  0  0  0  0  0  0  0  0  0  0
  152.6580  139.6519  156.0707 N   0  0  0  0  0  0  0  0  0  0  0  0
  151.3494  139.7604  156.4384 C   0  0  0  0  0  0  0  0  0  0  0  0
  147.9244  134.6375  155.7246 H   0  0  0  0  0  0  0  0  0  0  0  0
  149.0433  136.8516  153.9806 H   0  0  0  0  0  0  0  0  0  0  0  0
  151.6717  145.0256  157.1625 H   0  0  0  0  0  0  0  0  0  0  0  0
  153.2632  144.2665  157.2873 H   0  0  0  0  0  0  0  0  0  0  0  0
  152.9023  145.7186  158.2070 H   0  0  0  0  0  0  0  0  0  0  0  0
  151.2633  144.5200  159.5972 H   0  0  0  0  0  0  0  0  0  0  0  0
  153.8046  142.0325  160.9547 H   0  0  0  0  0  0  0  0  0  0  0  0
  152.1629  142.5673  161.3531 H   0  0  0  0  0  0  0  0  0  0  0  0
  153.1181  141.2492  158.7818 H   0  0  0  0  0  0  0  0  0  0  0  0
  151.8009  140.6756  159.8012 H   0  0  0  0  0  0  0  0  0  0  0  0
  149.4476  142.6185  158.6204 H   0  0  0  0  0  0  0  0  0  0  0  0
  150.5864  142.9282  156.6855 H   0  0  0  0  0  0  0  0  0  0  0  0
  152.1989  142.2557  156.6748 H   0  0  0  0  0  0  0  0  0  0  0  0
  148.6313  141.1127  157.5442 H   0  0  0  0  0  0  0  0  0  0  0  0
  151.6594  135.1416  155.3076 H   0  0  0  0  0  0  0  0  0  0  0  0
  150.6512  134.6286  156.6623 H   0  0  0  0  0  0  0  0  0  0  0  0
  150.1935  134.2917  153.7209 H   0  0  0  0  0  0  0  0  0  0  0  0
  149.7190  133.1943  155.0144 H   0  0  0  0  0  0  0  0  0  0  0  0
  145.6413  134.7592  154.7689 H   0  0  0  0  0  0  0  0  0  0  0  0
  145.4733  135.1042  153.0463 H   0  0  0  0  0  0  0  0  0  0  0  0
  146.1855  136.3054  154.1105 H   0  0  0  0  0  0  0  0  0  0  0  0
  148.4022  132.8621  152.9715 H   0  0  0  0  0  0  0  0  0  0  0  0
  147.0464  132.6186  154.0297 H   0  0  0  0  0  0  0  0  0  0  0  0
  145.5304  133.5048  152.1725 H   0  0  0  0  0  0  0  0  0  0  0  0
  146.9216  133.6045  151.1121 H   0  0  0  0  0  0  0  0  0  0  0  0
  147.0666  131.4424  151.1080 H   0  0  0  0  0  0  0  0  0  0  0  0
  146.7621  137.2395  154.9677 H   0  0  0  0  0  0  0  0  0  0  0  0
  147.9489  138.3113  155.6911 H   0  0  0  0  0  0  0  0  0  0  0  0
  147.3980  136.8928  156.5732 H   0  0  0  0  0  0  0  0  0  0  0  0
  153.9538  138.2624  155.3081 H   0  0  0  0  0  0  0  0  0  0  0  0
  147.8440  135.1778  152.8878 H   0  0  0  0  0  0  0  0  0  0  0  0
  1  2  1  0  0  0  0
  1 31  1  0  0  0  0
  1 32  1  0  0  0  0
  1 33  1  0  0  0  0
  2  6  1  0  0  0  0
  2  3  1  0  0  0  0
  2 34  1  0  0  0  0
  3  4  1  0  0  0  0
  4  5  1  0  0  0  0
  4 35  1  0  0  0  0
  4 36  1  0  0  0  0
  5  6  1  0  0  0  0
  5 37  1  0  0  0  0
  5 38  1  0  0  0  0
  6  7  1  0  0  0  0
  6  8  1  0  0  0  0
  7 39  1  0  0  0  0
  8  9  1  0  0  0  0
  8 40  1  0  0  0  0
  8 41  1  0  0  0  0
  9 28  1  0  0  0  0
  9 10  1  0  0  0  0
 10 11  2  0  0  0  0
 10 42  1  0  0  0  0
 11 12  1  0  0  0  0
 12 28  2  0  0  0  0
 12 13  1  0  0  0  0
 13 14  1  0  0  0  0
 13 25  2  0  0  0  0
 14 23  1  0  0  0  0
 14 15  1  0  0  0  0
 15 16  1  0  0  0  0
 15 43  1  0  0  0  0
 15 44  1  0  0  0  0
 16 17  1  0  0  0  0
 16 45  1  0  0  0  0
 16 46  1  0  0  0  0
 17 29  1  0  0  0  0
 17 18  1  0  0  0  0
 17 23  1  0  0  0  0
 18 19  1  0  0  0  0
 18 20  1  0  0  0  0
 18 59  1  0  0  0  0
 19 47  1  0  0  0  0
 19 48  1  0  0  0  0
 19 49  1  0  0  0  0
 20 21  1  0  0  0  0
 20 50  1  0  0  0  0
 20 51  1  0  0  0  0
 21 22  1  0  0  0  0
 21 52  1  0  0  0  0
 21 53  1  0  0  0  0
 22 54  1  0  0  0  0
 23 30  1  0  0  0  0
 23 24  1  0  0  0  0
 24 55  1  0  0  0  0
 24 56  1  0  0  0  0
 24 57  1  0  0  0  0
 25 26  1  0  0  0  0
 26 27  2  0  0  0  0
 26 58  1  0  0  0  0
 27 28  1  0  0  0  0
M  CHG  1  18   1
M  END
> <s_m_source_file>
AV-unprocessed.smi

> <i_m_source_file_index>
290

> <i_lp_mmshare_version>
43012

> <i_f3d_flags>
0

> <s_epik_input>
W0NIMl0xW0NIMl1PW0NAQEhdKFtDSDNdKVtDQEBdMShbT0hdKVtDSDJdbihbY0hdbjIpYyhjMjMpbltjSF1uYzNONFtDSDJdW0NIMl1bQ0BIXShbQ0BIXTRbQ0gzXSlOKFtDSDNdKVtDSDJdW0NIMl1bT0hd

> <s_epik_cmdline>
J2VwaWtfcHl0aG9uJywgJy1waCcsICc3LjAnLCAnLXRuJywgJzgnLCAnLW1hJywgJzIwMCcsICctbWV0YWxfYmluZGluZycsICctaW1hZScsICc8aW5maWxlLm1hZT4nLCAnLW9tYWUnLCAnPG91dGZpbGUubWFlPic=

> <r_lp_tautomer_probability>
1

> <r_epik_Ionization_Penalty>
0.0036983

> <r_epik_Ionization_Penalty_Charging>
0.0032725

> <r_epik_Ionization_Penalty_Neutral>
0.000425798

> <r_epik_State_Penalty>
-0

> <r_epik_Charging_Adjusted_Penalty>
0.0032725

> <i_epik_Tot_Q>
1

> <i_epik_Tot_abs_Q>
1

> <r_epik_Metal_State_Penalty>
-0

> <b_epik_Metal_Only>
0

> <s_lp_Force_Field>
OPLS_2005

> <r_lp_Energy>
58.7997

> <b_lp_Chiralities_Consistent>
1

> <s_lp_Variant>
AV-unprocessed.smi:290-13

> <Gold.Version>
5.8.1

> <Gold.Id.Protein>
6NUR|6NUR_protein|mol2

> <Gold.PLP.Fitness>
56.5048

> <Gold.PLP.PLP>
-42.5832

> <Gold.PLP.part.hbond>
-5.0000

> <Gold.PLP.part.metal>
0.0000

> <Gold.PLP.part.buried>
-4.7732

> <Gold.PLP.part.nonpolar>
-33.3358

> <Gold.PLP.part.repulsive>
0.1145

> <Gold.PLP.ligand.clash>
0.0000

> <Gold.PLP.ligand.torsion>
0.6135

> <Gold.PLP.Chemscore.Hbond>
4.8320

> <Gold.PLP.Chemscore.CHOScore>
0.0000

> <Gold.PLP.Chemscore.Metal>
0.0000

> <Gold.Chemscore.Hbonds>
donor molecule, donor type, donor heavy atom, donor atom, acceptor molecule, acceptor atom, score
      L1  H    18    59       P1  7948  2.00
      L1  H    22    54       P1 10747  0.67
      P1  H  7997  8010       L1    27  0.80
      P1  H 10752 10764       L1    25  0.61

> <Gold.PLP.Chemscore.Internal.Correction>
0.6527

> <Gold.Rescore>
     Score         DG    S(hbond)    S(metal)    S(lipo)     H(rot)  DE(clash)    DE(int)     intcor
     15.68     -19.55       3.58        0.00      98.33       3.67       0.22       3.65       ----

> <Gold.Chemscore.Fitness>
15.6812

> <Gold.Chemscore.DG>
-19.5452

> <Gold.Chemscore.ZeroCoef>
-5.4800

> <Gold.Chemscore.Hbond>
3.5764

> <Gold.Chemscore.Metal>
0.0000

> <Gold.Chemscore.Lipo>
98.3272

> <Gold.Chemscore.Internal_Hbond>
0.0000

> <Gold.Chemscore.DEClash>
0.2170

> <Gold.Chemscore.DEInternal>
3.6469

> <Gold.Chemscore.Rot>
3.6658

> <Gold.Chemscore.Internal.Correction>
   9.000000E+99

> <Gold.Chemscore.Hbonds>
donor molecule, donor type, donor heavy atom, donor atom, acceptor molecule, acceptor atom, score
      L1  H    18    59       P1  7948  1.00
      L1  H    22    54       P1 10747  0.67
      P1  H  7997  8010       L1    27  0.12
      P1  H 10752 10764       L1    25  0.56

> <Gold.Chemscore.Hbond.Weighted>
-11.9453

> <Gold.Chemscore.Metal.Weighted>
-0.0000

> <Gold.Chemscore.Lipo.Weighted>
-11.5043

> <Gold.Chemscore.Internal_Hbond.Weighted>
0.0000

> <Gold.Chemscore.DEClash.Weighted>
0.2170

> <Gold.Chemscore.DEInternal.Weighted>
3.6469

> <Gold.Chemscore.Rot.Weighted>
9.3844

> <Gold.Chemscore.Internal.Correction.Weighted>
   9.000000E+99

> <Gold.Protein.RotatedTorsions>
[ 6907 6896 6895 6894 ] final -154.68 input  -60.11 | X-H torsion
[ 7974 7965 7964 7962 ] final -104.91 input  175.53 | X-H torsion
[ 8008 7997 7996 7995 ] final   74.43 input   59.86 | X-H torsion
[ 10167 10162 10161 10158 ] final   83.80 input  -65.29 | X-H torsion
[ 10718 10713 10712 10709 ] final -171.38 input   66.30 | X-H torsion
[ 10763 10752 10751 10750 ] final  -48.66 input  -60.55 | X-H torsion
[ 11005 11000 10999 10996 ] final  135.53 input  -57.11 | X-H torsion

> <Gold.Protein.ActiveResidues>
 VAL166  LYS551  ARG553  GLY616  TRP617  ASP618  TYR619  PRO620  LYS621  CYS622 
 ASP623  PHE694  ASN695  SER759  ASP760  ASP761  ALA762  ILE779  LEU786  VAL792 
 PHE793  MET794  SER795  GLU796  ALA797  LYS798  CYS799  TRP800  GLU811  SER814 

> <Gold.Protein.RotatedAtoms>
  151.2611  133.4301  159.2615 H   0  0  0  0  0  0  0  0  0  0  0  0  # atno 6907 bound_to 6896
  151.0530  134.9686  159.8231 H   0  0  0  0  0  0  0  0  0  0  0  0  # atno 6908 bound_to 6896
  152.5386  134.2565  159.8971 H   0  0  0  0  0  0  0  0  0  0  0  0  # atno 6909 bound_to 6896
  145.2372  140.9192  143.3171 H   0  0  0  0  0  0  0  0  0  0  0  0  # atno 7974 bound_to 7965
  155.7982  140.3477  155.5387 H   0  0  0  0  0  0  0  0  0  0  0  0  # atno 8008 bound_to 7997
  155.8565  140.0964  157.1661 H   0  0  0  0  0  0  0  0  0  0  0  0  # atno 8009 bound_to 7997
  154.4010  140.1366  156.3896 H   0  0  0  0  0  0  0  0  0  0  0  0  # atno 8010 bound_to 7997
  139.9146  144.6250  150.8502 H   0  0  0  0  0  0  0  0  0  0  0  0  # atno 10167 bound_to 10162
  156.7401  130.9339  151.3109 H   0  0  0  0  0  0  0  0  0  0  0  0  # atno 10718 bound_to 10713
  154.0813  135.6590  153.4838 H   0  0  0  0  0  0  0  0  0  0  0  0  # atno 10763 bound_to 10752
  153.0355  135.5180  154.7471 H   0  0  0  0  0  0  0  0  0  0  0  0  # atno 10764 bound_to 10752
  154.6567  135.3009  154.9887 H   0  0  0  0  0  0  0  0  0  0  0  0  # atno 10765 bound_to 10752
  139.9986  134.9487  157.0020 H   0  0  0  0  0  0  0  0  0  0  0  0  # atno 11005 bound_to 11000
  144.9622  139.3967  143.6350 LP  0  0  0  0  0  0  0  0  0  0  0  0  # atno 17320 bound_to 7965
  146.3338  139.8681  142.8845 LP  0  0  0  0  0  0  0  0  0  0  0  0  # atno 17321 bound_to 7965
  140.7677  143.3340  151.2348 LP  0  0  0  0  0  0  0  0  0  0  0  0  # atno 17342 bound_to 10162
  139.6913  143.9687  152.2860 LP  0  0  0  0  0  0  0  0  0  0  0  0  # atno 17343 bound_to 10162
  157.6822  130.9151  150.0296 LP  0  0  0  0  0  0  0  0  0  0  0  0  # atno 17370 bound_to 10713
  156.1470  130.3642  149.9495 LP  0  0  0  0  0  0  0  0  0  0  0  0  # atno 17371 bound_to 10713
  140.4771  134.1327  155.7211 LP  0  0  0  0  0  0  0  0  0  0  0  0  # atno 17394 bound_to 11000
  141.1624  133.8768  157.1811 LP  0  0  0  0  0  0  0  0  0  0  0  0  # atno 17395 bound_to 11000

$$$$
