#       Name:                AV-unprocessed.smi:1430
#       Creating user name   scv26
#       Creation time:       Fri Mar 27 05:48:14 2020


#       File generated by GOLD software.
#

@<TRIPOS>MOLECULE
AV-unprocessed.smi:1430
    54    55     1
SMALL
NO_CHARGES


@<TRIPOS>ATOM
      1 ****        -7.3425   4.9197  -1.8189 C.3            1 S1                 0.0000
      2 ****        -5.9304   5.0979  -1.8271 O.3            1 S1                 0.0000
      3 ****        -5.1312   4.0084  -1.5474 C.ar           1 S1                 0.0000
      4 ****        -3.7327   4.1794  -1.5519 C.ar           1 S1                 0.0000
      5 ****        -2.9092   3.0732  -1.2672 C.ar           1 S1                 0.0000
      6 ****        -3.5135   1.8227  -0.9927 C.ar           1 S1                 0.0000
      7 ****        -2.8017   0.6336  -0.6749 N.am           1 S1                 0.0000
      8 ****        -1.5028   0.3475  -0.8701 C.2            1 S1                 0.0000
      9 ****        -0.6775   1.0932  -1.3966 O.2            1 S1                 0.0000
     10 ****        -1.2082  -0.8824  -0.4254 N.am           1 S1                 0.0000
     11 ****         0.1085  -1.5047  -0.4913 C.3            1 S1                 0.0000
     12 ****         1.0068  -1.0370   0.6690 C.3            1 S1                 0.0000
     13 ****         2.3731  -1.5562   0.6395 N.3            1 S1                 0.0000
     14 ****         2.4310  -2.9988   0.8667 C.3            1 S1                 0.0000
     15 ****         3.8731  -3.5455   0.8748 C.3            1 S1                 0.0000
     16 ****         4.5034  -3.6222  -0.5262 C.3            1 S1                 0.0000
     17 ****         4.6850  -2.7965   1.7807 O.3            1 S1                 0.0000
     18 ****         4.6617  -1.3830   1.5910 C.3            1 S1                 0.0000
     19 ****         5.5194  -0.7411   2.6864 C.3            1 S1                 0.0000
     20 ****         3.2053  -0.8875   1.6315 C.3            1 S1                 0.0000
     21 ****        -4.9224   1.7607  -1.0027 C.ar           1 S1                 0.0000
     22 ****        -5.7174   2.8168  -1.2747 N.ar           1 S1                 0.0000
     23 ****        -7.8264   5.8657  -2.0608 H              1 S1                 0.0000
     24 ****        -7.6997   4.6071  -0.8367 H              1 S1                 0.0000
     25 ****        -7.6564   4.1876  -2.5645 H              1 S1                 0.0000
     26 ****        -3.2983   5.1449  -1.7656 H              1 S1                 0.0000
     27 ****        -1.8402   3.2140  -1.2540 H              1 S1                 0.0000
     28 ****        -3.3630  -0.1117  -0.2892 H              1 S1                 0.0000
     29 ****        -1.9486  -1.4290  -0.0109 H              1 S1                 0.0000
     30 ****        -0.0432  -2.5827  -0.4540 H              1 S1                 0.0000
     31 ****         0.5801  -1.2884  -1.4514 H              1 S1                 0.0000
     32 ****         1.0493   0.0527   0.6386 H              1 S1                 0.0000
     33 ****         0.5372  -1.2908   1.6205 H              1 S1                 0.0000
     34 ****         1.9620  -3.2324   1.8238 H              1 S1                 0.0000
     35 ****         1.8594  -3.5297   0.1065 H              1 S1                 0.0000
     36 ****         3.8415  -4.5636   1.2635 H              1 S1                 0.0000
     37 ****         3.9301  -4.2864  -1.1732 H              1 S1                 0.0000
     38 ****         5.5206  -4.0105  -0.4734 H              1 S1                 0.0000
     39 ****         4.5421  -2.6481  -1.0131 H              1 S1                 0.0000
     40 ****         5.1027  -1.1389   0.6241 H              1 S1                 0.0000
     41 ****         5.5431   0.3438   2.5809 H              1 S1                 0.0000
     42 ****         6.5470  -1.1018   2.6381 H              1 S1                 0.0000
     43 ****         5.1311  -0.9729   3.6785 H              1 S1                 0.0000
     44 ****         3.1894   0.1894   1.4596 H              1 S1                 0.0000
     45 ****         2.7925  -1.0493   2.6287 H              1 S1                 0.0000
     46 ****        -5.4313   0.8323  -0.7885 H              1 S1                 0.0000
     47 ****        -5.7171   5.8028  -1.1506 LP             1 S1                 0.0000
     48 ****        -5.6785   5.4235  -2.7384 LP             1 S1                 0.0000
     49 ****        -0.9556   1.9975  -1.7206 LP             1 S1                 0.0000
     50 ****         0.2713   0.7949  -1.5004 LP             1 S1                 0.0000
     51 ****         2.7208  -1.3705  -0.2795 LP             1 S1                 0.0000
     52 ****         5.6301  -3.1068   1.6781 LP             1 S1                 0.0000
     53 ****         4.3700  -2.9891   2.7100 LP             1 S1                 0.0000
     54 ****        -6.7129   2.7228  -1.2751 LP             1 S1                 0.0000
@<TRIPOS>BOND
    1    1    2 1     
    2    1   23 1     
    3    1   24 1     
    4    1   25 1     
    5    2    3 1     
    6    3   22 ar    
    7    3    4 ar    
    8    4    5 ar    
    9    4   26 1     
   10    5    6 ar    
   11    5   27 1     
   12    6    7 1     
   13    6   21 ar    
   14    7    8 am    
   15    7   28 1     
   16    8    9 2     
   17    8   10 am    
   18   10   11 1     
   19   10   29 1     
   20   11   12 1     
   21   11   30 1     
   22   11   31 1     
   23   12   13 1     
   24   12   32 1     
   25   12   33 1     
   26   13   20 1     
   27   13   14 1     
   28   14   15 1     
   29   14   34 1     
   30   14   35 1     
   31   15   16 1     
   32   15   17 1     
   33   15   36 1     
   34   16   37 1     
   35   16   38 1     
   36   16   39 1     
   37   17   18 1     
   38   18   19 1     
   39   18   20 1     
   40   18   40 1     
   41   19   41 1     
   42   19   42 1     
   43   19   43 1     
   44   20   44 1     
   45   20   45 1     
   46   21   22 ar    
   47   21   46 1     
   48    2   47 1     
   49    2   48 1     
   50    9   49 1     
   51    9   50 1     
   52   13   51 1     
   53   17   52 1     
   54   17   53 1     
   55   22   54 1     
@<TRIPOS>SUBSTRUCTURE
      1 S1             1
@<TRIPOS>SET
LONE_PAIRS      STATIC     ATOMS    <user>   **** ""
8 47 48 49 50 51 52 53 54
DONOR_HYDROGENS      STATIC     ATOMS    <user>   **** ""
2 28 29
ATOM$BLUE        STATIC     ATOMS    COLORGROUP SYSTEM
8 47 48 49 50 51 52 53 54
ATOM$RED        STATIC     ATOMS    COLORGROUP SYSTEM
2 28 29
