AV-unprocessed.smi:3155|AV-procd|sdf|12027|dock7
  -GOLD-   2272017443D 1   1.00000     0.00000
 Structure written by MMmdl.
 37 38  0  0  0  0  0  0  0  0  1 V2000
  151.8497  137.9285  154.9743 C   0  0  0  0  0  0  0  0  0  0  0  0
  150.7397  138.9812  155.1047 C   0  0  2  0  0  0  0  0  0  0  0  0
  149.6851  138.8009  153.9873 C   0  0  0  0  0  0  0  0  0  0  0  0
  148.7393  139.8986  153.8840 N   0  0  0  0  0  0  0  0  0  0  0  0
  147.4476  139.8724  153.4016 C   0  0  0  0  0  0  0  0  0  0  0  0
  146.9447  141.1365  153.5144 C   0  0  0  0  0  0  0  0  0  0  0  0
  148.0110  141.8726  154.1024 C   0  0  0  0  0  0  0  0  0  0  0  0
  149.0800  141.1272  154.3309 N   0  0  0  0  0  0  0  0  0  0  0  0
  151.3826  140.2895  155.0153 N   0  0  0  0  0  0  0  0  0  0  0  0
  151.1315  141.1365  156.1885 C   0  0  0  0  0  0  0  0  0  0  0  0
  152.1130  140.8311  157.3249 C   0  0  0  0  0  0  0  0  0  0  0  0
  152.7773  139.7959  157.2701 O   0  0  0  0  0  0  0  0  0  0  0  0
  152.2187  141.7019  158.3514 N   0  0  0  0  0  0  0  0  0  0  0  0
  153.1076  141.4959  159.4931 C   0  0  0  0  0  0  0  0  0  0  0  0
  152.7134  142.5563  160.5212 C   0  0  0  0  0  0  0  0  0  0  0  0
  152.1096  143.6764  159.6862 C   0  0  0  0  0  0  0  0  0  0  0  0
  151.4802  142.9563  158.4939 C   0  0  0  0  0  0  0  0  0  0  0  0
  151.4427  136.9201  155.0544 H   0  0  0  0  0  0  0  0  0  0  0  0
  152.5959  138.0418  155.7617 H   0  0  0  0  0  0  0  0  0  0  0  0
  152.3631  138.0029  154.0149 H   0  0  0  0  0  0  0  0  0  0  0  0
  150.2797  138.8439  156.0849 H   0  0  0  0  0  0  0  0  0  0  0  0
  150.1730  138.6663  153.0208 H   0  0  0  0  0  0  0  0  0  0  0  0
  149.1088  137.8924  154.1678 H   0  0  0  0  0  0  0  0  0  0  0  0
  147.0009  138.9677  153.0159 H   0  0  0  0  0  0  0  0  0  0  0  0
  145.9633  141.4822  153.2255 H   0  0  0  0  0  0  0  0  0  0  0  0
  148.0383  142.9183  154.3712 H   0  0  0  0  0  0  0  0  0  0  0  0
  151.1113  140.7425  154.1547 H   0  0  0  0  0  0  0  0  0  0  0  0
  151.1845  142.1915  155.9252 H   0  0  0  0  0  0  0  0  0  0  0  0
  150.1184  140.9595  156.5530 H   0  0  0  0  0  0  0  0  0  0  0  0
  153.0190  140.4904  159.9077 H   0  0  0  0  0  0  0  0  0  0  0  0
  154.1394  141.6397  159.1692 H   0  0  0  0  0  0  0  0  0  0  0  0
  151.9537  142.1508  161.1908 H   0  0  0  0  0  0  0  0  0  0  0  0
  153.5541  142.8877  161.1315 H   0  0  0  0  0  0  0  0  0  0  0  0
  151.3921  144.2804  160.2421 H   0  0  0  0  0  0  0  0  0  0  0  0
  152.9031  144.3379  159.3363 H   0  0  0  0  0  0  0  0  0  0  0  0
  151.5341  143.5725  157.5961 H   0  0  0  0  0  0  0  0  0  0  0  0
  150.4316  142.7326  158.6951 H   0  0  0  0  0  0  0  0  0  0  0  0
  1  2  1  0  0  0  0
  1 18  1  0  0  0  0
  1 19  1  0  0  0  0
  1 20  1  0  0  0  0
  2  3  1  0  0  0  0
  2  9  1  0  0  0  0
  2 21  1  0  0  0  0
  3  4  1  0  0  0  0
  3 22  1  0  0  0  0
  3 23  1  0  0  0  0
  4  8  1  0  0  0  0
  4  5  1  0  0  0  0
  5  6  2  0  0  0  0
  5 24  1  0  0  0  0
  6  7  1  0  0  0  0
  6 25  1  0  0  0  0
  7  8  2  0  0  0  0
  7 26  1  0  0  0  0
  9 10  1  0  0  0  0
  9 27  1  0  0  0  0
 10 11  1  0  0  0  0
 10 28  1  0  0  0  0
 10 29  1  0  0  0  0
 11 12  2  0  0  0  0
 11 13  1  0  0  0  0
 13 17  1  0  0  0  0
 13 14  1  0  0  0  0
 14 15  1  0  0  0  0
 14 30  1  0  0  0  0
 14 31  1  0  0  0  0
 15 16  1  0  0  0  0
 15 32  1  0  0  0  0
 15 33  1  0  0  0  0
 16 17  1  0  0  0  0
 16 34  1  0  0  0  0
 16 35  1  0  0  0  0
 17 36  1  0  0  0  0
 17 37  1  0  0  0  0
M  END
> <s_m_source_file>
AV-unprocessed.smi

> <i_m_source_file_index>
3155

> <i_lp_mmshare_version>
43012

> <i_f3d_flags>
0

> <s_epik_input>
bjFbY0hdW2NIXVtjSF1uMVtDSDJdW0NAQEhdKFtDSDNdKVtOSF1bQ0gyXUMoPU8pTjJbQ0gyXVtDSDJdW0NIMl1bQ0gyXTI=

> <s_epik_cmdline>
J2VwaWtfcHl0aG9uJywgJy1waCcsICc3LjAnLCAnLXRuJywgJzgnLCAnLW1hJywgJzIwMCcsICctbWV0YWxfYmluZGluZycsICctaW1hZScsICc8aW5maWxlLm1hZT4nLCAnLW9tYWUnLCAnPG91dGZpbGUubWFlPic=

> <r_lp_tautomer_probability>
1

> <r_epik_Ionization_Penalty>
1.00455

> <r_epik_Ionization_Penalty_Charging>
0

> <r_epik_Ionization_Penalty_Neutral>
1.00455

> <r_epik_State_Penalty>
1.05336

> <r_epik_Charging_Adjusted_Penalty>
1.05336

> <i_epik_Tot_Q>
0

> <i_epik_Tot_abs_Q>
0

> <r_epik_Metal_State_Penalty>
1.05331

> <b_epik_Metal_Only>
0

> <s_lp_Force_Field>
OPLS_2005

> <r_lp_Energy>
30.8586

> <b_lp_Chiralities_Consistent>
1

> <s_lp_Variant>
AV-unprocessed.smi:3155-3

> <Gold.Version>
5.8.1

> <Gold.Id.Protein>
6NUR|6NUR_protein|mol2

> <Gold.PLP.Fitness>
41.1446

> <Gold.PLP.PLP>
-38.0009

> <Gold.PLP.part.hbond>
-2.0000

> <Gold.PLP.part.metal>
0.0000

> <Gold.PLP.part.buried>
-2.4450

> <Gold.PLP.part.nonpolar>
-32.5110

> <Gold.PLP.part.repulsive>
0.1446

> <Gold.PLP.ligand.clash>
0.0000

> <Gold.PLP.ligand.torsion>
1.4605

> <Gold.PLP.Chemscore.Hbond>
1.0000

> <Gold.PLP.Chemscore.CHOScore>
1.0000

> <Gold.PLP.Chemscore.Metal>
0.0000

> <Gold.Chemscore.Hbonds>
donor molecule, donor type, donor heavy atom, donor atom, acceptor molecule, acceptor atom, score
      P1  H  7997  8010       L1    12  0.96
      L1  C     7    26       P1  8028  1.00

> <Gold.PLP.Chemscore.Internal.Correction>
0.0646

> <Gold.Rescore>
     Score         DG    S(hbond)    S(metal)    S(lipo)     H(rot)  DE(clash)    DE(int)     intcor
     11.83     -14.60       0.92        0.00      90.36       1.77       0.15       2.61       ----

> <Gold.Chemscore.Fitness>
11.8347

> <Gold.Chemscore.DG>
-14.6008

> <Gold.Chemscore.ZeroCoef>
-5.4800

> <Gold.Chemscore.Hbond>
0.9215

> <Gold.Chemscore.Metal>
0.0000

> <Gold.Chemscore.Lipo>
90.3626

> <Gold.Chemscore.Internal_Hbond>
0.0000

> <Gold.Chemscore.DEClash>
0.1522

> <Gold.Chemscore.DEInternal>
2.6138

> <Gold.Chemscore.Rot>
1.7693

> <Gold.Chemscore.Internal.Correction>
   9.000000E+99

> <Gold.Chemscore.Hbonds>
donor molecule, donor type, donor heavy atom, donor atom, acceptor molecule, acceptor atom, score
      P1  H  7997  8010       L1    12  0.84

> <Gold.Chemscore.Hbond.Weighted>
-3.0777

> <Gold.Chemscore.Metal.Weighted>
-0.0000

> <Gold.Chemscore.Lipo.Weighted>
-10.5724

> <Gold.Chemscore.Internal_Hbond.Weighted>
0.0000

> <Gold.Chemscore.DEClash.Weighted>
0.1522

> <Gold.Chemscore.DEInternal.Weighted>
2.6138

> <Gold.Chemscore.Rot.Weighted>
4.5294

> <Gold.Chemscore.Internal.Correction.Weighted>
   9.000000E+99

> <Gold.Protein.RotatedTorsions>
[ 6907 6896 6895 6894 ] final  110.42 input  -60.11 | X-H torsion
[ 7974 7965 7964 7962 ] final   -5.82 input  175.53 | X-H torsion
[ 8008 7997 7996 7995 ] final   37.39 input   59.86 | X-H torsion
[ 10167 10162 10161 10158 ] final  156.96 input  -65.29 | X-H torsion
[ 10718 10713 10712 10709 ] final   95.60 input   66.30 | X-H torsion
[ 10763 10752 10751 10750 ] final  -63.62 input  -60.55 | X-H torsion
[ 11005 11000 10999 10996 ] final  -95.39 input  -57.11 | X-H torsion

> <Gold.Protein.ActiveResidues>
 VAL166  LYS551  ARG553  GLY616  TRP617  ASP618  TYR619  PRO620  LYS621  CYS622 
 ASP623  PHE694  ASN695  SER759  ASP760  ASP761  ALA762  ILE779  LEU786  VAL792 
 PHE793  MET794  SER795  GLU796  ALA797  LYS798  CYS799  TRP800  GLU811  SER814 

> <Gold.Protein.RotatedAtoms>
  152.5020  133.8803  159.7342 H   0  0  0  0  0  0  0  0  0  0  0  0  # atno 6907 bound_to 6896
  150.9267  133.6807  159.2826 H   0  0  0  0  0  0  0  0  0  0  0  0  # atno 6908 bound_to 6896
  151.4165  135.0997  159.9653 H   0  0  0  0  0  0  0  0  0  0  0  0  # atno 6909 bound_to 6896
  146.2345  140.2077  142.8335 H   0  0  0  0  0  0  0  0  0  0  0  0  # atno 7974 bound_to 7965
  155.2030  140.3317  155.4340 H   0  0  0  0  0  0  0  0  0  0  0  0  # atno 8008 bound_to 7997
  156.2400  140.1890  156.7065 H   0  0  0  0  0  0  0  0  0  0  0  0  # atno 8009 bound_to 7997
  154.6129  140.0606  156.9502 H   0  0  0  0  0  0  0  0  0  0  0  0  # atno 8010 bound_to 7997
  139.4822  144.4961  151.8237 H   0  0  0  0  0  0  0  0  0  0  0  0  # atno 10167 bound_to 10162
  157.6937  131.0551  150.4364 H   0  0  0  0  0  0  0  0  0  0  0  0  # atno 10718 bound_to 10713
  154.3177  135.6202  153.5494 H   0  0  0  0  0  0  0  0  0  0  0  0  # atno 10763 bound_to 10752
  152.9823  135.5716  154.5105 H   0  0  0  0  0  0  0  0  0  0  0  0  # atno 10764 bound_to 10752
  154.4767  135.2861  155.1578 H   0  0  0  0  0  0  0  0  0  0  0  0  # atno 10765 bound_to 10752
  141.1443  133.8023  157.0429 H   0  0  0  0  0  0  0  0  0  0  0  0  # atno 11005 bound_to 11000
  144.9731  140.8388  143.5443 LP  0  0  0  0  0  0  0  0  0  0  0  0  # atno 17320 bound_to 7965
  145.2061  139.2227  143.5167 LP  0  0  0  0  0  0  0  0  0  0  0  0  # atno 17321 bound_to 7965
  140.4450  144.1934  150.5893 LP  0  0  0  0  0  0  0  0  0  0  0  0  # atno 17342 bound_to 10162
  140.4644  143.2436  151.9175 LP  0  0  0  0  0  0  0  0  0  0  0  0  # atno 17343 bound_to 10162
  156.4726  130.4056  149.6509 LP  0  0  0  0  0  0  0  0  0  0  0  0  # atno 17370 bound_to 10713
  156.3583  130.7468  151.2437 LP  0  0  0  0  0  0  0  0  0  0  0  0  # atno 17371 bound_to 10713
  140.0681  134.9718  157.1420 LP  0  0  0  0  0  0  0  0  0  0  0  0  # atno 17394 bound_to 11000
  140.3750  134.2348  155.7175 LP  0  0  0  0  0  0  0  0  0  0  0  0  # atno 17395 bound_to 11000

$$$$
