#       Name:                AV-unprocessed.smi:1406
#       Creating user name   scv26
#       Creation time:       Fri Mar 27 05:35:23 2020


#       File generated by GOLD software.
#

@<TRIPOS>MOLECULE
AV-unprocessed.smi:1406
    45    47     1
SMALL
NO_CHARGES


@<TRIPOS>ATOM
      1 ****        -3.3693  -2.6302  -0.1043 C.3            1 S1                 0.0000
      2 ****        -2.7525  -1.3675  -0.7396 C.3            1 S1                 0.0000
      3 ****        -1.2328  -1.2730  -0.5274 C.2            1 S1                 0.0000
      4 ****        -0.5716  -2.2734  -0.2470 O.2            1 S1                 0.0000
      5 ****        -0.6892  -0.0529  -0.6630 N.am           1 S1                 0.0000
      6 ****         0.7312   0.2555  -0.5293 C.3            1 S1                 0.0000
      7 ****         1.1570   1.4821  -1.3552 C.3            1 S1                 0.0000
      8 ****         2.1979   2.2175  -0.4878 C.3            1 S1                 0.0000
      9 ****         2.3872   1.3662   0.7020 N.4            1 S1                 1.0000
     10 ****         2.8749   2.0261   1.9326 C.3            1 S1                 0.0000
     11 ****         3.0912   0.9622   3.0274 C.3            1 S1                 0.0000
     12 ****         1.8293   0.1032   3.2473 C.3            1 S1                 0.0000
     13 ****         1.3135  -0.4798   1.9175 C.3            1 S1                 0.0000
     14 ****         1.1146   0.6552   0.8982 C.3            1 S1                 0.0000
     15 ****        -3.0737  -1.2561  -2.1571 N.pl3          1 S1                 0.0000
     16 ****        -3.5207  -0.2106  -2.8566 C.2            1 S1                 0.0000
     17 ****        -3.6656  -0.4512  -4.1520 N.2            1 S1                 0.0000
     18 ****        -3.2553  -1.7537  -4.1894 C.2            1 S1                 0.0000
     19 ****        -2.8804  -2.2813  -3.0241 N.2            1 S1                 0.0000
     20 ****        -3.1667  -2.6711   0.9665 H              1 S1                 0.0000
     21 ****        -2.9787  -3.5461  -0.5498 H              1 S1                 0.0000
     22 ****        -4.4523  -2.6387  -0.2312 H              1 S1                 0.0000
     23 ****        -3.1999  -0.5057  -0.2413 H              1 S1                 0.0000
     24 ****        -1.3036   0.7143  -0.8947 H              1 S1                 0.0000
     25 ****         1.3392  -0.5954  -0.8444 H              1 S1                 0.0000
     26 ****         1.5699   1.1818  -2.3189 H              1 S1                 0.0000
     27 ****         0.3117   2.1428  -1.5536 H              1 S1                 0.0000
     28 ****         3.1436   2.3673  -1.0093 H              1 S1                 0.0000
     29 ****         1.8149   3.1957  -0.1928 H              1 S1                 0.0000
     30 ****         3.8102   2.5466   1.7236 H              1 S1                 0.0000
     31 ****         2.1545   2.7756   2.2639 H              1 S1                 0.0000
     32 ****         3.9204   0.3139   2.7405 H              1 S1                 0.0000
     33 ****         3.3850   1.4411   3.9619 H              1 S1                 0.0000
     34 ****         2.0400  -0.7009   3.9532 H              1 S1                 0.0000
     35 ****         1.0491   0.7160   3.7011 H              1 S1                 0.0000
     36 ****         2.0235  -1.2128   1.5316 H              1 S1                 0.0000
     37 ****         0.3757  -1.0097   2.0858 H              1 S1                 0.0000
     38 ****         0.3762   1.3632   1.2826 H              1 S1                 0.0000
     39 ****        -3.7407   0.7480  -2.4098 H              1 S1                 0.0000
     40 ****        -3.2255  -2.3279  -5.1036 H              1 S1                 0.0000
     41 ****         3.0681   0.6649   0.4470 H              1 S1                 0.0000
     42 ****        -1.0226  -3.1612  -0.1547 LP             1 S1                 0.0000
     43 ****         0.4163  -2.1980  -0.1116 LP             1 S1                 0.0000
     44 ****        -3.9830   0.1468  -4.8880 LP             1 S1                 0.0000
     45 ****        -2.5412  -3.2030  -2.8360 LP             1 S1                 0.0000
@<TRIPOS>BOND
    1    1    2 1     
    2    1   20 1     
    3    1   21 1     
    4    1   22 1     
    5    2    3 1     
    6    2   15 1     
    7    2   23 1     
    8    3    4 2     
    9    3    5 am    
   10    5    6 1     
   11    5   24 1     
   12    6   14 1     
   13    6    7 1     
   14    6   25 1     
   15    7    8 1     
   16    7   26 1     
   17    7   27 1     
   18    8    9 1     
   19    8   28 1     
   20    8   29 1     
   21    9   14 1     
   22    9   10 1     
   23    9   41 1     
   24   10   11 1     
   25   10   30 1     
   26   10   31 1     
   27   11   12 1     
   28   11   32 1     
   29   11   33 1     
   30   12   13 1     
   31   12   34 1     
   32   12   35 1     
   33   13   14 1     
   34   13   36 1     
   35   13   37 1     
   36   14   38 1     
   37   15   19 1     
   38   15   16 1     
   39   16   17 2     
   40   16   39 1     
   41   17   18 1     
   42   18   19 2     
   43   18   40 1     
   44    4   42 1     
   45    4   43 1     
   46   17   44 1     
   47   19   45 1     
@<TRIPOS>SUBSTRUCTURE
      1 S1             1
@<TRIPOS>SET
LONE_PAIRS      STATIC     ATOMS    <user>   **** ""
4 42 43 44 45
DONOR_HYDROGENS      STATIC     ATOMS    <user>   **** ""
2 24 41
ATOM$BLUE        STATIC     ATOMS    COLORGROUP SYSTEM
4 42 43 44 45
ATOM$RED        STATIC     ATOMS    COLORGROUP SYSTEM
2 24 41
