AV-unprocessed.smi:40|AV-procd|sdf|382|dock3
  -GOLD-   2262016243D 1   1.00000     0.00000
 Structure written by MMmdl.
 47 48  0  0  0  0  0  0  0  0  1 V2000
  152.3216  144.5497  158.4930 C   0  0  0  0  0  0  0  0  0  0  0  0
  152.2685  143.6356  159.7242 C   0  0  0  0  0  0  0  0  0  0  0  0
  152.4319  142.1426  159.3963 C   0  0  0  0  0  0  0  0  0  0  0  0
  151.3651  141.6004  158.4279 C   0  0  0  0  0  0  0  0  0  0  0  0
  151.4638  140.0841  158.2130 C   0  0  0  0  0  0  0  0  0  0  0  0
  150.5373  139.6931  157.2142 O   0  0  0  0  0  0  0  0  0  0  0  0
  150.2577  138.3928  157.0101 C   0  0  0  0  0  0  0  0  0  0  0  0
  150.7039  137.4747  157.6978 O   0  0  0  0  0  0  0  0  0  0  0  0
  149.3312  138.2197  155.9042 N   0  0  0  0  0  0  0  0  0  0  0  0
  148.8223  137.0667  155.4066 C   0  0  0  0  0  0  0  0  0  0  0  0
  149.5227  135.9434  155.3759 N   0  0  0  0  0  0  0  0  0  0  0  0
  149.0426  134.7555  154.8951 C   0  0  0  0  0  0  0  0  0  0  0  0
  149.7578  133.7551  154.8610 O   0  0  0  0  0  0  0  0  0  0  0  0
  147.7059  134.7351  154.4340 N   0  0  0  0  0  0  0  0  0  0  0  0
  147.1429  133.4465  153.8824 C   0  0  1  0  0  0  0  0  0  0  0  0
  145.8266  133.6704  153.4663 O   0  0  0  0  0  0  0  0  0  0  0  0
  145.6505  133.2060  152.1324 C   0  0  1  0  0  0  0  0  0  0  0  0
  144.5547  134.0173  151.4312 C   0  0  0  0  0  0  0  0  0  0  0  0
  147.0372  133.3552  151.5092 C   0  0  2  0  0  0  0  0  0  0  0  0
  147.2199  132.5439  150.3644 O   0  0  0  0  0  0  0  0  0  0  0  0
  147.9616  132.9871  152.6642 C   0  0  2  0  0  0  0  0  0  0  0  0
  148.2303  131.5984  152.7288 O   0  0  0  0  0  0  0  0  0  0  0  0
  146.9524  135.8996  154.4614 C   0  0  0  0  0  0  0  0  0  0  0  0
  147.4540  137.0602  154.9359 C   0  0  0  0  0  0  0  0  0  0  0  0
  146.7029  138.1749  154.9595 F   0  0  0  0  0  0  0  0  0  0  0  0
  147.1372  132.7340  154.7092 H   0  0  0  0  0  0  0  0  0  0  0  0
  145.3712  132.1519  152.1771 H   0  0  0  0  0  0  0  0  0  0  0  0
  147.2072  134.3978  151.2365 H   0  0  0  0  0  0  0  0  0  0  0  0
  148.9139  133.5163  152.6065 H   0  0  0  0  0  0  0  0  0  0  0  0
  152.1448  145.5874  158.7761 H   0  0  0  0  0  0  0  0  0  0  0  0
  151.5612  144.2714  157.7630 H   0  0  0  0  0  0  0  0  0  0  0  0
  153.2931  144.5062  158.0011 H   0  0  0  0  0  0  0  0  0  0  0  0
  153.0276  143.9417  160.4449 H   0  0  0  0  0  0  0  0  0  0  0  0
  151.3081  143.7796  160.2201 H   0  0  0  0  0  0  0  0  0  0  0  0
  153.4189  142.0002  158.9552 H   0  0  0  0  0  0  0  0  0  0  0  0
  152.4277  141.5595  160.3177 H   0  0  0  0  0  0  0  0  0  0  0  0
  150.3721  141.8295  158.8143 H   0  0  0  0  0  0  0  0  0  0  0  0
  151.4448  142.1080  157.4659 H   0  0  0  0  0  0  0  0  0  0  0  0
  152.4757  139.8048  157.9165 H   0  0  0  0  0  0  0  0  0  0  0  0
  151.2380  139.5632  159.1444 H   0  0  0  0  0  0  0  0  0  0  0  0
  149.0650  139.0790  155.4459 H   0  0  0  0  0  0  0  0  0  0  0  0
  144.4178  133.6815  150.4031 H   0  0  0  0  0  0  0  0  0  0  0  0
  144.8023  135.0787  151.4066 H   0  0  0  0  0  0  0  0  0  0  0  0
  143.6004  133.9097  151.9470 H   0  0  0  0  0  0  0  0  0  0  0  0
  148.0138  132.0437  150.4760 H   0  0  0  0  0  0  0  0  0  0  0  0
  148.8270  131.3764  152.0306 H   0  0  0  0  0  0  0  0  0  0  0  0
  145.9359  135.8992  154.0967 H   0  0  0  0  0  0  0  0  0  0  0  0
  1  2  1  0  0  0  0
  1 30  1  0  0  0  0
  1 31  1  0  0  0  0
  1 32  1  0  0  0  0
  2  3  1  0  0  0  0
  2 33  1  0  0  0  0
  2 34  1  0  0  0  0
  3  4  1  0  0  0  0
  3 35  1  0  0  0  0
  3 36  1  0  0  0  0
  4  5  1  0  0  0  0
  4 37  1  0  0  0  0
  4 38  1  0  0  0  0
  5  6  1  0  0  0  0
  5 39  1  0  0  0  0
  5 40  1  0  0  0  0
  6  7  1  0  0  0  0
  7  8  2  0  0  0  0
  7  9  1  0  0  0  0
  9 10  1  0  0  0  0
  9 41  1  0  0  0  0
 10 24  1  0  0  0  0
 10 11  2  0  0  0  0
 11 12  1  0  0  0  0
 12 13  2  0  0  0  0
 12 14  1  0  0  0  0
 14 15  1  0  0  0  0
 14 23  1  0  0  0  0
 15 26  1  0  0  0  0
 15 21  1  0  0  0  0
 15 16  1  0  0  0  0
 16 17  1  0  0  0  0
 17 27  1  0  0  0  0
 17 18  1  0  0  0  0
 17 19  1  0  0  0  0
 18 42  1  0  0  0  0
 18 43  1  0  0  0  0
 18 44  1  0  0  0  0
 19 28  1  0  0  0  0
 19 20  1  0  0  0  0
 19 21  1  0  0  0  0
 20 45  1  0  0  0  0
 21 29  1  0  0  0  0
 21 22  1  0  0  0  0
 22 46  1  0  0  0  0
 23 24  2  0  0  0  0
 23 47  1  0  0  0  0
 24 25  1  0  0  0  0
M  END
> <s_m_source_file>
AV-unprocessed.smi

> <i_m_source_file_index>
40

> <i_lp_mmshare_version>
43012

> <i_f3d_flags>
0

> <s_epik_input>
W0NIM11bQ0gyXVtDSDJdW0NIMl1bQ0gyXU9DKD1PKVtOSF1jMW5jKD1PKW4oW2NIXWMxRilbQ0BASF0yT1tDQEhdKFtDSDNdKVtDQEBIXShbT0hdKVtDQEhdMltPSF0=

> <s_epik_cmdline>
J2VwaWtfcHl0aG9uJywgJy1waCcsICc3LjAnLCAnLXRuJywgJzgnLCAnLW1hJywgJzIwMCcsICctbWV0YWxfYmluZGluZycsICctaW1hZScsICc8aW5maWxlLm1hZT4nLCAnLW9tYWUnLCAnPG91dGZpbGUubWFlPic=

> <r_lp_tautomer_probability>
1

> <r_epik_Ionization_Penalty>
2.29506e-06

> <r_epik_Ionization_Penalty_Charging>
8.26867e-09

> <r_epik_Ionization_Penalty_Neutral>
2.2868e-06

> <r_epik_State_Penalty>
-0

> <r_epik_Charging_Adjusted_Penalty>
8.26867e-09

> <i_epik_Tot_Q>
0

> <i_epik_Tot_abs_Q>
0

> <r_epik_Metal_State_Penalty>
-0

> <b_epik_Metal_Only>
0

> <s_epik_Chemistry_Notes>
This compound has an ester and may undergo hydrolysis at high or low pH. This compound contains an acetal/aminal-like group ( X-CH(R)-Y where X, Y are N, S, or O) that may be acid/base labile, releasing an aldehyde.

> <s_lp_Force_Field>
OPLS_2005

> <r_lp_Energy>
35.629

> <b_lp_Chiralities_Consistent>
1

> <s_lp_Variant>
AV-unprocessed.smi:40-16

> <Gold.Version>
5.8.1

> <Gold.Id.Protein>
6NUR|6NUR_protein|mol2

> <Gold.PLP.Fitness>
39.5851

> <Gold.PLP.PLP>
-34.0936

> <Gold.PLP.part.hbond>
-1.9513

> <Gold.PLP.part.metal>
0.0000

> <Gold.PLP.part.buried>
-5.0612

> <Gold.PLP.part.nonpolar>
-27.4360

> <Gold.PLP.part.repulsive>
0.3218

> <Gold.PLP.ligand.clash>
0.0000

> <Gold.PLP.ligand.torsion>
0.3192

> <Gold.PLP.Chemscore.Hbond>
2.0000

> <Gold.PLP.Chemscore.CHOScore>
0.0000

> <Gold.PLP.Chemscore.Metal>
0.0000

> <Gold.Chemscore.Hbonds>
donor molecule, donor type, donor heavy atom, donor atom, acceptor molecule, acceptor atom, score
      L1  H    20    45       P1 10747  1.00
      L1  H    22    46       P1 10747  0.94

> <Gold.PLP.Chemscore.Internal.Correction>
0.1298

> <Gold.Rescore>
     Score         DG    S(hbond)    S(metal)    S(lipo)     H(rot)  DE(clash)    DE(int)     intcor
      9.85     -11.57       2.00        0.00      75.90       3.70       0.03       1.69       ----

> <Gold.Chemscore.Fitness>
9.8539

> <Gold.Chemscore.DG>
-11.5703

> <Gold.Chemscore.ZeroCoef>
-5.4800

> <Gold.Chemscore.Hbond>
1.9972

> <Gold.Chemscore.Metal>
0.0000

> <Gold.Chemscore.Lipo>
75.9029

> <Gold.Chemscore.Internal_Hbond>
0.0000

> <Gold.Chemscore.DEClash>
0.0272

> <Gold.Chemscore.DEInternal>
1.6893

> <Gold.Chemscore.Rot>
3.6957

> <Gold.Chemscore.Internal.Correction>
   9.000000E+99

> <Gold.Chemscore.Hbonds>
donor molecule, donor type, donor heavy atom, donor atom, acceptor molecule, acceptor atom, score
      L1  H    20    45       P1 10747  0.92
      L1  H    22    46       P1 10747  0.80

> <Gold.Chemscore.Hbond.Weighted>
-6.6707

> <Gold.Chemscore.Metal.Weighted>
-0.0000

> <Gold.Chemscore.Lipo.Weighted>
-8.8806

> <Gold.Chemscore.Internal_Hbond.Weighted>
0.0000

> <Gold.Chemscore.DEClash.Weighted>
0.0272

> <Gold.Chemscore.DEInternal.Weighted>
1.6893

> <Gold.Chemscore.Rot.Weighted>
9.4610

> <Gold.Chemscore.Internal.Correction.Weighted>
   9.000000E+99

> <Gold.Protein.RotatedTorsions>
[ 6907 6896 6895 6894 ] final  -28.57 input  -60.11 | X-H torsion
[ 7974 7965 7964 7962 ] final   83.93 input  175.53 | X-H torsion
[ 8008 7997 7996 7995 ] final -114.36 input   59.86 | X-H torsion
[ 10167 10162 10161 10158 ] final  -93.19 input  -65.29 | X-H torsion
[ 10718 10713 10712 10709 ] final  -14.71 input   66.30 | X-H torsion
[ 10763 10752 10751 10750 ] final  -34.28 input  -60.55 | X-H torsion
[ 11005 11000 10999 10996 ] final  -10.72 input  -57.11 | X-H torsion

> <Gold.Protein.ActiveResidues>
 VAL166  LYS551  ARG553  GLY616  TRP617  ASP618  TYR619  PRO620  LYS621  CYS622 
 ASP623  PHE694  ASN695  SER759  ASP760  ASP761  ALA762  ILE779  LEU786  VAL792 
 PHE793  MET794  SER795  GLU796  ALA797  LYS798  CYS799  TRP800  GLU811  SER814 

> <Gold.Protein.RotatedAtoms>
  151.1311  135.0131  159.8582 H   0  0  0  0  0  0  0  0  0  0  0  0  # atno 6907 bound_to 6896
  152.5451  134.1609  159.8567 H   0  0  0  0  0  0  0  0  0  0  0  0  # atno 6908 bound_to 6896
  151.1676  133.4760  159.2627 H   0  0  0  0  0  0  0  0  0  0  0  0  # atno 6909 bound_to 6896
  145.6054  139.2359  143.2222 H   0  0  0  0  0  0  0  0  0  0  0  0  # atno 7974 bound_to 7965
  155.0350  140.0392  157.2488 H   0  0  0  0  0  0  0  0  0  0  0  0  # atno 8008 bound_to 7997
  154.7264  140.2722  155.6471 H   0  0  0  0  0  0  0  0  0  0  0  0  # atno 8009 bound_to 7997
  156.2830  140.2693  156.1951 H   0  0  0  0  0  0  0  0  0  0  0  0  # atno 8010 bound_to 7997
  140.3271  143.3015  151.9982 H   0  0  0  0  0  0  0  0  0  0  0  0  # atno 10167 bound_to 10162
  156.6120  130.4852  149.6198 H   0  0  0  0  0  0  0  0  0  0  0  0  # atno 10718 bound_to 10713
  153.8442  135.6855  153.4799 H   0  0  0  0  0  0  0  0  0  0  0  0  # atno 10763 bound_to 10752
  153.1436  135.4647  154.9530 H   0  0  0  0  0  0  0  0  0  0  0  0  # atno 10764 bound_to 10752
  154.7831  135.3275  154.7892 H   0  0  0  0  0  0  0  0  0  0  0  0  # atno 10765 bound_to 10752
  140.7477  133.8618  155.9019 H   0  0  0  0  0  0  0  0  0  0  0  0  # atno 11005 bound_to 11000
  146.1545  140.6878  142.9306 LP  0  0  0  0  0  0  0  0  0  0  0  0  # atno 17320 bound_to 7965
  144.7292  140.4620  143.6950 LP  0  0  0  0  0  0  0  0  0  0  0  0  # atno 17321 bound_to 7965
  139.4863  144.6264  151.7155 LP  0  0  0  0  0  0  0  0  0  0  0  0  # atno 17342 bound_to 10162
  140.5430  144.0548  150.6096 LP  0  0  0  0  0  0  0  0  0  0  0  0  # atno 17343 bound_to 10162
  156.2382  130.6835  151.1530 LP  0  0  0  0  0  0  0  0  0  0  0  0  # atno 17370 bound_to 10713
  157.7251  131.0655  150.5965 LP  0  0  0  0  0  0  0  0  0  0  0  0  # atno 17371 bound_to 10713
  140.9779  134.1444  157.4520 LP  0  0  0  0  0  0  0  0  0  0  0  0  # atno 17394 bound_to 11000
  139.8793  135.0001  156.5990 LP  0  0  0  0  0  0  0  0  0  0  0  0  # atno 17395 bound_to 11000

$$$$
