AV-unprocessed.smi:3337|AV-procd|sdf|12863|dock6
  -GOLD-   2272019263D 1   1.00000     0.00000
 Structure written by MMmdl.
 46 47  0  0  0  0  0  0  0  0  2 V2000
  140.4773  128.8814  158.9333 C   0  0  0  0  0  0  0  0  0  0  0  0
  141.7160  129.4009  158.1896 C   0  0  2  0  0  0  0  0  0  0  0  0
  142.9542  128.5390  158.4877 C   0  0  0  0  0  0  0  0  0  0  0  0
  144.1864  129.0882  157.7496 C   0  0  2  0  0  0  0  0  0  0  0  0
  145.4401  128.2550  158.0507 C   0  0  0  0  0  0  0  0  0  0  0  0
  144.4001  130.5731  158.1018 C   0  0  0  0  0  0  0  0  0  0  0  0
  143.1914  131.3824  157.7992 N   0  3  2  0  0  0  0  0  0  0  0  0
  143.4245  132.8347  158.0014 C   0  0  0  0  0  0  0  0  0  0  0  0
  143.6943  133.1861  159.4774 C   0  0  0  0  0  0  0  0  0  0  0  0
  145.1141  133.4057  159.7256 N   0  0  0  0  0  0  0  0  0  0  0  0
  145.6730  133.5063  160.9424 C   0  0  0  0  0  0  0  0  0  0  0  0
  145.0267  133.3986  161.9854 O   0  0  0  0  0  0  0  0  0  0  0  0
  147.1866  133.7689  160.9805 C   0  0  2  0  0  0  0  0  0  0  0  0
  147.9728  132.6102  161.6264 C   0  0  0  0  0  0  0  0  0  0  0  0
  147.4611  135.0461  161.6274 N   0  0  0  0  0  0  0  0  0  0  0  0
  147.7825  136.2266  161.0935 C   0  0  0  0  0  0  0  0  0  0  0  0
  147.9223  137.2000  161.9823 N   0  0  0  0  0  0  0  0  0  0  0  0
  147.6455  136.5061  163.1259 C   0  0  0  0  0  0  0  0  0  0  0  0
  147.3516  135.2155  162.9688 N   0  0  0  0  0  0  0  0  0  0  0  0
  142.0002  130.8760  158.5316 C   0  0  0  0  0  0  0  0  0  0  0  0
  140.6177  128.9198  160.0140 H   0  0  0  0  0  0  0  0  0  0  0  0
  140.2610  127.8475  158.6626 H   0  0  0  0  0  0  0  0  0  0  0  0
  139.5956  129.4753  158.6910 H   0  0  0  0  0  0  0  0  0  0  0  0
  141.5073  129.3360  157.1205 H   0  0  0  0  0  0  0  0  0  0  0  0
  143.1434  128.5217  159.5622 H   0  0  0  0  0  0  0  0  0  0  0  0
  142.7696  127.5064  158.1880 H   0  0  0  0  0  0  0  0  0  0  0  0
  143.9967  129.0190  156.6773 H   0  0  0  0  0  0  0  0  0  0  0  0
  145.6938  128.2877  159.1109 H   0  0  0  0  0  0  0  0  0  0  0  0
  146.3003  128.6236  157.4912 H   0  0  0  0  0  0  0  0  0  0  0  0
  145.2930  127.2102  157.7758 H   0  0  0  0  0  0  0  0  0  0  0  0
  144.6549  130.6816  159.1575 H   0  0  0  0  0  0  0  0  0  0  0  0
  145.2464  130.9567  157.5304 H   0  0  0  0  0  0  0  0  0  0  0  0
  144.2425  133.1645  157.3590 H   0  0  0  0  0  0  0  0  0  0  0  0
  142.5421  133.3912  157.6819 H   0  0  0  0  0  0  0  0  0  0  0  0
  143.1593  134.0978  159.7446 H   0  0  0  0  0  0  0  0  0  0  0  0
  143.3331  132.4074  160.1496 H   0  0  0  0  0  0  0  0  0  0  0  0
  145.7118  133.5061  158.9175 H   0  0  0  0  0  0  0  0  0  0  0  0
  147.5303  133.8529  159.9479 H   0  0  0  0  0  0  0  0  0  0  0  0
  147.7941  131.6724  161.0995 H   0  0  0  0  0  0  0  0  0  0  0  0
  147.6991  132.4591  162.6714 H   0  0  0  0  0  0  0  0  0  0  0  0
  149.0452  132.8043  161.5922 H   0  0  0  0  0  0  0  0  0  0  0  0
  147.9136  136.3783  160.0323 H   0  0  0  0  0  0  0  0  0  0  0  0
  147.6544  136.9674  164.1025 H   0  0  0  0  0  0  0  0  0  0  0  0
  141.1238  131.4723  158.2798 H   0  0  0  0  0  0  0  0  0  0  0  0
  142.1588  130.9901  159.6054 H   0  0  0  0  0  0  0  0  0  0  0  0
  143.0089  131.2556  156.8140 H   0  0  0  0  0  0  0  0  0  0  0  0
  1  2  1  0  0  0  0
  1 21  1  0  0  0  0
  1 22  1  0  0  0  0
  1 23  1  0  0  0  0
  2 20  1  0  0  0  0
  2  3  1  0  0  0  0
  2 24  1  0  0  0  0
  3  4  1  0  0  0  0
  3 25  1  0  0  0  0
  3 26  1  0  0  0  0
  4  5  1  0  0  0  0
  4  6  1  0  0  0  0
  4 27  1  0  0  0  0
  5 28  1  0  0  0  0
  5 29  1  0  0  0  0
  5 30  1  0  0  0  0
  6  7  1  0  0  0  0
  6 31  1  0  0  0  0
  6 32  1  0  0  0  0
  7  8  1  0  0  0  0
  7 20  1  0  0  0  0
  7 46  1  0  0  0  0
  8  9  1  0  0  0  0
  8 33  1  0  0  0  0
  8 34  1  0  0  0  0
  9 10  1  0  0  0  0
  9 35  1  0  0  0  0
  9 36  1  0  0  0  0
 10 11  1  0  0  0  0
 10 37  1  0  0  0  0
 11 12  2  0  0  0  0
 11 13  1  0  0  0  0
 13 14  1  0  0  0  0
 13 15  1  0  0  0  0
 13 38  1  0  0  0  0
 14 39  1  0  0  0  0
 14 40  1  0  0  0  0
 14 41  1  0  0  0  0
 15 19  1  0  0  0  0
 15 16  1  0  0  0  0
 16 17  2  0  0  0  0
 16 42  1  0  0  0  0
 17 18  1  0  0  0  0
 18 19  2  0  0  0  0
 18 43  1  0  0  0  0
 20 44  1  0  0  0  0
 20 45  1  0  0  0  0
M  CHG  1   7   1
M  END
> <s_m_source_file>
AV-unprocessed.smi

> <i_m_source_file_index>
3337

> <i_lp_mmshare_version>
43012

> <i_f3d_flags>
0

> <s_epik_input>
W0NIM11bQ0BASF0xW0NIMl1bQ0BASF0oW0NIM10pW0NIMl1OKFtDSDJdMSlbQ0gyXVtDSDJdW05IXUMoPU8pW0NASF0oW0NIM10pbjJbY0hdbltjSF1uMg==

> <s_epik_cmdline>
J2VwaWtfcHl0aG9uJywgJy1waCcsICc3LjAnLCAnLXRuJywgJzgnLCAnLW1hJywgJzIwMCcsICctbWV0YWxfYmluZGluZycsICctaW1hZScsICc8aW5maWxlLm1hZT4nLCAnLW9tYWUnLCAnPG91dGZpbGUubWFlPic=

> <r_lp_tautomer_probability>
1

> <r_epik_Ionization_Penalty>
0.00175613

> <r_epik_Ionization_Penalty_Charging>
0.00174812

> <r_epik_Ionization_Penalty_Neutral>
8.01354e-06

> <r_epik_State_Penalty>
0.00118332

> <r_epik_Charging_Adjusted_Penalty>
0.00293143

> <i_epik_Tot_Q>
1

> <i_epik_Tot_abs_Q>
1

> <r_epik_Metal_State_Penalty>
-0

> <b_epik_Metal_Only>
0

> <s_lp_Force_Field>
OPLS_2005

> <r_lp_Energy>
22.1479

> <b_lp_Chiralities_Consistent>
1

> <s_lp_Variant>
AV-unprocessed.smi:3337-3

> <Gold.Version>
5.8.1

> <Gold.Id.Protein>
6NUR|6NUR_protein|mol2

> <Gold.PLP.Fitness>
39.1277

> <Gold.PLP.PLP>
-30.7376

> <Gold.PLP.part.hbond>
-2.8356

> <Gold.PLP.part.metal>
0.0000

> <Gold.PLP.part.buried>
-1.8976

> <Gold.PLP.part.nonpolar>
-24.9745

> <Gold.PLP.part.repulsive>
0.0629

> <Gold.PLP.ligand.clash>
0.0000

> <Gold.PLP.ligand.torsion>
0.6754

> <Gold.PLP.Chemscore.Hbond>
3.2094

> <Gold.PLP.Chemscore.CHOScore>
0.0000

> <Gold.PLP.Chemscore.Metal>
0.0000

> <Gold.Chemscore.Hbonds>
donor molecule, donor type, donor heavy atom, donor atom, acceptor molecule, acceptor atom, score
      L1  H     7    46       P1 10957  1.80
      P1  H  6931  6943       L1    17  0.99
      P1  H  6934  6947       L1    17  0.29

> <Gold.PLP.Chemscore.Internal.Correction>
0.1128

> <Gold.Rescore>
     Score         DG    S(hbond)    S(metal)    S(lipo)     H(rot)  DE(clash)    DE(int)     intcor
      7.85      -9.56       1.44        0.00      48.70       2.51       1.05       0.67       ----

> <Gold.Chemscore.Fitness>
7.8457

> <Gold.Chemscore.DG>
-9.5647

> <Gold.Chemscore.ZeroCoef>
-5.4800

> <Gold.Chemscore.Hbond>
1.4431

> <Gold.Chemscore.Metal>
0.0000

> <Gold.Chemscore.Lipo>
48.7000

> <Gold.Chemscore.Internal_Hbond>
0.0000

> <Gold.Chemscore.DEClash>
1.0489

> <Gold.Chemscore.DEInternal>
0.6702

> <Gold.Chemscore.Rot>
2.5129

> <Gold.Chemscore.Internal.Correction>
   9.000000E+99

> <Gold.Chemscore.Hbonds>
donor molecule, donor type, donor heavy atom, donor atom, acceptor molecule, acceptor atom, score
      L1  H     7    46       P1 10957  0.17
      P1  H  6931  6943       L1    17  0.89
      P1  H  6934  6947       L1    17  0.15

> <Gold.Chemscore.Hbond.Weighted>
-4.8199

> <Gold.Chemscore.Metal.Weighted>
-0.0000

> <Gold.Chemscore.Lipo.Weighted>
-5.6979

> <Gold.Chemscore.Internal_Hbond.Weighted>
0.0000

> <Gold.Chemscore.DEClash.Weighted>
1.0489

> <Gold.Chemscore.DEInternal.Weighted>
0.6702

> <Gold.Chemscore.Rot.Weighted>
6.4331

> <Gold.Chemscore.Internal.Correction.Weighted>
   9.000000E+99

> <Gold.Protein.RotatedTorsions>
[ 6907 6896 6895 6894 ] final -123.43 input  -60.11 | X-H torsion
[ 7974 7965 7964 7962 ] final  136.61 input  175.53 | X-H torsion
[ 8008 7997 7996 7995 ] final  125.42 input   59.86 | X-H torsion
[ 10167 10162 10161 10158 ] final -102.90 input  -65.29 | X-H torsion
[ 10718 10713 10712 10709 ] final -135.33 input   66.30 | X-H torsion
[ 10763 10752 10751 10750 ] final -141.09 input  -60.55 | X-H torsion
[ 11005 11000 10999 10996 ] final  118.94 input  -57.11 | X-H torsion

> <Gold.Protein.ActiveResidues>
 VAL166  LYS551  ARG553  GLY616  TRP617  ASP618  TYR619  PRO620  LYS621  CYS622 
 ASP623  PHE694  ASN695  SER759  ASP760  ASP761  ALA762  ILE779  LEU786  VAL792 
 PHE793  MET794  SER795  GLU796  ALA797  LYS798  CYS799  TRP800  GLU811  SER814 

> <Gold.Protein.RotatedAtoms>
  150.8670  133.7560  159.2973 H   0  0  0  0  0  0  0  0  0  0  0  0  # atno 6907 bound_to 6896
  151.5184  135.1065  159.9881 H   0  0  0  0  0  0  0  0  0  0  0  0  # atno 6908 bound_to 6896
  152.4668  133.7896  159.6951 H   0  0  0  0  0  0  0  0  0  0  0  0  # atno 6909 bound_to 6896
  144.9548  139.4777  143.5508 H   0  0  0  0  0  0  0  0  0  0  0  0  # atno 7974 bound_to 7965
  156.2833  140.2716  156.1947 H   0  0  0  0  0  0  0  0  0  0  0  0  # atno 8008 bound_to 7997
  155.0422  140.0386  157.2531 H   0  0  0  0  0  0  0  0  0  0  0  0  # atno 8009 bound_to 7997
  154.7264  140.2698  155.6500 H   0  0  0  0  0  0  0  0  0  0  0  0  # atno 8010 bound_to 7997
  140.2258  143.3643  152.0930 H   0  0  0  0  0  0  0  0  0  0  0  0  # atno 10167 bound_to 10162
  156.2650  130.7232  151.1180 H   0  0  0  0  0  0  0  0  0  0  0  0  # atno 10718 bound_to 10713
  154.8557  135.3534  154.5811 H   0  0  0  0  0  0  0  0  0  0  0  0  # atno 10763 bound_to 10752
  153.6422  135.6998  153.5242 H   0  0  0  0  0  0  0  0  0  0  0  0  # atno 10764 bound_to 10752
  153.2962  135.4220  155.1170 H   0  0  0  0  0  0  0  0  0  0  0  0  # atno 10765 bound_to 10752
  139.9128  134.9624  156.7579 H   0  0  0  0  0  0  0  0  0  0  0  0  # atno 11005 bound_to 11000
  146.3333  139.8659  142.8848 LP  0  0  0  0  0  0  0  0  0  0  0  0  # atno 17320 bound_to 7965
  145.2788  141.0132  143.3729 LP  0  0  0  0  0  0  0  0  0  0  0  0  # atno 17321 bound_to 7965
  139.5128  144.6922  151.5729 LP  0  0  0  0  0  0  0  0  0  0  0  0  # atno 17342 bound_to 10162
  140.6222  143.9237  150.6535 LP  0  0  0  0  0  0  0  0  0  0  0  0  # atno 17343 bound_to 10162
  157.7264  131.0646  150.5911 LP  0  0  0  0  0  0  0  0  0  0  0  0  # atno 17370 bound_to 10713
  156.6002  130.4352  149.5900 LP  0  0  0  0  0  0  0  0  0  0  0  0  # atno 17371 bound_to 10713
  140.6721  133.9550  155.7862 LP  0  0  0  0  0  0  0  0  0  0  0  0  # atno 17394 bound_to 11000
  141.0570  134.0402  157.3709 LP  0  0  0  0  0  0  0  0  0  0  0  0  # atno 17395 bound_to 11000

$$$$
