AV-unprocessed.smi:1084|AV-procd|sdf|4717|dock3
  -GOLD-   22720 3243D 1   1.00000     0.00000
 Structure written by MMmdl.
 52 54  0  0  0  0  0  0  0  0  1 V2000
  148.0963  132.8673  153.0933 C   0  0  0  0  0  0  0  0  0  0  0  0
  146.5607  133.0656  153.1674 C   0  0  1  0  0  0  0  0  0  0  0  0
  146.2613  134.3672  153.9675 C   0  0  0  0  0  0  0  0  0  0  0  0
  147.2863  135.3961  153.8105 N   0  0  0  0  0  0  0  0  0  0  0  0
  147.6440  136.2766  154.7559 C   0  0  0  0  0  0  0  0  0  0  0  0
  147.1364  136.3122  155.8765 O   0  0  0  0  0  0  0  0  0  0  0  0
  148.6297  137.0807  154.3221 N   0  0  0  0  0  0  0  0  0  0  0  0
  149.2688  138.1468  155.0106 C   0  0  0  0  0  0  0  0  0  0  0  0
  149.0736  138.2487  156.4008 C   0  0  0  0  0  0  0  0  0  0  0  0
  149.7089  139.2825  157.1142 C   0  0  0  0  0  0  0  0  0  0  0  0
  150.5428  140.1940  156.4182 C   0  0  0  0  0  0  0  0  0  0  0  0
  151.2026  141.2616  157.0707 N   0  0  0  0  0  0  0  0  0  0  0  0
  151.7539  140.9834  158.3975 C   0  0  0  0  0  0  0  0  0  0  0  0
  152.7280  142.0942  158.8251 C   0  0  0  0  0  0  0  0  0  0  0  0
  152.0832  143.3599  158.7420 O   0  0  0  0  0  0  0  0  0  0  0  0
  151.6872  143.6578  157.4084 C   0  0  0  0  0  0  0  0  0  0  0  0
  150.6688  142.6135  156.9202 C   0  0  0  0  0  0  0  0  0  0  0  0
  150.7386  140.0828  155.0818 N   0  0  0  0  0  0  0  0  0  0  0  0
  150.1258  139.0921  154.4005 C   0  0  0  0  0  0  0  0  0  0  0  0
  145.9137  133.0360  151.8348 N   0  0  0  0  0  0  0  0  0  0  0  0
  146.3654  131.9056  151.0148 C   0  0  0  0  0  0  0  0  0  0  0  0
  145.6773  131.8504  149.6398 C   0  0  0  0  0  0  0  0  0  0  0  0
  144.2683  131.7934  149.8119 O   0  0  0  0  0  0  0  0  0  0  0  0
  143.7749  132.9118  150.5357 C   0  0  0  0  0  0  0  0  0  0  0  0
  144.4495  132.9761  151.9171 C   0  0  0  0  0  0  0  0  0  0  0  0
  148.5734  132.9388  154.0698 H   0  0  0  0  0  0  0  0  0  0  0  0
  148.5592  133.6137  152.4473 H   0  0  0  0  0  0  0  0  0  0  0  0
  148.3680  131.8813  152.7188 H   0  0  0  0  0  0  0  0  0  0  0  0
  146.1619  132.2323  153.7480 H   0  0  0  0  0  0  0  0  0  0  0  0
  145.3078  134.7876  153.6468 H   0  0  0  0  0  0  0  0  0  0  0  0
  146.1698  134.1797  155.0365 H   0  0  0  0  0  0  0  0  0  0  0  0
  147.7601  135.4332  152.9199 H   0  0  0  0  0  0  0  0  0  0  0  0
  149.0009  136.8736  153.4065 H   0  0  0  0  0  0  0  0  0  0  0  0
  148.4403  137.5444  156.9203 H   0  0  0  0  0  0  0  0  0  0  0  0
  149.5486  139.3448  158.1797 H   0  0  0  0  0  0  0  0  0  0  0  0
  150.9317  140.9124  159.1106 H   0  0  0  0  0  0  0  0  0  0  0  0
  152.2831  140.0309  158.4245 H   0  0  0  0  0  0  0  0  0  0  0  0
  153.0557  141.9296  159.8516 H   0  0  0  0  0  0  0  0  0  0  0  0
  153.6234  142.0876  158.2014 H   0  0  0  0  0  0  0  0  0  0  0  0
  151.2434  144.6530  157.3834 H   0  0  0  0  0  0  0  0  0  0  0  0
  152.5607  143.6835  156.7550 H   0  0  0  0  0  0  0  0  0  0  0  0
  150.4387  142.8178  155.8742 H   0  0  0  0  0  0  0  0  0  0  0  0
  149.7410  142.6993  157.4870 H   0  0  0  0  0  0  0  0  0  0  0  0
  150.3574  139.0602  153.3475 H   0  0  0  0  0  0  0  0  0  0  0  0
  147.4365  131.9678  150.8313 H   0  0  0  0  0  0  0  0  0  0  0  0
  146.1879  130.9691  151.5458 H   0  0  0  0  0  0  0  0  0  0  0  0
  145.9444  132.7208  149.0385 H   0  0  0  0  0  0  0  0  0  0  0  0
  146.0039  130.9688  149.0881 H   0  0  0  0  0  0  0  0  0  0  0  0
  143.9579  133.8291  149.9736 H   0  0  0  0  0  0  0  0  0  0  0  0
  142.6948  132.8151  150.6465 H   0  0  0  0  0  0  0  0  0  0  0  0
  144.1472  132.1109  152.5092 H   0  0  0  0  0  0  0  0  0  0  0  0
  144.0535  133.8571  152.4175 H   0  0  0  0  0  0  0  0  0  0  0  0
  1  2  1  0  0  0  0
  1 26  1  0  0  0  0
  1 27  1  0  0  0  0
  1 28  1  0  0  0  0
  2  3  1  0  0  0  0
  2 20  1  0  0  0  0
  2 29  1  0  0  0  0
  3  4  1  0  0  0  0
  3 30  1  0  0  0  0
  3 31  1  0  0  0  0
  4  5  1  0  0  0  0
  4 32  1  0  0  0  0
  5  6  2  0  0  0  0
  5  7  1  0  0  0  0
  7  8  1  0  0  0  0
  7 33  1  0  0  0  0
  8 19  1  0  0  0  0
  8  9  2  0  0  0  0
  9 10  1  0  0  0  0
  9 34  1  0  0  0  0
 10 11  2  0  0  0  0
 10 35  1  0  0  0  0
 11 12  1  0  0  0  0
 11 18  1  0  0  0  0
 12 17  1  0  0  0  0
 12 13  1  0  0  0  0
 13 14  1  0  0  0  0
 13 36  1  0  0  0  0
 13 37  1  0  0  0  0
 14 15  1  0  0  0  0
 14 38  1  0  0  0  0
 14 39  1  0  0  0  0
 15 16  1  0  0  0  0
 16 17  1  0  0  0  0
 16 40  1  0  0  0  0
 16 41  1  0  0  0  0
 17 42  1  0  0  0  0
 17 43  1  0  0  0  0
 18 19  2  0  0  0  0
 19 44  1  0  0  0  0
 20 25  1  0  0  0  0
 20 21  1  0  0  0  0
 21 22  1  0  0  0  0
 21 45  1  0  0  0  0
 21 46  1  0  0  0  0
 22 23  1  0  0  0  0
 22 47  1  0  0  0  0
 22 48  1  0  0  0  0
 23 24  1  0  0  0  0
 24 25  1  0  0  0  0
 24 49  1  0  0  0  0
 24 50  1  0  0  0  0
 25 51  1  0  0  0  0
 25 52  1  0  0  0  0
M  END
> <s_m_source_file>
AV-unprocessed.smi

> <i_m_source_file_index>
1084

> <i_lp_mmshare_version>
43012

> <i_f3d_flags>
0

> <s_epik_input>
W0NIMl0xW0NIMl1PW0NIMl1bQ0gyXU4xW0NASF0oW0NIM10pW0NIMl1bTkhdQyg9TylbTkhdYzJbY0hdW2NIXWMobltjSF0yKU4zW0NIMl1bQ0gyXU9bQ0gyXVtDSDJdMw==

> <s_epik_cmdline>
J2VwaWtfcHl0aG9uJywgJy1waCcsICc3LjAnLCAnLXRuJywgJzgnLCAnLW1hJywgJzIwMCcsICctbWV0YWxfYmluZGluZycsICctaW1hZScsICc8aW5maWxlLm1hZT4nLCAnLW9tYWUnLCAnPG91dGZpbGUubWFlPic=

> <r_lp_tautomer_probability>
1

> <r_epik_Ionization_Penalty>
0.268053

> <r_epik_Ionization_Penalty_Charging>
0

> <r_epik_Ionization_Penalty_Neutral>
0.268053

> <r_epik_State_Penalty>
0.269834

> <r_epik_Charging_Adjusted_Penalty>
0.269834

> <i_epik_Tot_Q>
0

> <i_epik_Tot_abs_Q>
0

> <r_epik_Metal_State_Penalty>
0.268436

> <b_epik_Metal_Only>
0

> <s_lp_Force_Field>
OPLS_2005

> <r_lp_Energy>
45.5603

> <b_lp_Chiralities_Consistent>
1

> <s_lp_Variant>
AV-unprocessed.smi:1084-2

> <Gold.Version>
5.8.1

> <Gold.Id.Protein>
6NUR|6NUR_protein|mol2

> <Gold.PLP.Fitness>
44.9697

> <Gold.PLP.PLP>
-34.5591

> <Gold.PLP.part.hbond>
-4.0000

> <Gold.PLP.part.metal>
0.0000

> <Gold.PLP.part.buried>
-3.8163

> <Gold.PLP.part.nonpolar>
-27.8149

> <Gold.PLP.part.repulsive>
0.4017

> <Gold.PLP.ligand.clash>
0.0000

> <Gold.PLP.ligand.torsion>
1.2295

> <Gold.PLP.Chemscore.Hbond>
3.1118

> <Gold.PLP.Chemscore.CHOScore>
1.0000

> <Gold.PLP.Chemscore.Metal>
0.0000

> <Gold.Chemscore.Hbonds>
donor molecule, donor type, donor heavy atom, donor atom, acceptor molecule, acceptor atom, score
      L1  H     4    32       P1  7948  0.99
      L1  H     7    33       P1  7948  1.00
      P1  H  7989  7998       L1    18  0.80
      P1  H 10785 10796       L1    23  0.31
      L1  C    19    44       P1  7957  1.00

> <Gold.PLP.Chemscore.Internal.Correction>
0.5342

> <Gold.Rescore>
     Score         DG    S(hbond)    S(metal)    S(lipo)     H(rot)  DE(clash)    DE(int)     intcor
     18.47     -21.27       2.57        0.00      97.01       1.62       0.19       2.61       ----

> <Gold.Chemscore.Fitness>
18.4669

> <Gold.Chemscore.DG>
-21.2720

> <Gold.Chemscore.ZeroCoef>
-5.4800

> <Gold.Chemscore.Hbond>
2.5724

> <Gold.Chemscore.Metal>
0.0000

> <Gold.Chemscore.Lipo>
97.0110

> <Gold.Chemscore.Internal_Hbond>
0.0000

> <Gold.Chemscore.DEClash>
0.1902

> <Gold.Chemscore.DEInternal>
2.6149

> <Gold.Chemscore.Rot>
1.6211

> <Gold.Chemscore.Internal.Correction>
   9.000000E+99

> <Gold.Chemscore.Hbonds>
donor molecule, donor type, donor heavy atom, donor atom, acceptor molecule, acceptor atom, score
      L1  H     4    32       P1  7948  0.94
      L1  H     7    33       P1  7948  0.98
      P1  H  7989  7998       L1    18  0.11
      P1  H 10785 10796       L1    23  0.30

> <Gold.Chemscore.Hbond.Weighted>
-8.5918

> <Gold.Chemscore.Metal.Weighted>
-0.0000

> <Gold.Chemscore.Lipo.Weighted>
-11.3503

> <Gold.Chemscore.Internal_Hbond.Weighted>
0.0000

> <Gold.Chemscore.DEClash.Weighted>
0.1902

> <Gold.Chemscore.DEInternal.Weighted>
2.6149

> <Gold.Chemscore.Rot.Weighted>
4.1501

> <Gold.Chemscore.Internal.Correction.Weighted>
   9.000000E+99

> <Gold.Protein.RotatedTorsions>
[ 6907 6896 6895 6894 ] final -110.99 input  -60.11 | X-H torsion
[ 7974 7965 7964 7962 ] final  -80.40 input  175.53 | X-H torsion
[ 8008 7997 7996 7995 ] final   92.43 input   59.86 | X-H torsion
[ 10167 10162 10161 10158 ] final   68.55 input  -65.29 | X-H torsion
[ 10718 10713 10712 10709 ] final  167.69 input   66.30 | X-H torsion
[ 10763 10752 10751 10750 ] final -179.91 input  -60.55 | X-H torsion
[ 11005 11000 10999 10996 ] final  172.48 input  -57.11 | X-H torsion

> <Gold.Protein.ActiveResidues>
 VAL166  LYS551  ARG553  GLY616  TRP617  ASP618  TYR619  PRO620  LYS621  CYS622 
 ASP623  PHE694  ASN695  SER759  ASP760  ASP761  ALA762  ILE779  LEU786  VAL792 
 PHE793  MET794  SER795  GLU796  ALA797  LYS798  CYS799  TRP800  GLU811  SER814 

> <Gold.Protein.RotatedAtoms>
  150.7661  133.9301  159.3424 H   0  0  0  0  0  0  0  0  0  0  0  0  # atno 6907 bound_to 6896
  151.7198  135.0894  160.0291 H   0  0  0  0  0  0  0  0  0  0  0  0  # atno 6908 bound_to 6896
  152.3657  133.6315  159.6084 H   0  0  0  0  0  0  0  0  0  0  0  0  # atno 6909 bound_to 6896
  145.5604  140.9483  143.1450 H   0  0  0  0  0  0  0  0  0  0  0  0  # atno 7974 bound_to 7965
  156.0353  140.3325  155.7184 H   0  0  0  0  0  0  0  0  0  0  0  0  # atno 8008 bound_to 7997
  155.5825  140.0638  157.2797 H   0  0  0  0  0  0  0  0  0  0  0  0  # atno 8009 bound_to 7997
  154.4370  140.1841  156.0979 H   0  0  0  0  0  0  0  0  0  0  0  0  # atno 8010 bound_to 7997
  140.0775  144.5100  150.7185 H   0  0  0  0  0  0  0  0  0  0  0  0  # atno 10167 bound_to 10162
  157.0478  131.0305  151.2691 H   0  0  0  0  0  0  0  0  0  0  0  0  # atno 10718 bound_to 10713
  154.5290  135.2798  155.1197 H   0  0  0  0  0  0  0  0  0  0  0  0  # atno 10763 bound_to 10752
  154.2724  135.6301  153.5319 H   0  0  0  0  0  0  0  0  0  0  0  0  # atno 10764 bound_to 10752
  152.9953  135.5631  154.5798 H   0  0  0  0  0  0  0  0  0  0  0  0  # atno 10765 bound_to 10752
  140.3301  134.7364  157.4128 H   0  0  0  0  0  0  0  0  0  0  0  0  # atno 11005 bound_to 11000
  144.7486  139.7254  143.7282 LP  0  0  0  0  0  0  0  0  0  0  0  0  # atno 17320 bound_to 7965
  146.1855  139.5068  142.9839 LP  0  0  0  0  0  0  0  0  0  0  0  0  # atno 17321 bound_to 7965
  140.7095  143.2493  151.4626 LP  0  0  0  0  0  0  0  0  0  0  0  0  # atno 17342 bound_to 10162
  139.5799  144.1733  152.1954 LP  0  0  0  0  0  0  0  0  0  0  0  0  # atno 17343 bound_to 10162
  157.5054  130.7905  149.7648 LP  0  0  0  0  0  0  0  0  0  0  0  0  # atno 17370 bound_to 10713
  156.0017  130.3876  150.2581 LP  0  0  0  0  0  0  0  0  0  0  0  0  # atno 17371 bound_to 10713
  140.0868  134.5656  155.8484 LP  0  0  0  0  0  0  0  0  0  0  0  0  # atno 17394 bound_to 11000
  141.2065  133.6656  156.6248 LP  0  0  0  0  0  0  0  0  0  0  0  0  # atno 17395 bound_to 11000

$$$$
