AV-unprocessed.smi:1214|AV-procd|sdf|5092|dock7
  -GOLD-   22720 4143D 1   1.00000     0.00000
 Structure written by MMmdl.
 33 34  0  0  0  0  0  0  0  0  1 V2000
  147.6526  132.9406  152.3373 C   0  0  0  0  0  0  0  0  0  0  0  0
  146.3867  133.0246  151.4994 C   0  0  0  0  0  0  0  0  0  0  0  0
  145.7926  131.8338  151.0299 C   0  0  0  0  0  0  0  0  0  0  0  0
  144.6224  131.9098  150.2558 C   0  0  0  0  0  0  0  0  0  0  0  0
  144.0924  133.1817  149.9832 C   0  0  0  0  0  0  0  0  0  0  0  0
  144.6541  134.3244  150.4279 N   0  0  0  0  0  0  0  0  0  0  0  0
  145.7882  134.2718  151.1732 C   0  0  0  0  0  0  0  0  0  0  0  0
  146.4368  135.4317  151.6995 N   0  0  0  0  0  0  0  0  0  0  0  0
  145.9439  136.5728  152.2267 C   0  0  0  0  0  0  0  0  0  0  0  0
  144.7317  136.7504  152.3345 O   0  0  0  0  0  0  0  0  0  0  0  0
  146.8484  137.4781  152.6341 N   0  0  0  0  0  0  0  0  0  0  0  0
  146.5409  138.7683  153.2405 C   0  0  2  0  0  0  0  0  0  0  0  0
  147.1570  139.9394  152.4491 C   0  0  0  0  0  0  0  0  0  0  0  0
  147.1289  141.1964  153.3276 C   0  0  0  0  0  0  0  0  0  0  0  0
  147.2637  140.6126  155.0599 S   0  0  0  0  0  0  0  0  0  0  0  0
  148.6242  140.8599  155.5609 O   0  0  0  0  0  0  0  0  0  0  0  0
  146.0856  141.0734  155.8101 O   0  0  0  0  0  0  0  0  0  0  0  0
  147.0810  138.8310  154.6753 C   0  0  0  0  0  0  0  0  0  0  0  0
  147.9686  131.9065  152.4779 H   0  0  0  0  0  0  0  0  0  0  0  0
  147.4888  133.3773  153.3229 H   0  0  0  0  0  0  0  0  0  0  0  0
  148.4681  133.4767  151.8510 H   0  0  0  0  0  0  0  0  0  0  0  0
  146.2256  130.8713  151.2594 H   0  0  0  0  0  0  0  0  0  0  0  0
  144.1435  131.0168  149.8824 H   0  0  0  0  0  0  0  0  0  0  0  0
  143.1935  133.2863  149.3937 H   0  0  0  0  0  0  0  0  0  0  0  0
  147.4446  135.3767  151.7000 H   0  0  0  0  0  0  0  0  0  0  0  0
  147.8251  137.2533  152.5054 H   0  0  0  0  0  0  0  0  0  0  0  0
  145.4590  138.9083  153.2823 H   0  0  0  0  0  0  0  0  0  0  0  0
  148.1955  139.7034  152.2122 H   0  0  0  0  0  0  0  0  0  0  0  0
  146.6451  140.1042  151.5006 H   0  0  0  0  0  0  0  0  0  0  0  0
  147.9360  141.8925  153.0997 H   0  0  0  0  0  0  0  0  0  0  0  0
  146.1779  141.7188  153.2235 H   0  0  0  0  0  0  0  0  0  0  0  0
  146.4220  138.3547  155.4014 H   0  0  0  0  0  0  0  0  0  0  0  0
  148.0686  138.3738  154.7473 H   0  0  0  0  0  0  0  0  0  0  0  0
  1  2  1  0  0  0  0
  1 19  1  0  0  0  0
  1 20  1  0  0  0  0
  1 21  1  0  0  0  0
  2  7  1  0  0  0  0
  2  3  2  0  0  0  0
  3  4  1  0  0  0  0
  3 22  1  0  0  0  0
  4  5  2  0  0  0  0
  4 23  1  0  0  0  0
  5  6  1  0  0  0  0
  5 24  1  0  0  0  0
  6  7  2  0  0  0  0
  7  8  1  0  0  0  0
  8  9  1  0  0  0  0
  8 25  1  0  0  0  0
  9 10  2  0  0  0  0
  9 11  1  0  0  0  0
 11 12  1  0  0  0  0
 11 26  1  0  0  0  0
 12 18  1  0  0  0  0
 12 13  1  0  0  0  0
 12 27  1  0  0  0  0
 13 14  1  0  0  0  0
 13 28  1  0  0  0  0
 13 29  1  0  0  0  0
 14 15  1  0  0  0  0
 14 30  1  0  0  0  0
 14 31  1  0  0  0  0
 15 16  2  0  0  0  0
 15 17  2  0  0  0  0
 15 18  1  0  0  0  0
 18 32  1  0  0  0  0
 18 33  1  0  0  0  0
M  END
> <s_m_source_file>
AV-unprocessed.smi

> <i_m_source_file_index>
1214

> <i_lp_mmshare_version>
43012

> <i_f3d_flags>
0

> <s_epik_input>
W0NIM11jMVtjSF1bY0hdW2NIXW5jMVtOSF1DKD1PKVtOSF1bQ0BASF0oW0NIMl0yKVtDSDJdW0NIMl1TMig9Tyk9Tw==

> <s_epik_cmdline>
J2VwaWtfcHl0aG9uJywgJy1waCcsICc3LjAnLCAnLXRuJywgJzgnLCAnLW1hJywgJzIwMCcsICctbWV0YWxfYmluZGluZycsICctaW1hZScsICc8aW5maWxlLm1hZT4nLCAnLW9tYWUnLCAnPG91dGZpbGUubWFlPic=

> <r_lp_tautomer_probability>
1

> <r_epik_Ionization_Penalty>
4.18367e-05

> <r_epik_Ionization_Penalty_Charging>
0

> <r_epik_Ionization_Penalty_Neutral>
4.18367e-05

> <r_epik_State_Penalty>
-0

> <r_epik_Charging_Adjusted_Penalty>
0

> <i_epik_Tot_Q>
0

> <i_epik_Tot_abs_Q>
0

> <r_epik_Metal_State_Penalty>
-0

> <b_epik_Metal_Only>
0

> <s_lp_Force_Field>
OPLS_2005

> <r_lp_Energy>
8.88601

> <b_lp_Chiralities_Consistent>
1

> <s_lp_Variant>
AV-unprocessed.smi:1214-1

> <Gold.Version>
5.8.1

> <Gold.Id.Protein>
6NUR|6NUR_protein|mol2

> <Gold.PLP.Fitness>
34.4740

> <Gold.PLP.PLP>
-26.1906

> <Gold.PLP.part.hbond>
-2.0000

> <Gold.PLP.part.metal>
0.0000

> <Gold.PLP.part.buried>
-2.2411

> <Gold.PLP.part.nonpolar>
-22.8888

> <Gold.PLP.part.repulsive>
0.6598

> <Gold.PLP.ligand.clash>
0.0000

> <Gold.PLP.ligand.torsion>
0.3105

> <Gold.PLP.Chemscore.Hbond>
1.9680

> <Gold.PLP.Chemscore.CHOScore>
1.0000

> <Gold.PLP.Chemscore.Metal>
0.0000

> <Gold.Chemscore.Hbonds>
donor molecule, donor type, donor heavy atom, donor atom, acceptor molecule, acceptor atom, score
      L1  H     8    25       P1  7948  0.96
      L1  H    11    26       P1  7948  0.96
      L1  C     5    24       P1 10186  1.00

> <Gold.PLP.Chemscore.Internal.Correction>
0.0003

> <Gold.Rescore>
     Score         DG    S(hbond)    S(metal)    S(lipo)     H(rot)  DE(clash)    DE(int)     intcor
     16.06     -17.01       1.84        0.00      67.77       1.00       0.56       0.39       ----

> <Gold.Chemscore.Fitness>
16.0625

> <Gold.Chemscore.DG>
-17.0104

> <Gold.Chemscore.ZeroCoef>
-5.4800

> <Gold.Chemscore.Hbond>
1.8447

> <Gold.Chemscore.Metal>
0.0000

> <Gold.Chemscore.Lipo>
67.7702

> <Gold.Chemscore.Internal_Hbond>
0.0000

> <Gold.Chemscore.DEClash>
0.5609

> <Gold.Chemscore.DEInternal>
0.3870

> <Gold.Chemscore.Rot>
1.0000

> <Gold.Chemscore.Internal.Correction>
   9.000000E+99

> <Gold.Chemscore.Hbonds>
donor molecule, donor type, donor heavy atom, donor atom, acceptor molecule, acceptor atom, score
      L1  H     8    25       P1  7948  0.88
      L1  H    11    26       P1  7948  0.92

> <Gold.Chemscore.Hbond.Weighted>
-6.1613

> <Gold.Chemscore.Metal.Weighted>
-0.0000

> <Gold.Chemscore.Lipo.Weighted>
-7.9291

> <Gold.Chemscore.Internal_Hbond.Weighted>
0.0000

> <Gold.Chemscore.DEClash.Weighted>
0.5609

> <Gold.Chemscore.DEInternal.Weighted>
0.3870

> <Gold.Chemscore.Rot.Weighted>
2.5600

> <Gold.Chemscore.Internal.Correction.Weighted>
   9.000000E+99

> <Gold.Protein.RotatedTorsions>
[ 6907 6896 6895 6894 ] final   30.57 input  -60.11 | X-H torsion
[ 7974 7965 7964 7962 ] final  -71.62 input  175.53 | X-H torsion
[ 8008 7997 7996 7995 ] final  -55.04 input   59.86 | X-H torsion
[ 10167 10162 10161 10158 ] final  160.90 input  -65.29 | X-H torsion
[ 10718 10713 10712 10709 ] final   55.60 input   66.30 | X-H torsion
[ 10763 10752 10751 10750 ] final -130.50 input  -60.55 | X-H torsion
[ 11005 11000 10999 10996 ] final -176.49 input  -57.11 | X-H torsion

> <Gold.Protein.ActiveResidues>
 VAL166  LYS551  ARG553  GLY616  TRP617  ASP618  TYR619  PRO620  LYS621  CYS622 
 ASP623  PHE694  ASN695  SER759  ASP760  ASP761  ALA762  ILE779  LEU786  VAL792 
 PHE793  MET794  SER795  GLU796  ALA797  LYS798  CYS799  TRP800  GLU811  SER814 

> <Gold.Protein.RotatedAtoms>
  152.0479  134.9672  160.0574 H   0  0  0  0  0  0  0  0  0  0  0  0  # atno 6907 bound_to 6896
  152.1084  133.4283  159.4628 H   0  0  0  0  0  0  0  0  0  0  0  0  # atno 6908 bound_to 6896
  150.6842  134.2596  159.4587 H   0  0  0  0  0  0  0  0  0  0  0  0  # atno 6909 bound_to 6896
  145.6757  140.9205  143.0859 H   0  0  0  0  0  0  0  0  0  0  0  0  # atno 7974 bound_to 7965
  154.4182  140.1162  156.5413 H   0  0  0  0  0  0  0  0  0  0  0  0  # atno 8008 bound_to 7997
  155.6505  140.3496  155.4727 H   0  0  0  0  0  0  0  0  0  0  0  0  # atno 8009 bound_to 7997
  155.9796  140.1157  157.0728 H   0  0  0  0  0  0  0  0  0  0  0  0  # atno 8010 bound_to 7997
  139.4844  144.4589  151.8732 H   0  0  0  0  0  0  0  0  0  0  0  0  # atno 10167 bound_to 10162
  157.5359  130.8663  149.8752 H   0  0  0  0  0  0  0  0  0  0  0  0  # atno 10718 bound_to 10713
  154.8755  135.3860  154.4093 H   0  0  0  0  0  0  0  0  0  0  0  0  # atno 10763 bound_to 10752
  153.4809  135.7030  153.5944 H   0  0  0  0  0  0  0  0  0  0  0  0  # atno 10764 bound_to 10752
  153.4360  135.3867  155.2167 H   0  0  0  0  0  0  0  0  0  0  0  0  # atno 10765 bound_to 10752
  140.4515  134.6339  157.4803 H   0  0  0  0  0  0  0  0  0  0  0  0  # atno 11005 bound_to 11000
  144.7042  139.8631  143.7435 LP  0  0  0  0  0  0  0  0  0  0  0  0  # atno 17320 bound_to 7965
  146.1007  139.4003  143.0348 LP  0  0  0  0  0  0  0  0  0  0  0  0  # atno 17321 bound_to 7965
  140.4050  144.2444  150.5891 LP  0  0  0  0  0  0  0  0  0  0  0  0  # atno 17342 bound_to 10162
  140.5021  143.2315  151.8663 LP  0  0  0  0  0  0  0  0  0  0  0  0  # atno 17343 bound_to 10162
  156.0458  130.3728  150.1322 LP  0  0  0  0  0  0  0  0  0  0  0  0  # atno 17370 bound_to 10713
  156.9504  130.9773  151.3499 LP  0  0  0  0  0  0  0  0  0  0  0  0  # atno 17371 bound_to 10713
  140.0004  134.6846  155.9540 LP  0  0  0  0  0  0  0  0  0  0  0  0  # atno 17394 bound_to 11000
  141.1662  133.6537  156.4488 LP  0  0  0  0  0  0  0  0  0  0  0  0  # atno 17395 bound_to 11000

$$$$
