AV-unprocessed.smi:1407|AV-procd|sdf|5725|dock2
  -GOLD-   22720 5353D 1   1.00000     0.00000
 Structure written by MMmdl.
 50 51  0  0  0  0  0  0  0  0  2 V2000
  149.4430  135.2802  155.4146 C   0  0  0  0  0  0  0  0  0  0  0  0
  148.6805  136.3527  154.7202 N   0  3  0  0  0  0  0  0  0  0  0  0
  147.2429  135.9724  154.6305 C   0  0  0  0  0  0  0  0  0  0  0  0
  148.9690  137.7680  155.1743 C   0  0  0  0  0  0  0  0  0  0  0  0
  148.1981  138.0129  156.5150 C   0  0  0  0  0  0  0  0  0  0  0  0
  148.7059  137.2098  157.6257 N   0  0  0  0  0  0  0  0  0  0  0  0
  148.1925  137.1250  158.8639 C   0  0  0  0  0  0  0  0  0  0  0  0
  147.1816  137.7337  159.2100 O   0  0  0  0  0  0  0  0  0  0  0  0
  148.9255  136.2441  159.8904 C   0  0  0  0  0  0  0  0  0  0  0  0
  148.0410  135.4335  160.7474 N   0  0  0  0  0  0  0  0  0  0  0  0
  148.0034  134.0479  160.4925 C   0  0  0  0  0  0  0  0  0  0  0  0
  147.2165  133.2177  161.1948 C   0  0  0  0  0  0  0  0  0  0  0  0
  146.3949  133.7787  162.2410 C   0  0  0  0  0  0  0  0  0  0  0  0
  146.4215  135.1028  162.4918 C   0  0  0  0  0  0  0  0  0  0  0  0
  147.2720  136.0154  161.7190 C   0  0  0  0  0  0  0  0  0  0  0  0
  147.2833  137.2291  161.9234 O   0  0  0  0  0  0  0  0  0  0  0  0
  150.5062  137.9242  155.4339 C   0  0  0  0  0  0  0  0  0  0  0  0
  151.2099  139.2492  155.0822 C   0  0  0  0  0  0  0  0  0  0  0  0
  150.5534  140.5365  155.5955 C   0  0  0  0  0  0  0  0  0  0  0  0
  149.5186  141.0924  154.6103 C   0  0  0  0  0  0  0  0  0  0  0  0
  148.2393  140.2574  154.4872 C   0  0  0  0  0  0  0  0  0  0  0  0
  148.4429  138.7757  154.0887 C   0  0  0  0  0  0  0  0  0  0  0  0
  149.2756  135.3004  156.4915 H   0  0  0  0  0  0  0  0  0  0  0  0
  150.5142  135.3467  155.2295 H   0  0  0  0  0  0  0  0  0  0  0  0
  149.1388  134.2972  155.0526 H   0  0  0  0  0  0  0  0  0  0  0  0
  146.7977  135.8221  155.6137 H   0  0  0  0  0  0  0  0  0  0  0  0
  147.1460  135.0314  154.0883 H   0  0  0  0  0  0  0  0  0  0  0  0
  146.6324  136.6942  154.0942 H   0  0  0  0  0  0  0  0  0  0  0  0
  148.1725  139.0641  156.7969 H   0  0  0  0  0  0  0  0  0  0  0  0
  147.1456  137.7635  156.4032 H   0  0  0  0  0  0  0  0  0  0  0  0
  149.5362  136.6668  157.4349 H   0  0  0  0  0  0  0  0  0  0  0  0
  149.6096  135.5907  159.3467 H   0  0  0  0  0  0  0  0  0  0  0  0
  149.5713  136.8828  160.4954 H   0  0  0  0  0  0  0  0  0  0  0  0
  148.6446  133.7111  159.6907 H   0  0  0  0  0  0  0  0  0  0  0  0
  147.1978  132.1588  160.9826 H   0  0  0  0  0  0  0  0  0  0  0  0
  145.7574  133.1332  162.8275 H   0  0  0  0  0  0  0  0  0  0  0  0
  145.8012  135.5042  163.2799 H   0  0  0  0  0  0  0  0  0  0  0  0
  150.7187  137.6859  156.4770 H   0  0  0  0  0  0  0  0  0  0  0  0
  151.0573  137.1735  154.8692 H   0  0  0  0  0  0  0  0  0  0  0  0
  152.2186  139.1974  155.4941 H   0  0  0  0  0  0  0  0  0  0  0  0
  151.3528  139.3151  154.0030 H   0  0  0  0  0  0  0  0  0  0  0  0
  150.1354  140.4044  156.5924 H   0  0  0  0  0  0  0  0  0  0  0  0
  151.3345  141.2900  155.7058 H   0  0  0  0  0  0  0  0  0  0  0  0
  149.2429  142.1004  154.9223 H   0  0  0  0  0  0  0  0  0  0  0  0
  149.9759  141.2052  153.6265 H   0  0  0  0  0  0  0  0  0  0  0  0
  147.6414  140.3583  155.3909 H   0  0  0  0  0  0  0  0  0  0  0  0
  147.6291  140.7236  153.7126 H   0  0  0  0  0  0  0  0  0  0  0  0
  149.0782  138.7457  153.2028 H   0  0  0  0  0  0  0  0  0  0  0  0
  147.4644  138.4290  153.7529 H   0  0  0  0  0  0  0  0  0  0  0  0
  149.0121  136.3249  153.7663 H   0  0  0  0  0  0  0  0  0  0  0  0
  1  2  1  0  0  0  0
  1 23  1  0  0  0  0
  1 24  1  0  0  0  0
  1 25  1  0  0  0  0
  2  3  1  0  0  0  0
  2  4  1  0  0  0  0
  2 50  1  0  0  0  0
  3 26  1  0  0  0  0
  3 27  1  0  0  0  0
  3 28  1  0  0  0  0
  4 22  1  0  0  0  0
  4  5  1  0  0  0  0
  4 17  1  0  0  0  0
  5  6  1  0  0  0  0
  5 29  1  0  0  0  0
  5 30  1  0  0  0  0
  6  7  1  0  0  0  0
  6 31  1  0  0  0  0
  7  8  2  0  0  0  0
  7  9  1  0  0  0  0
  9 10  1  0  0  0  0
  9 32  1  0  0  0  0
  9 33  1  0  0  0  0
 10 15  1  0  0  0  0
 10 11  1  0  0  0  0
 11 12  2  0  0  0  0
 11 34  1  0  0  0  0
 12 13  1  0  0  0  0
 12 35  1  0  0  0  0
 13 14  2  0  0  0  0
 13 36  1  0  0  0  0
 14 15  1  0  0  0  0
 14 37  1  0  0  0  0
 15 16  2  0  0  0  0
 17 18  1  0  0  0  0
 17 38  1  0  0  0  0
 17 39  1  0  0  0  0
 18 19  1  0  0  0  0
 18 40  1  0  0  0  0
 18 41  1  0  0  0  0
 19 20  1  0  0  0  0
 19 42  1  0  0  0  0
 19 43  1  0  0  0  0
 20 21  1  0  0  0  0
 20 44  1  0  0  0  0
 20 45  1  0  0  0  0
 21 22  1  0  0  0  0
 21 46  1  0  0  0  0
 21 47  1  0  0  0  0
 22 48  1  0  0  0  0
 22 49  1  0  0  0  0
M  CHG  1   2   1
M  END
> <s_m_source_file>
AV-unprocessed.smi

> <i_m_source_file_index>
1407

> <i_lp_mmshare_version>
43012

> <i_f3d_flags>
0

> <s_epik_input>
W0NIMl0xW0NIMl1bQ0gyXVtDSDJdW0NIMl1bQ0gyXUMxKE4oW0NIM10pW0NIM10pW0NIMl1bTkhdQyg9TylbQ0gyXW4yW2NIXVtjSF1bY0hdW2NIXWMyPU8=

> <s_epik_cmdline>
J2VwaWtfcHl0aG9uJywgJy1waCcsICc3LjAnLCAnLXRuJywgJzgnLCAnLW1hJywgJzIwMCcsICctbWV0YWxfYmluZGluZycsICctaW1hZScsICc8aW5maWxlLm1hZT4nLCAnLW9tYWUnLCAnPG91dGZpbGUubWFlPic=

> <r_lp_tautomer_probability>
1

> <r_epik_Ionization_Penalty>
0.00225809

> <r_epik_Ionization_Penalty_Charging>
0.00225802

> <r_epik_Ionization_Penalty_Neutral>
7.38919e-08

> <r_epik_State_Penalty>
0.00155497

> <r_epik_Charging_Adjusted_Penalty>
0.00381299

> <i_epik_Tot_Q>
1

> <i_epik_Tot_abs_Q>
1

> <r_epik_Metal_State_Penalty>
-0

> <b_epik_Metal_Only>
0

> <s_lp_Force_Field>
OPLS_2005

> <r_lp_Energy>
50.9808

> <b_lp_Chiralities_Consistent>
1

> <s_lp_Variant>
AV-unprocessed.smi:1407-1

> <Gold.Version>
5.8.1

> <Gold.Id.Protein>
6NUR|6NUR_protein|mol2

> <Gold.PLP.Fitness>
47.1886

> <Gold.PLP.PLP>
-37.5510

> <Gold.PLP.part.hbond>
-4.0000

> <Gold.PLP.part.metal>
0.0000

> <Gold.PLP.part.buried>
-3.1486

> <Gold.PLP.part.nonpolar>
-30.9348

> <Gold.PLP.part.repulsive>
0.0362

> <Gold.PLP.ligand.clash>
0.0000

> <Gold.PLP.ligand.torsion>
0.7206

> <Gold.PLP.Chemscore.Hbond>
3.6160

> <Gold.PLP.Chemscore.CHOScore>
0.0000

> <Gold.PLP.Chemscore.Metal>
0.0000

> <Gold.Chemscore.Hbonds>
donor molecule, donor type, donor heavy atom, donor atom, acceptor molecule, acceptor atom, score
      L1  H     2    50       P1  7948  2.00
      P1  H  6931  6943       L1    16  0.85
      P1  H  6934  6947       L1    16  0.75

> <Gold.PLP.Chemscore.Internal.Correction>
0.2307

> <Gold.Rescore>
     Score         DG    S(hbond)    S(metal)    S(lipo)     H(rot)  DE(clash)    DE(int)     intcor
     17.71     -18.85       2.61        0.00      79.32       1.81       0.02       1.12       ----

> <Gold.Chemscore.Fitness>
17.7126

> <Gold.Chemscore.DG>
-18.8486

> <Gold.Chemscore.ZeroCoef>
-5.4800

> <Gold.Chemscore.Hbond>
2.6147

> <Gold.Chemscore.Metal>
0.0000

> <Gold.Chemscore.Lipo>
79.3209

> <Gold.Chemscore.Internal_Hbond>
0.0000

> <Gold.Chemscore.DEClash>
0.0207

> <Gold.Chemscore.DEInternal>
1.1153

> <Gold.Chemscore.Rot>
1.8145

> <Gold.Chemscore.Internal.Correction>
   9.000000E+99

> <Gold.Chemscore.Hbonds>
donor molecule, donor type, donor heavy atom, donor atom, acceptor molecule, acceptor atom, score
      L1  H     2    50       P1  7948  0.98
      P1  H  6931  6943       L1    16  0.79
      P1  H  6934  6947       L1    16  0.69

> <Gold.Chemscore.Hbond.Weighted>
-8.7331

> <Gold.Chemscore.Metal.Weighted>
-0.0000

> <Gold.Chemscore.Lipo.Weighted>
-9.2805

> <Gold.Chemscore.Internal_Hbond.Weighted>
0.0000

> <Gold.Chemscore.DEClash.Weighted>
0.0207

> <Gold.Chemscore.DEInternal.Weighted>
1.1153

> <Gold.Chemscore.Rot.Weighted>
4.6451

> <Gold.Chemscore.Internal.Correction.Weighted>
   9.000000E+99

> <Gold.Protein.RotatedTorsions>
[ 6907 6896 6895 6894 ] final  153.72 input  -60.11 | X-H torsion
[ 7974 7965 7964 7962 ] final    0.97 input  175.53 | X-H torsion
[ 8008 7997 7996 7995 ] final   10.05 input   59.86 | X-H torsion
[ 10167 10162 10161 10158 ] final  117.45 input  -65.29 | X-H torsion
[ 10718 10713 10712 10709 ] final  -71.17 input   66.30 | X-H torsion
[ 10763 10752 10751 10750 ] final  176.16 input  -60.55 | X-H torsion
[ 11005 11000 10999 10996 ] final  106.71 input  -57.11 | X-H torsion

> <Gold.Protein.ActiveResidues>
 VAL166  LYS551  ARG553  GLY616  TRP617  ASP618  TYR619  PRO620  LYS621  CYS622 
 ASP623  PHE694  ASN695  SER759  ASP760  ASP761  ALA762  ILE779  LEU786  VAL792 
 PHE793  MET794  SER795  GLU796  ALA797  LYS798  CYS799  TRP800  GLU811  SER814 

> <Gold.Protein.RotatedAtoms>
  152.0687  133.4096  159.4449 H   0  0  0  0  0  0  0  0  0  0  0  0  # atno 6907 bound_to 6896
  150.6864  134.3117  159.4758 H   0  0  0  0  0  0  0  0  0  0  0  0  # atno 6908 bound_to 6896
  152.0946  134.9383  160.0621 H   0  0  0  0  0  0  0  0  0  0  0  0  # atno 6909 bound_to 6896
  146.2438  140.1057  142.8346 H   0  0  0  0  0  0  0  0  0  0  0  0  # atno 7974 bound_to 7965
  154.7882  140.2831  155.6012 H   0  0  0  0  0  0  0  0  0  0  0  0  # atno 8008 bound_to 7997
  156.2960  140.2610  156.2652 H   0  0  0  0  0  0  0  0  0  0  0  0  # atno 8009 bound_to 7997
  154.9702  140.0376  157.2220 H   0  0  0  0  0  0  0  0  0  0  0  0  # atno 8010 bound_to 7997
  139.6178  144.7095  151.2702 H   0  0  0  0  0  0  0  0  0  0  0  0  # atno 10167 bound_to 10162
  156.0375  130.4346  150.2404 H   0  0  0  0  0  0  0  0  0  0  0  0  # atno 10718 bound_to 10713
  154.4774  135.2773  155.1596 H   0  0  0  0  0  0  0  0  0  0  0  0  # atno 10763 bound_to 10752
  154.3320  135.6188  153.5559 H   0  0  0  0  0  0  0  0  0  0  0  0  # atno 10764 bound_to 10752
  152.9871  135.5768  154.5168 H   0  0  0  0  0  0  0  0  0  0  0  0  # atno 10765 bound_to 10752
  139.8818  134.9378  156.5708 H   0  0  0  0  0  0  0  0  0  0  0  0  # atno 11005 bound_to 11000
  145.0530  140.9032  143.4984 LP  0  0  0  0  0  0  0  0  0  0  0  0  # atno 17320 bound_to 7965
  145.1158  139.2726  143.5614 LP  0  0  0  0  0  0  0  0  0  0  0  0  # atno 17321 bound_to 7965
  140.7362  143.6714  150.8078 LP  0  0  0  0  0  0  0  0  0  0  0  0  # atno 17342 bound_to 10162
  140.0320  143.5434  152.2756 LP  0  0  0  0  0  0  0  0  0  0  0  0  # atno 17343 bound_to 10162
  157.0502  131.0060  151.3256 LP  0  0  0  0  0  0  0  0  0  0  0  0  # atno 17370 bound_to 10713
  157.5146  130.7959  149.7742 LP  0  0  0  0  0  0  0  0  0  0  0  0  # atno 17371 bound_to 10713
  140.8100  133.8437  155.8801 LP  0  0  0  0  0  0  0  0  0  0  0  0  # atno 17394 bound_to 11000
  140.9515  134.1772  157.4724 LP  0  0  0  0  0  0  0  0  0  0  0  0  # atno 17395 bound_to 11000

$$$$
