AV-unprocessed.smi:1897|AV-procd|sdf|7688|dock1
  -GOLD-   22720 9423D 1   1.00000     0.00000
 Structure written by MMmdl.
 39 41  0  0  0  0  0  0  0  0  2 V2000
  147.5892  135.7519  162.7982 C   0  0  0  0  0  0  0  0  0  0  0  0
  147.7496  135.9803  161.3342 C   0  0  0  0  0  0  0  0  0  0  0  0
  147.7782  137.2033  160.7909 N   0  0  0  0  0  0  0  0  0  0  0  0
  147.9276  137.1621  159.4127 N   0  0  0  0  0  0  0  0  0  0  0  0
  148.0214  135.9055  158.9534 C   0  0  0  0  0  0  0  0  0  0  0  0
  148.1554  135.5603  157.5771 N   0  0  0  0  0  0  0  0  0  0  0  0
  147.6026  134.5624  156.8558 C   0  0  0  0  0  0  0  0  0  0  0  0
  146.8355  133.7524  157.3727 O   0  0  0  0  0  0  0  0  0  0  0  0
  147.9423  134.5162  155.5566 N   0  0  0  0  0  0  0  0  0  0  0  0
  147.4272  133.5717  154.5683 C   0  0  2  0  0  0  0  0  0  0  0  0
  148.5387  132.9684  153.6874 C   0  0  0  0  0  0  0  0  0  0  0  0
  147.9671  132.9885  152.2658 C   0  0  0  0  0  0  0  0  0  0  0  0
  147.1128  134.1816  152.2712 N   0  3  1  0  0  0  0  0  0  0  0  0
  146.1912  134.3923  151.1363 C   0  0  0  0  0  0  0  0  0  0  0  0
  145.5415  135.7845  151.2855 C   0  0  0  0  0  0  0  0  0  0  0  0
  144.8963  135.9833  152.6758 C   0  0  0  0  0  0  0  0  0  0  0  0
  145.8732  135.6254  153.8166 C   0  0  0  0  0  0  0  0  0  0  0  0
  146.4280  134.2096  153.5751 C   0  0  2  0  0  0  0  0  0  0  0  0
  147.9039  134.6583  160.1835 S   0  0  0  0  0  0  0  0  0  0  0  0
  147.9650  136.6064  163.3619 H   0  0  0  0  0  0  0  0  0  0  0  0
  148.1429  134.8638  163.1032 H   0  0  0  0  0  0  0  0  0  0  0  0
  146.5354  135.6085  163.0384 H   0  0  0  0  0  0  0  0  0  0  0  0
  148.8450  136.1045  157.0791 H   0  0  0  0  0  0  0  0  0  0  0  0
  148.5864  135.2182  155.2203 H   0  0  0  0  0  0  0  0  0  0  0  0
  146.9233  132.7510  155.0830 H   0  0  0  0  0  0  0  0  0  0  0  0
  149.4324  133.5938  153.7231 H   0  0  0  0  0  0  0  0  0  0  0  0
  148.8278  131.9659  154.0047 H   0  0  0  0  0  0  0  0  0  0  0  0
  148.7415  133.0434  151.5001 H   0  0  0  0  0  0  0  0  0  0  0  0
  147.3593  132.1009  152.0823 H   0  0  0  0  0  0  0  0  0  0  0  0
  146.7435  134.3329  150.1975 H   0  0  0  0  0  0  0  0  0  0  0  0
  145.4330  133.6082  151.1176 H   0  0  0  0  0  0  0  0  0  0  0  0
  146.3029  136.5513  151.1350 H   0  0  0  0  0  0  0  0  0  0  0  0
  144.7972  135.9355  150.5030 H   0  0  0  0  0  0  0  0  0  0  0  0
  144.5522  137.0121  152.7857 H   0  0  0  0  0  0  0  0  0  0  0  0
  144.0087  135.3537  152.7520 H   0  0  0  0  0  0  0  0  0  0  0  0
  146.6855  136.3528  153.8535 H   0  0  0  0  0  0  0  0  0  0  0  0
  145.3563  135.6759  154.7754 H   0  0  0  0  0  0  0  0  0  0  0  0
  145.5792  133.5247  153.5134 H   0  0  0  0  0  0  0  0  0  0  0  0
  147.7482  134.9667  152.2744 H   0  0  0  0  0  0  0  0  0  0  0  0
  1  2  1  0  0  0  0
  1 20  1  0  0  0  0
  1 21  1  0  0  0  0
  1 22  1  0  0  0  0
  2 19  1  0  0  0  0
  2  3  2  0  0  0  0
  3  4  1  0  0  0  0
  4  5  2  0  0  0  0
  5  6  1  0  0  0  0
  5 19  1  0  0  0  0
  6  7  1  0  0  0  0
  6 23  1  0  0  0  0
  7  8  2  0  0  0  0
  7  9  1  0  0  0  0
  9 10  1  0  0  0  0
  9 24  1  0  0  0  0
 10 18  1  0  0  0  0
 10 11  1  0  0  0  0
 10 25  1  0  0  0  0
 11 12  1  0  0  0  0
 11 26  1  0  0  0  0
 11 27  1  0  0  0  0
 12 13  1  0  0  0  0
 12 28  1  0  0  0  0
 12 29  1  0  0  0  0
 13 18  1  0  0  0  0
 13 14  1  0  0  0  0
 13 39  1  0  0  0  0
 14 15  1  0  0  0  0
 14 30  1  0  0  0  0
 14 31  1  0  0  0  0
 15 16  1  0  0  0  0
 15 32  1  0  0  0  0
 15 33  1  0  0  0  0
 16 17  1  0  0  0  0
 16 34  1  0  0  0  0
 16 35  1  0  0  0  0
 17 18  1  0  0  0  0
 17 36  1  0  0  0  0
 17 37  1  0  0  0  0
 18 38  1  0  0  0  0
M  CHG  1  13   1
M  END
> <s_m_source_file>
AV-unprocessed.smi

> <i_m_source_file_index>
1897

> <i_lp_mmshare_version>
43012

> <i_f3d_flags>
0

> <s_epik_input>
W0NIM11jMW5uYyhzMSlbTkhdQyg9TylbTkhdW0NASF0oW0NIMl1bQ0gyXTIpW0NAQEhdKE4yMylbQ0gyXVtDSDJdW0NIMl1bQ0gyXTM=

> <s_epik_cmdline>
J2VwaWtfcHl0aG9uJywgJy1waCcsICc3LjAnLCAnLXRuJywgJzgnLCAnLW1hJywgJzIwMCcsICctbWV0YWxfYmluZGluZycsICctaW1hZScsICc8aW5maWxlLm1hZT4nLCAnLW9tYWUnLCAnPG91dGZpbGUubWFlPic=

> <r_lp_tautomer_probability>
1

> <r_epik_Ionization_Penalty>
0.00228891

> <r_epik_Ionization_Penalty_Charging>
0.00107044

> <r_epik_Ionization_Penalty_Neutral>
0.00121847

> <r_epik_State_Penalty>
-0

> <r_epik_Charging_Adjusted_Penalty>
0.00107044

> <i_epik_Tot_Q>
1

> <i_epik_Tot_abs_Q>
1

> <r_epik_Metal_State_Penalty>
0.304057

> <b_epik_Metal_Only>
0

> <s_lp_Force_Field>
OPLS_2005

> <r_lp_Energy>
42.5593

> <b_lp_Chiralities_Consistent>
1

> <s_lp_Variant>
AV-unprocessed.smi:1897-5

> <Gold.Version>
5.8.1

> <Gold.Id.Protein>
6NUR|6NUR_protein|mol2

> <Gold.PLP.Fitness>
37.0141

> <Gold.PLP.PLP>
-27.0187

> <Gold.PLP.part.hbond>
-3.2001

> <Gold.PLP.part.metal>
0.0000

> <Gold.PLP.part.buried>
-2.6919

> <Gold.PLP.part.nonpolar>
-21.0176

> <Gold.PLP.part.repulsive>
0.0551

> <Gold.PLP.ligand.clash>
0.0000

> <Gold.PLP.ligand.torsion>
0.4607

> <Gold.PLP.Chemscore.Hbond>
3.6384

> <Gold.PLP.Chemscore.CHOScore>
0.0000

> <Gold.PLP.Chemscore.Metal>
0.0000

> <Gold.Chemscore.Hbonds>
donor molecule, donor type, donor heavy atom, donor atom, acceptor molecule, acceptor atom, score
      L1  H    13    39       P1  7948  2.00
      P1  H  6931  6943       L1     3  0.83
      P1  H  6934  6947       L1     3  0.78

> <Gold.PLP.Chemscore.Internal.Correction>
0.0016

> <Gold.Rescore>
     Score         DG    S(hbond)    S(metal)    S(lipo)     H(rot)  DE(clash)    DE(int)     intcor
     15.53     -16.01       1.92        0.00      56.93       1.00       0.01       0.47       ----

> <Gold.Chemscore.Fitness>
15.5316

> <Gold.Chemscore.DG>
-16.0098

> <Gold.Chemscore.ZeroCoef>
-5.4800

> <Gold.Chemscore.Hbond>
1.9250

> <Gold.Chemscore.Metal>
0.0000

> <Gold.Chemscore.Lipo>
56.9267

> <Gold.Chemscore.Internal_Hbond>
0.0000

> <Gold.Chemscore.DEClash>
0.0076

> <Gold.Chemscore.DEInternal>
0.4706

> <Gold.Chemscore.Rot>
1.0000

> <Gold.Chemscore.Internal.Correction>
   9.000000E+99

> <Gold.Chemscore.Hbonds>
donor molecule, donor type, donor heavy atom, donor atom, acceptor molecule, acceptor atom, score
      L1  H    13    39       P1  7948  0.88
      P1  H  6931  6943       L1     3  0.44
      P1  H  6934  6947       L1     3  0.15

> <Gold.Chemscore.Hbond.Weighted>
-6.4293

> <Gold.Chemscore.Metal.Weighted>
-0.0000

> <Gold.Chemscore.Lipo.Weighted>
-6.6604

> <Gold.Chemscore.Internal_Hbond.Weighted>
0.0000

> <Gold.Chemscore.DEClash.Weighted>
0.0076

> <Gold.Chemscore.DEInternal.Weighted>
0.4706

> <Gold.Chemscore.Rot.Weighted>
2.5600

> <Gold.Chemscore.Internal.Correction.Weighted>
   9.000000E+99

> <Gold.Protein.RotatedTorsions>
[ 6907 6896 6895 6894 ] final  122.10 input  -60.11 | X-H torsion
[ 7974 7965 7964 7962 ] final  -97.77 input  175.53 | X-H torsion
[ 8008 7997 7996 7995 ] final -148.98 input   59.86 | X-H torsion
[ 10167 10162 10161 10158 ] final   52.18 input  -65.29 | X-H torsion
[ 10718 10713 10712 10709 ] final   73.39 input   66.30 | X-H torsion
[ 10763 10752 10751 10750 ] final -163.21 input  -60.55 | X-H torsion
[ 11005 11000 10999 10996 ] final   17.10 input  -57.11 | X-H torsion

> <Gold.Protein.ActiveResidues>
 VAL166  LYS551  ARG553  GLY616  TRP617  ASP618  TYR619  PRO620  LYS621  CYS622 
 ASP623  PHE694  ASN695  SER759  ASP760  ASP761  ALA762  ILE779  LEU786  VAL792 
 PHE793  MET794  SER795  GLU796  ALA797  LYS798  CYS799  TRP800  GLU811  SER814 

> <Gold.Protein.RotatedAtoms>
  152.4269  133.7211  159.6533 H   0  0  0  0  0  0  0  0  0  0  0  0  # atno 6907 bound_to 6896
  150.8146  133.8349  159.3172 H   0  0  0  0  0  0  0  0  0  0  0  0  # atno 6908 bound_to 6896
  151.6049  135.1047  160.0120 H   0  0  0  0  0  0  0  0  0  0  0  0  # atno 6909 bound_to 6896
  145.3294  140.9438  143.2670 H   0  0  0  0  0  0  0  0  0  0  0  0  # atno 7974 bound_to 7965
  155.6002  140.0661  157.2735 H   0  0  0  0  0  0  0  0  0  0  0  0  # atno 8008 bound_to 7997
  154.4281  140.1819  156.1213 H   0  0  0  0  0  0  0  0  0  0  0  0  # atno 8009 bound_to 7997
  156.0165  140.3321  155.6997 H   0  0  0  0  0  0  0  0  0  0  0  0  # atno 8010 bound_to 7997
  140.2540  144.3447  150.6339 H   0  0  0  0  0  0  0  0  0  0  0  0  # atno 10167 bound_to 10162
  157.6545  130.9626  150.1062 H   0  0  0  0  0  0  0  0  0  0  0  0  # atno 10718 bound_to 10713
  154.7143  135.3012  154.9148 H   0  0  0  0  0  0  0  0  0  0  0  0  # atno 10763 bound_to 10752
  154.0040  135.6703  153.4765 H   0  0  0  0  0  0  0  0  0  0  0  0  # atno 10764 bound_to 10752
  153.0781  135.5024  154.8360 H   0  0  0  0  0  0  0  0  0  0  0  0  # atno 10765 bound_to 10752
  140.4397  134.1334  155.7689 H   0  0  0  0  0  0  0  0  0  0  0  0  # atno 11005 bound_to 11000
  144.8876  139.4818  143.6693 LP  0  0  0  0  0  0  0  0  0  0  0  0  # atno 17320 bound_to 7965
  146.3051  139.7555  142.9062 LP  0  0  0  0  0  0  0  0  0  0  0  0  # atno 17321 bound_to 7965
  140.6018  143.2167  151.7058 LP  0  0  0  0  0  0  0  0  0  0  0  0  # atno 17342 bound_to 10162
  139.5037  144.3781  152.0403 LP  0  0  0  0  0  0  0  0  0  0  0  0  # atno 17343 bound_to 10162
  156.1971  130.3658  149.8835 LP  0  0  0  0  0  0  0  0  0  0  0  0  # atno 17370 bound_to 10713
  156.6748  130.8835  151.3567 LP  0  0  0  0  0  0  0  0  0  0  0  0  # atno 17371 bound_to 10713
  141.1710  133.8608  157.1569 LP  0  0  0  0  0  0  0  0  0  0  0  0  # atno 17394 bound_to 11000
  140.0078  135.0001  157.0330 LP  0  0  0  0  0  0  0  0  0  0  0  0  # atno 17395 bound_to 11000

$$$$
