#       Name:                AV-unprocessed.smi:232
#       Creating user name   scv26
#       Creation time:       Thu Mar 26 20:31:49 2020


#       File generated by GOLD software.
#

@<TRIPOS>MOLECULE
AV-unprocessed.smi:232
    60    63     1
SMALL
NO_CHARGES


@<TRIPOS>ATOM
      1 ****        -2.9687  -3.5502   1.2875 C.3            1 S1                 0.0000
      2 ****        -4.1053  -2.6267   1.7459 C.3            1 S1                 0.0000
      3 ****        -3.6182  -1.2753   2.3009 C.3            1 S1                 0.0000
      4 ****        -4.7432  -0.4498   2.9463 C.3            1 S1                 0.0000
      5 ****        -4.3490   0.9919   2.6460 C.3            1 S1                 0.0000
      6 ****        -3.7517   0.8569   1.2485 C.3            1 S1                 0.0000
      7 ****        -2.9640   2.0938   0.7701 C.3            1 S1                 0.0000
      8 ****        -3.0328  -0.4207   1.2606 N.3            1 S1                 0.0000
      9 ****        -1.6809  -0.3940   1.1748 C.ar           1 S1                 0.0000
     10 ****        -0.9218  -0.1891   2.2839 N.ar           1 S1                 0.0000
     11 ****         0.4104  -0.1454   2.1823 C.ar           1 S1                 0.0000
     12 ****         1.1701  -0.2747   1.0919 N.ar           1 S1                 0.0000
     13 ****         0.4074  -0.4724  -0.0215 C.ar           1 S1                 0.0000
     14 ****        -1.0121  -0.5434  -0.0682 C.ar           1 S1                 0.0000
     15 ****        -1.4383  -0.7508  -1.3739 N.2            1 S1                 0.0000
     16 ****        -0.3305  -0.7989  -2.0629 C.2            1 S1                 0.0000
     17 ****         0.8239  -0.6389  -1.3296 N.pl3          1 S1                 0.0000
     18 ****         2.1862  -0.6429  -1.8318 C.3            1 S1                 0.0000
     19 ****         2.7733   0.7782  -1.9419 C.3            1 S1                 0.0000
     20 ****         1.9844   1.5363  -2.8398 O.3            1 S1                 0.0000
     21 ****         4.2308   0.7747  -2.4389 C.3            1 S1                 0.0000
     22 ****         4.8714   2.1629  -2.5192 C.3            1 S1                 0.0000
     23 ****         6.3393   1.8369  -2.3717 C.3            1 S1                 0.0000
     24 ****         6.2992   0.7227  -1.3323 C.3            1 S1                 0.0000
     25 ****         5.0636   0.0437  -1.5393 O.3            1 S1                 0.0000
     26 ****        -3.3603  -4.5172   0.9713 H              1 S1                 0.0000
     27 ****        -2.2558  -3.7272   2.0933 H              1 S1                 0.0000
     28 ****        -2.4245  -3.1262   0.4438 H              1 S1                 0.0000
     29 ****        -4.7997  -2.4626   0.9210 H              1 S1                 0.0000
     30 ****        -4.6715  -3.1420   2.5224 H              1 S1                 0.0000
     31 ****        -2.8839  -1.4784   3.0811 H              1 S1                 0.0000
     32 ****        -5.6996  -0.6684   2.4684 H              1 S1                 0.0000
     33 ****        -4.8514  -0.6459   4.0133 H              1 S1                 0.0000
     34 ****        -5.1933   1.6809   2.6837 H              1 S1                 0.0000
     35 ****        -3.5934   1.3321   3.3558 H              1 S1                 0.0000
     36 ****        -4.5754   0.7166   0.5469 H              1 S1                 0.0000
     37 ****        -3.6067   2.9742   0.7526 H              1 S1                 0.0000
     38 ****        -2.5781   1.9534  -0.2400 H              1 S1                 0.0000
     39 ****        -2.1231   2.3199   1.4264 H              1 S1                 0.0000
     40 ****         0.9442   0.0203   3.1064 H              1 S1                 0.0000
     41 ****        -0.3256  -0.9483  -3.1328 H              1 S1                 0.0000
     42 ****         2.7899  -1.2531  -1.1591 H              1 S1                 0.0000
     43 ****         2.2014  -1.1413  -2.8021 H              1 S1                 0.0000
     44 ****         2.7302   1.2615  -0.9649 H              1 S1                 0.0000
     45 ****         2.0238   1.1286  -3.6912 H              1 S1                 0.0000
     46 ****         4.2980   0.2916  -3.4152 H              1 S1                 0.0000
     47 ****         4.6412   2.6850  -3.4482 H              1 S1                 0.0000
     48 ****         4.5445   2.7877  -1.6866 H              1 S1                 0.0000
     49 ****         6.7373   1.4602  -3.3149 H              1 S1                 0.0000
     50 ****         6.9415   2.6907  -2.0600 H              1 S1                 0.0000
     51 ****         7.1481   0.0438  -1.4155 H              1 S1                 0.0000
     52 ****         6.2973   1.1416  -0.3253 H              1 S1                 0.0000
     53 ****        -3.1845  -0.8522   0.3713 LP             1 S1                 0.0000
     54 ****        -1.3597  -0.0712   3.1752 LP             1 S1                 0.0000
     55 ****         2.1692  -0.2321   1.0916 LP             1 S1                 0.0000
     56 ****        -2.3762  -0.8421  -1.7085 LP             1 S1                 0.0000
     57 ****         2.3397   2.4693  -2.8958 LP             1 S1                 0.0000
     58 ****         1.0372   1.5589  -2.5201 LP             1 S1                 0.0000
     59 ****         5.2467  -0.8613  -1.9233 LP             1 S1                 0.0000
     60 ****         4.5926  -0.0553  -0.6627 LP             1 S1                 0.0000
@<TRIPOS>BOND
    1    1    2 1     
    2    1   26 1     
    3    1   27 1     
    4    1   28 1     
    5    2    3 1     
    6    2   29 1     
    7    2   30 1     
    8    3    8 1     
    9    3    4 1     
   10    3   31 1     
   11    4    5 1     
   12    4   32 1     
   13    4   33 1     
   14    5    6 1     
   15    5   34 1     
   16    5   35 1     
   17    6    7 1     
   18    6    8 1     
   19    6   36 1     
   20    7   37 1     
   21    7   38 1     
   22    7   39 1     
   23    8    9 1     
   24    9   14 ar    
   25    9   10 ar    
   26   10   11 ar    
   27   11   12 ar    
   28   11   40 1     
   29   12   13 ar    
   30   13   17 1     
   31   13   14 ar    
   32   14   15 1     
   33   15   16 2     
   34   16   17 1     
   35   16   41 1     
   36   17   18 1     
   37   18   19 1     
   38   18   42 1     
   39   18   43 1     
   40   19   20 1     
   41   19   21 1     
   42   19   44 1     
   43   20   45 1     
   44   21   25 1     
   45   21   22 1     
   46   21   46 1     
   47   22   23 1     
   48   22   47 1     
   49   22   48 1     
   50   23   24 1     
   51   23   49 1     
   52   23   50 1     
   53   24   25 1     
   54   24   51 1     
   55   24   52 1     
   56    8   53 1     
   57   10   54 1     
   58   12   55 1     
   59   15   56 1     
   60   20   57 1     
   61   20   58 1     
   62   25   59 1     
   63   25   60 1     
@<TRIPOS>SUBSTRUCTURE
      1 S1             1
@<TRIPOS>SET
LONE_PAIRS      STATIC     ATOMS    <user>   **** ""
8 53 54 55 56 57 58 59 60
DONOR_HYDROGENS      STATIC     ATOMS    <user>   **** ""
1 45
ATOM$BLUE        STATIC     ATOMS    COLORGROUP SYSTEM
8 53 54 55 56 57 58 59 60
ATOM$RED        STATIC     ATOMS    COLORGROUP SYSTEM
1 45
