AV-unprocessed.smi:2486|AV-procd|sdf|9790|dock1
  -GOLD-   2272013423D 1   1.00000     0.00000
 Structure written by MMmdl.
 42 43  0  0  0  0  0  0  0  0  1 V2000
  147.4167  142.1860  153.9525 C   0  0  0  0  0  0  0  0  0  0  0  0
  148.6111  141.3644  153.9100 N   0  0  0  0  0  0  0  0  0  0  0  0
  148.7160  140.3317  153.0410 N   0  0  0  0  0  0  0  0  0  0  0  0
  149.9276  139.8443  153.3095 C   0  0  0  0  0  0  0  0  0  0  0  0
  150.6259  140.4838  154.2939 N   0  0  0  0  0  0  0  0  0  0  0  0
  149.7409  141.4203  154.6211 C   0  0  0  0  0  0  0  0  0  0  0  0
  149.9064  142.4166  155.6202 N   0  0  0  0  0  0  0  0  0  0  0  0
  150.1905  142.2384  156.9214 C   0  0  0  0  0  0  0  0  0  0  0  0
  150.3705  141.1498  157.4677 O   0  0  0  0  0  0  0  0  0  0  0  0
  150.2579  143.4089  157.5686 N   0  0  0  0  0  0  0  0  0  0  0  0
  150.5522  143.5498  158.9914 C   0  0  0  0  0  0  0  0  0  0  0  0
  152.0751  143.6114  159.2881 C   0  0  0  0  0  0  0  0  0  0  0  0
  152.7158  144.6972  158.3928 C   0  0  0  0  0  0  0  0  0  0  0  0
  152.2732  144.0425  160.7670 C   0  0  0  0  0  0  0  0  0  0  0  0
  152.1227  142.9376  161.8295 C   0  0  0  0  0  0  0  0  0  0  0  0
  153.4461  142.2131  162.1275 C   0  0  0  0  0  0  0  0  0  0  0  0
  153.9258  141.2722  161.0132 C   0  0  0  0  0  0  0  0  0  0  0  0
  154.0764  141.9353  159.6331 C   0  0  0  0  0  0  0  0  0  0  0  0
  152.7221  142.2348  158.9636 C   0  0  0  0  0  0  0  0  0  0  0  0
  147.6837  143.2288  153.7791 H   0  0  0  0  0  0  0  0  0  0  0  0
  146.9449  142.0955  154.9314 H   0  0  0  0  0  0  0  0  0  0  0  0
  146.7066  141.8714  153.1863 H   0  0  0  0  0  0  0  0  0  0  0  0
  150.3238  138.9936  152.7749 H   0  0  0  0  0  0  0  0  0  0  0  0
  149.7930  143.3697  155.3088 H   0  0  0  0  0  0  0  0  0  0  0  0
  150.0982  144.2587  157.0478 H   0  0  0  0  0  0  0  0  0  0  0  0
  150.0611  144.4515  159.3618 H   0  0  0  0  0  0  0  0  0  0  0  0
  150.0966  142.7117  159.5206 H   0  0  0  0  0  0  0  0  0  0  0  0
  153.7846  144.7946  158.5841 H   0  0  0  0  0  0  0  0  0  0  0  0
  152.2633  145.6734  158.5717 H   0  0  0  0  0  0  0  0  0  0  0  0
  152.6010  144.4755  157.3314 H   0  0  0  0  0  0  0  0  0  0  0  0
  153.2511  144.5093  160.8933 H   0  0  0  0  0  0  0  0  0  0  0  0
  151.5639  144.8392  160.9949 H   0  0  0  0  0  0  0  0  0  0  0  0
  151.7919  143.4078  162.7563 H   0  0  0  0  0  0  0  0  0  0  0  0
  151.3390  142.2283  161.5629 H   0  0  0  0  0  0  0  0  0  0  0  0
  154.2241  142.9448  162.3494 H   0  0  0  0  0  0  0  0  0  0  0  0
  153.3255  141.6273  163.0393 H   0  0  0  0  0  0  0  0  0  0  0  0
  154.8904  140.8586  161.3092 H   0  0  0  0  0  0  0  0  0  0  0  0
  153.2515  140.4182  160.9397 H   0  0  0  0  0  0  0  0  0  0  0  0
  154.7014  142.8266  159.6897 H   0  0  0  0  0  0  0  0  0  0  0  0
  154.6174  141.2371  158.9935 H   0  0  0  0  0  0  0  0  0  0  0  0
  152.0284  141.4310  159.2147 H   0  0  0  0  0  0  0  0  0  0  0  0
  152.8517  142.1547  157.8835 H   0  0  0  0  0  0  0  0  0  0  0  0
  1  2  1  0  0  0  0
  1 20  1  0  0  0  0
  1 21  1  0  0  0  0
  1 22  1  0  0  0  0
  2  6  1  0  0  0  0
  2  3  1  0  0  0  0
  3  4  2  0  0  0  0
  4  5  1  0  0  0  0
  4 23  1  0  0  0  0
  5  6  2  0  0  0  0
  6  7  1  0  0  0  0
  7  8  1  0  0  0  0
  7 24  1  0  0  0  0
  8  9  2  0  0  0  0
  8 10  1  0  0  0  0
 10 11  1  0  0  0  0
 10 25  1  0  0  0  0
 11 12  1  0  0  0  0
 11 26  1  0  0  0  0
 11 27  1  0  0  0  0
 12 19  1  0  0  0  0
 12 13  1  0  0  0  0
 12 14  1  0  0  0  0
 13 28  1  0  0  0  0
 13 29  1  0  0  0  0
 13 30  1  0  0  0  0
 14 15  1  0  0  0  0
 14 31  1  0  0  0  0
 14 32  1  0  0  0  0
 15 16  1  0  0  0  0
 15 33  1  0  0  0  0
 15 34  1  0  0  0  0
 16 17  1  0  0  0  0
 16 35  1  0  0  0  0
 16 36  1  0  0  0  0
 17 18  1  0  0  0  0
 17 37  1  0  0  0  0
 17 38  1  0  0  0  0
 18 19  1  0  0  0  0
 18 39  1  0  0  0  0
 18 40  1  0  0  0  0
 19 41  1  0  0  0  0
 19 42  1  0  0  0  0
M  END
> <s_m_source_file>
AV-unprocessed.smi

> <i_m_source_file_index>
2486

> <i_lp_mmshare_version>
43012

> <i_f3d_flags>
0

> <s_epik_input>
W0NIM11uMW5bY0hdbmMxW05IXUMoPU8pW05IXVtDSDJdQzIoW0NIM10pW0NIMl1bQ0gyXVtDSDJdW0NIMl1bQ0gyXVtDSDJdMg==

> <s_epik_cmdline>
J2VwaWtfcHl0aG9uJywgJy1waCcsICc3LjAnLCAnLXRuJywgJzgnLCAnLW1hJywgJzIwMCcsICctbWV0YWxfYmluZGluZycsICctaW1hZScsICc8aW5maWxlLm1hZT4nLCAnLW9tYWUnLCAnPG91dGZpbGUubWFlPic=

> <r_lp_tautomer_probability>
1

> <r_epik_Ionization_Penalty>
2.33289e-05

> <r_epik_Ionization_Penalty_Charging>
0

> <r_epik_Ionization_Penalty_Neutral>
2.33289e-05

> <r_epik_State_Penalty>
-0

> <r_epik_Charging_Adjusted_Penalty>
0

> <i_epik_Tot_Q>
0

> <i_epik_Tot_abs_Q>
0

> <r_epik_Metal_State_Penalty>
-0

> <b_epik_Metal_Only>
0

> <s_lp_Force_Field>
OPLS_2005

> <r_lp_Energy>
21.4414

> <b_lp_Chiralities_Consistent>
1

> <s_lp_Variant>
AV-unprocessed.smi:2486-1

> <Gold.Version>
5.8.1

> <Gold.Id.Protein>
6NUR|6NUR_protein|mol2

> <Gold.PLP.Fitness>
52.8325

> <Gold.PLP.PLP>
-44.3356

> <Gold.PLP.part.hbond>
-3.0000

> <Gold.PLP.part.metal>
0.0000

> <Gold.PLP.part.buried>
-4.5767

> <Gold.PLP.part.nonpolar>
-40.4519

> <Gold.PLP.part.repulsive>
2.7342

> <Gold.PLP.ligand.clash>
0.0000

> <Gold.PLP.ligand.torsion>
0.7605

> <Gold.PLP.Chemscore.Hbond>
2.8720

> <Gold.PLP.Chemscore.CHOScore>
0.4610

> <Gold.PLP.Chemscore.Metal>
0.0000

> <Gold.Chemscore.Hbonds>
donor molecule, donor type, donor heavy atom, donor atom, acceptor molecule, acceptor atom, score
      L1  H     7    24       P1  8028  0.82
      L1  H    10    25       P1  8028  0.69
      P1  H  7989  7998       L1     5  0.38
      L1  C     4    23       P1  7957  0.06

> <Gold.PLP.Chemscore.Internal.Correction>
0.0191

> <Gold.Rescore>
     Score         DG    S(hbond)    S(metal)    S(lipo)     H(rot)  DE(clash)    DE(int)     intcor
     18.75     -20.57       1.72        0.00     109.28       1.35       1.32       0.50       ----

> <Gold.Chemscore.Fitness>
18.7474

> <Gold.Chemscore.DG>
-20.5678

> <Gold.Chemscore.ZeroCoef>
-5.4800

> <Gold.Chemscore.Hbond>
1.7204

> <Gold.Chemscore.Metal>
0.0000

> <Gold.Chemscore.Lipo>
109.2808

> <Gold.Chemscore.Internal_Hbond>
0.0000

> <Gold.Chemscore.DEClash>
1.3161

> <Gold.Chemscore.DEInternal>
0.5044

> <Gold.Chemscore.Rot>
1.3454

> <Gold.Chemscore.Internal.Correction>
   9.000000E+99

> <Gold.Chemscore.Hbonds>
donor molecule, donor type, donor heavy atom, donor atom, acceptor molecule, acceptor atom, score
      L1  H     7    24       P1  8028  0.81
      L1  H    10    25       P1  8028  0.57
      P1  H  7989  7998       L1     5  0.04

> <Gold.Chemscore.Hbond.Weighted>
-5.7462

> <Gold.Chemscore.Metal.Weighted>
-0.0000

> <Gold.Chemscore.Lipo.Weighted>
-12.7859

> <Gold.Chemscore.Internal_Hbond.Weighted>
0.0000

> <Gold.Chemscore.DEClash.Weighted>
1.3161

> <Gold.Chemscore.DEInternal.Weighted>
0.5044

> <Gold.Chemscore.Rot.Weighted>
3.4442

> <Gold.Chemscore.Internal.Correction.Weighted>
   9.000000E+99

> <Gold.Protein.RotatedTorsions>
[ 6907 6896 6895 6894 ] final   40.48 input  -60.11 | X-H torsion
[ 7974 7965 7964 7962 ] final -153.61 input  175.53 | X-H torsion
[ 8008 7997 7996 7995 ] final  -65.26 input   59.86 | X-H torsion
[ 10167 10162 10161 10158 ] final  -45.94 input  -65.29 | X-H torsion
[ 10718 10713 10712 10709 ] final  -89.42 input   66.30 | X-H torsion
[ 10763 10752 10751 10750 ] final   47.01 input  -60.55 | X-H torsion
[ 11005 11000 10999 10996 ] final  -97.37 input  -57.11 | X-H torsion

> <Gold.Protein.ActiveResidues>
 VAL166  LYS551  ARG553  GLY616  TRP617  ASP618  TYR619  PRO620  LYS621  CYS622 
 ASP623  PHE694  ASN695  SER759  ASP760  ASP761  ALA762  ILE779  LEU786  VAL792 
 PHE793  MET794  SER795  GLU796  ALA797  LYS798  CYS799  TRP800  GLU811  SER814 

> <Gold.Protein.RotatedAtoms>
  152.1831  134.8737  160.0524 H   0  0  0  0  0  0  0  0  0  0  0  0  # atno 6907 bound_to 6896
  151.9654  133.3703  159.4059 H   0  0  0  0  0  0  0  0  0  0  0  0  # atno 6908 bound_to 6896
  150.6921  134.4119  159.5210 H   0  0  0  0  0  0  0  0  0  0  0  0  # atno 6909 bound_to 6896
  144.7732  140.4503  143.5892 H   0  0  0  0  0  0  0  0  0  0  0  0  # atno 7974 bound_to 7965
  154.4661  140.0937  156.7023 H   0  0  0  0  0  0  0  0  0  0  0  0  # atno 8008 bound_to 7997
  155.4855  140.3469  155.4328 H   0  0  0  0  0  0  0  0  0  0  0  0  # atno 8009 bound_to 7997
  156.0958  140.1409  156.9521 H   0  0  0  0  0  0  0  0  0  0  0  0  # atno 8010 bound_to 7997
  140.6838  143.2855  151.3711 H   0  0  0  0  0  0  0  0  0  0  0  0  # atno 10167 bound_to 10162
  155.9984  130.4872  150.5169 H   0  0  0  0  0  0  0  0  0  0  0  0  # atno 10718 bound_to 10713
  152.9804  135.5990  154.3693 H   0  0  0  0  0  0  0  0  0  0  0  0  # atno 10763 bound_to 10752
  154.3368  135.2768  155.2445 H   0  0  0  0  0  0  0  0  0  0  0  0  # atno 10764 bound_to 10752
  154.4544  135.5981  153.6269 H   0  0  0  0  0  0  0  0  0  0  0  0  # atno 10765 bound_to 10752
  141.1381  133.8166  157.0696 H   0  0  0  0  0  0  0  0  0  0  0  0  # atno 11005 bound_to 11000
  145.6262  139.1530  143.2994 LP  0  0  0  0  0  0  0  0  0  0  0  0  # atno 17320 bound_to 7965
  146.1893  140.6369  142.9153 LP  0  0  0  0  0  0  0  0  0  0  0  0  # atno 17321 bound_to 7965
  139.6180  144.0965  152.2364 LP  0  0  0  0  0  0  0  0  0  0  0  0  # atno 17342 bound_to 10162
  140.0400  144.6015  150.7419 LP  0  0  0  0  0  0  0  0  0  0  0  0  # atno 17343 bound_to 10162
  157.3135  131.0668  151.1983 LP  0  0  0  0  0  0  0  0  0  0  0  0  # atno 17370 bound_to 10713
  157.2921  130.6801  149.6120 LP  0  0  0  0  0  0  0  0  0  0  0  0  # atno 17371 bound_to 10713
  140.0519  134.9801  157.1152 LP  0  0  0  0  0  0  0  0  0  0  0  0  # atno 17394 bound_to 11000
  140.3977  134.2116  155.7164 LP  0  0  0  0  0  0  0  0  0  0  0  0  # atno 17395 bound_to 11000

$$$$
