#       Name:                AV-unprocessed.smi:2143
#       Creating user name   scv26
#       Creation time:       Fri Mar 27 11:49:30 2020


#       File generated by GOLD software.
#

@<TRIPOS>MOLECULE
AV-unprocessed.smi:2143
    50    51     1
SMALL
NO_CHARGES


@<TRIPOS>ATOM
      1 ****        -4.5903  -0.3733  -0.0523 C.3            1 S1                 0.0000
      2 ****        -3.8689  -1.2363   1.0036 C.3            1 S1                 0.0000
      3 ****        -3.9409  -0.5963   2.4050 C.3            1 S1                 0.0000
      4 ****        -3.0286   0.6342   2.5283 C.3            1 S1                 0.0000
      5 ****        -1.5773   0.2847   2.1714 C.3            1 S1                 0.0000
      6 ****        -1.4646  -0.3566   0.7746 C.3            1 S1                 0.0000
      7 ****        -0.0714  -0.7395   0.5481 N.am           1 S1                 0.0000
      8 ****         0.7290  -0.2713  -0.4220 C.2            1 S1                 0.0000
      9 ****         0.3635   0.5422  -1.2718 O.2            1 S1                 0.0000
     10 ****         2.1569  -0.8340  -0.4383 C.3            1 S1                 0.0000
     11 ****         3.1126   0.0347  -1.1377 N.am           1 S1                 0.0000
     12 ****         3.4625  -0.2456  -2.4459 C.2            1 S1                 0.0000
     13 ****         4.3171   0.5123  -3.1671 C.2            1 S1                 0.0000
     14 ****         4.9370   1.6982  -2.5886 C.2            1 S1                 0.0000
     15 ****         5.7027   2.4306  -3.2167 O.2            1 S1                 0.0000
     16 ****         4.5764   1.9521  -1.2437 N.am           1 S1                 0.0000
     17 ****         5.1316   3.1234  -0.5973 C.3            1 S1                 0.0000
     18 ****         3.6671   1.1659  -0.5005 C.2            1 S1                 0.0000
     19 ****         3.3534   1.4483   0.6586 O.2            1 S1                 0.0000
     20 ****        -2.4003  -1.5872   0.6426 C.3            1 S1                 0.0000
     21 ****        -2.2844  -2.2888  -0.7253 C.3            1 S1                 0.0000
     22 ****        -4.0801   0.5725  -0.2315 H              1 S1                 0.0000
     23 ****        -5.6068  -0.1408   0.2657 H              1 S1                 0.0000
     24 ****        -4.6698  -0.8919  -1.0072 H              1 S1                 0.0000
     25 ****        -4.4229  -2.1745   1.0586 H              1 S1                 0.0000
     26 ****        -4.9693  -0.3238   2.6445 H              1 S1                 0.0000
     27 ****        -3.6442  -1.3341   3.1518 H              1 S1                 0.0000
     28 ****        -3.3858   1.4331   1.8778 H              1 S1                 0.0000
     29 ****        -3.0736   1.0265   3.5447 H              1 S1                 0.0000
     30 ****        -0.9627   1.1845   2.2189 H              1 S1                 0.0000
     31 ****        -1.1801  -0.3983   2.9237 H              1 S1                 0.0000
     32 ****        -1.7696   0.3881   0.0382 H              1 S1                 0.0000
     33 ****         0.3191  -1.4128   1.1913 H              1 S1                 0.0000
     34 ****         2.4951  -1.0123   0.5843 H              1 S1                 0.0000
     35 ****         2.1289  -1.8152  -0.9143 H              1 S1                 0.0000
     36 ****         3.0255  -1.1115  -2.9218 H              1 S1                 0.0000
     37 ****         4.5421   0.2401  -4.1879 H              1 S1                 0.0000
     38 ****         5.2985   2.9043   0.4584 H              1 S1                 0.0000
     39 ****         4.4088   3.9298  -0.7293 H              1 S1                 0.0000
     40 ****         6.0943   3.3750  -1.0438 H              1 S1                 0.0000
     41 ****        -2.0707  -2.3170   1.3843 H              1 S1                 0.0000
     42 ****        -2.4710  -1.5979  -1.5478 H              1 S1                 0.0000
     43 ****        -2.9973  -3.1095  -0.8073 H              1 S1                 0.0000
     44 ****        -1.2906  -2.7113  -0.8744 H              1 S1                 0.0000
     45 ****        -0.5745   0.8887  -1.2615 LP             1 S1                 0.0000
     46 ****         1.0048   0.8561  -1.9720 LP             1 S1                 0.0000
     47 ****         5.9246   2.2225  -4.1693 LP             1 S1                 0.0000
     48 ****         6.1024   3.2332  -2.7741 LP             1 S1                 0.0000
     49 ****         2.7017   0.8742   1.1542 LP             1 S1                 0.0000
     50 ****         3.7508   2.2513   1.1026 LP             1 S1                 0.0000
@<TRIPOS>BOND
    1    1    2 1     
    2    1   22 1     
    3    1   23 1     
    4    1   24 1     
    5    2   20 1     
    6    2    3 1     
    7    2   25 1     
    8    3    4 1     
    9    3   26 1     
   10    3   27 1     
   11    4    5 1     
   12    4   28 1     
   13    4   29 1     
   14    5    6 1     
   15    5   30 1     
   16    5   31 1     
   17    6    7 1     
   18    6   20 1     
   19    6   32 1     
   20    7    8 am    
   21    7   33 1     
   22    8    9 2     
   23    8   10 1     
   24   10   11 1     
   25   10   34 1     
   26   10   35 1     
   27   11   18 am    
   28   11   12 1     
   29   12   13 2     
   30   12   36 1     
   31   13   14 1     
   32   13   37 1     
   33   14   15 2     
   34   14   16 am    
   35   16   17 1     
   36   16   18 am    
   37   17   38 1     
   38   17   39 1     
   39   17   40 1     
   40   18   19 2     
   41   20   21 1     
   42   20   41 1     
   43   21   42 1     
   44   21   43 1     
   45   21   44 1     
   46    9   45 1     
   47    9   46 1     
   48   15   47 1     
   49   15   48 1     
   50   19   49 1     
   51   19   50 1     
@<TRIPOS>SUBSTRUCTURE
      1 S1             1
@<TRIPOS>SET
LONE_PAIRS      STATIC     ATOMS    <user>   **** ""
6 45 46 47 48 49 50
DONOR_HYDROGENS      STATIC     ATOMS    <user>   **** ""
1 33
ATOM$BLUE        STATIC     ATOMS    COLORGROUP SYSTEM
6 45 46 47 48 49 50
ATOM$RED        STATIC     ATOMS    COLORGROUP SYSTEM
1 33
