AV-unprocessed.smi:1047|AV-procd|sdf|4568|dock5
  -GOLD-   22720 3 23D 1   1.00000     0.00000
 Structure written by MMmdl.
 56 58  0  0  0  0  0  0  0  0  2 V2000
  151.2006  140.8193  157.9664 C   0  0  0  0  0  0  0  0  0  0  0  0
  151.8966  141.2317  156.6613 C   0  0  0  0  0  0  0  0  0  0  0  0
  151.5137  140.4505  155.4863 N   0  0  0  0  0  0  0  0  0  0  0  0
  151.9334  139.0543  155.5812 C   0  0  0  0  0  0  0  0  0  0  0  0
  151.4934  138.2388  154.3533 C   0  0  0  0  0  0  0  0  0  0  0  0
  150.0840  138.3496  154.1832 O   0  0  0  0  0  0  0  0  0  0  0  0
  149.6472  139.6972  154.0247 C   0  0  1  0  0  0  0  0  0  0  0  0
  148.1248  139.6897  153.8339 C   0  0  0  0  0  0  0  0  0  0  0  0
  147.7367  138.8270  152.7004 N   0  3  0  0  0  0  0  0  0  0  0  0
  146.3698  138.2790  152.8038 C   0  0  0  0  0  0  0  0  0  0  0  0
  146.1938  137.0179  151.9340 C   0  0  2  0  0  0  0  0  0  0  0  0
  146.3007  137.3755  150.5704 O   0  0  0  0  0  0  0  0  0  0  0  0
  144.8284  136.3264  152.1199 C   0  0  0  0  0  0  0  0  0  0  0  0
  144.6909  135.1283  151.3119 N   0  0  0  0  0  0  0  0  0  0  0  0
  144.1790  135.0461  150.0689 C   0  0  0  0  0  0  0  0  0  0  0  0
  144.1506  133.8442  149.5008 N   0  0  0  0  0  0  0  0  0  0  0  0
  144.7019  133.0524  150.4933 C   0  0  0  0  0  0  0  0  0  0  0  0
  144.9579  131.6641  150.5226 C   0  0  0  0  0  0  0  0  0  0  0  0
  145.5436  131.0589  151.6573 C   0  0  0  0  0  0  0  0  0  0  0  0
  145.8037  129.5628  151.6445 C   0  0  0  0  0  0  0  0  0  0  0  0
  145.8819  131.8458  152.7876 C   0  0  0  0  0  0  0  0  0  0  0  0
  146.5126  131.2169  154.0173 C   0  0  0  0  0  0  0  0  0  0  0  0
  145.6306  133.2337  152.7760 C   0  0  0  0  0  0  0  0  0  0  0  0
  145.0486  133.8246  151.6403 C   0  0  0  0  0  0  0  0  0  0  0  0
  150.0717  140.4986  155.2714 C   0  0  0  0  0  0  0  0  0  0  0  0
  151.6137  141.3713  158.8108 H   0  0  0  0  0  0  0  0  0  0  0  0
  151.3394  139.7564  158.1669 H   0  0  0  0  0  0  0  0  0  0  0  0
  150.1303  141.0225  157.9408 H   0  0  0  0  0  0  0  0  0  0  0  0
  151.7230  142.2928  156.4759 H   0  0  0  0  0  0  0  0  0  0  0  0
  152.9708  141.1269  156.8185 H   0  0  0  0  0  0  0  0  0  0  0  0
  153.0175  138.9902  155.6711 H   0  0  0  0  0  0  0  0  0  0  0  0
  151.5171  138.6026  156.4829 H   0  0  0  0  0  0  0  0  0  0  0  0
  152.0031  138.5891  153.4543 H   0  0  0  0  0  0  0  0  0  0  0  0
  151.7559  137.1886  154.4818 H   0  0  0  0  0  0  0  0  0  0  0  0
  150.1192  140.1297  153.1403 H   0  0  0  0  0  0  0  0  0  0  0  0
  147.6306  139.3490  154.7448 H   0  0  0  0  0  0  0  0  0  0  0  0
  147.7728  140.7029  153.6355 H   0  0  0  0  0  0  0  0  0  0  0  0
  147.8027  139.3664  151.8491 H   0  0  0  0  0  0  0  0  0  0  0  0
  146.1915  138.0415  153.8526 H   0  0  0  0  0  0  0  0  0  0  0  0
  145.6416  139.0411  152.5217 H   0  0  0  0  0  0  0  0  0  0  0  0
  146.9855  136.3021  152.1604 H   0  0  0  0  0  0  0  0  0  0  0  0
  145.4372  137.5500  150.2293 H   0  0  0  0  0  0  0  0  0  0  0  0
  144.6726  136.0606  153.1663 H   0  0  0  0  0  0  0  0  0  0  0  0
  144.0210  137.0094  151.8511 H   0  0  0  0  0  0  0  0  0  0  0  0
  143.8106  135.9191  149.5500 H   0  0  0  0  0  0  0  0  0  0  0  0
  144.7008  131.0649  149.6614 H   0  0  0  0  0  0  0  0  0  0  0  0
  145.2888  129.0770  152.4737 H   0  0  0  0  0  0  0  0  0  0  0  0
  146.8715  129.3607  151.7324 H   0  0  0  0  0  0  0  0  0  0  0  0
  145.4515  129.1050  150.7194 H   0  0  0  0  0  0  0  0  0  0  0  0
  146.7410  131.9666  154.7754 H   0  0  0  0  0  0  0  0  0  0  0  0
  147.4428  130.7121  153.7556 H   0  0  0  0  0  0  0  0  0  0  0  0
  145.8356  130.4871  154.4618 H   0  0  0  0  0  0  0  0  0  0  0  0
  145.8838  133.8438  153.6303 H   0  0  0  0  0  0  0  0  0  0  0  0
  149.5546  140.1079  156.1493 H   0  0  0  0  0  0  0  0  0  0  0  0
  149.7526  141.5355  155.1583 H   0  0  0  0  0  0  0  0  0  0  0  0
  148.3896  138.0579  152.6482 H   0  0  0  0  0  0  0  0  0  0  0  0
  1  2  1  0  0  0  0
  1 26  1  0  0  0  0
  1 27  1  0  0  0  0
  1 28  1  0  0  0  0
  2  3  1  0  0  0  0
  2 29  1  0  0  0  0
  2 30  1  0  0  0  0
  3 25  1  0  0  0  0
  3  4  1  0  0  0  0
  4  5  1  0  0  0  0
  4 31  1  0  0  0  0
  4 32  1  0  0  0  0
  5  6  1  0  0  0  0
  5 33  1  0  0  0  0
  5 34  1  0  0  0  0
  6  7  1  0  0  0  0
  7  8  1  0  0  0  0
  7 25  1  0  0  0  0
  7 35  1  0  0  0  0
  8  9  1  0  0  0  0
  8 36  1  0  0  0  0
  8 37  1  0  0  0  0
  9 10  1  0  0  0  0
  9 38  1  0  0  0  0
  9 56  1  0  0  0  0
 10 11  1  0  0  0  0
 10 39  1  0  0  0  0
 10 40  1  0  0  0  0
 11 12  1  0  0  0  0
 11 13  1  0  0  0  0
 11 41  1  0  0  0  0
 12 42  1  0  0  0  0
 13 14  1  0  0  0  0
 13 43  1  0  0  0  0
 13 44  1  0  0  0  0
 14 24  1  0  0  0  0
 14 15  1  0  0  0  0
 15 16  2  0  0  0  0
 15 45  1  0  0  0  0
 16 17  1  0  0  0  0
 17 24  2  0  0  0  0
 17 18  1  0  0  0  0
 18 19  2  0  0  0  0
 18 46  1  0  0  0  0
 19 20  1  0  0  0  0
 19 21  1  0  0  0  0
 20 47  1  0  0  0  0
 20 48  1  0  0  0  0
 20 49  1  0  0  0  0
 21 22  1  0  0  0  0
 21 23  2  0  0  0  0
 22 50  1  0  0  0  0
 22 51  1  0  0  0  0
 22 52  1  0  0  0  0
 23 24  1  0  0  0  0
 23 53  1  0  0  0  0
 25 54  1  0  0  0  0
 25 55  1  0  0  0  0
M  CHG  1   9   1
M  END
> <s_m_source_file>
AV-unprocessed.smi

> <i_m_source_file_index>
1047

> <i_lp_mmshare_version>
43012

> <i_f3d_flags>
0

> <s_epik_input>
W0NIM11bQ0gyXU4xW0NIMl1bQ0gyXU9bQ0BIXShbQ0gyXTEpW0NIMl1bTkhdW0NIMl1bQ0BIXShbT0hdKVtDSDJdbihbY0hdbjIpYyhjMjMpW2NIXWMoW0NIM10pYyhbY0hdMylbQ0gzXQ==

> <s_epik_cmdline>
J2VwaWtfcHl0aG9uJywgJy1waCcsICc3LjAnLCAnLXRuJywgJzgnLCAnLW1hJywgJzIwMCcsICctbWV0YWxfYmluZGluZycsICctaW1hZScsICc8aW5maWxlLm1hZT4nLCAnLW9tYWUnLCAnPG91dGZpbGUubWFlPic=

> <r_epik_Ionization_Penalty>
0.692425

> <r_epik_Ionization_Penalty_Charging>
0.0243549

> <r_epik_Ionization_Penalty_Neutral>
0.66807

> <r_epik_State_Penalty>
0.592789

> <r_epik_Charging_Adjusted_Penalty>
0.617144

> <i_epik_Tot_Q>
1

> <i_epik_Tot_abs_Q>
1

> <r_epik_Metal_State_Penalty>
0.508021

> <b_epik_Metal_Only>
0

> <s_lp_Force_Field>
OPLS_2005

> <r_lp_Energy>
31.7658

> <b_lp_Chiralities_Consistent>
1

> <s_lp_Variant>
AV-unprocessed.smi:1047-9

> <Gold.Version>
5.8.1

> <Gold.Id.Protein>
6NUR|6NUR_protein|mol2

> <Gold.PLP.Fitness>
58.4517

> <Gold.PLP.PLP>
-43.6566

> <Gold.PLP.part.hbond>
-5.8121

> <Gold.PLP.part.metal>
0.0000

> <Gold.PLP.part.buried>
-3.3353

> <Gold.PLP.part.nonpolar>
-36.4746

> <Gold.PLP.part.repulsive>
2.0287

> <Gold.PLP.ligand.clash>
0.0000

> <Gold.PLP.ligand.torsion>
0.6686

> <Gold.PLP.Chemscore.Hbond>
4.5801

> <Gold.PLP.Chemscore.CHOScore>
0.7332

> <Gold.PLP.Chemscore.Metal>
0.0000

> <Gold.Chemscore.Hbonds>
donor molecule, donor type, donor heavy atom, donor atom, acceptor molecule, acceptor atom, score
      L1  H     9    38       P1  7957  0.45
      L1  H     9    56       P1  7948  1.95
      L1  H    12    42       P1 10171  1.00
      P1  H  7954  7966       L1    12  0.92
      P1  H  7989  7998       L1     3  0.21
      L1  C    15    45       P1 10171  0.72

> <Gold.PLP.Chemscore.Internal.Correction>
0.1921

> <Gold.Rescore>
     Score         DG    S(hbond)    S(metal)    S(lipo)     H(rot)  DE(clash)    DE(int)     intcor
     20.13     -23.55       3.28        0.00     117.82       2.60       2.73       0.69       ----

> <Gold.Chemscore.Fitness>
20.1339

> <Gold.Chemscore.DG>
-23.5488

> <Gold.Chemscore.ZeroCoef>
-5.4800

> <Gold.Chemscore.Hbond>
3.2791

> <Gold.Chemscore.Metal>
0.0000

> <Gold.Chemscore.Lipo>
117.8209

> <Gold.Chemscore.Internal_Hbond>
0.0000

> <Gold.Chemscore.DEClash>
2.7292

> <Gold.Chemscore.DEInternal>
0.6857

> <Gold.Chemscore.Rot>
2.6049

> <Gold.Chemscore.Internal.Correction>
   9.000000E+99

> <Gold.Chemscore.Hbonds>
donor molecule, donor type, donor heavy atom, donor atom, acceptor molecule, acceptor atom, score
      L1  H     9    38       P1  7957  0.42
      L1  H     9    56       P1  7948  0.86
      L1  H    12    42       P1 10171  0.99
      P1  H  7954  7966       L1    12  0.79

> <Gold.Chemscore.Hbond.Weighted>
-10.9522

> <Gold.Chemscore.Metal.Weighted>
-0.0000

> <Gold.Chemscore.Lipo.Weighted>
-13.7850

> <Gold.Chemscore.Internal_Hbond.Weighted>
0.0000

> <Gold.Chemscore.DEClash.Weighted>
2.7292

> <Gold.Chemscore.DEInternal.Weighted>
0.6857

> <Gold.Chemscore.Rot.Weighted>
6.6685

> <Gold.Chemscore.Internal.Correction.Weighted>
   9.000000E+99

> <Gold.Protein.RotatedTorsions>
[ 6907 6896 6895 6894 ] final -134.89 input  -60.11 | X-H torsion
[ 7974 7965 7964 7962 ] final   67.28 input  175.53 | X-H torsion
[ 8008 7997 7996 7995 ] final -100.90 input   59.86 | X-H torsion
[ 10167 10162 10161 10158 ] final  -72.42 input  -65.29 | X-H torsion
[ 10718 10713 10712 10709 ] final  -13.16 input   66.30 | X-H torsion
[ 10763 10752 10751 10750 ] final   93.27 input  -60.55 | X-H torsion
[ 11005 11000 10999 10996 ] final  110.26 input  -57.11 | X-H torsion

> <Gold.Protein.ActiveResidues>
 VAL166  LYS551  ARG553  GLY616  TRP617  ASP618  TYR619  PRO620  LYS621  CYS622 
 ASP623  PHE694  ASN695  SER759  ASP760  ASP761  ALA762  ILE779  LEU786  VAL792 
 PHE793  MET794  SER795  GLU796  ALA797  LYS798  CYS799  TRP800  GLU811  SER814 

> <Gold.Protein.RotatedAtoms>
  150.9912  133.6147  159.2707 H   0  0  0  0  0  0  0  0  0  0  0  0  # atno 6907 bound_to 6896
  151.3367  135.0853  159.9367 H   0  0  0  0  0  0  0  0  0  0  0  0  # atno 6908 bound_to 6896
  152.5246  133.9532  159.7736 H   0  0  0  0  0  0  0  0  0  0  0  0  # atno 6909 bound_to 6896
  145.8165  139.3061  143.1068 H   0  0  0  0  0  0  0  0  0  0  0  0  # atno 7974 bound_to 7965
  154.8350  140.0438  157.1503 H   0  0  0  0  0  0  0  0  0  0  0  0  # atno 8008 bound_to 7997
  154.9110  140.3013  155.5246 H   0  0  0  0  0  0  0  0  0  0  0  0  # atno 8009 bound_to 7997
  156.2989  140.2358  156.4149 H   0  0  0  0  0  0  0  0  0  0  0  0  # atno 8010 bound_to 7997
  140.5194  143.2333  151.7457 H   0  0  0  0  0  0  0  0  0  0  0  0  # atno 10167 bound_to 10162
  156.6342  130.4910  149.6118 H   0  0  0  0  0  0  0  0  0  0  0  0  # atno 10718 bound_to 10713
  153.2284  135.4331  155.0568 H   0  0  0  0  0  0  0  0  0  0  0  0  # atno 10763 bound_to 10752
  154.8285  135.3373  154.6823 H   0  0  0  0  0  0  0  0  0  0  0  0  # atno 10764 bound_to 10752
  153.7251  135.7014  153.5059 H   0  0  0  0  0  0  0  0  0  0  0  0  # atno 10765 bound_to 10752
  139.8878  134.9479  156.6252 H   0  0  0  0  0  0  0  0  0  0  0  0  # atno 11005 bound_to 11000
  145.9721  140.8751  143.0157 LP  0  0  0  0  0  0  0  0  0  0  0  0  # atno 17320 bound_to 7965
  144.6752  140.1961  143.7392 LP  0  0  0  0  0  0  0  0  0  0  0  0  # atno 17321 bound_to 7965
  139.4919  144.4277  151.9907 LP  0  0  0  0  0  0  0  0  0  0  0  0  # atno 17342 bound_to 10162
  140.3373  144.3246  150.5974 LP  0  0  0  0  0  0  0  0  0  0  0  0  # atno 17343 bound_to 10162
  156.2210  130.6737  151.1368 LP  0  0  0  0  0  0  0  0  0  0  0  0  # atno 17370 bound_to 10713
  157.7191  131.0692  150.6210 LP  0  0  0  0  0  0  0  0  0  0  0  0  # atno 17371 bound_to 10713
  140.7709  133.8739  155.8491 LP  0  0  0  0  0  0  0  0  0  0  0  0  # atno 17394 bound_to 11000
  140.9843  134.1364  157.4466 LP  0  0  0  0  0  0  0  0  0  0  0  0  # atno 17395 bound_to 11000

$$$$
