#       Name:                AV-unprocessed.smi:3243
#       Creating user name   scv26
#       Creation time:       Fri Mar 27 18:26:52 2020


#       File generated by GOLD software.
#

@<TRIPOS>MOLECULE
AV-unprocessed.smi:3243
    40    41     1
SMALL
NO_CHARGES


@<TRIPOS>ATOM
      1 ****        -4.6817   1.4541  -1.1026 C.3            1 S1                 0.0000
      2 ****        -4.5866   1.1333   0.3960 C.3            1 S1                 0.0000
      3 ****        -4.3649   2.3789   1.2662 C.3            1 S1                 0.0000
      4 ****        -3.5806   0.0622   0.6796 C.2            1 S1                 0.0000
      5 ****        -2.2713   0.1931   0.4453 N.2            1 S1                 0.0000
      6 ****        -1.5425  -0.9487   0.7911 C.2            1 S1                 0.0000
      7 ****        -0.0589  -0.9793   0.5832 C.3            1 S1                 0.0000
      8 ****         0.3140  -1.2259  -0.8881 C.3            1 S1                 0.0000
      9 ****         1.7587  -1.2967  -1.0731 N.am           1 S1                 0.0000
     10 ****         2.5787  -0.2380  -1.1577 C.2            1 S1                 0.0000
     11 ****         2.1846   0.9273  -1.1172 O.2            1 S1                 0.0000
     12 ****         4.0121  -0.5887  -1.3740 C.3            1 S1                 0.0000
     13 ****         4.7054  -1.4478  -0.3360 C.3            1 S1                 0.0000
     14 ****         5.0667   0.0125  -0.4533 C.3            1 S1                 0.0000
     15 ****         4.7602   0.9611   0.6924 C.3            1 S1                 0.0000
     16 ****        -2.3245  -1.9561   1.2990 C.2            1 S1                 0.0000
     17 ****        -4.0061  -1.5052   1.3589 S.3            1 S1                 0.0000
     18 ****        -4.9202   0.5607  -1.6804 H              1 S1                 0.0000
     19 ****        -3.7417   1.8559  -1.4826 H              1 S1                 0.0000
     20 ****        -5.4608   2.1915  -1.2976 H              1 S1                 0.0000
     21 ****        -5.5567   0.7265   0.6841 H              1 S1                 0.0000
     22 ****        -4.3891   2.1254   2.3265 H              1 S1                 0.0000
     23 ****        -5.1388   3.1259   1.0875 H              1 S1                 0.0000
     24 ****        -3.4006   2.8431   1.0564 H              1 S1                 0.0000
     25 ****         0.3788  -0.0393   0.9221 H              1 S1                 0.0000
     26 ****         0.3869  -1.7565   1.2055 H              1 S1                 0.0000
     27 ****        -0.1149  -2.1700  -1.2251 H              1 S1                 0.0000
     28 ****        -0.1075  -0.4479  -1.5271 H              1 S1                 0.0000
     29 ****         2.1663  -2.2182  -1.1388 H              1 S1                 0.0000
     30 ****         4.3104  -0.7020  -2.4143 H              1 S1                 0.0000
     31 ****         4.1371  -1.7572   0.5398 H              1 S1                 0.0000
     32 ****         5.4215  -2.1815  -0.7002 H              1 S1                 0.0000
     33 ****         6.0125   0.2399  -0.9416 H              1 S1                 0.0000
     34 ****         3.8712   0.6478   1.2409 H              1 S1                 0.0000
     35 ****         4.5982   1.9692   0.3105 H              1 S1                 0.0000
     36 ****         5.5989   0.9859   1.3882 H              1 S1                 0.0000
     37 ****        -2.0151  -2.9336   1.6381 H              1 S1                 0.0000
     38 ****        -1.8573   1.0194   0.0634 LP             1 S1                 0.0000
     39 ****         1.2089   1.1219  -1.0167 LP             1 S1                 0.0000
     40 ****         2.8401   1.6794  -1.1849 LP             1 S1                 0.0000
@<TRIPOS>BOND
    1    1    2 1     
    2    1   18 1     
    3    1   19 1     
    4    1   20 1     
    5    2    3 1     
    6    2    4 1     
    7    2   21 1     
    8    3   22 1     
    9    3   23 1     
   10    3   24 1     
   11    4   17 1     
   12    4    5 2     
   13    5    6 1     
   14    6    7 1     
   15    6   16 2     
   16    7    8 1     
   17    7   25 1     
   18    7   26 1     
   19    8    9 1     
   20    8   27 1     
   21    8   28 1     
   22    9   10 am    
   23    9   29 1     
   24   10   11 2     
   25   10   12 1     
   26   12   14 1     
   27   12   13 1     
   28   12   30 1     
   29   13   14 1     
   30   13   31 1     
   31   13   32 1     
   32   14   15 1     
   33   14   33 1     
   34   15   34 1     
   35   15   35 1     
   36   15   36 1     
   37   16   17 1     
   38   16   37 1     
   39    5   38 1     
   40   11   39 1     
   41   11   40 1     
@<TRIPOS>SUBSTRUCTURE
      1 S1             1
@<TRIPOS>SET
LONE_PAIRS      STATIC     ATOMS    <user>   **** ""
3 38 39 40
DONOR_HYDROGENS      STATIC     ATOMS    <user>   **** ""
1 29
ATOM$BLUE        STATIC     ATOMS    COLORGROUP SYSTEM
3 38 39 40
ATOM$RED        STATIC     ATOMS    COLORGROUP SYSTEM
1 29
