AV-unprocessed.smi:861|AV-procd|sdf|3966|dock2
  -GOLD-   22720 1433D 1   1.00000     0.00000
 Structure written by MMmdl.
 44 45  0  0  0  0  0  0  0  0  2 V2000
  152.5306  143.1805  160.3160 C   0  0  0  0  0  0  0  0  0  0  0  0
  152.3293  143.2706  158.7938 C   0  0  0  0  0  0  0  0  0  0  0  0
  152.5183  144.7179  158.3139 C   0  0  0  0  0  0  0  0  0  0  0  0
  150.9583  142.7236  158.3469 C   0  0  0  0  0  0  0  0  0  0  0  0
  150.9324  142.2141  156.8926 C   0  0  0  0  0  0  0  0  0  0  0  0
  149.5637  142.1996  156.3176 N   0  3  1  0  0  0  0  0  0  0  0  0
  149.4877  141.4065  155.0680 C   0  0  0  0  0  0  0  0  0  0  0  0
  148.0685  141.4612  154.4801 C   0  0  0  0  0  0  0  0  0  0  0  0
  147.1359  141.0013  155.4495 O   0  0  0  0  0  0  0  0  0  0  0  0
  147.1236  141.8145  156.6172 C   0  0  1  0  0  0  0  0  0  0  0  0
  146.0077  141.2842  157.5361 C   0  0  0  0  0  0  0  0  0  0  0  0
  145.2409  142.3470  158.1771 N   0  0  0  0  0  0  0  0  0  0  0  0
  145.7686  143.1031  159.2341 C   0  0  0  0  0  0  0  0  0  0  0  0
  145.5287  144.4916  159.2640 C   0  0  0  0  0  0  0  0  0  0  0  0
  146.0665  145.2246  160.3363 C   0  0  0  0  0  0  0  0  0  0  0  0
  146.8034  144.5121  161.2999 C   0  0  0  0  0  0  0  0  0  0  0  0
  147.0021  143.1768  161.2226 N   0  0  0  0  0  0  0  0  0  0  0  0
  146.4915  142.4820  160.2000 N   0  0  0  0  0  0  0  0  0  0  0  0
  148.5189  141.7563  157.2738 C   0  0  0  0  0  0  0  0  0  0  0  0
  151.7546  143.7273  160.8524 H   0  0  0  0  0  0  0  0  0  0  0  0
  153.4931  143.6014  160.6082 H   0  0  0  0  0  0  0  0  0  0  0  0
  152.5154  142.1481  160.6644 H   0  0  0  0  0  0  0  0  0  0  0  0
  153.1058  142.6702  158.3179 H   0  0  0  0  0  0  0  0  0  0  0  0
  151.7745  145.3824  158.7548 H   0  0  0  0  0  0  0  0  0  0  0  0
  152.4278  144.7895  157.2298 H   0  0  0  0  0  0  0  0  0  0  0  0
  153.5043  145.0970  158.5850 H   0  0  0  0  0  0  0  0  0  0  0  0
  150.6514  141.9343  159.0332 H   0  0  0  0  0  0  0  0  0  0  0  0
  150.2161  143.5170  158.4461 H   0  0  0  0  0  0  0  0  0  0  0  0
  151.5569  142.8745  156.2892 H   0  0  0  0  0  0  0  0  0  0  0  0
  151.3691  141.2177  156.8157 H   0  0  0  0  0  0  0  0  0  0  0  0
  150.2010  141.7914  154.3381 H   0  0  0  0  0  0  0  0  0  0  0  0
  149.7660  140.3718  155.2746 H   0  0  0  0  0  0  0  0  0  0  0  0
  147.8152  142.4737  154.1616 H   0  0  0  0  0  0  0  0  0  0  0  0
  148.0026  140.8246  153.5978 H   0  0  0  0  0  0  0  0  0  0  0  0
  146.8970  142.8411  156.3242 H   0  0  0  0  0  0  0  0  0  0  0  0
  145.3313  140.6413  156.9713 H   0  0  0  0  0  0  0  0  0  0  0  0
  146.4397  140.6554  158.3151 H   0  0  0  0  0  0  0  0  0  0  0  0
  144.3364  142.5876  157.7972 H   0  0  0  0  0  0  0  0  0  0  0  0
  144.9529  144.9819  158.4926 H   0  0  0  0  0  0  0  0  0  0  0  0
  145.9202  146.2914  160.4185 H   0  0  0  0  0  0  0  0  0  0  0  0
  147.2403  145.0191  162.1472 H   0  0  0  0  0  0  0  0  0  0  0  0
  148.7367  140.7407  157.6084 H   0  0  0  0  0  0  0  0  0  0  0  0
  148.5275  142.3933  158.1573 H   0  0  0  0  0  0  0  0  0  0  0  0
  149.3460  143.1527  156.0627 H   0  0  0  0  0  0  0  0  0  0  0  0
  1  2  1  0  0  0  0
  1 20  1  0  0  0  0
  1 21  1  0  0  0  0
  1 22  1  0  0  0  0
  2  3  1  0  0  0  0
  2  4  1  0  0  0  0
  2 23  1  0  0  0  0
  3 24  1  0  0  0  0
  3 25  1  0  0  0  0
  3 26  1  0  0  0  0
  4  5  1  0  0  0  0
  4 27  1  0  0  0  0
  4 28  1  0  0  0  0
  5  6  1  0  0  0  0
  5 29  1  0  0  0  0
  5 30  1  0  0  0  0
  6 19  1  0  0  0  0
  6  7  1  0  0  0  0
  6 44  1  0  0  0  0
  7  8  1  0  0  0  0
  7 31  1  0  0  0  0
  7 32  1  0  0  0  0
  8  9  1  0  0  0  0
  8 33  1  0  0  0  0
  8 34  1  0  0  0  0
  9 10  1  0  0  0  0
 10 11  1  0  0  0  0
 10 19  1  0  0  0  0
 10 35  1  0  0  0  0
 11 12  1  0  0  0  0
 11 36  1  0  0  0  0
 11 37  1  0  0  0  0
 12 13  1  0  0  0  0
 12 38  1  0  0  0  0
 13 18  1  0  0  0  0
 13 14  2  0  0  0  0
 14 15  1  0  0  0  0
 14 39  1  0  0  0  0
 15 16  2  0  0  0  0
 15 40  1  0  0  0  0
 16 17  1  0  0  0  0
 16 41  1  0  0  0  0
 17 18  2  0  0  0  0
 19 42  1  0  0  0  0
 19 43  1  0  0  0  0
M  CHG  1   6   1
M  END
> <s_m_source_file>
AV-unprocessed.smi

> <i_m_source_file_index>
861

> <i_lp_mmshare_version>
43012

> <i_f3d_flags>
0

> <s_epik_input>
W0NIM11bQ0hdKFtDSDNdKVtDSDJdW0NIMl1OMVtDSDJdW0NIMl1PW0NASF0oW0NIMl0xKVtDSDJdW05IXWMyW2NIXVtjSF1bY0hdbm4y

> <s_epik_cmdline>
J2VwaWtfcHl0aG9uJywgJy1waCcsICc3LjAnLCAnLXRuJywgJzgnLCAnLW1hJywgJzIwMCcsICctbWV0YWxfYmluZGluZycsICctaW1hZScsICc8aW5maWxlLm1hZT4nLCAnLW9tYWUnLCAnPG91dGZpbGUubWFlPic=

> <r_lp_tautomer_probability>
0.999978

> <r_epik_Ionization_Penalty>
0.114704

> <r_epik_Ionization_Penalty_Charging>
0.0953451

> <r_epik_Ionization_Penalty_Neutral>
0.0193593

> <r_epik_State_Penalty>
0.104983

> <r_epik_Charging_Adjusted_Penalty>
0.200328

> <i_epik_Tot_Q>
1

> <i_epik_Tot_abs_Q>
1

> <r_epik_Metal_State_Penalty>
0.100113

> <b_epik_Metal_Only>
0

> <s_lp_Force_Field>
OPLS_2005

> <r_lp_Energy>
24.1259

> <b_lp_Chiralities_Consistent>
1

> <s_lp_Variant>
AV-unprocessed.smi:861-1

> <Gold.Version>
5.8.1

> <Gold.Id.Protein>
6NUR|6NUR_protein|mol2

> <Gold.PLP.Fitness>
47.3755

> <Gold.PLP.PLP>
-38.3057

> <Gold.PLP.part.hbond>
-4.3864

> <Gold.PLP.part.metal>
0.0000

> <Gold.PLP.part.buried>
-6.6183

> <Gold.PLP.part.nonpolar>
-29.2740

> <Gold.PLP.part.repulsive>
0.2231

> <Gold.PLP.ligand.clash>
0.0000

> <Gold.PLP.ligand.torsion>
1.5061

> <Gold.PLP.Chemscore.Hbond>
4.0000

> <Gold.PLP.Chemscore.CHOScore>
0.0000

> <Gold.PLP.Chemscore.Metal>
0.0000

> <Gold.Chemscore.Hbonds>
donor molecule, donor type, donor heavy atom, donor atom, acceptor molecule, acceptor atom, score
      L1  H     6    44       P1  8028  2.00
      P1  H  6933  6944       L1    17  1.00
      P1  H  6934  6946       L1    18  0.95

> <Gold.PLP.Chemscore.Internal.Correction>
0.0819

> <Gold.Rescore>
     Score         DG    S(hbond)    S(metal)    S(lipo)     H(rot)  DE(clash)    DE(int)     intcor
     16.59     -18.14       1.82        0.00      93.77       1.71       0.08       1.47       ----

> <Gold.Chemscore.Fitness>
16.5934

> <Gold.Chemscore.DG>
-18.1447

> <Gold.Chemscore.ZeroCoef>
-5.4800

> <Gold.Chemscore.Hbond>
1.8199

> <Gold.Chemscore.Metal>
0.0000

> <Gold.Chemscore.Lipo>
93.7674

> <Gold.Chemscore.Internal_Hbond>
0.0000

> <Gold.Chemscore.DEClash>
0.0812

> <Gold.Chemscore.DEInternal>
1.4701

> <Gold.Chemscore.Rot>
1.7127

> <Gold.Chemscore.Internal.Correction>
   9.000000E+99

> <Gold.Chemscore.Hbonds>
donor molecule, donor type, donor heavy atom, donor atom, acceptor molecule, acceptor atom, score
      L1  H     6    44       P1  8028  1.00
      P1  H  6933  6944       L1    17  0.29
      P1  H  6934  6946       L1    18  0.21

> <Gold.Chemscore.Hbond.Weighted>
-6.0784

> <Gold.Chemscore.Metal.Weighted>
-0.0000

> <Gold.Chemscore.Lipo.Weighted>
-10.9708

> <Gold.Chemscore.Internal_Hbond.Weighted>
0.0000

> <Gold.Chemscore.DEClash.Weighted>
0.0812

> <Gold.Chemscore.DEInternal.Weighted>
1.4701

> <Gold.Chemscore.Rot.Weighted>
4.3844

> <Gold.Chemscore.Internal.Correction.Weighted>
   9.000000E+99

> <Gold.Protein.RotatedTorsions>
[ 6907 6896 6895 6894 ] final   53.37 input  -60.11 | X-H torsion
[ 7974 7965 7964 7962 ] final  156.83 input  175.53 | X-H torsion
[ 8008 7997 7996 7995 ] final  169.24 input   59.86 | X-H torsion
[ 10167 10162 10161 10158 ] final -150.33 input  -65.29 | X-H torsion
[ 10718 10713 10712 10709 ] final  -87.33 input   66.30 | X-H torsion
[ 10763 10752 10751 10750 ] final  149.97 input  -60.55 | X-H torsion
[ 11005 11000 10999 10996 ] final  -38.41 input  -57.11 | X-H torsion

> <Gold.Protein.ActiveResidues>
 VAL166  LYS551  ARG553  GLY616  TRP617  ASP618  TYR619  PRO620  LYS621  CYS622 
 ASP623  PHE694  ASN695  SER759  ASP760  ASP761  ALA762  ILE779  LEU786  VAL792 
 PHE793  MET794  SER795  GLU796  ALA797  LYS798  CYS799  TRP800  GLU811  SER814 

> <Gold.Protein.RotatedAtoms>
  152.3329  134.7235  160.0284 H   0  0  0  0  0  0  0  0  0  0  0  0  # atno 6907 bound_to 6896
  151.7646  133.3331  159.3435 H   0  0  0  0  0  0  0  0  0  0  0  0  # atno 6908 bound_to 6896
  150.7434  134.6006  159.6079 H   0  0  0  0  0  0  0  0  0  0  0  0  # atno 6909 bound_to 6896
  144.7939  139.7257  143.6210 H   0  0  0  0  0  0  0  0  0  0  0  0  # atno 7974 bound_to 7965
  156.1475  140.1569  156.8822 H   0  0  0  0  0  0  0  0  0  0  0  0  # atno 8008 bound_to 7997
  154.5042  140.0817  156.7897 H   0  0  0  0  0  0  0  0  0  0  0  0  # atno 8009 bound_to 7997
  155.3959  140.3412  155.4256 H   0  0  0  0  0  0  0  0  0  0  0  0  # atno 8010 bound_to 7997
  139.7364  143.8729  152.2550 H   0  0  0  0  0  0  0  0  0  0  0  0  # atno 10167 bound_to 10162
  155.9986  130.4796  150.4850 H   0  0  0  0  0  0  0  0  0  0  0  0  # atno 10718 bound_to 10713
  154.0798  135.2860  155.3292 H   0  0  0  0  0  0  0  0  0  0  0  0  # atno 10763 bound_to 10752
  154.6691  135.5306  153.8119 H   0  0  0  0  0  0  0  0  0  0  0  0  # atno 10764 bound_to 10752
  153.0453  135.6553  154.0974 H   0  0  0  0  0  0  0  0  0  0  0  0  # atno 10765 bound_to 10752
  141.0025  133.6948  156.2050 H   0  0  0  0  0  0  0  0  0  0  0  0  # atno 11005 bound_to 11000
  146.2201  139.5620  142.9624 LP  0  0  0  0  0  0  0  0  0  0  0  0  # atno 17320 bound_to 7965
  145.5722  141.0393  143.2168 LP  0  0  0  0  0  0  0  0  0  0  0  0  # atno 17321 bound_to 7965
  139.8667  144.7089  150.9035 LP  0  0  0  0  0  0  0  0  0  0  0  0  # atno 17342 bound_to 10162
  140.7779  143.3772  151.1542 LP  0  0  0  0  0  0  0  0  0  0  0  0  # atno 17343 bound_to 10162
  157.2851  131.0615  151.2171 LP  0  0  0  0  0  0  0  0  0  0  0  0  # atno 17370 bound_to 10713
  157.3204  130.6934  149.6266 LP  0  0  0  0  0  0  0  0  0  0  0  0  # atno 17371 bound_to 10713
  140.6865  134.4711  157.5589 LP  0  0  0  0  0  0  0  0  0  0  0  0  # atno 17394 bound_to 11000
  139.9046  134.8478  156.1756 LP  0  0  0  0  0  0  0  0  0  0  0  0  # atno 17395 bound_to 11000

$$$$
