AV-unprocessed.smi:771|AV-procd|sdf|3684|dock10
  -GOLD-   22720 1103D 1   1.00000     0.00000
 Structure written by MMmdl.
 41 42  0  0  0  0  0  0  0  0  3 V2000
  145.5616  138.6151  154.5155 O   0  0  0  0  0  0  0  0  0  0  0  0
  146.5378  138.4079  153.7931 C   0  0  0  0  0  0  0  0  0  0  0  0
  147.3874  139.5680  153.2542 C   0  0  0  0  0  0  0  0  0  0  0  0
  148.5607  139.8705  154.0908 N   0  0  0  0  0  0  0  0  0  0  0  0
  149.5509  138.8721  154.1783 C   0  0  0  0  0  0  0  0  0  0  0  0
  150.6732  139.0380  154.9052 C   0  0  0  0  0  0  0  0  0  0  0  0
  151.6817  138.0037  154.9787 N   0  3  0  0  0  0  0  0  0  0  0  0
  151.4287  136.9003  154.5060 O   0  0  0  0  0  0  0  0  0  0  0  0
  152.7584  138.2588  155.5103 O   0  5  0  0  0  0  0  0  0  0  0  0
  150.8394  140.2937  155.6109 C   0  0  0  0  0  0  0  0  0  0  0  0
  149.8982  141.2547  155.5274 C   0  0  0  0  0  0  0  0  0  0  0  0
  148.6804  141.0741  154.7304 C   0  0  0  0  0  0  0  0  0  0  0  0
  147.8218  141.9519  154.6422 O   0  0  0  0  0  0  0  0  0  0  0  0
  146.9284  137.1786  153.4247 N   0  0  0  0  0  0  0  0  0  0  0  0
  146.2566  135.9372  153.7975 C   0  0  0  0  0  0  0  0  0  0  0  0
  145.9352  135.0356  152.5797 C   0  0  1  0  0  0  0  0  0  0  0  0
  145.4421  133.6376  153.0222 C   0  0  0  0  0  0  0  0  0  0  0  0
  145.0933  132.7406  151.8249 C   0  0  0  0  0  0  0  0  0  0  0  0
  144.0501  133.4078  150.9193 C   0  0  0  0  0  0  0  0  0  0  0  0
  144.5387  134.7843  150.4487 C   0  0  0  0  0  0  0  0  0  0  0  0
  144.8943  135.6932  151.6401 C   0  0  2  0  0  0  0  0  0  0  0  0
  145.3971  136.9085  151.1218 O   0  0  0  0  0  0  0  0  0  0  0  0
  147.6863  139.3358  152.2306 H   0  0  0  0  0  0  0  0  0  0  0  0
  146.7562  140.4543  153.1701 H   0  0  0  0  0  0  0  0  0  0  0  0
  149.3351  137.9780  153.6109 H   0  0  0  0  0  0  0  0  0  0  0  0
  151.7196  140.4735  156.2106 H   0  0  0  0  0  0  0  0  0  0  0  0
  150.0432  142.1827  156.0609 H   0  0  0  0  0  0  0  0  0  0  0  0
  147.7445  137.0958  152.8356 H   0  0  0  0  0  0  0  0  0  0  0  0
  146.9031  135.4022  154.4936 H   0  0  0  0  0  0  0  0  0  0  0  0
  145.3489  136.1809  154.3517 H   0  0  0  0  0  0  0  0  0  0  0  0
  146.8535  134.8942  152.0074 H   0  0  0  0  0  0  0  0  0  0  0  0
  146.2011  133.1378  153.6245 H   0  0  0  0  0  0  0  0  0  0  0  0
  144.5644  133.7445  153.6611 H   0  0  0  0  0  0  0  0  0  0  0  0
  145.9964  132.5284  151.2509 H   0  0  0  0  0  0  0  0  0  0  0  0
  144.7184  131.7795  152.1782 H   0  0  0  0  0  0  0  0  0  0  0  0
  143.8419  132.7716  150.0587 H   0  0  0  0  0  0  0  0  0  0  0  0
  143.1090  133.5166  151.4601 H   0  0  0  0  0  0  0  0  0  0  0  0
  145.4117  134.6548  149.8070 H   0  0  0  0  0  0  0  0  0  0  0  0
  143.7707  135.2557  149.8341 H   0  0  0  0  0  0  0  0  0  0  0  0
  143.9869  135.9171  152.2026 H   0  0  0  0  0  0  0  0  0  0  0  0
  144.7006  137.3499  150.6598 H   0  0  0  0  0  0  0  0  0  0  0  0
  1  2  2  0  0  0  0
  2  3  1  0  0  0  0
  2 14  1  0  0  0  0
  3  4  1  0  0  0  0
  3 23  1  0  0  0  0
  3 24  1  0  0  0  0
  4 12  1  0  0  0  0
  4  5  1  0  0  0  0
  5  6  2  0  0  0  0
  5 25  1  0  0  0  0
  6  7  1  0  0  0  0
  6 10  1  0  0  0  0
  7  8  2  0  0  0  0
  7  9  1  0  0  0  0
 10 11  2  0  0  0  0
 10 26  1  0  0  0  0
 11 12  1  0  0  0  0
 11 27  1  0  0  0  0
 12 13  2  0  0  0  0
 14 15  1  0  0  0  0
 14 28  1  0  0  0  0
 15 16  1  0  0  0  0
 15 29  1  0  0  0  0
 15 30  1  0  0  0  0
 16 21  1  0  0  0  0
 16 17  1  0  0  0  0
 16 31  1  0  0  0  0
 17 18  1  0  0  0  0
 17 32  1  0  0  0  0
 17 33  1  0  0  0  0
 18 19  1  0  0  0  0
 18 34  1  0  0  0  0
 18 35  1  0  0  0  0
 19 20  1  0  0  0  0
 19 36  1  0  0  0  0
 19 37  1  0  0  0  0
 20 21  1  0  0  0  0
 20 38  1  0  0  0  0
 20 39  1  0  0  0  0
 21 22  1  0  0  0  0
 21 40  1  0  0  0  0
 22 41  1  0  0  0  0
M  CHG  1   7   1
M  CHG  1   9  -1
M  END
> <s_m_source_file>
AV-unprocessed.smi

> <i_m_source_file_index>
771

> <i_lp_mmshare_version>
43012

> <i_f3d_flags>
0

> <s_epik_input>
Tz1jMVtjSF1bY0hdYyhbTitdKD1PKVtPLV0pW2NIXW4xW0NIMl1DKD1PKVtOSF1bQ0gyXVtDQEBIXTJbQ0gyXVtDSDJdW0NIMl1bQ0gyXVtDQEhdMltPSF0=

> <s_epik_cmdline>
J2VwaWtfcHl0aG9uJywgJy1waCcsICc3LjAnLCAnLXRuJywgJzgnLCAnLW1hJywgJzIwMCcsICctbWV0YWxfYmluZGluZycsICctaW1hZScsICc8aW5maWxlLm1hZT4nLCAnLW9tYWUnLCAnPG91dGZpbGUubWFlPic=

> <r_lp_tautomer_probability>
1

> <r_epik_Ionization_Penalty>
3.77175e-07

> <r_epik_Ionization_Penalty_Charging>
7.70067e-11

> <r_epik_Ionization_Penalty_Neutral>
3.77098e-07

> <r_epik_State_Penalty>
-0

> <r_epik_Charging_Adjusted_Penalty>
7.70067e-11

> <i_epik_Tot_Q>
0

> <i_epik_Tot_abs_Q>
2

> <r_epik_Metal_State_Penalty>
-0

> <b_epik_Metal_Only>
0

> <s_lp_Force_Field>
OPLS_2005

> <r_lp_Energy>
22.9473

> <b_lp_Chiralities_Consistent>
1

> <s_lp_Variant>
AV-unprocessed.smi:771-4

> <Gold.Version>
5.8.1

> <Gold.Id.Protein>
6NUR|6NUR_protein|mol2

> <Gold.PLP.Fitness>
48.2691

> <Gold.PLP.PLP>
-37.1876

> <Gold.PLP.part.hbond>
-3.0000

> <Gold.PLP.part.metal>
0.0000

> <Gold.PLP.part.buried>
-2.3901

> <Gold.PLP.part.nonpolar>
-31.9467

> <Gold.PLP.part.repulsive>
0.8248

> <Gold.PLP.ligand.clash>
0.0000

> <Gold.PLP.ligand.torsion>
0.4780

> <Gold.PLP.Chemscore.Hbond>
3.0000

> <Gold.PLP.Chemscore.CHOScore>
1.0000

> <Gold.PLP.Chemscore.Metal>
0.0000

> <Gold.Chemscore.Hbonds>
donor molecule, donor type, donor heavy atom, donor atom, acceptor molecule, acceptor atom, score
      L1  H    14    28       P1  7948  1.00
      L1  H    22    41       P1 10171  1.00
      P1  H 10752 10763       L1     8  1.00
      L1  C     5    25       P1  7948  1.00

> <Gold.PLP.Chemscore.Internal.Correction>
0.0375

> <Gold.Rescore>
     Score         DG    S(hbond)    S(metal)    S(lipo)     H(rot)  DE(clash)    DE(int)     intcor
     16.57     -18.69       3.65        0.00      62.95       2.48       0.09       2.02       ----

> <Gold.Chemscore.Fitness>
16.5736

> <Gold.Chemscore.DG>
-18.6883

> <Gold.Chemscore.ZeroCoef>
-5.4800

> <Gold.Chemscore.Hbond>
3.6465

> <Gold.Chemscore.Metal>
0.0000

> <Gold.Chemscore.Lipo>
62.9548

> <Gold.Chemscore.Internal_Hbond>
0.0000

> <Gold.Chemscore.DEClash>
0.0933

> <Gold.Chemscore.DEInternal>
2.0213

> <Gold.Chemscore.Rot>
2.4753

> <Gold.Chemscore.Internal.Correction>
   9.000000E+99

> <Gold.Chemscore.Hbonds>
donor molecule, donor type, donor heavy atom, donor atom, acceptor molecule, acceptor atom, score
      L1  H    14    28       P1  7948  0.99
      L1  H    22    41       P1 10171  1.00
      P1  H 10752 10763       L1     8  0.82

> <Gold.Chemscore.Hbond.Weighted>
-12.1794

> <Gold.Chemscore.Metal.Weighted>
-0.0000

> <Gold.Chemscore.Lipo.Weighted>
-7.3657

> <Gold.Chemscore.Internal_Hbond.Weighted>
0.0000

> <Gold.Chemscore.DEClash.Weighted>
0.0933

> <Gold.Chemscore.DEInternal.Weighted>
2.0213

> <Gold.Chemscore.Rot.Weighted>
6.3369

> <Gold.Chemscore.Internal.Correction.Weighted>
   9.000000E+99

> <Gold.Protein.RotatedTorsions>
[ 6907 6896 6895 6894 ] final   19.35 input  -60.11 | X-H torsion
[ 7974 7965 7964 7962 ] final  -13.71 input  175.53 | X-H torsion
[ 8008 7997 7996 7995 ] final   63.96 input   59.86 | X-H torsion
[ 10167 10162 10161 10158 ] final   11.83 input  -65.29 | X-H torsion
[ 10718 10713 10712 10709 ] final  -83.20 input   66.30 | X-H torsion
[ 10763 10752 10751 10750 ] final   63.04 input  -60.55 | X-H torsion
[ 11005 11000 10999 10996 ] final  -97.74 input  -57.11 | X-H torsion

> <Gold.Protein.ActiveResidues>
 VAL166  LYS551  ARG553  GLY616  TRP617  ASP618  TYR619  PRO620  LYS621  CYS622 
 ASP623  PHE694  ASN695  SER759  ASP760  ASP761  ALA762  ILE779  LEU786  VAL792 
 PHE793  MET794  SER795  GLU796  ALA797  LYS798  CYS799  TRP800  GLU811  SER814 

> <Gold.Protein.RotatedAtoms>
  151.8796  135.0459  160.0487 H   0  0  0  0  0  0  0  0  0  0  0  0  # atno 6907 bound_to 6896
  152.2523  133.5221  159.5341 H   0  0  0  0  0  0  0  0  0  0  0  0  # atno 6908 bound_to 6896
  150.7088  134.0859  159.3957 H   0  0  0  0  0  0  0  0  0  0  0  0  # atno 6909 bound_to 6896
  146.2103  140.3243  142.8393 H   0  0  0  0  0  0  0  0  0  0  0  0  # atno 7974 bound_to 7965
  155.6385  140.3496  155.4707 H   0  0  0  0  0  0  0  0  0  0  0  0  # atno 8008 bound_to 7997
  155.9945  140.1200  157.0630 H   0  0  0  0  0  0  0  0  0  0  0  0  # atno 8009 bound_to 7997
  154.4229  140.1113  156.5597 H   0  0  0  0  0  0  0  0  0  0  0  0  # atno 8010 bound_to 7997
  140.6107  143.8414  150.7062 H   0  0  0  0  0  0  0  0  0  0  0  0  # atno 10167 bound_to 10162
  156.0022  130.4658  150.4221 H   0  0  0  0  0  0  0  0  0  0  0  0  # atno 10718 bound_to 10713
  153.0004  135.5443  154.6289 H   0  0  0  0  0  0  0  0  0  0  0  0  # atno 10763 bound_to 10752
  154.5571  135.2831  155.0956 H   0  0  0  0  0  0  0  0  0  0  0  0  # atno 10764 bound_to 10752
  154.2173  135.6457  153.5186 H   0  0  0  0  0  0  0  0  0  0  0  0  # atno 10765 bound_to 10752
  141.1369  133.8193  157.0747 H   0  0  0  0  0  0  0  0  0  0  0  0  # atno 11005 bound_to 11000
  144.8897  140.7508  143.5934 LP  0  0  0  0  0  0  0  0  0  0  0  0  # atno 17320 bound_to 7965
  145.3165  139.1802  143.4610 LP  0  0  0  0  0  0  0  0  0  0  0  0  # atno 17321 bound_to 7965
  140.1981  143.3981  152.1812 LP  0  0  0  0  0  0  0  0  0  0  0  0  # atno 17342 bound_to 10162
  139.5359  144.7209  151.4896 LP  0  0  0  0  0  0  0  0  0  0  0  0  # atno 17343 bound_to 10162
  157.2276  131.0497  151.2511 LP  0  0  0  0  0  0  0  0  0  0  0  0  # atno 17370 bound_to 10713
  157.3742  130.7197  149.6585 LP  0  0  0  0  0  0  0  0  0  0  0  0  # atno 17371 bound_to 10713
  140.0489  134.9816  157.1100 LP  0  0  0  0  0  0  0  0  0  0  0  0  # atno 17394 bound_to 11000
  140.4020  134.2073  155.7163 LP  0  0  0  0  0  0  0  0  0  0  0  0  # atno 17395 bound_to 11000

$$$$
