AV-unprocessed.smi:2226|AV-procd|sdf|9009|dock3
  -GOLD-   2272012213D 1   1.00000     0.00000
 Structure written by MMmdl.
 40 42  0  0  0  0  0  0  0  0  2 V2000
  146.1648  140.4812  155.3094 C   0  0  0  0  0  0  0  0  0  0  0  0
  145.9184  139.5443  154.1874 N   0  3  2  0  0  0  0  0  0  0  0  0
  145.2775  138.2648  154.5739 C   0  0  2  0  0  0  0  0  0  0  0  0
  146.2490  137.3645  155.3780 C   0  0  0  0  0  0  0  0  0  0  0  0
  147.6186  137.1561  154.7066 C   0  0  0  0  0  0  0  0  0  0  0  0
  148.1645  138.4411  154.0591 C   0  0  0  0  0  0  0  0  0  0  0  0
  147.0937  139.2840  153.3224 C   0  0  1  0  0  0  0  0  0  0  0  0
  146.6091  138.7003  151.9746 C   0  0  0  0  0  0  0  0  0  0  0  0
  145.5803  137.5400  152.0717 C   0  0  1  0  0  0  0  0  0  0  0  0
  146.1933  136.2209  151.9349 N   0  0  0  0  0  0  0  0  0  0  0  0
  145.5462  135.0507  151.8208 C   0  0  0  0  0  0  0  0  0  0  0  0
  144.3126  134.9907  151.8224 O   0  0  0  0  0  0  0  0  0  0  0  0
  146.4605  134.0165  151.6878 N   0  0  0  0  0  0  0  0  0  0  0  0
  146.0336  132.8099  151.4768 C   0  0  0  0  0  0  0  0  0  0  0  0
  146.7897  131.6577  151.3322 N   0  0  0  0  0  0  0  0  0  0  0  0
  145.9347  130.6114  151.1197 C   0  0  0  0  0  0  0  0  0  0  0  0
  144.6918  131.0843  151.1278 C   0  0  0  0  0  0  0  0  0  0  0  0
  144.7181  132.4290  151.3432 O   0  0  0  0  0  0  0  0  0  0  0  0
  144.6586  137.6117  153.3160 C   0  0  0  0  0  0  0  0  0  0  0  0
  146.8824  140.0861  156.0280 H   0  0  0  0  0  0  0  0  0  0  0  0
  145.2359  140.6904  155.8403 H   0  0  0  0  0  0  0  0  0  0  0  0
  146.5498  141.4299  154.9346 H   0  0  0  0  0  0  0  0  0  0  0  0
  144.4422  138.4988  155.2357 H   0  0  0  0  0  0  0  0  0  0  0  0
  146.4138  137.8164  156.3564 H   0  0  0  0  0  0  0  0  0  0  0  0
  145.7860  136.3983  155.5808 H   0  0  0  0  0  0  0  0  0  0  0  0
  148.3325  136.7918  155.4459 H   0  0  0  0  0  0  0  0  0  0  0  0
  147.5635  136.3590  153.9729 H   0  0  0  0  0  0  0  0  0  0  0  0
  148.6154  139.0533  154.8405 H   0  0  0  0  0  0  0  0  0  0  0  0
  148.9808  138.1935  153.3795 H   0  0  0  0  0  0  0  0  0  0  0  0
  147.5532  140.2457  153.0892 H   0  0  0  0  0  0  0  0  0  0  0  0
  146.1205  139.5134  151.4359 H   0  0  0  0  0  0  0  0  0  0  0  0
  147.4612  138.4258  151.3516 H   0  0  0  0  0  0  0  0  0  0  0  0
  144.9187  137.6309  151.2077 H   0  0  0  0  0  0  0  0  0  0  0  0
  147.2026  136.1925  151.9226 H   0  0  0  0  0  0  0  0  0  0  0  0
  147.7940  131.5589  151.3679 H   0  0  0  0  0  0  0  0  0  0  0  0
  146.3181  129.6113  150.9810 H   0  0  0  0  0  0  0  0  0  0  0  0
  143.7270  130.6160  151.0006 H   0  0  0  0  0  0  0  0  0  0  0  0
  144.2493  136.6293  153.5560 H   0  0  0  0  0  0  0  0  0  0  0  0
  143.7937  138.2165  153.0395 H   0  0  0  0  0  0  0  0  0  0  0  0
  145.2476  140.0190  153.6002 H   0  0  0  0  0  0  0  0  0  0  0  0
  1  2  1  0  0  0  0
  1 20  1  0  0  0  0
  1 21  1  0  0  0  0
  1 22  1  0  0  0  0
  2  7  1  0  0  0  0
  2  3  1  0  0  0  0
  2 40  1  0  0  0  0
  3 19  1  0  0  0  0
  3  4  1  0  0  0  0
  3 23  1  0  0  0  0
  4  5  1  0  0  0  0
  4 24  1  0  0  0  0
  4 25  1  0  0  0  0
  5  6  1  0  0  0  0
  5 26  1  0  0  0  0
  5 27  1  0  0  0  0
  6  7  1  0  0  0  0
  6 28  1  0  0  0  0
  6 29  1  0  0  0  0
  7  8  1  0  0  0  0
  7 30  1  0  0  0  0
  8  9  1  0  0  0  0
  8 31  1  0  0  0  0
  8 32  1  0  0  0  0
  9 10  1  0  0  0  0
  9 19  1  0  0  0  0
  9 33  1  0  0  0  0
 10 34  1  0  0  0  0
 10 11  1  0  0  0  0
 11 13  1  0  0  0  0
 11 12  2  0  0  0  0
 13 14  2  0  0  0  0
 14 18  1  0  0  0  0
 14 15  1  0  0  0  0
 15 35  1  0  0  0  0
 15 16  1  0  0  0  0
 16 36  1  0  0  0  0
 16 17  2  0  0  0  0
 17 37  1  0  0  0  0
 17 18  1  0  0  0  0
 19 38  1  0  0  0  0
 19 39  1  0  0  0  0
M  CHG  1   2   1
M  END
> <s_m_source_file>
AV-unprocessed.smi

> <i_m_source_file_index>
2226

> <i_lp_mmshare_version>
43012

> <i_f3d_flags>
0

> <s_epik_input>
W0NIMl0xW0NIMl1bQ0gyXVtDQEhdKE4oW0NIM10pW0NIXTEyKVtDSDJdW0NASF0oW0NIMl0yKVtOSF1DKD1PKVtOSF1jM25bY0hdW2NIXW8z

> <s_epik_cmdline>
J2VwaWtfcHl0aG9uJywgJy1waCcsICc3LjAnLCAnLXRuJywgJzgnLCAnLW1hJywgJzIwMCcsICctbWV0YWxfYmluZGluZycsICctaW1hZScsICc8aW5maWxlLm1hZT4nLCAnLW9tYWUnLCAnPG91dGZpbGUubWFlPic=

> <r_lp_tautomer_probability>
0.107061

> <r_epik_Ionization_Penalty>
1.08307

> <r_epik_Ionization_Penalty_Charging>
1.08272

> <r_epik_Ionization_Penalty_Neutral>
0.000345913

> <r_epik_State_Penalty>
2.5744

> <r_epik_Charging_Adjusted_Penalty>
3.65713

> <i_epik_Tot_Q>
1

> <i_epik_Tot_abs_Q>
1

> <r_epik_Metal_State_Penalty>
3.72133

> <b_epik_Metal_Only>
0

> <s_lp_Force_Field>
OPLS_2005

> <r_lp_Energy>
58.5529

> <b_lp_Chiralities_Consistent>
1

> <s_lp_Variant>
AV-unprocessed.smi:2226-9

> <Gold.Version>
5.8.1

> <Gold.Id.Protein>
6NUR|6NUR_protein|mol2

> <Gold.PLP.Fitness>
34.3235

> <Gold.PLP.PLP>
-23.2843

> <Gold.PLP.part.hbond>
-3.0000

> <Gold.PLP.part.metal>
0.0000

> <Gold.PLP.part.buried>
-1.2608

> <Gold.PLP.part.nonpolar>
-20.0124

> <Gold.PLP.part.repulsive>
0.5056

> <Gold.PLP.ligand.clash>
0.0000

> <Gold.PLP.ligand.torsion>
0.0385

> <Gold.PLP.Chemscore.Hbond>
3.6880

> <Gold.PLP.Chemscore.CHOScore>
0.0000

> <Gold.PLP.Chemscore.Metal>
0.0000

> <Gold.Chemscore.Hbonds>
donor molecule, donor type, donor heavy atom, donor atom, acceptor molecule, acceptor atom, score
      L1  H     2    40       P1 10175  2.00
      L1  H    10    34       P1  7948  1.00
      L1  H    15    35       P1 10747  0.67

> <Gold.PLP.Chemscore.Internal.Correction>
0.0522

> <Gold.Rescore>
     Score         DG    S(hbond)    S(metal)    S(lipo)     H(rot)  DE(clash)    DE(int)     intcor
     16.91     -18.94       2.84        0.00      55.78       1.00       0.35       1.68       ----

> <Gold.Chemscore.Fitness>
16.9142

> <Gold.Chemscore.DG>
-18.9414

> <Gold.Chemscore.ZeroCoef>
-5.4800

> <Gold.Chemscore.Hbond>
2.8430

> <Gold.Chemscore.Metal>
0.0000

> <Gold.Chemscore.Lipo>
55.7777

> <Gold.Chemscore.Internal_Hbond>
0.0000

> <Gold.Chemscore.DEClash>
0.3469

> <Gold.Chemscore.DEInternal>
1.6804

> <Gold.Chemscore.Rot>
1.0000

> <Gold.Chemscore.Internal.Correction>
   9.000000E+99

> <Gold.Chemscore.Hbonds>
donor molecule, donor type, donor heavy atom, donor atom, acceptor molecule, acceptor atom, score
      L1  H     2    40       P1 10175  0.97
      L1  H    10    34       P1  7948  1.00
      L1  H    15    35       P1 10747  0.68

> <Gold.Chemscore.Hbond.Weighted>
-9.4955

> <Gold.Chemscore.Metal.Weighted>
-0.0000

> <Gold.Chemscore.Lipo.Weighted>
-6.5260

> <Gold.Chemscore.Internal_Hbond.Weighted>
0.0000

> <Gold.Chemscore.DEClash.Weighted>
0.3469

> <Gold.Chemscore.DEInternal.Weighted>
1.6804

> <Gold.Chemscore.Rot.Weighted>
2.5600

> <Gold.Chemscore.Internal.Correction.Weighted>
   9.000000E+99

> <Gold.Protein.RotatedTorsions>
[ 6907 6896 6895 6894 ] final -160.06 input  -60.11 | X-H torsion
[ 7974 7965 7964 7962 ] final   25.23 input  175.53 | X-H torsion
[ 8008 7997 7996 7995 ] final -110.99 input   59.86 | X-H torsion
[ 10167 10162 10161 10158 ] final  -78.76 input  -65.29 | X-H torsion
[ 10718 10713 10712 10709 ] final   13.66 input   66.30 | X-H torsion
[ 10763 10752 10751 10750 ] final  -45.55 input  -60.55 | X-H torsion
[ 11005 11000 10999 10996 ] final  121.37 input  -57.11 | X-H torsion

> <Gold.Protein.ActiveResidues>
 VAL166  LYS551  ARG553  GLY616  TRP617  ASP618  TYR619  PRO620  LYS621  CYS622 
 ASP623  PHE694  ASN695  SER759  ASP760  ASP761  ALA762  ILE779  LEU786  VAL792 
 PHE793  MET794  SER795  GLU796  ALA797  LYS798  CYS799  TRP800  GLU811  SER814 

> <Gold.Protein.RotatedAtoms>
  151.3433  133.3954  159.2672 H   0  0  0  0  0  0  0  0  0  0  0  0  # atno 6907 bound_to 6896
  150.9860  134.9206  159.7882 H   0  0  0  0  0  0  0  0  0  0  0  0  # atno 6908 bound_to 6896
  152.5232  134.3397  159.9265 H   0  0  0  0  0  0  0  0  0  0  0  0  # atno 6909 bound_to 6896
  146.1899  139.7495  142.8839 H   0  0  0  0  0  0  0  0  0  0  0  0  # atno 7974 bound_to 7965
  154.9829  140.0396  157.2285 H   0  0  0  0  0  0  0  0  0  0  0  0  # atno 8008 bound_to 7997
  154.7698  140.2799  155.6125 H   0  0  0  0  0  0  0  0  0  0  0  0  # atno 8009 bound_to 7997
  156.2919  140.2612  156.2497 H   0  0  0  0  0  0  0  0  0  0  0  0  # atno 8010 bound_to 7997
  140.4653  143.2442  151.8287 H   0  0  0  0  0  0  0  0  0  0  0  0  # atno 10167 bound_to 10162
  157.0279  130.6181  149.5731 H   0  0  0  0  0  0  0  0  0  0  0  0  # atno 10718 bound_to 10713
  154.0304  135.6657  153.4780 H   0  0  0  0  0  0  0  0  0  0  0  0  # atno 10763 bound_to 10752
  153.0543  135.5066  154.7938 H   0  0  0  0  0  0  0  0  0  0  0  0  # atno 10764 bound_to 10752
  154.6881  135.3056  154.9483 H   0  0  0  0  0  0  0  0  0  0  0  0  # atno 10765 bound_to 10752
  139.9223  134.9638  156.7949 H   0  0  0  0  0  0  0  0  0  0  0  0  # atno 11005 bound_to 11000
  145.3825  141.0360  143.3169 LP  0  0  0  0  0  0  0  0  0  0  0  0  # atno 17320 bound_to 7965
  144.8467  139.5386  143.6875 LP  0  0  0  0  0  0  0  0  0  0  0  0  # atno 17321 bound_to 7965
  139.4811  144.4958  151.9126 LP  0  0  0  0  0  0  0  0  0  0  0  0  # atno 17342 bound_to 10162
  140.4043  144.2452  150.5891 LP  0  0  0  0  0  0  0  0  0  0  0  0  # atno 17343 bound_to 10162
  156.0079  130.5168  150.7893 LP  0  0  0  0  0  0  0  0  0  0  0  0  # atno 17370 bound_to 10713
  157.5200  131.0931  151.0091 LP  0  0  0  0  0  0  0  0  0  0  0  0  # atno 17371 bound_to 10713
  140.6437  133.9795  155.7720 LP  0  0  0  0  0  0  0  0  0  0  0  0  # atno 17394 bound_to 11000
  141.0754  134.0143  157.3465 LP  0  0  0  0  0  0  0  0  0  0  0  0  # atno 17395 bound_to 11000

$$$$
