AV-unprocessed.smi:1584|AV-procd|sdf|6366|dock4
  -GOLD-   22720 6593D 1   1.00000     0.00000
 Structure written by MMmdl.
 39 40  0  0  0  0  0  0  0  0  1 V2000
  151.0957  143.3081  157.9368 C   0  0  0  0  0  0  0  0  0  0  0  0
  151.7734  141.9586  157.6632 C   0  0  1  0  0  0  0  0  0  0  0  0
  151.7327  141.0462  158.9090 C   0  0  0  0  0  0  0  0  0  0  0  0
  152.4001  141.6308  160.0593 N   0  0  0  0  0  0  0  0  0  0  0  0
  153.6515  141.3419  160.5622 C   0  0  0  0  0  0  0  0  0  0  0  0
  153.8563  142.1594  161.6363 C   0  0  0  0  0  0  0  0  0  0  0  0
  152.6551  142.9181  161.7169 C   0  0  0  0  0  0  0  0  0  0  0  0
  151.7832  142.5954  160.7753 N   0  0  0  0  0  0  0  0  0  0  0  0
  151.1116  141.3153  156.5287 N   0  0  0  0  0  0  0  0  0  0  0  0
  151.5176  140.1880  155.9225 C   0  0  0  0  0  0  0  0  0  0  0  0
  152.5506  139.5913  156.2285 O   0  0  0  0  0  0  0  0  0  0  0  0
  150.6057  139.6438  154.8099 C   0  0  2  0  0  0  0  0  0  0  0  0
  149.1458  139.5078  155.2656 C   0  0  0  0  0  0  0  0  0  0  0  0
  148.9601  138.3343  156.2370 C   0  0  0  0  0  0  0  0  0  0  0  0
  149.5785  137.0900  155.7625 N   0  0  0  0  0  0  0  0  0  0  0  0
  149.0675  135.8687  156.3874 C   0  0  0  0  0  0  0  0  0  0  0  0
  150.5895  137.0270  154.8620 C   0  0  0  0  0  0  0  0  0  0  0  0
  151.0977  135.9588  154.5191 O   0  0  0  0  0  0  0  0  0  0  0  0
  151.1294  138.3168  154.2140 C   0  0  0  0  0  0  0  0  0  0  0  0
  151.5821  143.8302  158.7613 H   0  0  0  0  0  0  0  0  0  0  0  0
  150.0446  143.1805  158.1980 H   0  0  0  0  0  0  0  0  0  0  0  0
  151.1462  143.9574  157.0623 H   0  0  0  0  0  0  0  0  0  0  0  0
  152.8157  142.1680  157.4153 H   0  0  0  0  0  0  0  0  0  0  0  0
  150.6990  140.8384  159.1889 H   0  0  0  0  0  0  0  0  0  0  0  0
  152.1943  140.0820  158.6911 H   0  0  0  0  0  0  0  0  0  0  0  0
  154.2884  140.5946  160.1127 H   0  0  0  0  0  0  0  0  0  0  0  0
  154.7314  142.2102  162.2667 H   0  0  0  0  0  0  0  0  0  0  0  0
  152.3923  143.6880  162.4272 H   0  0  0  0  0  0  0  0  0  0  0  0
  150.2555  141.7408  156.2038 H   0  0  0  0  0  0  0  0  0  0  0  0
  150.6248  140.3816  154.0057 H   0  0  0  0  0  0  0  0  0  0  0  0
  148.7972  140.4322  155.7283 H   0  0  0  0  0  0  0  0  0  0  0  0
  148.5133  139.3522  154.3906 H   0  0  0  0  0  0  0  0  0  0  0  0
  149.3874  138.5790  157.2101 H   0  0  0  0  0  0  0  0  0  0  0  0
  147.8923  138.1830  156.4007 H   0  0  0  0  0  0  0  0  0  0  0  0
  149.8756  135.3069  156.8584 H   0  0  0  0  0  0  0  0  0  0  0  0
  148.5949  135.2275  155.6423 H   0  0  0  0  0  0  0  0  0  0  0  0
  148.3285  136.0782  157.1616 H   0  0  0  0  0  0  0  0  0  0  0  0
  150.8508  138.2769  153.1604 H   0  0  0  0  0  0  0  0  0  0  0  0
  152.2203  138.2878  154.2281 H   0  0  0  0  0  0  0  0  0  0  0  0
  1  2  1  0  0  0  0
  1 20  1  0  0  0  0
  1 21  1  0  0  0  0
  1 22  1  0  0  0  0
  2  3  1  0  0  0  0
  2  9  1  0  0  0  0
  2 23  1  0  0  0  0
  3  4  1  0  0  0  0
  3 24  1  0  0  0  0
  3 25  1  0  0  0  0
  4  8  1  0  0  0  0
  4  5  1  0  0  0  0
  5  6  2  0  0  0  0
  5 26  1  0  0  0  0
  6  7  1  0  0  0  0
  6 27  1  0  0  0  0
  7  8  2  0  0  0  0
  7 28  1  0  0  0  0
  9 10  1  0  0  0  0
  9 29  1  0  0  0  0
 10 11  2  0  0  0  0
 10 12  1  0  0  0  0
 12 19  1  0  0  0  0
 12 13  1  0  0  0  0
 12 30  1  0  0  0  0
 13 14  1  0  0  0  0
 13 31  1  0  0  0  0
 13 32  1  0  0  0  0
 14 15  1  0  0  0  0
 14 33  1  0  0  0  0
 14 34  1  0  0  0  0
 15 16  1  0  0  0  0
 15 17  1  0  0  0  0
 16 35  1  0  0  0  0
 16 36  1  0  0  0  0
 16 37  1  0  0  0  0
 17 18  2  0  0  0  0
 17 19  1  0  0  0  0
 19 38  1  0  0  0  0
 19 39  1  0  0  0  0
M  END
> <s_m_source_file>
AV-unprocessed.smi

> <i_m_source_file_index>
1584

> <i_lp_mmshare_version>
43012

> <i_f3d_flags>
0

> <s_epik_input>
bjFbY0hdW2NIXVtjSF1uMVtDSDJdW0NAQEhdKFtDSDNdKVtOSF1DKD1PKVtDQEBIXTJbQ0gyXVtDSDJdTihbQ0gzXSlDKD1PKVtDSDJdMg==

> <s_epik_cmdline>
J2VwaWtfcHl0aG9uJywgJy1waCcsICc3LjAnLCAnLXRuJywgJzgnLCAnLW1hJywgJzIwMCcsICctbWV0YWxfYmluZGluZycsICctaW1hZScsICc8aW5maWxlLm1hZT4nLCAnLW9tYWUnLCAnPG91dGZpbGUubWFlPic=

> <r_lp_tautomer_probability>
1

> <r_epik_Ionization_Penalty>
0.000299422

> <r_epik_Ionization_Penalty_Charging>
0

> <r_epik_Ionization_Penalty_Neutral>
0.000299422

> <r_epik_State_Penalty>
-0

> <r_epik_Charging_Adjusted_Penalty>
0

> <i_epik_Tot_Q>
0

> <i_epik_Tot_abs_Q>
0

> <r_epik_Metal_State_Penalty>
-0

> <b_epik_Metal_Only>
0

> <s_lp_Force_Field>
OPLS_2005

> <r_lp_Energy>
11.5075

> <b_lp_Chiralities_Consistent>
1

> <s_lp_Variant>
AV-unprocessed.smi:1584-2

> <Gold.Version>
5.8.1

> <Gold.Id.Protein>
6NUR|6NUR_protein|mol2

> <Gold.PLP.Fitness>
41.0689

> <Gold.PLP.PLP>
-35.6366

> <Gold.PLP.part.hbond>
-3.0000

> <Gold.PLP.part.metal>
0.0000

> <Gold.PLP.part.buried>
-4.8828

> <Gold.PLP.part.nonpolar>
-27.3571

> <Gold.PLP.part.repulsive>
0.3498

> <Gold.PLP.ligand.clash>
0.0000

> <Gold.PLP.ligand.torsion>
0.3379

> <Gold.PLP.Chemscore.Hbond>
2.0186

> <Gold.PLP.Chemscore.CHOScore>
0.0000

> <Gold.PLP.Chemscore.Metal>
0.0000

> <Gold.Chemscore.Hbonds>
donor molecule, donor type, donor heavy atom, donor atom, acceptor molecule, acceptor atom, score
      P1  H  6933  6945       L1     8  0.01
      P1  H  7997  8008       L1    11  1.00
      P1  H 10752 10763       L1    18  1.00

> <Gold.PLP.Chemscore.Internal.Correction>
0.0524

> <Gold.Rescore>
     Score         DG    S(hbond)    S(metal)    S(lipo)     H(rot)  DE(clash)    DE(int)     intcor
     18.39     -18.98       2.58        0.00      78.42       1.67       0.07       0.53       ----

> <Gold.Chemscore.Fitness>
18.3878

> <Gold.Chemscore.DG>
-18.9794

> <Gold.Chemscore.ZeroCoef>
-5.4800

> <Gold.Chemscore.Hbond>
2.5772

> <Gold.Chemscore.Metal>
0.0000

> <Gold.Chemscore.Lipo>
78.4248

> <Gold.Chemscore.Internal_Hbond>
0.0000

> <Gold.Chemscore.DEClash>
0.0664

> <Gold.Chemscore.DEInternal>
0.5252

> <Gold.Chemscore.Rot>
1.6734

> <Gold.Chemscore.Internal.Correction>
   9.000000E+99

> <Gold.Chemscore.Hbonds>
donor molecule, donor type, donor heavy atom, donor atom, acceptor molecule, acceptor atom, score
      P1  H  7997  8008       L1    11  1.00
      P1  H 10752 10763       L1    18  0.98

> <Gold.Chemscore.Hbond.Weighted>
-8.6077

> <Gold.Chemscore.Metal.Weighted>
-0.0000

> <Gold.Chemscore.Lipo.Weighted>
-9.1757

> <Gold.Chemscore.Internal_Hbond.Weighted>
0.0000

> <Gold.Chemscore.DEClash.Weighted>
0.0664

> <Gold.Chemscore.DEInternal.Weighted>
0.5252

> <Gold.Chemscore.Rot.Weighted>
4.2840

> <Gold.Chemscore.Internal.Correction.Weighted>
   9.000000E+99

> <Gold.Protein.RotatedTorsions>
[ 6907 6896 6895 6894 ] final  140.44 input  -60.11 | X-H torsion
[ 7974 7965 7964 7962 ] final  153.72 input  175.53 | X-H torsion
[ 8008 7997 7996 7995 ] final  -43.49 input   59.86 | X-H torsion
[ 10167 10162 10161 10158 ] final -100.02 input  -65.29 | X-H torsion
[ 10718 10713 10712 10709 ] final   44.06 input   66.30 | X-H torsion
[ 10763 10752 10751 10750 ] final   65.26 input  -60.55 | X-H torsion
[ 11005 11000 10999 10996 ] final  173.51 input  -57.11 | X-H torsion

> <Gold.Protein.ActiveResidues>
 VAL166  LYS551  ARG553  GLY616  TRP617  ASP618  TYR619  PRO620  LYS621  CYS622 
 ASP623  PHE694  ASN695  SER759  ASP760  ASP761  ALA762  ILE779  LEU786  VAL792 
 PHE793  MET794  SER795  GLU796  ALA797  LYS798  CYS799  TRP800  GLU811  SER814 

> <Gold.Protein.RotatedAtoms>
  152.2430  133.5151  159.5280 H   0  0  0  0  0  0  0  0  0  0  0  0  # atno 6907 bound_to 6896
  150.7070  134.1063  159.3993 H   0  0  0  0  0  0  0  0  0  0  0  0  # atno 6908 bound_to 6896
  151.8984  135.0388  160.0555 H   0  0  0  0  0  0  0  0  0  0  0  0  # atno 6909 bound_to 6896
  144.8136  139.6838  143.6131 H   0  0  0  0  0  0  0  0  0  0  0  0  # atno 7974 bound_to 7965
  154.3997  140.1446  156.3527 H   0  0  0  0  0  0  0  0  0  0  0  0  # atno 8008 bound_to 7997
  155.8254  140.3468  155.5519 H   0  0  0  0  0  0  0  0  0  0  0  0  # atno 8009 bound_to 7997
  155.8244  140.0903  157.1820 H   0  0  0  0  0  0  0  0  0  0  0  0  # atno 8010 bound_to 7997
  140.2563  143.3438  152.0668 H   0  0  0  0  0  0  0  0  0  0  0  0  # atno 10167 bound_to 10162
  157.4227  130.7979  149.7530 H   0  0  0  0  0  0  0  0  0  0  0  0  # atno 10718 bound_to 10713
  153.0089  135.5363  154.6639 H   0  0  0  0  0  0  0  0  0  0  0  0  # atno 10763 bound_to 10752
  154.5841  135.2852  155.0705 H   0  0  0  0  0  0  0  0  0  0  0  0  # atno 10764 bound_to 10752
  154.1823  135.6514  153.5090 H   0  0  0  0  0  0  0  0  0  0  0  0  # atno 10765 bound_to 10752
  140.3412  134.7275  157.4203 H   0  0  0  0  0  0  0  0  0  0  0  0  # atno 11005 bound_to 11000
  146.2437  139.6053  142.9474 LP  0  0  0  0  0  0  0  0  0  0  0  0  # atno 17320 bound_to 7965
  145.5267  141.0429  143.2405 LP  0  0  0  0  0  0  0  0  0  0  0  0  # atno 17321 bound_to 7965
  139.5030  144.6747  151.6156 LP  0  0  0  0  0  0  0  0  0  0  0  0  # atno 17342 bound_to 10162
  140.6001  143.9624  150.6381 LP  0  0  0  0  0  0  0  0  0  0  0  0  # atno 17343 bound_to 10162
  155.9886  130.3958  150.3111 LP  0  0  0  0  0  0  0  0  0  0  0  0  # atno 17370 bound_to 10713
  157.1260  131.0259  151.2989 LP  0  0  0  0  0  0  0  0  0  0  0  0  # atno 17371 bound_to 10713
  140.0779  134.5771  155.8571 LP  0  0  0  0  0  0  0  0  0  0  0  0  # atno 17394 bound_to 11000
  141.2038  133.6634  156.6083 LP  0  0  0  0  0  0  0  0  0  0  0  0  # atno 17395 bound_to 11000

$$$$
