AV-unprocessed.smi:2219|AV-procd|sdf|8977|dock1
  -GOLD-   2272012193D 1   1.00000     0.00000
 Structure written by MMmdl.
 37 38  0  0  0  0  0  0  0  0  1 V2000
  145.9349  138.6614  153.7357 O   0  0  0  0  0  0  0  0  0  0  0  0
  146.7451  138.0244  153.0622 C   0  0  0  0  0  0  0  0  0  0  0  0
  146.3985  137.0353  152.2254 N   0  0  0  0  0  0  0  0  0  0  0  0
  145.0365  136.5673  151.9716 C   0  0  0  0  0  0  0  0  0  0  0  0
  144.9817  135.2750  151.1191 C   0  0  0  0  0  0  0  0  0  0  0  0
  144.7887  135.6807  149.7755 O   0  0  0  0  0  0  0  0  0  0  0  0
  146.2726  134.4219  151.2157 C   0  0  0  0  0  0  0  0  0  0  0  0
  146.1616  133.0727  150.4829 C   0  0  0  0  0  0  0  0  0  0  0  0
  144.9411  132.2728  150.9573 C   0  0  0  0  0  0  0  0  0  0  0  0
  143.6534  133.0907  150.7905 C   0  0  0  0  0  0  0  0  0  0  0  0
  143.7482  134.4360  151.5322 C   0  0  0  0  0  0  0  0  0  0  0  0
  148.0766  138.2121  153.0646 N   0  0  0  0  0  0  0  0  0  0  0  0
  148.8297  139.1571  153.8115 C   0  0  0  0  0  0  0  0  0  0  0  0
  148.2421  140.4382  153.9207 C   0  0  0  0  0  0  0  0  0  0  0  0
  148.9088  141.4477  154.6425 C   0  0  0  0  0  0  0  0  0  0  0  0
  150.1480  141.1480  155.2354 C   0  0  0  0  0  0  0  0  0  0  0  0
  150.8263  142.0860  155.9380 F   0  0  0  0  0  0  0  0  0  0  0  0
  150.6648  139.8488  155.0788 C   0  0  0  0  0  0  0  0  0  0  0  0
  150.0263  138.8802  154.3880 N   0  0  0  0  0  0  0  0  0  0  0  0
  147.1339  136.5611  151.7223 H   0  0  0  0  0  0  0  0  0  0  0  0
  144.5180  136.4059  152.9181 H   0  0  0  0  0  0  0  0  0  0  0  0
  144.4906  137.3698  151.4737 H   0  0  0  0  0  0  0  0  0  0  0  0
  145.3331  135.1429  149.2210 H   0  0  0  0  0  0  0  0  0  0  0  0
  147.1274  134.9695  150.8175 H   0  0  0  0  0  0  0  0  0  0  0  0
  146.4965  134.2325  152.2664 H   0  0  0  0  0  0  0  0  0  0  0  0
  146.0930  133.2410  149.4075 H   0  0  0  0  0  0  0  0  0  0  0  0
  147.0693  132.4906  150.6439 H   0  0  0  0  0  0  0  0  0  0  0  0
  144.8658  131.3402  150.3972 H   0  0  0  0  0  0  0  0  0  0  0  0
  145.0677  131.9964  152.0048 H   0  0  0  0  0  0  0  0  0  0  0  0
  143.4613  133.2623  149.7308 H   0  0  0  0  0  0  0  0  0  0  0  0
  142.8032  132.5209  151.1666 H   0  0  0  0  0  0  0  0  0  0  0  0
  143.7945  134.2350  152.6034 H   0  0  0  0  0  0  0  0  0  0  0  0
  142.8319  135.0065  151.3741 H   0  0  0  0  0  0  0  0  0  0  0  0
  148.6138  137.6104  152.4583 H   0  0  0  0  0  0  0  0  0  0  0  0
  147.2891  140.6502  153.4581 H   0  0  0  0  0  0  0  0  0  0  0  0
  148.4766  142.4327  154.7385 H   0  0  0  0  0  0  0  0  0  0  0  0
  151.6137  139.5794  155.5181 H   0  0  0  0  0  0  0  0  0  0  0  0
  1  2  2  0  0  0  0
  2  3  1  0  0  0  0
  2 12  1  0  0  0  0
  3  4  1  0  0  0  0
  3 20  1  0  0  0  0
  4  5  1  0  0  0  0
  4 21  1  0  0  0  0
  4 22  1  0  0  0  0
  5 11  1  0  0  0  0
  5  6  1  0  0  0  0
  5  7  1  0  0  0  0
  6 23  1  0  0  0  0
  7  8  1  0  0  0  0
  7 24  1  0  0  0  0
  7 25  1  0  0  0  0
  8  9  1  0  0  0  0
  8 26  1  0  0  0  0
  8 27  1  0  0  0  0
  9 10  1  0  0  0  0
  9 28  1  0  0  0  0
  9 29  1  0  0  0  0
 10 11  1  0  0  0  0
 10 30  1  0  0  0  0
 10 31  1  0  0  0  0
 11 32  1  0  0  0  0
 11 33  1  0  0  0  0
 12 13  1  0  0  0  0
 12 34  1  0  0  0  0
 13 19  1  0  0  0  0
 13 14  2  0  0  0  0
 14 15  1  0  0  0  0
 14 35  1  0  0  0  0
 15 16  2  0  0  0  0
 15 36  1  0  0  0  0
 16 17  1  0  0  0  0
 16 18  1  0  0  0  0
 18 19  2  0  0  0  0
 18 37  1  0  0  0  0
M  END
> <s_m_source_file>
AV-unprocessed.smi

> <i_m_source_file_index>
2219

> <i_lp_mmshare_version>
43012

> <i_f3d_flags>
0

> <s_epik_input>
bjFbY0hdYyhGKVtjSF1bY0hdYzFbTkhdQyg9TylbTkhdW0NIMl1DMihbT0hdKVtDSDJdW0NIMl1bQ0gyXVtDSDJdW0NIMl0y

> <s_epik_cmdline>
J2VwaWtfcHl0aG9uJywgJy1waCcsICc3LjAnLCAnLXRuJywgJzgnLCAnLW1hJywgJzIwMCcsICctbWV0YWxfYmluZGluZycsICctaW1hZScsICc8aW5maWxlLm1hZT4nLCAnLW9tYWUnLCAnPG91dGZpbGUubWFlPic=

> <r_lp_tautomer_probability>
1

> <r_epik_Ionization_Penalty>
4.27965e-05

> <r_epik_Ionization_Penalty_Charging>
0

> <r_epik_Ionization_Penalty_Neutral>
4.27965e-05

> <r_epik_State_Penalty>
-0

> <r_epik_Charging_Adjusted_Penalty>
0

> <i_epik_Tot_Q>
0

> <i_epik_Tot_abs_Q>
0

> <r_epik_Metal_State_Penalty>
-0

> <b_epik_Metal_Only>
0

> <s_lp_Force_Field>
OPLS_2005

> <r_lp_Energy>
17.1775

> <b_lp_Chiralities_Consistent>
1

> <s_lp_Variant>
AV-unprocessed.smi:2219-1

> <Gold.Version>
5.8.1

> <Gold.Id.Protein>
6NUR|6NUR_protein|mol2

> <Gold.PLP.Fitness>
43.6599

> <Gold.PLP.PLP>
-37.0722

> <Gold.PLP.part.hbond>
-4.5154

> <Gold.PLP.part.metal>
0.0000

> <Gold.PLP.part.buried>
-4.0475

> <Gold.PLP.part.nonpolar>
-29.7387

> <Gold.PLP.part.repulsive>
0.4015

> <Gold.PLP.ligand.clash>
0.0000

> <Gold.PLP.ligand.torsion>
1.0299

> <Gold.PLP.Chemscore.Hbond>
2.8800

> <Gold.PLP.Chemscore.CHOScore>
0.0000

> <Gold.PLP.Chemscore.Metal>
0.0000

> <Gold.Chemscore.Hbonds>
donor molecule, donor type, donor heavy atom, donor atom, acceptor molecule, acceptor atom, score
      L1  H     3    20       P1  7948  0.82
      L1  H     6    23       P1  7921  1.00
      L1  H    12    34       P1  7948  0.96

> <Gold.PLP.Chemscore.Internal.Correction>
0.0076

> <Gold.Rescore>
     Score         DG    S(hbond)    S(metal)    S(lipo)     H(rot)  DE(clash)    DE(int)     intcor
     16.46     -18.54       2.84        0.00      70.61       1.83       0.02       2.07       ----

> <Gold.Chemscore.Fitness>
16.4587

> <Gold.Chemscore.DG>
-18.5411

> <Gold.Chemscore.ZeroCoef>
-5.4800

> <Gold.Chemscore.Hbond>
2.8423

> <Gold.Chemscore.Metal>
0.0000

> <Gold.Chemscore.Lipo>
70.6056

> <Gold.Chemscore.Internal_Hbond>
0.0000

> <Gold.Chemscore.DEClash>
0.0173

> <Gold.Chemscore.DEInternal>
2.0651

> <Gold.Chemscore.Rot>
1.8332

> <Gold.Chemscore.Internal.Correction>
   9.000000E+99

> <Gold.Chemscore.Hbonds>
donor molecule, donor type, donor heavy atom, donor atom, acceptor molecule, acceptor atom, score
      L1  H     3    20       P1  7948  0.81
      L1  H     6    23       P1  7921  0.94
      L1  H    12    34       P1  7948  0.89

> <Gold.Chemscore.Hbond.Weighted>
-9.4933

> <Gold.Chemscore.Metal.Weighted>
-0.0000

> <Gold.Chemscore.Lipo.Weighted>
-8.2609

> <Gold.Chemscore.Internal_Hbond.Weighted>
0.0000

> <Gold.Chemscore.DEClash.Weighted>
0.0173

> <Gold.Chemscore.DEInternal.Weighted>
2.0651

> <Gold.Chemscore.Rot.Weighted>
4.6931

> <Gold.Chemscore.Internal.Correction.Weighted>
   9.000000E+99

> <Gold.Protein.RotatedTorsions>
[ 6907 6896 6895 6894 ] final   -4.21 input  -60.11 | X-H torsion
[ 7974 7965 7964 7962 ] final -149.63 input  175.53 | X-H torsion
[ 8008 7997 7996 7995 ] final  125.63 input   59.86 | X-H torsion
[ 10167 10162 10161 10158 ] final   95.68 input  -65.29 | X-H torsion
[ 10718 10713 10712 10709 ] final  -17.48 input   66.30 | X-H torsion
[ 10763 10752 10751 10750 ] final  109.21 input  -60.55 | X-H torsion
[ 11005 11000 10999 10996 ] final  100.03 input  -57.11 | X-H torsion

> <Gold.Protein.ActiveResidues>
 VAL166  LYS551  ARG553  GLY616  TRP617  ASP618  TYR619  PRO620  LYS621  CYS622 
 ASP623  PHE694  ASN695  SER759  ASP760  ASP761  ALA762  ILE779  LEU786  VAL792 
 PHE793  MET794  SER795  GLU796  ALA797  LYS798  CYS799  TRP800  GLU811  SER814 

> <Gold.Protein.RotatedAtoms>
  151.5014  135.1062  159.9829 H   0  0  0  0  0  0  0  0  0  0  0  0  # atno 6907 bound_to 6896
  152.4700  133.8004  159.6960 H   0  0  0  0  0  0  0  0  0  0  0  0  # atno 6908 bound_to 6896
  150.8704  133.7451  159.2989 H   0  0  0  0  0  0  0  0  0  0  0  0  # atno 6909 bound_to 6896
  144.7956  140.5039  143.5742 H   0  0  0  0  0  0  0  0  0  0  0  0  # atno 7974 bound_to 7965
  156.2840  140.2712  156.1981 H   0  0  0  0  0  0  0  0  0  0  0  0  # atno 8008 bound_to 7997
  155.0389  140.0386  157.2520 H   0  0  0  0  0  0  0  0  0  0  0  0  # atno 8009 bound_to 7997
  154.7291  140.2703  155.6478 H   0  0  0  0  0  0  0  0  0  0  0  0  # atno 8010 bound_to 7997
  139.7965  144.6831  150.9822 H   0  0  0  0  0  0  0  0  0  0  0  0  # atno 10167 bound_to 10162
  156.5729  130.4754  149.6354 H   0  0  0  0  0  0  0  0  0  0  0  0  # atno 10718 bound_to 10713
  153.4315  135.3787  155.2173 H   0  0  0  0  0  0  0  0  0  0  0  0  # atno 10763 bound_to 10752
  154.8750  135.3841  154.4262 H   0  0  0  0  0  0  0  0  0  0  0  0  # atno 10764 bound_to 10752
  153.4795  135.7088  153.6009 H   0  0  0  0  0  0  0  0  0  0  0  0  # atno 10765 bound_to 10752
  139.8771  134.9122  156.4695 H   0  0  0  0  0  0  0  0  0  0  0  0  # atno 11005 bound_to 11000
  145.5682  139.1482  143.3303 LP  0  0  0  0  0  0  0  0  0  0  0  0  # atno 17320 bound_to 7965
  146.2223  140.5816  142.9012 LP  0  0  0  0  0  0  0  0  0  0  0  0  # atno 17321 bound_to 7965
  140.7820  143.4326  151.0672 LP  0  0  0  0  0  0  0  0  0  0  0  0  # atno 17342 bound_to 10162
  139.8000  143.8097  152.3162 LP  0  0  0  0  0  0  0  0  0  0  0  0  # atno 17343 bound_to 10162
  156.2698  130.7010  151.1804 LP  0  0  0  0  0  0  0  0  0  0  0  0  # atno 17370 bound_to 10713
  157.7344  131.0582  150.5526 LP  0  0  0  0  0  0  0  0  0  0  0  0  # atno 17371 bound_to 10713
  140.8806  133.7921  155.9462 LP  0  0  0  0  0  0  0  0  0  0  0  0  # atno 17394 bound_to 11000
  140.8858  134.2556  157.5120 LP  0  0  0  0  0  0  0  0  0  0  0  0  # atno 17395 bound_to 11000

$$$$
