#       Name:                AV-unprocessed.smi:1790
#       Creating user name   scv26
#       Creation time:       Fri Mar 27 08:45:45 2020


#       File generated by GOLD software.
#

@<TRIPOS>MOLECULE
AV-unprocessed.smi:1790
    39    40     1
SMALL
NO_CHARGES


@<TRIPOS>ATOM
      1 ****        -0.2821   1.7192   2.1131 O.2            1 S1                 0.0000
      2 ****         0.2628   0.9015   1.3732 C.2            1 S1                 0.0000
      3 ****         1.7676   1.0083   1.1291 C.3            1 S1                 0.0000
      4 ****         2.0296   0.8262  -0.2536 O.3            1 S1                 0.0000
      5 ****         3.4105   0.8954  -0.5612 C.3            1 S1                 0.0000
      6 ****         3.5926   0.6651  -2.0459 C.3            1 S1                 0.0000
      7 ****         3.7834  -0.7327  -2.5902 C.3            1 S1                 0.0000
      8 ****         4.9354   0.2398  -2.5951 C.3            1 S1                 0.0000
      9 ****        -0.3522  -0.1313   0.7627 N.am           1 S1                 0.0000
     10 ****        -1.7069  -0.5049   0.7719 C.2            1 S1                 0.0000
     11 ****        -2.7295   0.2744   1.2121 C.2            1 S1                 0.0000
     12 ****        -4.1105  -0.1779   1.1871 C.2            1 S1                 0.0000
     13 ****        -5.2503   0.7256   1.6317 C.3            1 S1                 0.0000
     14 ****        -6.3910   0.4070   1.0187 F              1 S1                 0.0000
     15 ****        -5.4372   0.6057   2.9453 F              1 S1                 0.0000
     16 ****        -4.9762   2.0032   1.3675 F              1 S1                 0.0000
     17 ****        -4.3320  -1.4030   0.6762 C.2            1 S1                 0.0000
     18 ****        -3.2873  -2.2105   0.2219 N.am           1 S1                 0.0000
     19 ****        -1.9856  -1.8458   0.2309 C.2            1 S1                 0.0000
     20 ****        -1.1234  -2.6140  -0.1943 O.2            1 S1                 0.0000
     21 ****        -3.5344  -3.1206  -0.1390 H              1 S1                 0.0000
     22 ****         2.1291   1.9842   1.4584 H              1 S1                 0.0000
     23 ****         2.2776   0.2450   1.7188 H              1 S1                 0.0000
     24 ****         3.8092   1.8771  -0.3012 H              1 S1                 0.0000
     25 ****         3.9686   0.1447   0.0012 H              1 S1                 0.0000
     26 ****         3.0239   1.3516  -2.6703 H              1 S1                 0.0000
     27 ****         3.8226  -1.5540  -1.8775 H              1 S1                 0.0000
     28 ****         3.3166  -0.9665  -3.5448 H              1 S1                 0.0000
     29 ****         5.2393   0.6541  -3.5544 H              1 S1                 0.0000
     30 ****         5.7421   0.0656  -1.8858 H              1 S1                 0.0000
     31 ****         0.2477  -0.7494   0.2348 H              1 S1                 0.0000
     32 ****        -2.5517   1.2680   1.5885 H              1 S1                 0.0000
     33 ****        -5.3086  -1.8521   0.5718 H              1 S1                 0.0000
     34 ****         0.2588   2.4409   2.5451 LP             1 S1                 0.0000
     35 ****        -1.2660   1.6624   2.2825 LP             1 S1                 0.0000
     36 ****         1.5513   1.5390  -0.7666 LP             1 S1                 0.0000
     37 ****         1.6849  -0.0711  -0.5293 LP             1 S1                 0.0000
     38 ****        -0.1616  -2.3401  -0.1859 LP             1 S1                 0.0000
     39 ****        -1.3845  -3.5121  -0.5483 LP             1 S1                 0.0000
@<TRIPOS>BOND
    1    1    2 2     
    2    2    3 1     
    3    2    9 am    
    4    3    4 1     
    5    3   22 1     
    6    3   23 1     
    7    4    5 1     
    8    5    6 1     
    9    5   24 1     
   10    5   25 1     
   11    6    8 1     
   12    6    7 1     
   13    6   26 1     
   14    7    8 1     
   15    7   27 1     
   16    7   28 1     
   17    8   29 1     
   18    8   30 1     
   19    9   10 1     
   20    9   31 1     
   21   10   19 1     
   22   10   11 2     
   23   11   12 1     
   24   11   32 1     
   25   12   13 1     
   26   12   17 2     
   27   13   14 1     
   28   13   15 1     
   29   13   16 1     
   30   17   18 1     
   31   17   33 1     
   32   18   21 1     
   33   18   19 am    
   34   19   20 2     
   35    1   34 1     
   36    1   35 1     
   37    4   36 1     
   38    4   37 1     
   39   20   38 1     
   40   20   39 1     
@<TRIPOS>SUBSTRUCTURE
      1 S1             1
@<TRIPOS>SET
LONE_PAIRS      STATIC     ATOMS    <user>   **** ""
6 34 35 36 37 38 39
DONOR_HYDROGENS      STATIC     ATOMS    <user>   **** ""
2 31 21
ATOM$BLUE        STATIC     ATOMS    COLORGROUP SYSTEM
6 34 35 36 37 38 39
ATOM$RED        STATIC     ATOMS    COLORGROUP SYSTEM
2 31 21
