AV-unprocessed.smi:3231|AV-procd|sdf|12335|dock5
  -GOLD-   2272018193D 1   1.00000     0.00000
 Structure written by MMmdl.
 42 43  0  0  0  0  0  0  0  0  3 V2000
  147.6981  138.3722  151.5555 O   0  0  0  0  0  0  0  0  0  0  0  0
  146.5960  138.8828  152.2812 C   0  0  2  0  0  0  0  0  0  0  0  0
  147.1058  140.0320  153.1702 C   0  0  0  0  0  0  0  0  0  0  0  0
  148.5677  139.9556  153.3696 N   0  3  0  0  0  0  0  0  0  0  0  0
  149.0686  140.7914  154.4778 C   0  0  0  0  0  0  0  0  0  0  0  0
  150.4054  140.2553  155.0107 C   0  0  0  0  0  0  0  0  0  0  0  0
  150.8869  141.0314  156.1371 N   0  0  0  0  0  0  0  0  0  0  0  0
  150.9769  142.4021  156.2614 C   0  0  0  0  0  0  0  0  0  0  0  0
  151.4953  142.6640  157.4972 C   0  0  0  0  0  0  0  0  0  0  0  0
  151.6953  141.3728  158.0610 C   0  0  0  0  0  0  0  0  0  0  0  0
  151.3310  140.3977  157.2439 N   0  0  0  0  0  0  0  0  0  0  0  0
  145.9848  137.7429  153.1255 C   0  0  0  0  0  0  0  0  0  0  0  0
  146.2671  136.3869  152.5848 N   0  3  0  0  0  0  0  0  0  0  0  0
  146.2178  135.3434  153.6376 C   0  0  0  0  0  0  0  0  0  0  0  0
  146.5665  133.9643  153.0521 C   0  0  0  0  0  0  0  0  0  0  0  0
  145.6762  133.6617  151.9859 O   0  0  0  0  0  0  0  0  0  0  0  0
  145.7780  134.6031  150.9255 C   0  0  0  0  0  0  0  0  0  0  0  0
  145.4037  136.0047  151.4390 C   0  0  0  0  0  0  0  0  0  0  0  0
  148.0930  137.6686  152.0480 H   0  0  0  0  0  0  0  0  0  0  0  0
  145.8618  139.2796  151.5809 H   0  0  0  0  0  0  0  0  0  0  0  0
  146.8750  140.9906  152.7034 H   0  0  0  0  0  0  0  0  0  0  0  0
  146.6000  140.0192  154.1372 H   0  0  0  0  0  0  0  0  0  0  0  0
  148.8101  138.9937  153.5622 H   0  0  0  0  0  0  0  0  0  0  0  0
  149.1903  141.8183  154.1302 H   0  0  0  0  0  0  0  0  0  0  0  0
  148.3245  140.8061  155.2756 H   0  0  0  0  0  0  0  0  0  0  0  0
  150.3033  139.2159  155.3267 H   0  0  0  0  0  0  0  0  0  0  0  0
  151.1631  140.2753  154.2261 H   0  0  0  0  0  0  0  0  0  0  0  0
  150.6686  143.0702  155.4703 H   0  0  0  0  0  0  0  0  0  0  0  0
  151.7022  143.6308  157.9321 H   0  0  0  0  0  0  0  0  0  0  0  0
  152.0921  141.1170  159.0324 H   0  0  0  0  0  0  0  0  0  0  0  0
  146.3791  137.8160  154.1406 H   0  0  0  0  0  0  0  0  0  0  0  0
  144.9046  137.8713  153.2115 H   0  0  0  0  0  0  0  0  0  0  0  0
  146.9198  135.5877  154.4357 H   0  0  0  0  0  0  0  0  0  0  0  0
  145.2218  135.3183  154.0828 H   0  0  0  0  0  0  0  0  0  0  0  0
  147.5992  133.9387  152.7004 H   0  0  0  0  0  0  0  0  0  0  0  0
  146.4729  133.1958  153.8195 H   0  0  0  0  0  0  0  0  0  0  0  0
  146.7878  134.5957  150.5116 H   0  0  0  0  0  0  0  0  0  0  0  0
  145.1036  134.3045  150.1227 H   0  0  0  0  0  0  0  0  0  0  0  0
  144.3571  136.0186  151.7473 H   0  0  0  0  0  0  0  0  0  0  0  0
  145.5065  136.7198  150.6241 H   0  0  0  0  0  0  0  0  0  0  0  0
  149.0276  140.2400  152.5167 H   0  0  0  0  0  0  0  0  0  0  0  0
  147.2196  136.3989  152.2490 H   0  0  0  0  0  0  0  0  0  0  0  0
  1  2  1  0  0  0  0
  1 19  1  0  0  0  0
  2  3  1  0  0  0  0
  2 12  1  0  0  0  0
  2 20  1  0  0  0  0
  3  4  1  0  0  0  0
  3 21  1  0  0  0  0
  3 22  1  0  0  0  0
  4  5  1  0  0  0  0
  4 23  1  0  0  0  0
  4 41  1  0  0  0  0
  5  6  1  0  0  0  0
  5 24  1  0  0  0  0
  5 25  1  0  0  0  0
  6  7  1  0  0  0  0
  6 26  1  0  0  0  0
  6 27  1  0  0  0  0
  7 11  1  0  0  0  0
  7  8  1  0  0  0  0
  8  9  2  0  0  0  0
  8 28  1  0  0  0  0
  9 10  1  0  0  0  0
  9 29  1  0  0  0  0
 10 11  2  0  0  0  0
 10 30  1  0  0  0  0
 12 13  1  0  0  0  0
 12 31  1  0  0  0  0
 12 32  1  0  0  0  0
 13 18  1  0  0  0  0
 13 14  1  0  0  0  0
 13 42  1  0  0  0  0
 14 15  1  0  0  0  0
 14 33  1  0  0  0  0
 14 34  1  0  0  0  0
 15 16  1  0  0  0  0
 15 35  1  0  0  0  0
 15 36  1  0  0  0  0
 16 17  1  0  0  0  0
 17 18  1  0  0  0  0
 17 37  1  0  0  0  0
 17 38  1  0  0  0  0
 18 39  1  0  0  0  0
 18 40  1  0  0  0  0
M  CHG  1   4   1
M  CHG  1  13   1
M  END
> <s_m_source_file>
AV-unprocessed.smi

> <i_m_source_file_index>
3231

> <i_lp_mmshare_version>
43012

> <i_f3d_flags>
0

> <s_epik_input>
W0NIMl0xW0NIMl1PW0NIMl1bQ0gyXU4xW0NIMl1bQ0BIXShbT0hdKVtDSDJdW05IXVtDSDJdW0NIMl1uMltjSF1bY0hdW2NIXW4y

> <s_epik_cmdline>
J2VwaWtfcHl0aG9uJywgJy1waCcsICc3LjAnLCAnLXRuJywgJzgnLCAnLW1hJywgJzIwMCcsICctbWV0YWxfYmluZGluZycsICctaW1hZScsICc8aW5maWxlLm1hZT4nLCAnLW9tYWUnLCAnPG91dGZpbGUubWFlPic=

> <r_lp_tautomer_probability>
1

> <r_epik_Ionization_Penalty>
2.09881

> <r_epik_Ionization_Penalty_Charging>
2.09628

> <r_epik_Ionization_Penalty_Neutral>
0.0025303

> <r_epik_State_Penalty>
1.58657

> <r_epik_Charging_Adjusted_Penalty>
3.68285

> <i_epik_Tot_Q>
2

> <i_epik_Tot_abs_Q>
2

> <r_epik_Metal_State_Penalty>
1.58685

> <b_epik_Metal_Only>
0

> <s_lp_Force_Field>
OPLS_2005

> <r_lp_Energy>
26.6316

> <b_lp_Chiralities_Consistent>
1

> <s_lp_Variant>
AV-unprocessed.smi:3231-5

> <Gold.Version>
5.8.1

> <Gold.Id.Protein>
6NUR|6NUR_protein|mol2

> <Gold.PLP.Fitness>
48.8505

> <Gold.PLP.PLP>
-34.3798

> <Gold.PLP.part.hbond>
-4.6268

> <Gold.PLP.part.metal>
0.0000

> <Gold.PLP.part.buried>
-2.9007

> <Gold.PLP.part.nonpolar>
-26.8044

> <Gold.PLP.part.repulsive>
0.2512

> <Gold.PLP.ligand.clash>
0.0000

> <Gold.PLP.ligand.torsion>
1.6099

> <Gold.PLP.Chemscore.Hbond>
4.8160

> <Gold.PLP.Chemscore.CHOScore>
0.9996

> <Gold.PLP.Chemscore.Metal>
0.0000

> <Gold.Chemscore.Hbonds>
donor molecule, donor type, donor heavy atom, donor atom, acceptor molecule, acceptor atom, score
      L1  H     1    19       P1  7948  0.82
      L1  H     4    41       P1  7957  0.89
      L1  H    13    42       P1  7948  2.00
      P1  H  7954  7966       L1     1  0.95
      L1  C     8    28       P1  8028  0.91

> <Gold.PLP.Chemscore.Internal.Correction>
0.2439

> <Gold.Rescore>
     Score         DG    S(hbond)    S(metal)    S(lipo)     H(rot)  DE(clash)    DE(int)     intcor
     15.59     -17.55       3.21        0.00      75.91       2.94       0.17       1.79       ----

> <Gold.Chemscore.Fitness>
15.5861

> <Gold.Chemscore.DG>
-17.5468

> <Gold.Chemscore.ZeroCoef>
-5.4800

> <Gold.Chemscore.Hbond>
3.2099

> <Gold.Chemscore.Metal>
0.0000

> <Gold.Chemscore.Lipo>
75.9112

> <Gold.Chemscore.Internal_Hbond>
0.0000

> <Gold.Chemscore.DEClash>
0.1739

> <Gold.Chemscore.DEInternal>
1.7868

> <Gold.Chemscore.Rot>
2.9437

> <Gold.Chemscore.Internal.Correction>
   9.000000E+99

> <Gold.Chemscore.Hbonds>
donor molecule, donor type, donor heavy atom, donor atom, acceptor molecule, acceptor atom, score
      L1  H     1    19       P1  7948  0.81
      L1  H     4    41       P1  7957  0.86
      L1  H    13    42       P1  7948  1.00
      P1  H  7954  7966       L1     1  0.21

> <Gold.Chemscore.Hbond.Weighted>
-10.7210

> <Gold.Chemscore.Metal.Weighted>
-0.0000

> <Gold.Chemscore.Lipo.Weighted>
-8.8816

> <Gold.Chemscore.Internal_Hbond.Weighted>
0.0000

> <Gold.Chemscore.DEClash.Weighted>
0.1739

> <Gold.Chemscore.DEInternal.Weighted>
1.7868

> <Gold.Chemscore.Rot.Weighted>
7.5359

> <Gold.Chemscore.Internal.Correction.Weighted>
   9.000000E+99

> <Gold.Protein.RotatedTorsions>
[ 6907 6896 6895 6894 ] final -145.45 input  -60.11 | X-H torsion
[ 7974 7965 7964 7962 ] final -102.67 input  175.53 | X-H torsion
[ 8008 7997 7996 7995 ] final  171.58 input   59.86 | X-H torsion
[ 10167 10162 10161 10158 ] final -147.60 input  -65.29 | X-H torsion
[ 10718 10713 10712 10709 ] final  100.18 input   66.30 | X-H torsion
[ 10763 10752 10751 10750 ] final -147.35 input  -60.55 | X-H torsion
[ 11005 11000 10999 10996 ] final  -82.69 input  -57.11 | X-H torsion

> <Gold.Protein.ActiveResidues>
 VAL166  LYS551  ARG553  GLY616  TRP617  ASP618  TYR619  PRO620  LYS621  CYS622 
 ASP623  PHE694  ASN695  SER759  ASP760  ASP761  ALA762  ILE779  LEU786  VAL792 
 PHE793  MET794  SER795  GLU796  ALA797  LYS798  CYS799  TRP800  GLU811  SER814 

> <Gold.Protein.RotatedAtoms>
  151.1279  133.5057  159.2599 H   0  0  0  0  0  0  0  0  0  0  0  0  # atno 6907 bound_to 6896
  151.1789  135.0351  159.8794 H   0  0  0  0  0  0  0  0  0  0  0  0  # atno 6908 bound_to 6896
  152.5458  134.1134  159.8421 H   0  0  0  0  0  0  0  0  0  0  0  0  # atno 6909 bound_to 6896
  145.2657  140.9283  143.3015 H   0  0  0  0  0  0  0  0  0  0  0  0  # atno 7974 bound_to 7965
  156.1257  140.1508  156.9139 H   0  0  0  0  0  0  0  0  0  0  0  0  # atno 8008 bound_to 7997
  154.4870  140.0862  156.7549 H   0  0  0  0  0  0  0  0  0  0  0  0  # atno 8009 bound_to 7997
  155.4347  140.3428  155.4286 H   0  0  0  0  0  0  0  0  0  0  0  0  # atno 8010 bound_to 7997
  139.7607  143.8381  152.2606 H   0  0  0  0  0  0  0  0  0  0  0  0  # atno 10167 bound_to 10162
  157.6860  131.0691  150.5061 H   0  0  0  0  0  0  0  0  0  0  0  0  # atno 10718 bound_to 10713
  154.8290  135.3362  154.6804 H   0  0  0  0  0  0  0  0  0  0  0  0  # atno 10763 bound_to 10752
  153.7426  135.6945  153.4968 H   0  0  0  0  0  0  0  0  0  0  0  0  # atno 10764 bound_to 10752
  153.2233  135.4441  155.0465 H   0  0  0  0  0  0  0  0  0  0  0  0  # atno 10765 bound_to 10752
  141.1662  133.7257  156.8609 H   0  0  0  0  0  0  0  0  0  0  0  0  # atno 11005 bound_to 11000
  144.9379  139.4223  143.6463 LP  0  0  0  0  0  0  0  0  0  0  0  0  # atno 17320 bound_to 7965
  146.3262  139.8323  142.8906 LP  0  0  0  0  0  0  0  0  0  0  0  0  # atno 17321 bound_to 7965
  139.8386  144.7220  150.9359 LP  0  0  0  0  0  0  0  0  0  0  0  0  # atno 17342 bound_to 10162
  140.7807  143.4004  151.1159 LP  0  0  0  0  0  0  0  0  0  0  0  0  # atno 17343 bound_to 10162
  156.5380  130.4201  149.6168 LP  0  0  0  0  0  0  0  0  0  0  0  0  # atno 17370 bound_to 10713
  156.3010  130.7177  151.2049 LP  0  0  0  0  0  0  0  0  0  0  0  0  # atno 17371 bound_to 10713
  140.1849  134.9007  157.2993 LP  0  0  0  0  0  0  0  0  0  0  0  0  # atno 17394 bound_to 11000
  140.2354  134.3859  155.7503 LP  0  0  0  0  0  0  0  0  0  0  0  0  # atno 17395 bound_to 11000

$$$$
