AV-unprocessed.smi:3183|AV-procd|sdf|12157|dock7
  -GOLD-   2272017593D 1   1.00000     0.00000
 Structure written by MMmdl.
 43 44  0  0  0  0  0  0  0  0  2 V2000
  153.1021  142.9005  161.1941 C   0  0  0  0  0  0  0  0  0  0  0  0
  152.1131  142.6089  160.0535 C   0  0  2  0  0  0  0  0  0  0  0  0
  152.7493  141.7380  158.9528 C   0  0  0  0  0  0  0  0  0  0  0  0
  151.7285  141.3799  157.8615 C   0  0  0  0  0  0  0  0  0  0  0  0
  151.0820  142.6353  157.2486 C   0  0  1  0  0  0  0  0  0  0  0  0
  150.0828  142.2342  156.2332 N   0  3  0  0  0  0  0  0  0  0  0  0
  148.9806  141.3842  156.7305 C   0  0  0  0  0  0  0  0  0  0  0  0
  148.1126  140.8756  155.5702 C   0  0  0  0  0  0  0  0  0  0  0  0
  147.1316  141.8814  155.0490 C   0  0  0  0  0  0  0  0  0  0  0  0
  146.8735  142.3148  153.7767 C   0  0  0  0  0  0  0  0  0  0  0  0
  145.8351  143.2725  153.9386 C   0  0  0  0  0  0  0  0  0  0  0  0
  145.4773  143.4230  155.2015 N   0  0  0  0  0  0  0  0  0  0  0  0
  146.2718  142.5720  155.8842 N   0  0  0  0  0  0  0  0  0  0  0  0
  146.1374  142.4799  157.3254 C   0  0  0  0  0  0  0  0  0  0  0  0
  150.4507  143.5068  158.3582 C   0  0  0  0  0  0  0  0  0  0  0  0
  151.4604  143.8849  159.4632 C   0  0  2  0  0  0  0  0  0  0  0  0
  152.4701  144.9427  158.9727 C   0  0  0  0  0  0  0  0  0  0  0  0
  153.9955  143.4118  160.8350 H   0  0  0  0  0  0  0  0  0  0  0  0
  153.4274  141.9757  161.6716 H   0  0  0  0  0  0  0  0  0  0  0  0
  152.6445  143.5232  161.9634 H   0  0  0  0  0  0  0  0  0  0  0  0
  151.3068  142.0209  160.4952 H   0  0  0  0  0  0  0  0  0  0  0  0
  153.6004  142.2541  158.5075 H   0  0  0  0  0  0  0  0  0  0  0  0
  153.1459  140.8206  159.3896 H   0  0  0  0  0  0  0  0  0  0  0  0
  152.2194  140.7939  157.0834 H   0  0  0  0  0  0  0  0  0  0  0  0
  150.9566  140.7380  158.2889 H   0  0  0  0  0  0  0  0  0  0  0  0
  151.8635  143.2021  156.7409 H   0  0  0  0  0  0  0  0  0  0  0  0
  149.6670  143.0791  155.8679 H   0  0  0  0  0  0  0  0  0  0  0  0
  149.3904  140.5375  157.2809 H   0  0  0  0  0  0  0  0  0  0  0  0
  148.3679  141.9601  157.4255 H   0  0  0  0  0  0  0  0  0  0  0  0
  148.7599  140.5563  154.7525 H   0  0  0  0  0  0  0  0  0  0  0  0
  147.5695  139.9865  155.8929 H   0  0  0  0  0  0  0  0  0  0  0  0
  147.3526  141.9973  152.8625 H   0  0  0  0  0  0  0  0  0  0  0  0
  145.3339  143.8578  153.1816 H   0  0  0  0  0  0  0  0  0  0  0  0
  147.1167  142.5726  157.7949 H   0  0  0  0  0  0  0  0  0  0  0  0
  145.7035  141.5157  157.5910 H   0  0  0  0  0  0  0  0  0  0  0  0
  145.4922  143.2739  157.7037 H   0  0  0  0  0  0  0  0  0  0  0  0
  150.0224  144.4174  157.9394 H   0  0  0  0  0  0  0  0  0  0  0  0
  149.6181  142.9648  158.8093 H   0  0  0  0  0  0  0  0  0  0  0  0
  150.8897  144.3579  160.2636 H   0  0  0  0  0  0  0  0  0  0  0  0
  153.1411  144.5512  158.2089 H   0  0  0  0  0  0  0  0  0  0  0  0
  153.0847  145.3176  159.7909 H   0  0  0  0  0  0  0  0  0  0  0  0
  151.9548  145.8033  158.5457 H   0  0  0  0  0  0  0  0  0  0  0  0
  150.5561  141.7588  155.4779 H   0  0  0  0  0  0  0  0  0  0  0  0
  1  2  1  0  0  0  0
  1 18  1  0  0  0  0
  1 19  1  0  0  0  0
  1 20  1  0  0  0  0
  2 16  1  0  0  0  0
  2  3  1  0  0  0  0
  2 21  1  0  0  0  0
  3  4  1  0  0  0  0
  3 22  1  0  0  0  0
  3 23  1  0  0  0  0
  4  5  1  0  0  0  0
  4 24  1  0  0  0  0
  4 25  1  0  0  0  0
  5  6  1  0  0  0  0
  5 15  1  0  0  0  0
  5 26  1  0  0  0  0
  6  7  1  0  0  0  0
  6 27  1  0  0  0  0
  6 43  1  0  0  0  0
  7  8  1  0  0  0  0
  7 28  1  0  0  0  0
  7 29  1  0  0  0  0
  8  9  1  0  0  0  0
  8 30  1  0  0  0  0
  8 31  1  0  0  0  0
  9 13  1  0  0  0  0
  9 10  2  0  0  0  0
 10 11  1  0  0  0  0
 10 32  1  0  0  0  0
 11 12  2  0  0  0  0
 11 33  1  0  0  0  0
 12 13  1  0  0  0  0
 13 14  1  0  0  0  0
 14 34  1  0  0  0  0
 14 35  1  0  0  0  0
 14 36  1  0  0  0  0
 15 16  1  0  0  0  0
 15 37  1  0  0  0  0
 15 38  1  0  0  0  0
 16 17  1  0  0  0  0
 16 39  1  0  0  0  0
 17 40  1  0  0  0  0
 17 41  1  0  0  0  0
 17 42  1  0  0  0  0
M  CHG  1   6   1
M  END
> <s_m_source_file>
AV-unprocessed.smi

> <i_m_source_file_index>
3183

> <i_lp_mmshare_version>
43012

> <i_f3d_flags>
0

> <s_epik_input>
W0NIM11bQ0BASF0xW0NIMl1bQ0gyXVtDQEhdKFtDSDJdW0NASF0xW0NIM10pW05IXVtDSDJdW0NIMl1jMltjSF1bY0hdbm4yW0NIM10=

> <s_epik_cmdline>
J2VwaWtfcHl0aG9uJywgJy1waCcsICc3LjAnLCAnLXRuJywgJzgnLCAnLW1hJywgJzIwMCcsICctbWV0YWxfYmluZGluZycsICctaW1hZScsICc8aW5maWxlLm1hZT4nLCAnLW9tYWUnLCAnPG91dGZpbGUubWFlPic=

> <r_lp_tautomer_probability>
1

> <r_epik_Ionization_Penalty>
0.000327718

> <r_epik_Ionization_Penalty_Charging>
0.000294043

> <r_epik_Ionization_Penalty_Neutral>
3.36755e-05

> <r_epik_State_Penalty>
-0

> <r_epik_Charging_Adjusted_Penalty>
0.000294043

> <i_epik_Tot_Q>
1

> <i_epik_Tot_abs_Q>
1

> <r_epik_Metal_State_Penalty>
-0

> <b_epik_Metal_Only>
0

> <s_lp_Force_Field>
OPLS_2005

> <r_lp_Energy>
13.9597

> <b_lp_Chiralities_Consistent>
1

> <s_lp_Variant>
AV-unprocessed.smi:3183-5

> <Gold.Version>
5.8.1

> <Gold.Id.Protein>
6NUR|6NUR_protein|mol2

> <Gold.PLP.Fitness>
43.6763

> <Gold.PLP.PLP>
-38.0351

> <Gold.PLP.part.hbond>
-1.0000

> <Gold.PLP.part.metal>
0.0000

> <Gold.PLP.part.buried>
-6.7004

> <Gold.PLP.part.nonpolar>
-30.2744

> <Gold.PLP.part.repulsive>
0.2878

> <Gold.PLP.ligand.clash>
0.0000

> <Gold.PLP.ligand.torsion>
0.1831

> <Gold.PLP.Chemscore.Hbond>
2.0000

> <Gold.PLP.Chemscore.CHOScore>
0.0000

> <Gold.PLP.Chemscore.Metal>
0.0000

> <Gold.Chemscore.Hbonds>
donor molecule, donor type, donor heavy atom, donor atom, acceptor molecule, acceptor atom, score
      L1  H     6    27       P1  8028  2.00

> <Gold.PLP.Chemscore.Internal.Correction>
0.0074

> <Gold.Rescore>
     Score         DG    S(hbond)    S(metal)    S(lipo)     H(rot)  DE(clash)    DE(int)     intcor
     17.83     -18.01       1.00        0.00     108.69       1.38       0.04       0.14       ----

> <Gold.Chemscore.Fitness>
17.8334

> <Gold.Chemscore.DG>
-18.0122

> <Gold.Chemscore.ZeroCoef>
-5.4800

> <Gold.Chemscore.Hbond>
0.9999

> <Gold.Chemscore.Metal>
0.0000

> <Gold.Chemscore.Lipo>
108.6934

> <Gold.Chemscore.Internal_Hbond>
0.0000

> <Gold.Chemscore.DEClash>
0.0438

> <Gold.Chemscore.DEInternal>
0.1350

> <Gold.Chemscore.Rot>
1.3768

> <Gold.Chemscore.Internal.Correction>
   9.000000E+99

> <Gold.Chemscore.Hbonds>
donor molecule, donor type, donor heavy atom, donor atom, acceptor molecule, acceptor atom, score
      L1  H     6    27       P1  8028  1.00

> <Gold.Chemscore.Hbond.Weighted>
-3.3398

> <Gold.Chemscore.Metal.Weighted>
-0.0000

> <Gold.Chemscore.Lipo.Weighted>
-12.7171

> <Gold.Chemscore.Internal_Hbond.Weighted>
0.0000

> <Gold.Chemscore.DEClash.Weighted>
0.0438

> <Gold.Chemscore.DEInternal.Weighted>
0.1350

> <Gold.Chemscore.Rot.Weighted>
3.5247

> <Gold.Chemscore.Internal.Correction.Weighted>
   9.000000E+99

> <Gold.Protein.RotatedTorsions>
[ 6907 6896 6895 6894 ] final  -93.70 input  -60.11 | X-H torsion
[ 7974 7965 7964 7962 ] final  -39.78 input  175.53 | X-H torsion
[ 8008 7997 7996 7995 ] final   39.93 input   59.86 | X-H torsion
[ 10167 10162 10161 10158 ] final  146.73 input  -65.29 | X-H torsion
[ 10718 10713 10712 10709 ] final   74.34 input   66.30 | X-H torsion
[ 10763 10752 10751 10750 ] final  121.79 input  -60.55 | X-H torsion
[ 11005 11000 10999 10996 ] final -153.07 input  -57.11 | X-H torsion

> <Gold.Protein.ActiveResidues>
 VAL166  LYS551  ARG553  GLY616  TRP617  ASP618  TYR619  PRO620  LYS621  CYS622 
 ASP623  PHE694  ASN695  SER759  ASP760  ASP761  ALA762  ILE779  LEU786  VAL792 
 PHE793  MET794  SER795  GLU796  ALA797  LYS798  CYS799  TRP800  GLU811  SER814 

> <Gold.Protein.RotatedAtoms>
  150.6927  134.1926  159.4290 H   0  0  0  0  0  0  0  0  0  0  0  0  # atno 6907 bound_to 6896
  151.9896  134.9983  160.0570 H   0  0  0  0  0  0  0  0  0  0  0  0  # atno 6908 bound_to 6896
  152.1680  133.4589  159.4931 H   0  0  0  0  0  0  0  0  0  0  0  0  # atno 6909 bound_to 6896
  146.0365  140.6664  142.9107 H   0  0  0  0  0  0  0  0  0  0  0  0  # atno 7974 bound_to 7965
  155.2448  140.3348  155.4288 H   0  0  0  0  0  0  0  0  0  0  0  0  # atno 8008 bound_to 7997
  156.2241  140.1821  156.7451 H   0  0  0  0  0  0  0  0  0  0  0  0  # atno 8009 bound_to 7997
  154.5870  140.0644  156.9170 H   0  0  0  0  0  0  0  0  0  0  0  0  # atno 8010 bound_to 7997
  139.4902  144.5808  151.6876 H   0  0  0  0  0  0  0  0  0  0  0  0  # atno 10167 bound_to 10162
  157.6588  130.9673  150.1196 H   0  0  0  0  0  0  0  0  0  0  0  0  # atno 10718 bound_to 10713
  153.6196  135.3415  155.3006 H   0  0  0  0  0  0  0  0  0  0  0  0  # atno 10763 bound_to 10752
  154.8602  135.4270  154.2221 H   0  0  0  0  0  0  0  0  0  0  0  0  # atno 10764 bound_to 10752
  153.3091  135.7030  153.7204 H   0  0  0  0  0  0  0  0  0  0  0  0  # atno 10765 bound_to 10752
  140.7120  134.3821  157.5196 H   0  0  0  0  0  0  0  0  0  0  0  0  # atno 11005 bound_to 11000
  144.7054  140.3830  143.7122 LP  0  0  0  0  0  0  0  0  0  0  0  0  # atno 17320 bound_to 7965
  145.6955  139.1649  143.2622 LP  0  0  0  0  0  0  0  0  0  0  0  0  # atno 17321 bound_to 7965
  140.5413  144.0574  150.6089 LP  0  0  0  0  0  0  0  0  0  0  0  0  # atno 17342 bound_to 10162
  140.3597  143.2915  152.0397 LP  0  0  0  0  0  0  0  0  0  0  0  0  # atno 17343 bound_to 10162
  156.2071  130.3664  149.8716 LP  0  0  0  0  0  0  0  0  0  0  0  0  # atno 17370 bound_to 10713
  156.6604  130.8780  151.3546 LP  0  0  0  0  0  0  0  0  0  0  0  0  # atno 17371 bound_to 10713
  139.8869  134.8897  156.2558 LP  0  0  0  0  0  0  0  0  0  0  0  0  # atno 17394 bound_to 11000
  141.0076  133.7114  156.1059 LP  0  0  0  0  0  0  0  0  0  0  0  0  # atno 17395 bound_to 11000

$$$$
