AV-unprocessed.smi:3263|AV-procd|sdf|12493|dock1
  -GOLD-   2272018393D 1   1.00000     0.00000
 Structure written by MMmdl.
 42 44  0  0  0  0  0  0  0  0  2 V2000
  152.8518  139.5087  157.0755 O   0  0  0  0  0  0  0  0  0  0  0  0
  152.3114  139.5052  158.1819 C   0  0  0  0  0  0  0  0  0  0  0  0
  152.9502  138.7522  159.3535 C   0  0  0  0  0  0  0  0  0  0  0  0
  152.7673  139.4792  160.7049 C   0  0  1  0  0  0  0  0  0  0  0  0
  153.3450  138.7420  161.9344 C   0  0  0  0  0  0  0  0  0  0  0  0
  154.1788  139.8355  162.6286 C   0  0  1  0  0  0  0  0  0  0  0  0
  155.4652  140.0769  161.8182 C   0  0  0  0  0  0  0  0  0  0  0  0
  154.9457  140.8224  160.5754 C   0  0  0  0  0  0  0  0  0  0  0  0
  153.4229  140.8760  160.8175 C   0  0  2  0  0  0  0  0  0  0  0  0
  153.3758  141.0964  162.3268 C   0  0  0  0  0  0  0  0  0  0  0  0
  151.1594  140.1446  158.4373 N   0  0  0  0  0  0  0  0  0  0  0  0
  150.4113  140.9331  157.4657 C   0  0  0  0  0  0  0  0  0  0  0  0
  151.2630  142.0788  156.8932 C   0  0  0  0  0  0  0  0  0  0  0  0
  151.4562  143.2040  157.8906 C   0  0  0  0  0  0  0  0  0  0  0  0
  152.2496  143.0565  159.0490 C   0  0  0  0  0  0  0  0  0  0  0  0
  152.3814  144.1450  159.9365 C   0  0  0  0  0  0  0  0  0  0  0  0
  151.7172  145.3554  159.6484 C   0  0  0  0  0  0  0  0  0  0  0  0
  150.9365  145.4469  158.4781 C   0  0  0  0  0  0  0  0  0  0  0  0
  150.8350  144.3820  157.6524 N   0  3  0  0  0  0  0  0  0  0  0  0
  152.5306  137.7470  159.3988 H   0  0  0  0  0  0  0  0  0  0  0  0
  154.0136  138.6365  159.1414 H   0  0  0  0  0  0  0  0  0  0  0  0
  151.6972  139.6216  160.8687 H   0  0  0  0  0  0  0  0  0  0  0  0
  152.5398  138.3915  162.5814 H   0  0  0  0  0  0  0  0  0  0  0  0
  153.9546  137.8775  161.6678 H   0  0  0  0  0  0  0  0  0  0  0  0
  154.3587  139.6434  163.6865 H   0  0  0  0  0  0  0  0  0  0  0  0
  156.1656  140.7016  162.3739 H   0  0  0  0  0  0  0  0  0  0  0  0
  155.9757  139.1476  161.5633 H   0  0  0  0  0  0  0  0  0  0  0  0
  155.3585  141.8318  160.5448 H   0  0  0  0  0  0  0  0  0  0  0  0
  155.2231  140.3357  159.6416 H   0  0  0  0  0  0  0  0  0  0  0  0
  152.9153  141.6426  160.2311 H   0  0  0  0  0  0  0  0  0  0  0  0
  152.3658  141.0754  162.7403 H   0  0  0  0  0  0  0  0  0  0  0  0
  153.8734  142.0133  162.6482 H   0  0  0  0  0  0  0  0  0  0  0  0
  150.7806  140.0877  159.3719 H   0  0  0  0  0  0  0  0  0  0  0  0
  150.0481  140.2858  156.6657 H   0  0  0  0  0  0  0  0  0  0  0  0
  149.5287  141.3379  157.9620 H   0  0  0  0  0  0  0  0  0  0  0  0
  152.2384  141.7001  156.5847 H   0  0  0  0  0  0  0  0  0  0  0  0
  150.7962  142.4880  155.9959 H   0  0  0  0  0  0  0  0  0  0  0  0
  152.7504  142.1222  159.2576 H   0  0  0  0  0  0  0  0  0  0  0  0
  152.9840  144.0526  160.8283 H   0  0  0  0  0  0  0  0  0  0  0  0
  151.8054  146.2006  160.3154 H   0  0  0  0  0  0  0  0  0  0  0  0
  150.3940  146.3321  158.1799 H   0  0  0  0  0  0  0  0  0  0  0  0
  150.2643  144.4698  156.8108 H   0  0  0  0  0  0  0  0  0  0  0  0
  1  2  2  0  0  0  0
  2  3  1  0  0  0  0
  2 11  1  0  0  0  0
  3  4  1  0  0  0  0
  3 20  1  0  0  0  0
  3 21  1  0  0  0  0
  4  9  1  0  0  0  0
  4  5  1  0  0  0  0
  4 22  1  0  0  0  0
  5  6  1  0  0  0  0
  5 23  1  0  0  0  0
  5 24  1  0  0  0  0
  6 10  1  0  0  0  0
  6  7  1  0  0  0  0
  6 25  1  0  0  0  0
  7  8  1  0  0  0  0
  7 26  1  0  0  0  0
  7 27  1  0  0  0  0
  8  9  1  0  0  0  0
  8 28  1  0  0  0  0
  8 29  1  0  0  0  0
  9 10  1  0  0  0  0
  9 30  1  0  0  0  0
 10 31  1  0  0  0  0
 10 32  1  0  0  0  0
 11 12  1  0  0  0  0
 11 33  1  0  0  0  0
 12 13  1  0  0  0  0
 12 34  1  0  0  0  0
 12 35  1  0  0  0  0
 13 14  1  0  0  0  0
 13 36  1  0  0  0  0
 13 37  1  0  0  0  0
 14 19  1  0  0  0  0
 14 15  2  0  0  0  0
 15 16  1  0  0  0  0
 15 38  1  0  0  0  0
 16 17  2  0  0  0  0
 16 39  1  0  0  0  0
 17 18  1  0  0  0  0
 17 40  1  0  0  0  0
 18 19  2  0  0  0  0
 18 41  1  0  0  0  0
 19 42  1  0  0  0  0
M  CHG  1  19   1
M  END
> <s_m_source_file>
AV-unprocessed.smi

> <i_m_source_file_index>
3263

> <i_lp_mmshare_version>
43012

> <i_f3d_flags>
0

> <s_epik_input>
W0NIMl0xW0NIMl1bQ0BASF0oW0NIMl0yKVtDQEBIXShbQ0gyXVtDQEhdMTIpW0NIMl1DKD1PKVtOSF1bQ0gyXVtDSDJdYzNbY0hdW2NIXVtjSF1bY0hdbjM=

> <s_epik_cmdline>
J2VwaWtfcHl0aG9uJywgJy1waCcsICc3LjAnLCAnLXRuJywgJzgnLCAnLW1hJywgJzIwMCcsICctbWV0YWxfYmluZGluZycsICctaW1hZScsICc8aW5maWxlLm1hZT4nLCAnLW9tYWUnLCAnPG91dGZpbGUubWFlPic=

> <r_epik_Ionization_Penalty>
1.83579

> <r_epik_Ionization_Penalty_Charging>
1.83579

> <r_epik_Ionization_Penalty_Neutral>
2.47288e-08

> <r_epik_State_Penalty>
1.95213

> <r_epik_Charging_Adjusted_Penalty>
3.78793

> <i_epik_Tot_Q>
1

> <i_epik_Tot_abs_Q>
1

> <r_epik_Metal_State_Penalty>
1.97847

> <b_epik_Metal_Only>
0

> <s_lp_Force_Field>
OPLS_2005

> <r_lp_Energy>
51.7701

> <b_lp_Chiralities_Consistent>
1

> <s_lp_Variant>
AV-unprocessed.smi:3263-8

> <Gold.Version>
5.8.1

> <Gold.Id.Protein>
6NUR|6NUR_protein|mol2

> <Gold.PLP.Fitness>
47.4798

> <Gold.PLP.PLP>
-39.3245

> <Gold.PLP.part.hbond>
-2.0000

> <Gold.PLP.part.metal>
0.0000

> <Gold.PLP.part.buried>
-4.7737

> <Gold.PLP.part.nonpolar>
-32.9635

> <Gold.PLP.part.repulsive>
0.1709

> <Gold.PLP.ligand.clash>
0.0000

> <Gold.PLP.ligand.torsion>
0.4732

> <Gold.PLP.Chemscore.Hbond>
3.0000

> <Gold.PLP.Chemscore.CHOScore>
0.0000

> <Gold.PLP.Chemscore.Metal>
0.0000

> <Gold.Chemscore.Hbonds>
donor molecule, donor type, donor heavy atom, donor atom, acceptor molecule, acceptor atom, score
      L1  H    19    42       P1  8028  2.00
      P1  H  7997  8009       L1     1  0.85

> <Gold.PLP.Chemscore.Internal.Correction>
0.1018

> <Gold.Rescore>
     Score         DG    S(hbond)    S(metal)    S(lipo)     H(rot)  DE(clash)    DE(int)     intcor
     20.35     -22.01       1.82        0.00     123.68       1.56       0.02       1.64       ----

> <Gold.Chemscore.Fitness>
20.3457

> <Gold.Chemscore.DG>
-22.0141

> <Gold.Chemscore.ZeroCoef>
-5.4800

> <Gold.Chemscore.Hbond>
1.8165

> <Gold.Chemscore.Metal>
0.0000

> <Gold.Chemscore.Lipo>
123.6825

> <Gold.Chemscore.Internal_Hbond>
0.0000

> <Gold.Chemscore.DEClash>
0.0243

> <Gold.Chemscore.DEInternal>
1.6440

> <Gold.Chemscore.Rot>
1.5640

> <Gold.Chemscore.Internal.Correction>
   9.000000E+99

> <Gold.Chemscore.Hbonds>
donor molecule, donor type, donor heavy atom, donor atom, acceptor molecule, acceptor atom, score
      L1  H    19    42       P1  8028  0.88
      P1  H  7997  8009       L1     1  0.83

> <Gold.Chemscore.Hbond.Weighted>
-6.0670

> <Gold.Chemscore.Metal.Weighted>
-0.0000

> <Gold.Chemscore.Lipo.Weighted>
-14.4708

> <Gold.Chemscore.Internal_Hbond.Weighted>
0.0000

> <Gold.Chemscore.DEClash.Weighted>
0.0243

> <Gold.Chemscore.DEInternal.Weighted>
1.6440

> <Gold.Chemscore.Rot.Weighted>
4.0038

> <Gold.Chemscore.Internal.Correction.Weighted>
   9.000000E+99

> <Gold.Protein.RotatedTorsions>
[ 6907 6896 6895 6894 ] final -124.39 input  -60.11 | X-H torsion
[ 7974 7965 7964 7962 ] final  -73.04 input  175.53 | X-H torsion
[ 8008 7997 7996 7995 ] final -155.35 input   59.86 | X-H torsion
[ 10167 10162 10161 10158 ] final   78.43 input  -65.29 | X-H torsion
[ 10718 10713 10712 10709 ] final   99.39 input   66.30 | X-H torsion
[ 10763 10752 10751 10750 ] final  -75.89 input  -60.55 | X-H torsion
[ 11005 11000 10999 10996 ] final  -74.50 input  -57.11 | X-H torsion

> <Gold.Protein.ActiveResidues>
 VAL166  LYS551  ARG553  GLY616  TRP617  ASP618  TYR619  PRO620  LYS621  CYS622 
 ASP623  PHE694  ASN695  SER759  ASP760  ASP761  ALA762  ILE779  LEU786  VAL792 
 PHE793  MET794  SER795  GLU796  ALA797  LYS798  CYS799  TRP800  GLU811  SER814 

> <Gold.Protein.RotatedAtoms>
  150.8764  133.7433  159.2945 H   0  0  0  0  0  0  0  0  0  0  0  0  # atno 6907 bound_to 6896
  151.5029  135.1061  159.9843 H   0  0  0  0  0  0  0  0  0  0  0  0  # atno 6908 bound_to 6896
  152.4730  133.8028  159.7017 H   0  0  0  0  0  0  0  0  0  0  0  0  # atno 6909 bound_to 6896
  145.6573  140.9264  143.0953 H   0  0  0  0  0  0  0  0  0  0  0  0  # atno 7974 bound_to 7965
  155.7004  140.0766  157.2412 H   0  0  0  0  0  0  0  0  0  0  0  0  # atno 8008 bound_to 7997
  154.4074  140.1648  156.2238 H   0  0  0  0  0  0  0  0  0  0  0  0  # atno 8009 bound_to 7997
  155.9372  140.3387  155.6301 H   0  0  0  0  0  0  0  0  0  0  0  0  # atno 8010 bound_to 7997
  139.9710  144.5894  150.7985 H   0  0  0  0  0  0  0  0  0  0  0  0  # atno 10167 bound_to 10162
  157.6877  131.0668  150.4941 H   0  0  0  0  0  0  0  0  0  0  0  0  # atno 10718 bound_to 10713
  154.4926  135.5816  153.6470 H   0  0  0  0  0  0  0  0  0  0  0  0  # atno 10763 bound_to 10752
  152.9865  135.6116  154.3105 H   0  0  0  0  0  0  0  0  0  0  0  0  # atno 10764 bound_to 10752
  154.3006  135.2847  155.2592 H   0  0  0  0  0  0  0  0  0  0  0  0  # atno 10765 bound_to 10752
  141.1636  133.6914  156.7374 H   0  0  0  0  0  0  0  0  0  0  0  0  # atno 11005 bound_to 11000
  144.7101  139.8403  143.7417 LP  0  0  0  0  0  0  0  0  0  0  0  0  # atno 17320 bound_to 7965
  146.1155  139.4165  143.0261 LP  0  0  0  0  0  0  0  0  0  0  0  0  # atno 17321 bound_to 7965
  140.7522  143.2985  151.3141 LP  0  0  0  0  0  0  0  0  0  0  0  0  # atno 17342 bound_to 10162
  139.6481  144.0414  152.2606 LP  0  0  0  0  0  0  0  0  0  0  0  0  # atno 17343 bound_to 10162
  156.5266  130.4174  149.6223 LP  0  0  0  0  0  0  0  0  0  0  0  0  # atno 17370 bound_to 10713
  156.3107  130.7227  151.2119 LP  0  0  0  0  0  0  0  0  0  0  0  0  # atno 17371 bound_to 10713
  140.2700  134.8400  157.3838 LP  0  0  0  0  0  0  0  0  0  0  0  0  # atno 17394 bound_to 11000
  140.1531  134.4825  155.7947 LP  0  0  0  0  0  0  0  0  0  0  0  0  # atno 17395 bound_to 11000

$$$$
