AV-unprocessed.smi:2859|AV-procd|sdf|11004|dock8
  -GOLD-   2272015463D 1   1.00000     0.00000
 Structure written by MMmdl.
 51 52  0  0  0  0  0  0  0  0  1 V2000
  150.9798  144.6609  159.7886 C   0  0  0  0  0  0  0  0  0  0  0  0
  151.8670  143.4981  159.2901 C   0  0  0  0  0  0  0  0  0  0  0  0
  152.8841  144.0847  158.2892 C   0  0  0  0  0  0  0  0  0  0  0  0
  152.6086  142.9206  160.5134 C   0  0  0  0  0  0  0  0  0  0  0  0
  151.0512  142.3869  158.6074 C   0  0  0  0  0  0  0  0  0  0  0  0
  150.2441  142.5983  157.4636 C   0  0  0  0  0  0  0  0  0  0  0  0
  149.5658  141.4742  156.9299 C   0  0  0  0  0  0  0  0  0  0  0  0
  148.7352  141.5515  155.7885 N   0  0  0  0  0  0  0  0  0  0  0  0
  148.4339  140.3231  155.0597 C   0  0  0  0  0  0  0  0  0  0  0  0
  147.8161  140.6465  153.6908 C   0  0  0  0  0  0  0  0  0  0  0  0
  146.6778  141.4812  153.8638 O   0  0  0  0  0  0  0  0  0  0  0  0
  147.0173  142.7386  154.4479 C   0  0  1  0  0  0  0  0  0  0  0  0
  145.7583  143.6172  154.4957 C   0  0  0  0  0  0  0  0  0  0  0  0
  144.6744  143.1664  153.8572 N   0  0  0  0  0  0  0  0  0  0  0  0
  145.7605  144.6975  155.0834 O   0  0  0  0  0  0  0  0  0  0  0  0
  147.6242  142.5023  155.8497 C   0  0  0  0  0  0  0  0  0  0  0  0
  149.6949  140.2630  157.5191 N   0  0  0  0  0  0  0  0  0  0  0  0
  150.4432  140.1603  158.6221 C   0  0  0  0  0  0  0  0  0  0  0  0
  150.6894  138.7477  159.1776 C   0  0  0  0  0  0  0  0  0  0  0  0
  149.3427  138.1050  159.5562 C   0  0  0  0  0  0  0  0  0  0  0  0
  151.6088  138.7906  160.4212 C   0  0  0  0  0  0  0  0  0  0  0  0
  151.4151  137.8622  158.1373 C   0  0  0  0  0  0  0  0  0  0  0  0
  151.1490  141.1578  159.1628 N   0  0  0  0  0  0  0  0  0  0  0  0
  151.5780  145.4361  160.2690 H   0  0  0  0  0  0  0  0  0  0  0  0
  150.2476  144.3228  160.5230 H   0  0  0  0  0  0  0  0  0  0  0  0
  150.4412  145.1376  158.9687 H   0  0  0  0  0  0  0  0  0  0  0  0
  152.3833  144.4929  157.4106 H   0  0  0  0  0  0  0  0  0  0  0  0
  153.5924  143.3312  157.9428 H   0  0  0  0  0  0  0  0  0  0  0  0
  153.4666  144.8893  158.7394 H   0  0  0  0  0  0  0  0  0  0  0  0
  153.1835  143.6902  161.0294 H   0  0  0  0  0  0  0  0  0  0  0  0
  153.3083  142.1338  160.2295 H   0  0  0  0  0  0  0  0  0  0  0  0
  151.9092  142.4938  161.2333 H   0  0  0  0  0  0  0  0  0  0  0  0
  150.1648  143.5713  157.0074 H   0  0  0  0  0  0  0  0  0  0  0  0
  149.3427  139.7422  154.9004 H   0  0  0  0  0  0  0  0  0  0  0  0
  147.7481  139.7127  155.6487 H   0  0  0  0  0  0  0  0  0  0  0  0
  148.5438  141.1341  153.0401 H   0  0  0  0  0  0  0  0  0  0  0  0
  147.5095  139.7270  153.1920 H   0  0  0  0  0  0  0  0  0  0  0  0
  147.7457  143.2448  153.8120 H   0  0  0  0  0  0  0  0  0  0  0  0
  143.8287  143.7183  153.8568 H   0  0  0  0  0  0  0  0  0  0  0  0
  144.7080  142.2822  153.3714 H   0  0  0  0  0  0  0  0  0  0  0  0
  146.8679  142.1085  156.5305 H   0  0  0  0  0  0  0  0  0  0  0  0
  147.9494  143.4610  156.2545 H   0  0  0  0  0  0  0  0  0  0  0  0
  149.4794  137.1001  159.9569 H   0  0  0  0  0  0  0  0  0  0  0  0
  148.6837  138.0277  158.6906 H   0  0  0  0  0  0  0  0  0  0  0  0
  148.8228  138.6940  160.3129 H   0  0  0  0  0  0  0  0  0  0  0  0
  151.1538  139.3384  161.2475 H   0  0  0  0  0  0  0  0  0  0  0  0
  152.5628  139.2679  160.1936 H   0  0  0  0  0  0  0  0  0  0  0  0
  151.8245  137.7876  160.7906 H   0  0  0  0  0  0  0  0  0  0  0  0
  151.6343  136.8734  158.5415 H   0  0  0  0  0  0  0  0  0  0  0  0
  152.3618  138.3074  157.8288 H   0  0  0  0  0  0  0  0  0  0  0  0
  150.8143  137.7088  157.2399 H   0  0  0  0  0  0  0  0  0  0  0  0
  1  2  1  0  0  0  0
  1 24  1  0  0  0  0
  1 25  1  0  0  0  0
  1 26  1  0  0  0  0
  2  3  1  0  0  0  0
  2  4  1  0  0  0  0
  2  5  1  0  0  0  0
  3 27  1  0  0  0  0
  3 28  1  0  0  0  0
  3 29  1  0  0  0  0
  4 30  1  0  0  0  0
  4 31  1  0  0  0  0
  4 32  1  0  0  0  0
  5 23  1  0  0  0  0
  5  6  2  0  0  0  0
  6  7  1  0  0  0  0
  6 33  1  0  0  0  0
  7  8  1  0  0  0  0
  7 17  2  0  0  0  0
  8 16  1  0  0  0  0
  8  9  1  0  0  0  0
  9 10  1  0  0  0  0
  9 34  1  0  0  0  0
  9 35  1  0  0  0  0
 10 11  1  0  0  0  0
 10 36  1  0  0  0  0
 10 37  1  0  0  0  0
 11 12  1  0  0  0  0
 12 13  1  0  0  0  0
 12 16  1  0  0  0  0
 12 38  1  0  0  0  0
 13 14  1  0  0  0  0
 13 15  2  0  0  0  0
 14 39  1  0  0  0  0
 14 40  1  0  0  0  0
 16 41  1  0  0  0  0
 16 42  1  0  0  0  0
 17 18  1  0  0  0  0
 18 19  1  0  0  0  0
 18 23  2  0  0  0  0
 19 20  1  0  0  0  0
 19 21  1  0  0  0  0
 19 22  1  0  0  0  0
 20 43  1  0  0  0  0
 20 44  1  0  0  0  0
 20 45  1  0  0  0  0
 21 46  1  0  0  0  0
 21 47  1  0  0  0  0
 21 48  1  0  0  0  0
 22 49  1  0  0  0  0
 22 50  1  0  0  0  0
 22 51  1  0  0  0  0
M  END
> <s_m_source_file>
AV-unprocessed.smi

> <i_m_source_file_index>
2859

> <i_lp_mmshare_version>
43012

> <i_f3d_flags>
0

> <s_epik_input>
W0NIM11DKFtDSDNdKShbQ0gzXSljMVtjSF1jKG5jKG4xKUMoW0NIM10pKFtDSDNdKVtDSDNdKU4yW0NIMl1bQ0gyXU9bQ0BIXShbQ0gyXTIpQyg9TylbTkgyXQ==

> <s_epik_cmdline>
J2VwaWtfcHl0aG9uJywgJy1waCcsICc3LjAnLCAnLXRuJywgJzgnLCAnLW1hJywgJzIwMCcsICctbWV0YWxfYmluZGluZycsICctaW1hZScsICc8aW5maWxlLm1hZT4nLCAnLW9tYWUnLCAnPG91dGZpbGUubWFlPic=

> <r_lp_tautomer_probability>
1

> <r_epik_Ionization_Penalty>
0.0011326

> <r_epik_Ionization_Penalty_Charging>
0

> <r_epik_Ionization_Penalty_Neutral>
0.0011326

> <r_epik_State_Penalty>
0.000721507

> <r_epik_Charging_Adjusted_Penalty>
0.000721507

> <i_epik_Tot_Q>
0

> <i_epik_Tot_abs_Q>
0

> <r_epik_Metal_State_Penalty>
-0

> <b_epik_Metal_Only>
0

> <s_lp_Force_Field>
OPLS_2005

> <r_lp_Energy>
9.66703

> <b_lp_Chiralities_Consistent>
1

> <s_lp_Variant>
AV-unprocessed.smi:2859-1

> <Gold.Version>
5.8.1

> <Gold.Id.Protein>
6NUR|6NUR_protein|mol2

> <Gold.PLP.Fitness>
39.1062

> <Gold.PLP.PLP>
-36.7442

> <Gold.PLP.part.hbond>
-1.9186

> <Gold.PLP.part.metal>
0.0000

> <Gold.PLP.part.buried>
-3.5841

> <Gold.PLP.part.nonpolar>
-32.9872

> <Gold.PLP.part.repulsive>
0.3963

> <Gold.PLP.ligand.clash>
0.0000

> <Gold.PLP.ligand.torsion>
0.5433

> <Gold.PLP.Chemscore.Hbond>
0.9440

> <Gold.PLP.Chemscore.CHOScore>
0.0000

> <Gold.PLP.Chemscore.Metal>
0.0000

> <Gold.PLP.Chemscore.Internal.Correction>
0.6165

> <Gold.Rescore>
     Score         DG    S(hbond)    S(metal)    S(lipo)     H(rot)  DE(clash)    DE(int)     intcor
     13.26     -14.82       0.72        0.00      99.39       1.83       0.32       1.25       ----

> <Gold.Chemscore.Fitness>
13.2568

> <Gold.Chemscore.DG>
-14.8241

> <Gold.Chemscore.ZeroCoef>
-5.4800

> <Gold.Chemscore.Hbond>
0.7204

> <Gold.Chemscore.Metal>
0.0000

> <Gold.Chemscore.Lipo>
99.3893

> <Gold.Chemscore.Internal_Hbond>
0.0000

> <Gold.Chemscore.DEClash>
0.3216

> <Gold.Chemscore.DEInternal>
1.2457

> <Gold.Chemscore.Rot>
1.8323

> <Gold.Chemscore.Internal.Correction>
   9.000000E+99

> <Gold.Chemscore.Hbond.Weighted>
-2.4063

> <Gold.Chemscore.Metal.Weighted>
-0.0000

> <Gold.Chemscore.Lipo.Weighted>
-11.6286

> <Gold.Chemscore.Internal_Hbond.Weighted>
0.0000

> <Gold.Chemscore.DEClash.Weighted>
0.3216

> <Gold.Chemscore.DEInternal.Weighted>
1.2457

> <Gold.Chemscore.Rot.Weighted>
4.6907

> <Gold.Chemscore.Internal.Correction.Weighted>
   9.000000E+99

> <Gold.Protein.RotatedTorsions>
[ 6907 6896 6895 6894 ] final    5.99 input  -60.11 | X-H torsion
[ 7974 7965 7964 7962 ] final -162.80 input  175.53 | X-H torsion
[ 8008 7997 7996 7995 ] final  -86.83 input   59.86 | X-H torsion
[ 10167 10162 10161 10158 ] final  -95.76 input  -65.29 | X-H torsion
[ 10718 10713 10712 10709 ] final   52.28 input   66.30 | X-H torsion
[ 10763 10752 10751 10750 ] final   19.14 input  -60.55 | X-H torsion
[ 11005 11000 10999 10996 ] final  -10.98 input  -57.11 | X-H torsion

> <Gold.Protein.ActiveResidues>
 VAL166  LYS551  ARG553  GLY616  TRP617  ASP618  TYR619  PRO620  LYS621  CYS622 
 ASP623  PHE694  ASN695  SER759  ASP760  ASP761  ALA762  ILE779  LEU786  VAL792 
 PHE793  MET794  SER795  GLU796  ALA797  LYS798  CYS799  TRP800  GLU811  SER814 

> <Gold.Protein.RotatedAtoms>
  151.6665  135.0982  160.0189 H   0  0  0  0  0  0  0  0  0  0  0  0  # atno 6907 bound_to 6896
  152.3916  133.6683  159.6251 H   0  0  0  0  0  0  0  0  0  0  0  0  # atno 6908 bound_to 6896
  150.7831  133.8861  159.3341 H   0  0  0  0  0  0  0  0  0  0  0  0  # atno 6909 bound_to 6896
  144.7346  140.3201  143.6172 H   0  0  0  0  0  0  0  0  0  0  0  0  # atno 7974 bound_to 7965
  154.6564  140.0573  157.0013 H   0  0  0  0  0  0  0  0  0  0  0  0  # atno 8008 bound_to 7997
  155.1294  140.3255  155.4459 H   0  0  0  0  0  0  0  0  0  0  0  0  # atno 8009 bound_to 7997
  156.2599  140.1983  156.6414 H   0  0  0  0  0  0  0  0  0  0  0  0  # atno 8010 bound_to 7997
  140.3008  143.3164  152.0250 H   0  0  0  0  0  0  0  0  0  0  0  0  # atno 10167 bound_to 10162
  157.5060  130.8469  149.8375 H   0  0  0  0  0  0  0  0  0  0  0  0  # atno 10718 bound_to 10713
  153.1188  135.6714  153.9372 H   0  0  0  0  0  0  0  0  0  0  0  0  # atno 10763 bound_to 10752
  153.8894  135.3049  155.3448 H   0  0  0  0  0  0  0  0  0  0  0  0  # atno 10764 bound_to 10752
  154.7601  135.4992  153.9528 H   0  0  0  0  0  0  0  0  0  0  0  0  # atno 10765 bound_to 10752
  140.7505  133.8596  155.9040 H   0  0  0  0  0  0  0  0  0  0  0  0  # atno 11005 bound_to 11000
  145.7578  139.1814  143.2284 LP  0  0  0  0  0  0  0  0  0  0  0  0  # atno 17320 bound_to 7965
  146.1010  140.7543  142.9549 LP  0  0  0  0  0  0  0  0  0  0  0  0  # atno 17321 bound_to 7965
  139.4915  144.6457  151.6783 LP  0  0  0  0  0  0  0  0  0  0  0  0  # atno 17342 bound_to 10162
  140.5653  144.0201  150.6189 LP  0  0  0  0  0  0  0  0  0  0  0  0  # atno 17343 bound_to 10162
  156.0258  130.3780  150.1827 LP  0  0  0  0  0  0  0  0  0  0  0  0  # atno 17370 bound_to 10713
  157.0016  130.9924  151.3389 LP  0  0  0  0  0  0  0  0  0  0  0  0  # atno 17371 bound_to 10713
  140.9755  134.1474  157.4539 LP  0  0  0  0  0  0  0  0  0  0  0  0  # atno 17394 bound_to 11000
  139.8788  134.9993  156.5948 LP  0  0  0  0  0  0  0  0  0  0  0  0  # atno 17395 bound_to 11000

$$$$
