#       Name:                AV-unprocessed.smi:1644
#       Creating user name   scv26
#       Creation time:       Fri Mar 27 07:28:29 2020


#       File generated by GOLD software.
#

@<TRIPOS>MOLECULE
AV-unprocessed.smi:1644
    56    58     1
SMALL
NO_CHARGES


@<TRIPOS>ATOM
      1 ****        -6.8238   2.3587  -1.3351 C.3            1 S1                 0.0000
      2 ****        -5.3906   1.9045  -1.0387 C.3            1 S1                 0.0000
      3 ****        -4.3378   2.8668  -1.6257 C.3            1 S1                 0.0000
      4 ****        -2.8610   2.4883  -1.3689 C.3            1 S1                 0.0000
      5 ****        -2.5556   2.2905   0.0342 N.am           1 S1                 0.0000
      6 ****        -2.0640   1.0696   0.2842 C.2            1 S1                 0.0000
      7 ****        -1.7076   0.6604   1.3883 O.2            1 S1                 0.0000
      8 ****        -2.0225   0.3829  -0.8727 N.am           1 S1                 0.0000
      9 ****        -1.5357  -0.9941  -0.9982 C.3            1 S1                 0.0000
     10 ****         0.0028  -1.0494  -1.0851 C.3            1 S1                 0.0000
     11 ****         0.3912  -0.9045  -2.4373 O.3            1 S1                 0.0000
     12 ****         0.5553  -2.3914  -0.5672 C.3            1 S1                 0.0000
     13 ****         2.0223  -2.4425  -0.5828 N.pl3          1 S1                 0.0000
     14 ****         2.8711  -3.0268  -1.4708 C.2            1 S1                 0.0000
     15 ****         4.1415  -2.7868  -1.0416 N.pl3          1 S1                 1.0000
     16 ****         4.1014  -2.0376   0.1370 C.ar           1 S1                 0.0000
     17 ****         5.1229  -1.5495   0.9434 C.ar           1 S1                 0.0000
     18 ****         4.7446  -0.8111   2.0878 C.ar           1 S1                 0.0000
     19 ****         5.8364  -0.2631   2.9912 C.3            1 S1                 0.0000
     20 ****         3.3769  -0.5830   2.3910 C.ar           1 S1                 0.0000
     21 ****         2.9809   0.2147   3.6218 C.3            1 S1                 0.0000
     22 ****         2.3528  -1.0896   1.5596 C.ar           1 S1                 0.0000
     23 ****         2.7440  -1.8142   0.4366 C.ar           1 S1                 0.0000
     24 ****        -2.4638   1.1222  -1.8982 C.2            1 S1                 0.0000
     25 ****        -2.5430   0.7896  -3.0804 O.2            1 S1                 0.0000
     26 ****        -7.5476   1.6635  -0.9096 H              1 S1                 0.0000
     27 ****        -7.0051   2.4118  -2.4090 H              1 S1                 0.0000
     28 ****        -7.0206   3.3441  -0.9120 H              1 S1                 0.0000
     29 ****        -5.2620   1.8243   0.0409 H              1 S1                 0.0000
     30 ****        -5.2505   0.9011  -1.4413 H              1 S1                 0.0000
     31 ****        -4.4964   2.9569  -2.7012 H              1 S1                 0.0000
     32 ****        -4.5114   3.8640  -1.2197 H              1 S1                 0.0000
     33 ****        -2.1935   3.2443  -1.7842 H              1 S1                 0.0000
     34 ****        -2.6872   3.0088   0.7317 H              1 S1                 0.0000
     35 ****        -1.8726  -1.5453  -0.1186 H              1 S1                 0.0000
     36 ****        -1.9957  -1.5067  -1.8453 H              1 S1                 0.0000
     37 ****         0.4428  -0.2360  -0.5069 H              1 S1                 0.0000
     38 ****         0.0347  -0.0936  -2.7676 H              1 S1                 0.0000
     39 ****         0.2209  -2.5842   0.4530 H              1 S1                 0.0000
     40 ****         0.1868  -3.2184  -1.1762 H              1 S1                 0.0000
     41 ****         2.5876  -3.5767  -2.3568 H              1 S1                 0.0000
     42 ****         6.1619  -1.7257   0.7057 H              1 S1                 0.0000
     43 ****         5.7316  -0.6580   4.0021 H              1 S1                 0.0000
     44 ****         5.7844   0.8249   3.0369 H              1 S1                 0.0000
     45 ****         6.8285  -0.5347   2.6293 H              1 S1                 0.0000
     46 ****         1.8975   0.3052   3.7071 H              1 S1                 0.0000
     47 ****         3.3960   1.2218   3.5758 H              1 S1                 0.0000
     48 ****         3.3470  -0.2709   4.5267 H              1 S1                 0.0000
     49 ****         1.3113  -0.9164   1.7885 H              1 S1                 0.0000
     50 ****         4.9720  -3.1101  -1.5210 H              1 S1                 0.0000
     51 ****        -1.7746   1.2569   2.1881 LP             1 S1                 0.0000
     52 ****        -1.3509  -0.2687   1.4859 LP             1 S1                 0.0000
     53 ****         0.0380  -1.6711  -2.9735 LP             1 S1                 0.0000
     54 ****         1.3890  -0.8848  -2.5012 LP             1 S1                 0.0000
     55 ****        -2.8868   1.4375  -3.7601 LP             1 S1                 0.0000
     56 ****        -2.2635  -0.1285  -3.3613 LP             1 S1                 0.0000
@<TRIPOS>BOND
    1    1    2 1     
    2    1   26 1     
    3    1   27 1     
    4    1   28 1     
    5    2    3 1     
    6    2   29 1     
    7    2   30 1     
    8    3    4 1     
    9    3   31 1     
   10    3   32 1     
   11    4   24 1     
   12    4    5 1     
   13    4   33 1     
   14    5    6 am    
   15    5   34 1     
   16    6    7 2     
   17    6    8 am    
   18    8    9 1     
   19    8   24 am    
   20    9   10 1     
   21    9   35 1     
   22    9   36 1     
   23   10   11 1     
   24   10   12 1     
   25   10   37 1     
   26   11   38 1     
   27   12   13 1     
   28   12   39 1     
   29   12   40 1     
   30   13   23 1     
   31   13   14 1     
   32   14   15 2     
   33   14   41 1     
   34   15   16 1     
   35   15   50 1     
   36   16   23 ar    
   37   16   17 ar    
   38   17   18 ar    
   39   17   42 1     
   40   18   19 1     
   41   18   20 ar    
   42   19   43 1     
   43   19   44 1     
   44   19   45 1     
   45   20   21 1     
   46   20   22 ar    
   47   21   46 1     
   48   21   47 1     
   49   21   48 1     
   50   22   23 ar    
   51   22   49 1     
   52   24   25 2     
   53    7   51 1     
   54    7   52 1     
   55   11   53 1     
   56   11   54 1     
   57   25   55 1     
   58   25   56 1     
@<TRIPOS>SUBSTRUCTURE
      1 S1             1
@<TRIPOS>SET
LONE_PAIRS      STATIC     ATOMS    <user>   **** ""
6 51 52 53 54 55 56
DONOR_HYDROGENS      STATIC     ATOMS    <user>   **** ""
3 34 38 50
ATOM$BLUE        STATIC     ATOMS    COLORGROUP SYSTEM
6 51 52 53 54 55 56
ATOM$RED        STATIC     ATOMS    COLORGROUP SYSTEM
3 34 38 50
