AV-unprocessed.smi:2276|AV-procd|sdf|9176|dock7
  -GOLD-   2272012393D 1   1.00000     0.00000
 Structure written by MMmdl.
 52 53  0  0  0  0  0  0  0  0  1 V2000
  151.9941  145.8491  160.3066 C   0  0  0  0  0  0  0  0  0  0  0  0
  152.0808  144.5236  159.5798 C   0  0  0  0  0  0  0  0  0  0  0  0
  152.9540  143.5114  160.0229 C   0  0  0  0  0  0  0  0  0  0  0  0
  152.9885  142.3013  159.3026 C   0  0  0  0  0  0  0  0  0  0  0  0
  153.8952  141.1660  159.7291 C   0  0  0  0  0  0  0  0  0  0  0  0
  152.2255  142.0709  158.2131 N   0  0  0  0  0  0  0  0  0  0  0  0
  151.3807  143.0379  157.7774 C   0  0  0  0  0  0  0  0  0  0  0  0
  150.5283  142.8886  156.6515 N   0  0  0  0  0  0  0  0  0  0  0  0
  150.2639  141.7699  155.9538 C   0  0  0  0  0  0  0  0  0  0  0  0
  150.7945  140.6737  156.1367 O   0  0  0  0  0  0  0  0  0  0  0  0
  149.3357  141.9936  155.0122 N   0  0  0  0  0  0  0  0  0  0  0  0
  148.8016  140.9863  154.0994 C   0  0  0  0  0  0  0  0  0  0  0  0
  148.5638  139.6192  154.7796 C   0  0  2  0  0  0  0  0  0  0  0  0
  147.8029  138.6825  153.8274 C   0  0  0  0  0  0  0  0  0  0  0  0
  147.8207  139.7666  156.1295 C   0  0  0  0  0  0  0  0  0  0  0  0
  147.9252  138.6258  157.0405 N   0  0  0  0  0  0  0  0  0  0  0  0
  146.7481  138.5432  157.9070 C   0  0  0  0  0  0  0  0  0  0  0  0
  146.8269  137.3382  158.8626 C   0  0  0  0  0  0  0  0  0  0  0  0
  148.0165  137.4082  159.7076 N   0  0  0  0  0  0  0  0  0  0  0  0
  148.0943  136.2768  160.6185 C   0  0  0  0  0  0  0  0  0  0  0  0
  149.1984  137.4913  158.8526 C   0  0  0  0  0  0  0  0  0  0  0  0
  149.1175  138.6931  157.8928 C   0  0  0  0  0  0  0  0  0  0  0  0
  151.2844  144.2808  158.4425 C   0  0  0  0  0  0  0  0  0  0  0  0
  152.5831  145.8371  161.2241 H   0  0  0  0  0  0  0  0  0  0  0  0
  150.9595  146.0713  160.5695 H   0  0  0  0  0  0  0  0  0  0  0  0
  152.3677  146.6517  159.6705 H   0  0  0  0  0  0  0  0  0  0  0  0
  153.5787  143.6572  160.8921 H   0  0  0  0  0  0  0  0  0  0  0  0
  154.6420  141.5062  160.4469 H   0  0  0  0  0  0  0  0  0  0  0  0
  154.4179  140.7477  158.8683 H   0  0  0  0  0  0  0  0  0  0  0  0
  153.3097  140.3725  160.1938 H   0  0  0  0  0  0  0  0  0  0  0  0
  150.0427  143.7243  156.3616 H   0  0  0  0  0  0  0  0  0  0  0  0
  148.9590  142.9263  154.9280 H   0  0  0  0  0  0  0  0  0  0  0  0
  147.8644  141.3666  153.6921 H   0  0  0  0  0  0  0  0  0  0  0  0
  149.4811  140.8760  153.2525 H   0  0  0  0  0  0  0  0  0  0  0  0
  149.5433  139.1764  154.9529 H   0  0  0  0  0  0  0  0  0  0  0  0
  146.8094  139.0700  153.5997 H   0  0  0  0  0  0  0  0  0  0  0  0
  147.6820  137.6892  154.2602 H   0  0  0  0  0  0  0  0  0  0  0  0
  148.3377  138.5624  152.8849 H   0  0  0  0  0  0  0  0  0  0  0  0
  148.1698  140.6589  156.6505 H   0  0  0  0  0  0  0  0  0  0  0  0
  146.7684  139.9508  155.9089 H   0  0  0  0  0  0  0  0  0  0  0  0
  146.6444  139.4628  158.4857 H   0  0  0  0  0  0  0  0  0  0  0  0
  145.8479  138.4562  157.2980 H   0  0  0  0  0  0  0  0  0  0  0  0
  145.9329  137.3132  159.4867 H   0  0  0  0  0  0  0  0  0  0  0  0
  146.8307  136.4123  158.2852 H   0  0  0  0  0  0  0  0  0  0  0  0
  148.9743  136.3556  161.2576 H   0  0  0  0  0  0  0  0  0  0  0  0
  148.1540  135.3341  160.0730 H   0  0  0  0  0  0  0  0  0  0  0  0
  147.2169  136.2412  161.2649 H   0  0  0  0  0  0  0  0  0  0  0  0
  150.0930  137.5822  159.4693 H   0  0  0  0  0  0  0  0  0  0  0  0
  149.3090  136.5712  158.2766 H   0  0  0  0  0  0  0  0  0  0  0  0
  150.0207  138.7032  157.2845 H   0  0  0  0  0  0  0  0  0  0  0  0
  149.1173  139.6216  158.4662 H   0  0  0  0  0  0  0  0  0  0  0  0
  150.6055  145.0426  158.0869 H   0  0  0  0  0  0  0  0  0  0  0  0
  1  2  1  0  0  0  0
  1 24  1  0  0  0  0
  1 25  1  0  0  0  0
  1 26  1  0  0  0  0
  2 23  1  0  0  0  0
  2  3  2  0  0  0  0
  3  4  1  0  0  0  0
  3 27  1  0  0  0  0
  4  5  1  0  0  0  0
  4  6  2  0  0  0  0
  5 28  1  0  0  0  0
  5 29  1  0  0  0  0
  5 30  1  0  0  0  0
  6  7  1  0  0  0  0
  7  8  1  0  0  0  0
  7 23  2  0  0  0  0
  8  9  1  0  0  0  0
  8 31  1  0  0  0  0
  9 10  2  0  0  0  0
  9 11  1  0  0  0  0
 11 12  1  0  0  0  0
 11 32  1  0  0  0  0
 12 13  1  0  0  0  0
 12 33  1  0  0  0  0
 12 34  1  0  0  0  0
 13 14  1  0  0  0  0
 13 15  1  0  0  0  0
 13 35  1  0  0  0  0
 14 36  1  0  0  0  0
 14 37  1  0  0  0  0
 14 38  1  0  0  0  0
 15 16  1  0  0  0  0
 15 39  1  0  0  0  0
 15 40  1  0  0  0  0
 16 22  1  0  0  0  0
 16 17  1  0  0  0  0
 17 18  1  0  0  0  0
 17 41  1  0  0  0  0
 17 42  1  0  0  0  0
 18 19  1  0  0  0  0
 18 43  1  0  0  0  0
 18 44  1  0  0  0  0
 19 20  1  0  0  0  0
 19 21  1  0  0  0  0
 20 45  1  0  0  0  0
 20 46  1  0  0  0  0
 20 47  1  0  0  0  0
 21 22  1  0  0  0  0
 21 48  1  0  0  0  0
 21 49  1  0  0  0  0
 22 50  1  0  0  0  0
 22 51  1  0  0  0  0
 23 52  1  0  0  0  0
M  END
> <s_m_source_file>
AV-unprocessed.smi

> <i_m_source_file_index>
2276

> <i_lp_mmshare_version>
43012

> <i_f3d_flags>
0

> <s_epik_input>
W0NIM11jMVtjSF1jKFtDSDNdKW5jKFtjSF0xKVtOSF1DKD1PKVtOSF1bQ0gyXVtDQEhdKFtDSDNdKVtDSDJdTjJbQ0gyXVtDSDJdTihbQ0gzXSlbQ0gyXVtDSDJdMg==

> <s_epik_cmdline>
J2VwaWtfcHl0aG9uJywgJy1waCcsICc3LjAnLCAnLXRuJywgJzgnLCAnLW1hJywgJzIwMCcsICctbWV0YWxfYmluZGluZycsICctaW1hZScsICc8aW5maWxlLm1hZT4nLCAnLW9tYWUnLCAnPG91dGZpbGUubWFlPic=

> <r_epik_Ionization_Penalty>
3.46991

> <r_epik_Ionization_Penalty_Charging>
0

> <r_epik_Ionization_Penalty_Neutral>
3.46991

> <r_epik_State_Penalty>
2.28006

> <r_epik_Charging_Adjusted_Penalty>
2.28006

> <i_epik_Tot_Q>
0

> <i_epik_Tot_abs_Q>
0

> <r_epik_Metal_State_Penalty>
2.28005

> <b_epik_Metal_Only>
0

> <s_lp_Force_Field>
OPLS_2005

> <r_lp_Energy>
36.9952

> <b_lp_Chiralities_Consistent>
1

> <s_lp_Variant>
AV-unprocessed.smi:2276-5

> <Gold.Version>
5.8.1

> <Gold.Id.Protein>
6NUR|6NUR_protein|mol2

> <Gold.PLP.Fitness>
49.4469

> <Gold.PLP.PLP>
-42.7900

> <Gold.PLP.part.hbond>
-3.1656

> <Gold.PLP.part.metal>
0.0000

> <Gold.PLP.part.buried>
-6.1495

> <Gold.PLP.part.nonpolar>
-35.0885

> <Gold.PLP.part.repulsive>
0.2919

> <Gold.PLP.ligand.clash>
0.0000

> <Gold.PLP.ligand.torsion>
0.6917

> <Gold.PLP.Chemscore.Hbond>
2.6640

> <Gold.PLP.Chemscore.CHOScore>
0.0000

> <Gold.PLP.Chemscore.Metal>
0.0000

> <Gold.Chemscore.Hbonds>
donor molecule, donor type, donor heavy atom, donor atom, acceptor molecule, acceptor atom, score
      L1  H     8    31       P1  8028  1.00
      L1  H    11    32       P1  8028  0.96
      P1  H  6934  6947       L1    19  0.26

> <Gold.PLP.Chemscore.Internal.Correction>
0.0484

> <Gold.Rescore>
     Score         DG    S(hbond)    S(metal)    S(lipo)     H(rot)  DE(clash)    DE(int)     intcor
     16.64     -20.24       2.11        0.00     100.38       1.57       0.12       3.48       ----

> <Gold.Chemscore.Fitness>
16.6446

> <Gold.Chemscore.DG>
-20.2377

> <Gold.Chemscore.ZeroCoef>
-5.4800

> <Gold.Chemscore.Hbond>
2.1066

> <Gold.Chemscore.Metal>
0.0000

> <Gold.Chemscore.Lipo>
100.3835

> <Gold.Chemscore.Internal_Hbond>
0.0000

> <Gold.Chemscore.DEClash>
0.1163

> <Gold.Chemscore.DEInternal>
3.4768

> <Gold.Chemscore.Rot>
1.5715

> <Gold.Chemscore.Internal.Correction>
   9.000000E+99

> <Gold.Chemscore.Hbonds>
donor molecule, donor type, donor heavy atom, donor atom, acceptor molecule, acceptor atom, score
      L1  H     8    31       P1  8028  1.00
      L1  H    11    32       P1  8028  0.92
      P1  H  6934  6947       L1    19  0.01

> <Gold.Chemscore.Hbond.Weighted>
-7.0359

> <Gold.Chemscore.Metal.Weighted>
-0.0000

> <Gold.Chemscore.Lipo.Weighted>
-11.7449

> <Gold.Chemscore.Internal_Hbond.Weighted>
0.0000

> <Gold.Chemscore.DEClash.Weighted>
0.1163

> <Gold.Chemscore.DEInternal.Weighted>
3.4768

> <Gold.Chemscore.Rot.Weighted>
4.0231

> <Gold.Chemscore.Internal.Correction.Weighted>
   9.000000E+99

> <Gold.Protein.RotatedTorsions>
[ 6907 6896 6895 6894 ] final   37.73 input  -60.11 | X-H torsion
[ 7974 7965 7964 7962 ] final  121.75 input  175.53 | X-H torsion
[ 8008 7997 7996 7995 ] final  -80.01 input   59.86 | X-H torsion
[ 10167 10162 10161 10158 ] final -124.57 input  -65.29 | X-H torsion
[ 10718 10713 10712 10709 ] final  105.71 input   66.30 | X-H torsion
[ 10763 10752 10751 10750 ] final -135.60 input  -60.55 | X-H torsion
[ 11005 11000 10999 10996 ] final -113.74 input  -57.11 | X-H torsion

> <Gold.Protein.ActiveResidues>
 VAL166  LYS551  ARG553  GLY616  TRP617  ASP618  TYR619  PRO620  LYS621  CYS622 
 ASP623  PHE694  ASN695  SER759  ASP760  ASP761  ALA762  ILE779  LEU786  VAL792 
 PHE793  MET794  SER795  GLU796  ALA797  LYS798  CYS799  TRP800  GLU811  SER814 

> <Gold.Protein.RotatedAtoms>
  152.1470  134.9018  160.0550 H   0  0  0  0  0  0  0  0  0  0  0  0  # atno 6907 bound_to 6896
  152.0064  133.3840  159.4210 H   0  0  0  0  0  0  0  0  0  0  0  0  # atno 6908 bound_to 6896
  150.6871  134.3700  159.5031 H   0  0  0  0  0  0  0  0  0  0  0  0  # atno 6909 bound_to 6896
  145.1156  139.3423  143.4740 H   0  0  0  0  0  0  0  0  0  0  0  0  # atno 7974 bound_to 7965
  154.5841  140.0669  156.9146 H   0  0  0  0  0  0  0  0  0  0  0  0  # atno 8008 bound_to 7997
  155.2411  140.3344  155.4274 H   0  0  0  0  0  0  0  0  0  0  0  0  # atno 8009 bound_to 7997
  156.2210  140.1799  156.7461 H   0  0  0  0  0  0  0  0  0  0  0  0  # atno 8010 bound_to 7997
  139.9914  143.5637  152.2340 H   0  0  0  0  0  0  0  0  0  0  0  0  # atno 10167 bound_to 10162
  157.6695  131.0834  150.5897 H   0  0  0  0  0  0  0  0  0  0  0  0  # atno 10718 bound_to 10713
  154.8700  135.3698  154.4924 H   0  0  0  0  0  0  0  0  0  0  0  0  # atno 10763 bound_to 10752
  153.5570  135.7023  153.5569 H   0  0  0  0  0  0  0  0  0  0  0  0  # atno 10764 bound_to 10752
  153.3662  135.4033  155.1719 H   0  0  0  0  0  0  0  0  0  0  0  0  # atno 10765 bound_to 10752
  141.0596  133.9557  157.2692 H   0  0  0  0  0  0  0  0  0  0  0  0  # atno 11005 bound_to 11000
  146.3524  140.1094  142.8604 LP  0  0  0  0  0  0  0  0  0  0  0  0  # atno 17320 bound_to 7965
  145.0797  140.9212  143.4833 LP  0  0  0  0  0  0  0  0  0  0  0  0  # atno 17321 bound_to 7965
  139.6337  144.7647  151.2482 LP  0  0  0  0  0  0  0  0  0  0  0  0  # atno 17342 bound_to 10162
  140.7453  143.6435  150.8313 LP  0  0  0  0  0  0  0  0  0  0  0  0  # atno 17343 bound_to 10162
  156.6198  130.4402  149.5827 LP  0  0  0  0  0  0  0  0  0  0  0  0  # atno 17370 bound_to 10713
  156.2365  130.6825  151.1514 LP  0  0  0  0  0  0  0  0  0  0  0  0  # atno 17371 bound_to 10713
  139.9420  135.0189  156.8738 LP  0  0  0  0  0  0  0  0  0  0  0  0  # atno 17394 bound_to 11000
  140.5896  134.0274  155.7494 LP  0  0  0  0  0  0  0  0  0  0  0  0  # atno 17395 bound_to 11000

$$$$
