AV-unprocessed.smi:184|AV-procd|sdf|1461|dock3
  -GOLD-   2262019273D 1   1.00000     0.00000
 Structure written by MMmdl.
 54 58  0  0  0  0  0  0  0  0  1 V2000
  149.2208  141.6827  153.9743 O   0  0  0  0  0  0  0  0  0  0  0  0
  149.3012  141.3727  155.1605 C   0  0  0  0  0  0  0  0  0  0  0  0
  149.3820  139.8855  155.5506 C   0  0  0  0  0  0  0  0  0  0  0  0
  149.3847  139.6422  157.0029 N   0  0  0  0  0  0  0  0  0  0  0  0
  149.3920  138.3544  157.4351 C   0  0  0  0  0  0  0  0  0  0  0  0
  149.7162  138.0846  158.7276 N   0  0  0  0  0  0  0  0  0  0  0  0
  149.7213  136.8261  159.1755 C   0  0  0  0  0  0  0  0  0  0  0  0
  149.4442  135.7036  158.5108 N   0  0  0  0  0  0  0  0  0  0  0  0
  149.1286  135.9637  157.2104 C   0  0  0  0  0  0  0  0  0  0  0  0
  149.0807  137.2470  156.5949 C   0  0  0  0  0  0  0  0  0  0  0  0
  148.7429  137.1120  155.2530 N   0  0  0  0  0  0  0  0  0  0  0  0
  148.5845  135.8271  155.0900 C   0  0  0  0  0  0  0  0  0  0  0  0
  148.7887  135.0624  156.2163 N   0  0  0  0  0  0  0  0  0  0  0  0
  148.6842  133.6138  156.3164 C   0  0  0  0  0  0  0  0  0  0  0  0
  149.6410  132.8418  155.3669 C   0  0  0  0  0  0  0  0  0  0  0  0
  150.9671  133.1299  155.7714 O   0  0  0  0  0  0  0  0  0  0  0  0
  149.4498  131.3161  155.4799 C   0  0  0  0  0  0  0  0  0  0  0  0
  148.1656  130.8495  154.7702 C   0  0  0  0  0  0  0  0  0  0  0  0
  148.1816  131.2672  153.4095 O   0  0  0  0  0  0  0  0  0  0  0  0
  148.2175  132.6824  153.2615 C   0  0  0  0  0  0  0  0  0  0  0  0
  149.5110  133.2404  153.8809 C   0  0  0  0  0  0  0  0  0  0  0  0
  150.0104  140.6445  157.8677 C   0  0  1  0  0  0  0  0  0  0  0  0
  151.5496  140.6542  157.6985 C   0  0  0  0  0  0  0  0  0  0  0  0
  152.2054  141.7858  158.5029 C   0  0  0  0  0  0  0  0  0  0  0  0
  151.6100  143.1483  158.1190 C   0  0  0  0  0  0  0  0  0  0  0  0
  150.0881  143.1587  158.3330 C   0  0  0  0  0  0  0  0  0  0  0  0
  149.3814  142.0251  157.5640 C   0  0  1  0  0  0  0  0  0  0  0  0
  149.3382  142.3040  156.1285 N   0  0  0  0  0  0  0  0  0  0  0  0
  148.5359  139.3641  155.1008 H   0  0  0  0  0  0  0  0  0  0  0  0
  150.2888  139.4783  155.1010 H   0  0  0  0  0  0  0  0  0  0  0  0
  149.9844  136.7004  160.2154 H   0  0  0  0  0  0  0  0  0  0  0  0
  148.3103  135.3980  154.1371 H   0  0  0  0  0  0  0  0  0  0  0  0
  148.8805  133.3349  157.3529 H   0  0  0  0  0  0  0  0  0  0  0  0
  147.6468  133.3388  156.1280 H   0  0  0  0  0  0  0  0  0  0  0  0
  151.0548  132.9142  156.6874 H   0  0  0  0  0  0  0  0  0  0  0  0
  150.2966  130.8045  155.0193 H   0  0  0  0  0  0  0  0  0  0  0  0
  149.4380  131.0054  156.5253 H   0  0  0  0  0  0  0  0  0  0  0  0
  148.1000  129.7619  154.7991 H   0  0  0  0  0  0  0  0  0  0  0  0
  147.2733  131.2288  155.2689 H   0  0  0  0  0  0  0  0  0  0  0  0
  148.1800  132.9237  152.1993 H   0  0  0  0  0  0  0  0  0  0  0  0
  147.3323  133.1269  153.7164 H   0  0  0  0  0  0  0  0  0  0  0  0
  149.5605  134.3215  153.7508 H   0  0  0  0  0  0  0  0  0  0  0  0
  150.3548  132.8354  153.3202 H   0  0  0  0  0  0  0  0  0  0  0  0
  149.8046  140.4261  158.9148 H   0  0  0  0  0  0  0  0  0  0  0  0
  151.9645  139.6954  158.0119 H   0  0  0  0  0  0  0  0  0  0  0  0
  151.8184  140.7713  156.6483 H   0  0  0  0  0  0  0  0  0  0  0  0
  152.0637  141.6086  159.5696 H   0  0  0  0  0  0  0  0  0  0  0  0
  153.2818  141.7885  158.3291 H   0  0  0  0  0  0  0  0  0  0  0  0
  152.0730  143.9366  158.7129 H   0  0  0  0  0  0  0  0  0  0  0  0
  151.8405  143.3712  157.0764 H   0  0  0  0  0  0  0  0  0  0  0  0
  149.8806  143.0491  159.3983 H   0  0  0  0  0  0  0  0  0  0  0  0
  149.6758  144.1259  158.0434 H   0  0  0  0  0  0  0  0  0  0  0  0
  148.3400  142.0019  157.8889 H   0  0  0  0  0  0  0  0  0  0  0  0
  149.3013  143.2743  155.8515 H   0  0  0  0  0  0  0  0  0  0  0  0
  1  2  2  0  0  0  0
  2 28  1  0  0  0  0
  2  3  1  0  0  0  0
  3  4  1  0  0  0  0
  3 29  1  0  0  0  0
  3 30  1  0  0  0  0
  4  5  1  0  0  0  0
  4 22  1  0  0  0  0
  5 10  1  0  0  0  0
  5  6  2  0  0  0  0
  6  7  1  0  0  0  0
  7  8  2  0  0  0  0
  7 31  1  0  0  0  0
  8  9  1  0  0  0  0
  9 13  1  0  0  0  0
  9 10  2  0  0  0  0
 10 11  1  0  0  0  0
 11 12  2  0  0  0  0
 12 13  1  0  0  0  0
 12 32  1  0  0  0  0
 13 14  1  0  0  0  0
 14 15  1  0  0  0  0
 14 33  1  0  0  0  0
 14 34  1  0  0  0  0
 15 21  1  0  0  0  0
 15 16  1  0  0  0  0
 15 17  1  0  0  0  0
 16 35  1  0  0  0  0
 17 18  1  0  0  0  0
 17 36  1  0  0  0  0
 17 37  1  0  0  0  0
 18 19  1  0  0  0  0
 18 38  1  0  0  0  0
 18 39  1  0  0  0  0
 19 20  1  0  0  0  0
 20 21  1  0  0  0  0
 20 40  1  0  0  0  0
 20 41  1  0  0  0  0
 21 42  1  0  0  0  0
 21 43  1  0  0  0  0
 22 27  1  0  0  0  0
 22 23  1  0  0  0  0
 22 44  1  0  0  0  0
 23 24  1  0  0  0  0
 23 45  1  0  0  0  0
 23 46  1  0  0  0  0
 24 25  1  0  0  0  0
 24 47  1  0  0  0  0
 24 48  1  0  0  0  0
 25 26  1  0  0  0  0
 25 49  1  0  0  0  0
 25 50  1  0  0  0  0
 26 27  1  0  0  0  0
 26 51  1  0  0  0  0
 26 52  1  0  0  0  0
 27 28  1  0  0  0  0
 27 53  1  0  0  0  0
 28 54  1  0  0  0  0
M  END
> <s_m_source_file>
AV-unprocessed.smi

> <i_m_source_file_index>
184

> <i_lp_mmshare_version>
43012

> <i_f3d_flags>
0

> <s_epik_input>
W0NIMl0xW0NIMl1bQ0gyXVtDSDJdW0NASF0oW0NASF0xMilbTkhdQyg9TylbQ0gyXU4yYyhuW2NIXW4zKWMoYzM0KW5bY0hdbjRbQ0gyXUM1KFtPSF0pW0NIMl1bQ0gyXU9bQ0gyXVtDSDJdNQ==

> <s_epik_cmdline>
J2VwaWtfcHl0aG9uJywgJy1waCcsICc3LjAnLCAnLXRuJywgJzgnLCAnLW1hJywgJzIwMCcsICctbWV0YWxfYmluZGluZycsICctaW1hZScsICc8aW5maWxlLm1hZT4nLCAnLW9tYWUnLCAnPG91dGZpbGUubWFlPic=

> <r_lp_tautomer_probability>
1

> <r_epik_Ionization_Penalty>
0.000822761

> <r_epik_Ionization_Penalty_Charging>
0

> <r_epik_Ionization_Penalty_Neutral>
0.000822761

> <r_epik_State_Penalty>
0.000403048

> <r_epik_Charging_Adjusted_Penalty>
0.000403048

> <i_epik_Tot_Q>
0

> <i_epik_Tot_abs_Q>
0

> <r_epik_Metal_State_Penalty>
-0

> <b_epik_Metal_Only>
0

> <s_lp_Force_Field>
OPLS_2005

> <r_lp_Energy>
37.4229

> <b_lp_Chiralities_Consistent>
1

> <s_lp_Variant>
AV-unprocessed.smi:184-1

> <Gold.Version>
5.8.1

> <Gold.Id.Protein>
6NUR|6NUR_protein|mol2

> <Gold.PLP.Fitness>
43.0688

> <Gold.PLP.PLP>
-32.5085

> <Gold.PLP.part.hbond>
-3.9099

> <Gold.PLP.part.metal>
0.0000

> <Gold.PLP.part.buried>
-4.9985

> <Gold.PLP.part.nonpolar>
-24.1734

> <Gold.PLP.part.repulsive>
0.4910

> <Gold.PLP.ligand.clash>
0.0000

> <Gold.PLP.ligand.torsion>
0.1088

> <Gold.PLP.Chemscore.Hbond>
2.5830

> <Gold.PLP.Chemscore.CHOScore>
0.9445

> <Gold.PLP.Chemscore.Metal>
0.0000

> <Gold.Chemscore.Hbonds>
donor molecule, donor type, donor heavy atom, donor atom, acceptor molecule, acceptor atom, score
      L1  H    28    54       P1  8028  0.96
      P1  H  6896  6909       L1     8  1.00
      P1  H  8011  8017       L1     1  0.61
      L1  C    12    32       P1  7948  0.95

> <Gold.PLP.Chemscore.Internal.Correction>
0.1954

> <Gold.Rescore>
     Score         DG    S(hbond)    S(metal)    S(lipo)     H(rot)  DE(clash)    DE(int)     intcor
     16.37     -17.97       2.55        0.00      73.99       1.83       0.08       1.52       ----

> <Gold.Chemscore.Fitness>
16.3678

> <Gold.Chemscore.DG>
-17.9725

> <Gold.Chemscore.ZeroCoef>
-5.4800

> <Gold.Chemscore.Hbond>
2.5476

> <Gold.Chemscore.Metal>
0.0000

> <Gold.Chemscore.Lipo>
73.9895

> <Gold.Chemscore.Internal_Hbond>
0.0000

> <Gold.Chemscore.DEClash>
0.0847

> <Gold.Chemscore.DEInternal>
1.5199

> <Gold.Chemscore.Rot>
1.8255

> <Gold.Chemscore.Internal.Correction>
   9.000000E+99

> <Gold.Chemscore.Hbonds>
donor molecule, donor type, donor heavy atom, donor atom, acceptor molecule, acceptor atom, score
      L1  H    28    54       P1  8028  0.91
      P1  H  6896  6909       L1     8  0.24
      P1  H  8011  8017       L1     1  0.60

> <Gold.Chemscore.Hbond.Weighted>
-8.5089

> <Gold.Chemscore.Metal.Weighted>
-0.0000

> <Gold.Chemscore.Lipo.Weighted>
-8.6568

> <Gold.Chemscore.Internal_Hbond.Weighted>
0.0000

> <Gold.Chemscore.DEClash.Weighted>
0.0847

> <Gold.Chemscore.DEInternal.Weighted>
1.5199

> <Gold.Chemscore.Rot.Weighted>
4.6732

> <Gold.Chemscore.Internal.Correction.Weighted>
   9.000000E+99

> <Gold.Protein.RotatedTorsions>
[ 6907 6896 6895 6894 ] final   37.45 input  -60.11 | X-H torsion
[ 7974 7965 7964 7962 ] final  -46.99 input  175.53 | X-H torsion
[ 8008 7997 7996 7995 ] final  168.37 input   59.86 | X-H torsion
[ 10167 10162 10161 10158 ] final -124.42 input  -65.29 | X-H torsion
[ 10718 10713 10712 10709 ] final  153.33 input   66.30 | X-H torsion
[ 10763 10752 10751 10750 ] final   54.57 input  -60.55 | X-H torsion
[ 11005 11000 10999 10996 ] final -112.19 input  -57.11 | X-H torsion

> <Gold.Protein.ActiveResidues>
 VAL166  LYS551  ARG553  GLY616  TRP617  ASP618  TYR619  PRO620  LYS621  CYS622 
 ASP623  PHE694  ASN695  SER759  ASP760  ASP761  ALA762  ILE779  LEU786  VAL792 
 PHE793  MET794  SER795  GLU796  ALA797  LYS798  CYS799  TRP800  GLU811  SER814 

> <Gold.Protein.RotatedAtoms>
  152.1433  134.9045  160.0552 H   0  0  0  0  0  0  0  0  0  0  0  0  # atno 6907 bound_to 6896
  152.0105  133.3855  159.4226 H   0  0  0  0  0  0  0  0  0  0  0  0  # atno 6908 bound_to 6896
  150.6867  134.3657  159.5014 H   0  0  0  0  0  0  0  0  0  0  0  0  # atno 6909 bound_to 6896
  145.9662  140.7430  142.9433 H   0  0  0  0  0  0  0  0  0  0  0  0  # atno 7974 bound_to 7965
  156.1553  140.1592  156.8703 H   0  0  0  0  0  0  0  0  0  0  0  0  # atno 8008 bound_to 7997
  154.5109  140.0801  156.8023 H   0  0  0  0  0  0  0  0  0  0  0  0  # atno 8009 bound_to 7997
  155.3816  140.3405  155.4249 H   0  0  0  0  0  0  0  0  0  0  0  0  # atno 8010 bound_to 7997
  139.9930  143.5620  152.2334 H   0  0  0  0  0  0  0  0  0  0  0  0  # atno 10167 bound_to 10162
  157.2461  131.0769  151.1760 H   0  0  0  0  0  0  0  0  0  0  0  0  # atno 10718 bound_to 10713
  152.9806  135.5740  154.4926 H   0  0  0  0  0  0  0  0  0  0  0  0  # atno 10763 bound_to 10752
  154.4458  135.2777  155.1818 H   0  0  0  0  0  0  0  0  0  0  0  0  # atno 10764 bound_to 10752
  154.3466  135.6218  153.5676 H   0  0  0  0  0  0  0  0  0  0  0  0  # atno 10765 bound_to 10752
  141.0690  133.9411  157.2522 H   0  0  0  0  0  0  0  0  0  0  0  0  # atno 11005 bound_to 11000
  144.6826  140.2672  143.7311 LP  0  0  0  0  0  0  0  0  0  0  0  0  # atno 17320 bound_to 7965
  145.7971  139.1949  143.2069 LP  0  0  0  0  0  0  0  0  0  0  0  0  # atno 17321 bound_to 7965
  139.6326  144.7646  151.2504 LP  0  0  0  0  0  0  0  0  0  0  0  0  # atno 17342 bound_to 10162
  140.7447  143.6453  150.8297 LP  0  0  0  0  0  0  0  0  0  0  0  0  # atno 17343 bound_to 10162
  157.3327  130.6993  149.6334 LP  0  0  0  0  0  0  0  0  0  0  0  0  # atno 17370 bound_to 10713
  155.9668  130.4303  150.4869 LP  0  0  0  0  0  0  0  0  0  0  0  0  # atno 17371 bound_to 10713
  139.9504  135.0176  156.8978 LP  0  0  0  0  0  0  0  0  0  0  0  0  # atno 17394 bound_to 11000
  140.5713  134.0440  155.7431 LP  0  0  0  0  0  0  0  0  0  0  0  0  # atno 17395 bound_to 11000

$$$$
