AV-unprocessed.smi:893|AV-procd|sdf|4071|dock4
  -GOLD-   22720 1553D 1   1.00000     0.00000
 Structure written by MMmdl.
 26 27  0  0  0  0  0  0  0  0  2 V2000
  149.1481  140.7377  154.4157 C   0  0  0  0  0  0  0  0  0  0  0  0
  149.4470  141.4262  155.7615 C   0  0  0  0  0  0  0  0  0  0  0  0
  150.7132  140.9420  156.5207 C   0  0  2  0  0  0  0  0  0  0  0  0
  151.1315  141.9670  157.5635 C   0  0  0  0  0  0  0  0  0  0  0  0
  151.4191  141.7421  158.9433 C   0  0  0  0  0  0  0  0  0  0  0  0
  151.7565  142.8433  159.5941 N   0  0  0  0  0  0  0  0  0  0  0  0
  151.6947  143.8131  158.6604 N   0  0  0  0  0  0  0  0  0  0  0  0
  152.0072  145.1779  159.0259 C   0  0  0  0  0  0  0  0  0  0  0  0
  151.3193  143.3170  157.4314 C   0  0  0  0  0  0  0  0  0  0  0  0
  151.7896  140.6482  155.5827 N   0  5  0  0  0  0  0  0  0  0  0  0
  152.1702  139.3587  155.7458 C   0  0  0  0  0  0  0  0  0  0  0  0
  153.0570  138.7550  155.1464 O   0  0  0  0  0  0  0  0  0  0  0  0
  151.4311  138.7633  156.6871 N   0  0  0  0  0  0  0  0  0  0  0  0
  150.5259  139.5910  157.2004 C   0  0  0  0  0  0  0  0  0  0  0  0
  149.6830  139.3312  158.0590 O   0  0  0  0  0  0  0  0  0  0  0  0
  148.2575  141.1665  153.9565 H   0  0  0  0  0  0  0  0  0  0  0  0
  148.9679  139.6698  154.5378 H   0  0  0  0  0  0  0  0  0  0  0  0
  149.9704  140.8623  153.7111 H   0  0  0  0  0  0  0  0  0  0  0  0
  149.5259  142.5007  155.5906 H   0  0  0  0  0  0  0  0  0  0  0  0
  148.5732  141.2965  156.4013 H   0  0  0  0  0  0  0  0  0  0  0  0
  151.3942  140.8091  159.4869 H   0  0  0  0  0  0  0  0  0  0  0  0
  151.9190  145.8277  158.1546 H   0  0  0  0  0  0  0  0  0  0  0  0
  153.0270  145.2340  159.4076 H   0  0  0  0  0  0  0  0  0  0  0  0
  151.3157  145.5215  159.7958 H   0  0  0  0  0  0  0  0  0  0  0  0
  151.2178  143.9582  156.5680 H   0  0  0  0  0  0  0  0  0  0  0  0
  151.5376  137.7985  156.9627 H   0  0  0  0  0  0  0  0  0  0  0  0
  1  2  1  0  0  0  0
  1 16  1  0  0  0  0
  1 17  1  0  0  0  0
  1 18  1  0  0  0  0
  2  3  1  0  0  0  0
  2 19  1  0  0  0  0
  2 20  1  0  0  0  0
  3 14  1  0  0  0  0
  3  4  1  0  0  0  0
  3 10  1  0  0  0  0
  4  9  2  0  0  0  0
  4  5  1  0  0  0  0
  5  6  2  0  0  0  0
  5 21  1  0  0  0  0
  6  7  1  0  0  0  0
  7  8  1  0  0  0  0
  7  9  1  0  0  0  0
  8 22  1  0  0  0  0
  8 23  1  0  0  0  0
  8 24  1  0  0  0  0
  9 25  1  0  0  0  0
 10 11  1  0  0  0  0
 11 12  2  0  0  0  0
 11 13  1  0  0  0  0
 13 14  1  0  0  0  0
 13 26  1  0  0  0  0
 14 15  2  0  0  0  0
M  CHG  1  10  -1
M  END
> <s_m_source_file>
AV-unprocessed.smi

> <i_m_source_file_index>
893

> <i_lp_mmshare_version>
43012

> <i_f3d_flags>
0

> <s_epik_input>
Tz1DMVtOSF1DKD1PKVtOSF1bQ0BAXTEoW0NIMl1bQ0gzXSljMltjSF1ubihbQ0gzXSlbY0hdMg==

> <s_epik_cmdline>
J2VwaWtfcHl0aG9uJywgJy1waCcsICc3LjAnLCAnLXRuJywgJzgnLCAnLW1hJywgJzIwMCcsICctbWV0YWxfYmluZGluZycsICctaW1hZScsICc8aW5maWxlLm1hZT4nLCAnLW9tYWUnLCAnPG91dGZpbGUubWFlPic=

> <r_lp_tautomer_probability>
1

> <r_epik_Ionization_Penalty>
4.97057

> <r_epik_Ionization_Penalty_Charging>
4.97009

> <r_epik_Ionization_Penalty_Neutral>
0.000472554

> <r_epik_State_Penalty>
4.98892

> <r_epik_Charging_Adjusted_Penalty>
9.95901

> <i_epik_Tot_Q>
-1

> <i_epik_Tot_abs_Q>
1

> <r_epik_Metal_State_Penalty>
1.41037

> <b_epik_Metal_Only>
1

> <s_lp_Force_Field>
OPLS_2005

> <r_lp_Energy>
9.72866

> <b_lp_Chiralities_Consistent>
1

> <s_lp_Variant>
AV-unprocessed.smi:893-6

> <Gold.Version>
5.8.1

> <Gold.Id.Protein>
6NUR|6NUR_protein|mol2

> <Gold.PLP.Fitness>
33.5536

> <Gold.PLP.PLP>
-28.0588

> <Gold.PLP.part.hbond>
-2.0000

> <Gold.PLP.part.metal>
0.0000

> <Gold.PLP.part.buried>
-2.0067

> <Gold.PLP.part.nonpolar>
-24.7467

> <Gold.PLP.part.repulsive>
0.0700

> <Gold.PLP.ligand.clash>
0.0000

> <Gold.PLP.ligand.torsion>
0.5157

> <Gold.PLP.Chemscore.Hbond>
1.2221

> <Gold.PLP.Chemscore.CHOScore>
0.9242

> <Gold.PLP.Chemscore.Metal>
0.0000

> <Gold.Chemscore.Hbonds>
donor molecule, donor type, donor heavy atom, donor atom, acceptor molecule, acceptor atom, score
      P1  H  7989  7998       L1    10  0.56
      P1  H  7997  8009       L1    12  0.37
      L1  C     9    25       P1  8028  0.73

> <Gold.PLP.Chemscore.Internal.Correction>
0.0876

> <Gold.Rescore>
     Score         DG    S(hbond)    S(metal)    S(lipo)     H(rot)  DE(clash)    DE(int)     intcor
     13.46     -13.99       1.79        0.00      49.77       1.28       0.04       0.49       ----

> <Gold.Chemscore.Fitness>
13.4633

> <Gold.Chemscore.DG>
-13.9937

> <Gold.Chemscore.ZeroCoef>
-5.4800

> <Gold.Chemscore.Hbond>
1.7871

> <Gold.Chemscore.Metal>
0.0000

> <Gold.Chemscore.Lipo>
49.7690

> <Gold.Chemscore.Internal_Hbond>
0.0000

> <Gold.Chemscore.DEClash>
0.0433

> <Gold.Chemscore.DEInternal>
0.4870

> <Gold.Chemscore.Rot>
1.2805

> <Gold.Chemscore.Internal.Correction>
   9.000000E+99

> <Gold.Chemscore.Hbonds>
donor molecule, donor type, donor heavy atom, donor atom, acceptor molecule, acceptor atom, score
      P1  H  7989  7998       L1    10  0.25
      P1  H  7997  8009       L1    12  0.04

> <Gold.Chemscore.Hbond.Weighted>
-5.9689

> <Gold.Chemscore.Metal.Weighted>
-0.0000

> <Gold.Chemscore.Lipo.Weighted>
-5.8230

> <Gold.Chemscore.Internal_Hbond.Weighted>
0.0000

> <Gold.Chemscore.DEClash.Weighted>
0.0433

> <Gold.Chemscore.DEInternal.Weighted>
0.4870

> <Gold.Chemscore.Rot.Weighted>
3.2782

> <Gold.Chemscore.Internal.Correction.Weighted>
   9.000000E+99

> <Gold.Protein.RotatedTorsions>
[ 6907 6896 6895 6894 ] final  177.64 input  -60.11 | X-H torsion
[ 7974 7965 7964 7962 ] final    2.14 input  175.53 | X-H torsion
[ 8008 7997 7996 7995 ] final -120.10 input   59.86 | X-H torsion
[ 10167 10162 10161 10158 ] final  -42.06 input  -65.29 | X-H torsion
[ 10718 10713 10712 10709 ] final   -7.92 input   66.30 | X-H torsion
[ 10763 10752 10751 10750 ] final  157.00 input  -60.55 | X-H torsion
[ 11005 11000 10999 10996 ] final  -72.29 input  -57.11 | X-H torsion

> <Gold.Protein.ActiveResidues>
 VAL166  LYS551  ARG553  GLY616  TRP617  ASP618  TYR619  PRO620  LYS621  CYS622 
 ASP623  PHE694  ASN695  SER759  ASP760  ASP761  ALA762  ILE779  LEU786  VAL792 
 PHE793  MET794  SER795  GLU796  ALA797  LYS798  CYS799  TRP800  GLU811  SER814 

> <Gold.Protein.RotatedAtoms>
  151.7006  133.3311  159.3265 H   0  0  0  0  0  0  0  0  0  0  0  0  # atno 6907 bound_to 6896
  150.7737  134.6618  159.6353 H   0  0  0  0  0  0  0  0  0  0  0  0  # atno 6908 bound_to 6896
  152.3772  134.6649  160.0208 H   0  0  0  0  0  0  0  0  0  0  0  0  # atno 6909 bound_to 6896
  146.2443  140.0881  142.8353 H   0  0  0  0  0  0  0  0  0  0  0  0  # atno 7974 bound_to 7965
  155.1263  140.0399  157.2763 H   0  0  0  0  0  0  0  0  0  0  0  0  # atno 8008 bound_to 7997
  154.6576  140.2583  155.7119 H   0  0  0  0  0  0  0  0  0  0  0  0  # atno 8009 bound_to 7997
  156.2605  140.2823  156.1035 H   0  0  0  0  0  0  0  0  0  0  0  0  # atno 8010 bound_to 7997
  140.6982  143.3059  151.3156 H   0  0  0  0  0  0  0  0  0  0  0  0  # atno 10167 bound_to 10162
  156.7101  130.5119  149.5894 H   0  0  0  0  0  0  0  0  0  0  0  0  # atno 10718 bound_to 10713
  154.1933  135.2794  155.3015 H   0  0  0  0  0  0  0  0  0  0  0  0  # atno 10763 bound_to 10752
  154.5912  135.5559  153.7284 H   0  0  0  0  0  0  0  0  0  0  0  0  # atno 10764 bound_to 10752
  153.0107  135.6369  154.2071 H   0  0  0  0  0  0  0  0  0  0  0  0  # atno 10765 bound_to 10752
  141.1606  133.6842  156.7036 H   0  0  0  0  0  0  0  0  0  0  0  0  # atno 11005 bound_to 11000
  145.0674  140.9131  143.4902 LP  0  0  0  0  0  0  0  0  0  0  0  0  # atno 17320 bound_to 7965
  145.1008  139.2824  143.5687 LP  0  0  0  0  0  0  0  0  0  0  0  0  # atno 17321 bound_to 7965
  139.6464  144.0443  152.2594 LP  0  0  0  0  0  0  0  0  0  0  0  0  # atno 17342 bound_to 10162
  139.9965  144.6324  150.7767 LP  0  0  0  0  0  0  0  0  0  0  0  0  # atno 17343 bound_to 10162
  156.1667  130.6410  151.0787 LP  0  0  0  0  0  0  0  0  0  0  0  0  # atno 17370 bound_to 10713
  157.6939  131.0800  150.7026 LP  0  0  0  0  0  0  0  0  0  0  0  0  # atno 17371 bound_to 10713
  140.2940  134.8217  157.4041 LP  0  0  0  0  0  0  0  0  0  0  0  0  # atno 17394 bound_to 11000
  140.1321  134.5081  155.8097 LP  0  0  0  0  0  0  0  0  0  0  0  0  # atno 17395 bound_to 11000

$$$$
