AV-unprocessed.smi:2662|AV-procd|sdf|10320|dock1
  -GOLD-   2272014333D 1   1.00000     0.00000
 Structure written by MMmdl.
 37 39  0  0  0  0  0  0  0  0  2 V2000
  151.4882  136.7167  154.1879 O   0  0  0  0  0  0  0  0  0  0  0  0
  151.6544  138.0107  154.7230 C   0  0  0  0  0  0  0  0  0  0  0  0
  150.4668  138.8833  154.4768 C   0  0  0  0  0  0  0  0  0  0  0  0
  149.4214  138.5768  153.6572 N   0  3  0  0  0  0  0  0  0  0  0  0
  148.4995  139.6236  153.6526 C   0  0  0  0  0  0  0  0  0  0  0  0
  147.2921  139.7726  152.9769 C   0  0  0  0  0  0  0  0  0  0  0  0
  146.5906  140.9770  153.1931 C   0  0  0  0  0  0  0  0  0  0  0  0
  147.0936  141.9758  154.0521 C   0  0  0  0  0  0  0  0  0  0  0  0
  148.3194  141.8136  154.7311 C   0  0  0  0  0  0  0  0  0  0  0  0
  149.0062  140.6196  154.5116 C   0  0  0  0  0  0  0  0  0  0  0  0
  150.2214  140.1229  154.9960 N   0  0  0  0  0  0  0  0  0  0  0  0
  151.0087  140.9554  155.9203 C   0  0  0  0  0  0  0  0  0  0  0  0
  150.7944  140.5787  157.4000 C   0  0  2  0  0  0  0  0  0  0  0  0
  149.4106  140.5727  157.6965 O   0  0  0  0  0  0  0  0  0  0  0  0
  151.5931  141.4939  158.3185 C   0  0  0  0  0  0  0  0  0  0  0  0
  151.4805  142.8991  158.2144 C   0  0  0  0  0  0  0  0  0  0  0  0
  152.2325  143.7382  159.0591 C   0  0  0  0  0  0  0  0  0  0  0  0
  152.1170  145.0831  158.9538 F   0  0  0  0  0  0  0  0  0  0  0  0
  153.1067  143.1795  160.0103 C   0  0  0  0  0  0  0  0  0  0  0  0
  153.2300  141.7811  160.1146 C   0  0  0  0  0  0  0  0  0  0  0  0
  152.4782  140.9399  159.2711 C   0  0  0  0  0  0  0  0  0  0  0  0
  152.6166  139.5961  159.3767 F   0  0  0  0  0  0  0  0  0  0  0  0
  151.3306  136.7931  153.2592 H   0  0  0  0  0  0  0  0  0  0  0  0
  151.8223  137.9295  155.7971 H   0  0  0  0  0  0  0  0  0  0  0  0
  152.5505  138.4606  154.2979 H   0  0  0  0  0  0  0  0  0  0  0  0
  146.9055  139.0092  152.3176 H   0  0  0  0  0  0  0  0  0  0  0  0
  145.6488  141.1384  152.6890 H   0  0  0  0  0  0  0  0  0  0  0  0
  146.5283  142.8858  154.1925 H   0  0  0  0  0  0  0  0  0  0  0  0
  148.6973  142.5858  155.3850 H   0  0  0  0  0  0  0  0  0  0  0  0
  152.0610  140.8681  155.6465 H   0  0  0  0  0  0  0  0  0  0  0  0
  150.7418  141.9985  155.7523 H   0  0  0  0  0  0  0  0  0  0  0  0
  151.1383  139.5565  157.5605 H   0  0  0  0  0  0  0  0  0  0  0  0
  149.1955  141.3771  158.1438 H   0  0  0  0  0  0  0  0  0  0  0  0
  150.8200  143.3430  157.4840 H   0  0  0  0  0  0  0  0  0  0  0  0
  153.6855  143.8230  160.6565 H   0  0  0  0  0  0  0  0  0  0  0  0
  153.9053  141.3525  160.8404 H   0  0  0  0  0  0  0  0  0  0  0  0
  149.3523  137.7141  153.1330 H   0  0  0  0  0  0  0  0  0  0  0  0
  1  2  1  0  0  0  0
  1 23  1  0  0  0  0
  2  3  1  0  0  0  0
  2 24  1  0  0  0  0
  2 25  1  0  0  0  0
  3 11  1  0  0  0  0
  3  4  2  0  0  0  0
  4  5  1  0  0  0  0
  4 37  1  0  0  0  0
  5 10  2  0  0  0  0
  5  6  1  0  0  0  0
  6  7  2  0  0  0  0
  6 26  1  0  0  0  0
  7  8  1  0  0  0  0
  7 27  1  0  0  0  0
  8  9  2  0  0  0  0
  8 28  1  0  0  0  0
  9 10  1  0  0  0  0
  9 29  1  0  0  0  0
 10 11  1  0  0  0  0
 11 12  1  0  0  0  0
 12 13  1  0  0  0  0
 12 30  1  0  0  0  0
 12 31  1  0  0  0  0
 13 14  1  0  0  0  0
 13 15  1  0  0  0  0
 13 32  1  0  0  0  0
 14 33  1  0  0  0  0
 15 21  1  0  0  0  0
 15 16  2  0  0  0  0
 16 17  1  0  0  0  0
 16 34  1  0  0  0  0
 17 18  1  0  0  0  0
 17 19  2  0  0  0  0
 19 20  1  0  0  0  0
 19 35  1  0  0  0  0
 20 21  2  0  0  0  0
 20 36  1  0  0  0  0
 21 22  1  0  0  0  0
M  CHG  1   4   1
M  END
> <s_m_source_file>
AV-unprocessed.smi

> <i_m_source_file_index>
2662

> <i_lp_mmshare_version>
43012

> <i_f3d_flags>
0

> <s_epik_input>
W2NIXTFbY0hdW2NIXVtjSF1jKGMxMiluKGMobjIpW0NIMl1bT0hdKVtDSDJdW0NASF0oW09IXSljM1tjSF1jKEYpW2NIXVtjSF1jM0Y=

> <s_epik_cmdline>
J2VwaWtfcHl0aG9uJywgJy1waCcsICc3LjAnLCAnLXRuJywgJzgnLCAnLW1hJywgJzIwMCcsICctbWV0YWxfYmluZGluZycsICctaW1hZScsICc8aW5maWxlLm1hZT4nLCAnLW9tYWUnLCAnPG91dGZpbGUubWFlPic=

> <r_epik_Ionization_Penalty>
1.35643

> <r_epik_Ionization_Penalty_Charging>
1.35557

> <r_epik_Ionization_Penalty_Neutral>
0.000859316

> <r_epik_State_Penalty>
1.43401

> <r_epik_Charging_Adjusted_Penalty>
2.78958

> <i_epik_Tot_Q>
1

> <i_epik_Tot_abs_Q>
1

> <r_epik_Metal_State_Penalty>
5.47166

> <b_epik_Metal_Only>
0

> <s_lp_Force_Field>
OPLS_2005

> <r_lp_Energy>
14.5058

> <b_lp_Chiralities_Consistent>
1

> <s_lp_Variant>
AV-unprocessed.smi:2662-3

> <Gold.Version>
5.8.1

> <Gold.Id.Protein>
6NUR|6NUR_protein|mol2

> <Gold.PLP.Fitness>
64.7684

> <Gold.PLP.PLP>
-53.8327

> <Gold.PLP.part.hbond>
-4.0000

> <Gold.PLP.part.metal>
0.0000

> <Gold.PLP.part.buried>
1.3677

> <Gold.PLP.part.nonpolar>
-51.9725

> <Gold.PLP.part.repulsive>
0.0686

> <Gold.PLP.ligand.clash>
0.0000

> <Gold.PLP.ligand.torsion>
0.5664

> <Gold.PLP.Chemscore.Hbond>
3.9920

> <Gold.PLP.Chemscore.CHOScore>
0.0000

> <Gold.PLP.Chemscore.Metal>
0.0000

> <Gold.Chemscore.Hbonds>
donor molecule, donor type, donor heavy atom, donor atom, acceptor molecule, acceptor atom, score
      L1  H     1    23       P1  7949  1.00
      L1  H     4    37       P1  7948  2.00
      P1  H 10752 10764       L1     1  0.90

> <Gold.PLP.Chemscore.Internal.Correction>
0.0925

> <Gold.Rescore>
     Score         DG    S(hbond)    S(metal)    S(lipo)     H(rot)  DE(clash)    DE(int)     intcor
     17.80     -20.12       2.34        0.00     122.70       2.95       1.99       0.33       ----

> <Gold.Chemscore.Fitness>
17.8017

> <Gold.Chemscore.DG>
-20.1177

> <Gold.Chemscore.ZeroCoef>
-5.4800

> <Gold.Chemscore.Hbond>
2.3436

> <Gold.Chemscore.Metal>
0.0000

> <Gold.Chemscore.Lipo>
122.6999

> <Gold.Chemscore.Internal_Hbond>
0.0000

> <Gold.Chemscore.DEClash>
1.9864

> <Gold.Chemscore.DEInternal>
0.3297

> <Gold.Chemscore.Rot>
2.9475

> <Gold.Chemscore.Internal.Correction>
   9.000000E+99

> <Gold.Chemscore.Hbonds>
donor molecule, donor type, donor heavy atom, donor atom, acceptor molecule, acceptor atom, score
      L1  H     1    23       P1  7949  0.70
      L1  H     4    37       P1  7948  0.94
      P1  H 10752 10764       L1     1  0.17

> <Gold.Chemscore.Hbond.Weighted>
-7.8275

> <Gold.Chemscore.Metal.Weighted>
-0.0000

> <Gold.Chemscore.Lipo.Weighted>
-14.3559

> <Gold.Chemscore.Internal_Hbond.Weighted>
0.0000

> <Gold.Chemscore.DEClash.Weighted>
1.9864

> <Gold.Chemscore.DEInternal.Weighted>
0.3297

> <Gold.Chemscore.Rot.Weighted>
7.5457

> <Gold.Chemscore.Internal.Correction.Weighted>
   9.000000E+99

> <Gold.Protein.RotatedTorsions>
[ 6907 6896 6895 6894 ] final  -40.19 input  -60.11 | X-H torsion
[ 7974 7965 7964 7962 ] final  171.84 input  175.53 | X-H torsion
[ 8008 7997 7996 7995 ] final  144.09 input   59.86 | X-H torsion
[ 10167 10162 10161 10158 ] final  -47.13 input  -65.29 | X-H torsion
[ 10718 10713 10712 10709 ] final   57.14 input   66.30 | X-H torsion
[ 10763 10752 10751 10750 ] final  -88.20 input  -60.55 | X-H torsion
[ 11005 11000 10999 10996 ] final   98.73 input  -57.11 | X-H torsion

> <Gold.Protein.ActiveResidues>
 VAL166  LYS551  ARG553  GLY616  TRP617  ASP618  TYR619  PRO620  LYS621  CYS622 
 ASP623  PHE694  ASN695  SER759  ASP760  ASP761  ALA762  ILE779  LEU786  VAL792 
 PHE793  MET794  SER795  GLU796  ALA797  LYS798  CYS799  TRP800  GLU811  SER814 

> <Gold.Protein.RotatedAtoms>
  150.9813  134.9168  159.7845 H   0  0  0  0  0  0  0  0  0  0  0  0  # atno 6907 bound_to 6896
  152.5223  134.3406  159.9226 H   0  0  0  0  0  0  0  0  0  0  0  0  # atno 6908 bound_to 6896
  151.3413  133.3920  159.2706 H   0  0  0  0  0  0  0  0  0  0  0  0  # atno 6909 bound_to 6896
  144.7284  139.9410  143.6428 H   0  0  0  0  0  0  0  0  0  0  0  0  # atno 7974 bound_to 7965
  156.2916  140.2245  156.4997 H   0  0  0  0  0  0  0  0  0  0  0  0  # atno 8008 bound_to 7997
  154.7700  140.0467  157.1065 H   0  0  0  0  0  0  0  0  0  0  0  0  # atno 8009 bound_to 7997
  154.9886  140.3087  155.4919 H   0  0  0  0  0  0  0  0  0  0  0  0  # atno 8010 bound_to 7997
  140.6788  143.2798  151.3882 H   0  0  0  0  0  0  0  0  0  0  0  0  # atno 10167 bound_to 10162
  157.5490  130.8751  149.8934 H   0  0  0  0  0  0  0  0  0  0  0  0  # atno 10718 bound_to 10713
  154.6419  135.5386  153.7800 H   0  0  0  0  0  0  0  0  0  0  0  0  # atno 10763 bound_to 10752
  153.0338  135.6461  154.1146 H   0  0  0  0  0  0  0  0  0  0  0  0  # atno 10764 bound_to 10752
  154.1070  135.2929  155.3219 H   0  0  0  0  0  0  0  0  0  0  0  0  # atno 10765 bound_to 10752
  139.8772  134.9063  156.4500 H   0  0  0  0  0  0  0  0  0  0  0  0  # atno 11005 bound_to 11000
  146.0785  139.3773  143.0479 LP  0  0  0  0  0  0  0  0  0  0  0  0  # atno 17320 bound_to 7965
  145.7873  140.9830  143.1068 LP  0  0  0  0  0  0  0  0  0  0  0  0  # atno 17321 bound_to 7965
  139.6097  144.1124  152.2286 LP  0  0  0  0  0  0  0  0  0  0  0  0  # atno 17342 bound_to 10162
  140.0534  144.5914  150.7318 LP  0  0  0  0  0  0  0  0  0  0  0  0  # atno 17343 bound_to 10162
  156.0560  130.3708  150.1090 LP  0  0  0  0  0  0  0  0  0  0  0  0  # atno 17370 bound_to 10713
  156.9265  130.9700  151.3540 LP  0  0  0  0  0  0  0  0  0  0  0  0  # atno 17371 bound_to 10713
  140.8938  133.7829  155.9602 LP  0  0  0  0  0  0  0  0  0  0  0  0  # atno 17394 bound_to 11000
  140.8724  134.2710  157.5184 LP  0  0  0  0  0  0  0  0  0  0  0  0  # atno 17395 bound_to 11000

$$$$
