#       Name:                AV-unprocessed.smi:3037
#       Creating user name   scv26
#       Creation time:       Fri Mar 27 16:56:18 2020


#       File generated by GOLD software.
#

@<TRIPOS>MOLECULE
AV-unprocessed.smi:3037
    50    51     1
SMALL
NO_CHARGES


@<TRIPOS>ATOM
      1 ****        -7.5042  -0.5048  -0.5761 C.3            1 S1                 0.0000
      2 ****        -6.1899  -1.1878  -0.3302 C.2            1 S1                 0.0000
      3 ****        -5.9657  -2.4972   0.1824 C.2            1 S1                 0.0000
      4 ****        -4.6810  -2.7994   0.2770 N.2            1 S1                 0.0000
      5 ****        -4.0420  -1.6972  -0.1687 N.pl3          1 S1                 0.0000
      6 ****        -2.5910  -1.6672  -0.2080 C.3            1 S1                 0.0000
      7 ****        -1.9752  -0.8570   0.9560 C.3            1 S1                 0.0000
      8 ****        -2.4400  -1.3512   2.3365 C.3            1 S1                 0.0000
      9 ****        -0.4966  -0.8914   0.9018 N.4            1 S1                 1.0000
     10 ****         0.1213  -0.0374  -0.1344 C.3            1 S1                 0.0000
     11 ****         1.6567  -0.0881  -0.0384 C.3            1 S1                 0.0000
     12 ****         2.3745   0.8068  -1.0644 C.2            1 S1                 0.0000
     13 ****         1.6987   1.4256  -1.8878 O.2            1 S1                 0.0000
     14 ****         3.7272   0.8919  -1.0290 N.am           1 S1                 0.0000
     15 ****         4.4886   1.7871  -1.9112 C.3            1 S1                 0.0000
     16 ****         5.0917   2.9254  -1.0672 C.3            1 S1                 0.0000
     17 ****         5.9557   2.3655   0.0782 C.3            1 S1                 0.0000
     18 ****         5.2020   1.2914   0.8845 C.3            1 S1                 0.0000
     19 ****         4.5997   0.2271  -0.0503 C.3            1 S1                 0.0000
     20 ****        -4.9281  -0.7101  -0.5441 C.2            1 S1                 0.0000
     21 ****        -8.3426  -1.0904  -0.1985 H              1 S1                 0.0000
     22 ****        -7.6793  -0.3419  -1.6396 H              1 S1                 0.0000
     23 ****        -7.5484   0.4697  -0.0892 H              1 S1                 0.0000
     24 ****        -6.6953  -3.2330   0.4866 H              1 S1                 0.0000
     25 ****        -2.2179  -2.6929  -0.1918 H              1 S1                 0.0000
     26 ****        -2.2990  -1.2478  -1.1705 H              1 S1                 0.0000
     27 ****        -2.2901   0.1836   0.8649 H              1 S1                 0.0000
     28 ****        -3.5167  -1.2371   2.4640 H              1 S1                 0.0000
     29 ****        -1.9622  -0.7854   3.1369 H              1 S1                 0.0000
     30 ****        -2.1971  -2.4043   2.4826 H              1 S1                 0.0000
     31 ****        -0.1538  -0.5691   1.7957 H              1 S1                 0.0000
     32 ****        -0.2007  -0.3677  -1.1224 H              1 S1                 0.0000
     33 ****        -0.2285   0.9879  -0.0031 H              1 S1                 0.0000
     34 ****         1.9584   0.2208   0.9634 H              1 S1                 0.0000
     35 ****         1.9909  -1.1169  -0.1779 H              1 S1                 0.0000
     36 ****         5.2827   1.2219  -2.4011 H              1 S1                 0.0000
     37 ****         3.8846   2.2063  -2.7168 H              1 S1                 0.0000
     38 ****         5.6894   3.5845  -1.6975 H              1 S1                 0.0000
     39 ****         4.2884   3.5368  -0.6537 H              1 S1                 0.0000
     40 ****         6.8608   1.9248  -0.3418 H              1 S1                 0.0000
     41 ****         6.2821   3.1723   0.7350 H              1 S1                 0.0000
     42 ****         5.8763   0.8233   1.6022 H              1 S1                 0.0000
     43 ****         4.4065   1.7598   1.4655 H              1 S1                 0.0000
     44 ****         4.0997  -0.5406   0.5377 H              1 S1                 0.0000
     45 ****         5.3982  -0.2930  -0.5815 H              1 S1                 0.0000
     46 ****        -4.5911   0.2418  -0.9274 H              1 S1                 0.0000
     47 ****        -0.1969  -1.8471   0.7707 H              1 S1                 0.0000
     48 ****        -4.2749  -3.6523   0.6049 LP             1 S1                 0.0000
     49 ****         0.7023   1.3413  -1.8814 LP             1 S1                 0.0000
     50 ****         2.1465   2.0123  -2.5625 LP             1 S1                 0.0000
@<TRIPOS>BOND
    1    1    2 1     
    2    1   21 1     
    3    1   22 1     
    4    1   23 1     
    5    2   20 2     
    6    2    3 1     
    7    3    4 2     
    8    3   24 1     
    9    4    5 1     
   10    5    6 1     
   11    5   20 1     
   12    6    7 1     
   13    6   25 1     
   14    6   26 1     
   15    7    8 1     
   16    7    9 1     
   17    7   27 1     
   18    8   28 1     
   19    8   29 1     
   20    8   30 1     
   21    9   10 1     
   22    9   31 1     
   23    9   47 1     
   24   10   11 1     
   25   10   32 1     
   26   10   33 1     
   27   11   12 1     
   28   11   34 1     
   29   11   35 1     
   30   12   13 2     
   31   12   14 am    
   32   14   19 1     
   33   14   15 1     
   34   15   16 1     
   35   15   36 1     
   36   15   37 1     
   37   16   17 1     
   38   16   38 1     
   39   16   39 1     
   40   17   18 1     
   41   17   40 1     
   42   17   41 1     
   43   18   19 1     
   44   18   42 1     
   45   18   43 1     
   46   19   44 1     
   47   19   45 1     
   48   20   46 1     
   49    4   48 1     
   50   13   49 1     
   51   13   50 1     
@<TRIPOS>SUBSTRUCTURE
      1 S1             1
@<TRIPOS>SET
LONE_PAIRS      STATIC     ATOMS    <user>   **** ""
3 48 49 50
DONOR_HYDROGENS      STATIC     ATOMS    <user>   **** ""
2 31 47
ATOM$BLUE        STATIC     ATOMS    COLORGROUP SYSTEM
3 48 49 50
ATOM$RED        STATIC     ATOMS    COLORGROUP SYSTEM
2 31 47
