#       Name:                AV-unprocessed.smi:1032
#       Creating user name   scv26
#       Creation time:       Fri Mar 27 02:46:16 2020


#       File generated by GOLD software.
#

@<TRIPOS>MOLECULE
AV-unprocessed.smi:1032
    51    52     1
SMALL
NO_CHARGES


@<TRIPOS>ATOM
      1 ****        -4.1421   4.8592  -1.0950 C.3            1 S1                 0.0000
      2 ****        -3.7628   3.3881  -1.3145 C.3            1 S1                 0.0000
      3 ****        -4.2093   2.5015  -0.1397 C.3            1 S1                 0.0000
      4 ****        -3.7971   1.0353  -0.3564 C.3            1 S1                 0.0000
      5 ****        -2.3320   0.9147  -0.5695 N.4            1 S1                 1.0000
      6 ****        -1.8849  -0.5005  -0.6449 C.3            1 S1                 0.0000
      7 ****        -0.4171  -0.6770  -0.2057 C.3            1 S1                 0.0000
      8 ****        -0.3505  -0.3652   1.1725 O.3            1 S1                 0.0000
      9 ****         0.0662  -2.1268  -0.4088 C.3            1 S1                 0.0000
     10 ****         1.5227  -2.2174  -0.3914 N.am           1 S1                 0.0000
     11 ****         2.2637  -2.4744   0.6962 C.2            1 S1                 0.0000
     12 ****         1.7786  -2.6916   1.8060 O.2            1 S1                 0.0000
     13 ****         3.5755  -2.4700   0.4005 N.am           1 S1                 0.0000
     14 ****         4.6945  -2.6610   1.2581 C.ar           1 S1                 0.0000
     15 ****         5.9521  -2.8561   0.6497 C.ar           1 S1                 0.0000
     16 ****         7.0847  -3.0346   1.4687 C.ar           1 S1                 0.0000
     17 ****         7.0340  -3.0240   2.8170 N.ar           1 S1                 0.0000
     18 ****         5.8320  -2.8279   3.3987 C.ar           1 S1                 0.0000
     19 ****         4.6386  -2.6388   2.6733 C.ar           1 S1                 0.0000
     20 ****        -1.8796   1.7359  -1.7238 C.3            1 S1                 0.0000
     21 ****        -2.2500   3.2158  -1.5306 C.3            1 S1                 0.0000
     22 ****        -3.6625   5.2654  -0.2038 H              1 S1                 0.0000
     23 ****        -5.2199   4.9729  -0.9740 H              1 S1                 0.0000
     24 ****        -3.8404   5.4731  -1.9442 H              1 S1                 0.0000
     25 ****        -4.2759   3.0450  -2.2142 H              1 S1                 0.0000
     26 ****        -3.7706   2.8686   0.7893 H              1 S1                 0.0000
     27 ****        -5.2909   2.5628  -0.0147 H              1 S1                 0.0000
     28 ****        -4.0916   0.4514   0.5166 H              1 S1                 0.0000
     29 ****        -4.3271   0.6157  -1.2131 H              1 S1                 0.0000
     30 ****        -2.5141  -1.1258  -0.0091 H              1 S1                 0.0000
     31 ****        -2.0306  -0.8660  -1.6626 H              1 S1                 0.0000
     32 ****         0.2302   0.0031  -0.7590 H              1 S1                 0.0000
     33 ****        -0.7852  -1.0485   1.6607 H              1 S1                 0.0000
     34 ****        -0.3916  -2.8074   0.3117 H              1 S1                 0.0000
     35 ****        -0.2462  -2.4777  -1.3927 H              1 S1                 0.0000
     36 ****         2.0005  -2.0597  -1.2666 H              1 S1                 0.0000
     37 ****         3.8048  -2.3333  -0.5728 H              1 S1                 0.0000
     38 ****         6.0527  -2.8714  -0.4257 H              1 S1                 0.0000
     39 ****         8.0586  -3.1878   1.0278 H              1 S1                 0.0000
     40 ****         5.8205  -2.8157   4.4785 H              1 S1                 0.0000
     41 ****         3.7226  -2.4731   3.2174 H              1 S1                 0.0000
     42 ****        -0.8004   1.6556  -1.8483 H              1 S1                 0.0000
     43 ****        -2.3309   1.3558  -2.6417 H              1 S1                 0.0000
     44 ****        -1.9292   3.7897  -2.4007 H              1 S1                 0.0000
     45 ****        -1.7043   3.6194  -0.6763 H              1 S1                 0.0000
     46 ****        -1.8966   1.3009   0.2566 H              1 S1                 0.0000
     47 ****        -0.8045   0.5096   1.3416 LP             1 S1                 0.0000
     48 ****         0.6061  -0.3048   1.4576 LP             1 S1                 0.0000
     49 ****         0.7862  -2.6815   1.9286 LP             1 S1                 0.0000
     50 ****         2.3768  -2.8782   2.5853 LP             1 S1                 0.0000
     51 ****         7.8589  -3.1569   3.3665 LP             1 S1                 0.0000
@<TRIPOS>BOND
    1    1    2 1     
    2    1   22 1     
    3    1   23 1     
    4    1   24 1     
    5    2   21 1     
    6    2    3 1     
    7    2   25 1     
    8    3    4 1     
    9    3   26 1     
   10    3   27 1     
   11    4    5 1     
   12    4   28 1     
   13    4   29 1     
   14    5    6 1     
   15    5   20 1     
   16    5   46 1     
   17    6    7 1     
   18    6   30 1     
   19    6   31 1     
   20    7    8 1     
   21    7    9 1     
   22    7   32 1     
   23    8   33 1     
   24    9   10 1     
   25    9   34 1     
   26    9   35 1     
   27   10   11 am    
   28   10   36 1     
   29   11   12 2     
   30   11   13 am    
   31   13   14 1     
   32   13   37 1     
   33   14   19 ar    
   34   14   15 ar    
   35   15   16 ar    
   36   15   38 1     
   37   16   17 ar    
   38   16   39 1     
   39   17   18 ar    
   40   18   19 ar    
   41   18   40 1     
   42   19   41 1     
   43   20   21 1     
   44   20   42 1     
   45   20   43 1     
   46   21   44 1     
   47   21   45 1     
   48    8   47 1     
   49    8   48 1     
   50   12   49 1     
   51   12   50 1     
   52   17   51 1     
@<TRIPOS>SUBSTRUCTURE
      1 S1             1
@<TRIPOS>SET
LONE_PAIRS      STATIC     ATOMS    <user>   **** ""
5 47 48 49 50 51
DONOR_HYDROGENS      STATIC     ATOMS    <user>   **** ""
4 46 33 36 37
ATOM$BLUE        STATIC     ATOMS    COLORGROUP SYSTEM
5 47 48 49 50 51
ATOM$RED        STATIC     ATOMS    COLORGROUP SYSTEM
4 46 33 36 37
