AV-unprocessed.smi:496|AV-procd|sdf|2721|dock5
  -GOLD-   2262023163D 1   1.00000     0.00000
 Structure written by MMmdl.
 41 43  0  0  0  0  0  0  0  0  2 V2000
  148.8314  141.0483  153.9146 C   0  0  0  0  0  0  0  0  0  0  0  0
  150.1510  140.6066  154.1933 O   0  0  0  0  0  0  0  0  0  0  0  0
  150.2665  139.8729  155.4040 C   0  0  0  0  0  0  0  0  0  0  0  0
  149.6966  140.6567  156.5996 C   0  0  0  0  0  0  0  0  0  0  0  0
  150.5781  140.5818  157.7660 N   0  0  0  0  0  0  0  0  0  0  0  0
  150.9125  139.5167  158.5591 C   0  0  0  0  0  0  0  0  0  0  0  0
  150.3828  138.1043  158.3726 C   0  0  1  0  0  0  0  0  0  0  0  0
  151.5214  137.0785  158.2721 C   0  0  0  0  0  0  0  0  0  0  0  0
  149.4680  137.7118  159.4464 N   0  5  0  0  0  0  0  0  0  0  0  0
  148.7866  136.5311  159.4747 C   0  0  0  0  0  0  0  0  0  0  0  0
  148.8389  135.5721  158.6964 O   0  0  0  0  0  0  0  0  0  0  0  0
  147.8615  136.4414  160.6289 C   0  0  0  0  0  0  0  0  0  0  0  0
  147.3826  135.3406  161.2888 C   0  0  0  0  0  0  0  0  0  0  0  0
  146.5252  135.8180  162.3184 C   0  0  0  0  0  0  0  0  0  0  0  0
  146.5390  137.1791  162.2169 C   0  0  0  0  0  0  0  0  0  0  0  0
  147.3467  137.5756  161.1968 O   0  0  0  0  0  0  0  0  0  0  0  0
  151.7410  139.8037  159.5691 N   0  0  0  0  0  0  0  0  0  0  0  0
  151.9797  141.1525  159.4126 C   0  0  0  0  0  0  0  0  0  0  0  0
  152.7852  142.0344  160.1679 C   0  0  0  0  0  0  0  0  0  0  0  0
  152.8804  143.3956  159.8125 C   0  0  0  0  0  0  0  0  0  0  0  0
  152.1731  143.8920  158.6989 C   0  0  0  0  0  0  0  0  0  0  0  0
  151.3649  143.0289  157.9341 C   0  0  0  0  0  0  0  0  0  0  0  0
  151.2717  141.6700  158.2935 C   0  0  0  0  0  0  0  0  0  0  0  0
  148.8182  141.5703  152.9580 H   0  0  0  0  0  0  0  0  0  0  0  0
  148.4630  141.7389  154.6728 H   0  0  0  0  0  0  0  0  0  0  0  0
  148.1411  140.2067  153.8445 H   0  0  0  0  0  0  0  0  0  0  0  0
  149.7982  138.8923  155.3065 H   0  0  0  0  0  0  0  0  0  0  0  0
  151.3276  139.6898  155.5749 H   0  0  0  0  0  0  0  0  0  0  0  0
  149.5739  141.7038  156.3226 H   0  0  0  0  0  0  0  0  0  0  0  0
  148.6997  140.3152  156.8745 H   0  0  0  0  0  0  0  0  0  0  0  0
  149.8710  138.0650  157.4109 H   0  0  0  0  0  0  0  0  0  0  0  0
  152.1954  137.3261  157.4518 H   0  0  0  0  0  0  0  0  0  0  0  0
  151.1338  136.0760  158.0880 H   0  0  0  0  0  0  0  0  0  0  0  0
  152.1123  137.0427  159.1881 H   0  0  0  0  0  0  0  0  0  0  0  0
  147.6214  134.3134  161.0560 H   0  0  0  0  0  0  0  0  0  0  0  0
  145.9687  135.2393  163.0402 H   0  0  0  0  0  0  0  0  0  0  0  0
  146.0579  137.9785  162.7607 H   0  0  0  0  0  0  0  0  0  0  0  0
  153.3303  141.6608  161.0221 H   0  0  0  0  0  0  0  0  0  0  0  0
  153.4990  144.0610  160.3966 H   0  0  0  0  0  0  0  0  0  0  0  0
  152.2506  144.9357  158.4322 H   0  0  0  0  0  0  0  0  0  0  0  0
  150.8231  143.4089  157.0810 H   0  0  0  0  0  0  0  0  0  0  0  0
  1  2  1  0  0  0  0
  1 24  1  0  0  0  0
  1 25  1  0  0  0  0
  1 26  1  0  0  0  0
  2  3  1  0  0  0  0
  3  4  1  0  0  0  0
  3 27  1  0  0  0  0
  3 28  1  0  0  0  0
  4  5  1  0  0  0  0
  4 29  1  0  0  0  0
  4 30  1  0  0  0  0
  5 23  1  0  0  0  0
  5  6  1  0  0  0  0
  6  7  1  0  0  0  0
  6 17  2  0  0  0  0
  7  8  1  0  0  0  0
  7  9  1  0  0  0  0
  7 31  1  0  0  0  0
  8 32  1  0  0  0  0
  8 33  1  0  0  0  0
  8 34  1  0  0  0  0
  9 10  1  0  0  0  0
 10 11  2  0  0  0  0
 10 12  1  0  0  0  0
 12 16  1  0  0  0  0
 12 13  2  0  0  0  0
 13 14  1  0  0  0  0
 13 35  1  0  0  0  0
 14 15  2  0  0  0  0
 14 36  1  0  0  0  0
 15 16  1  0  0  0  0
 15 37  1  0  0  0  0
 17 18  1  0  0  0  0
 18 23  2  0  0  0  0
 18 19  1  0  0  0  0
 19 20  2  0  0  0  0
 19 38  1  0  0  0  0
 20 21  1  0  0  0  0
 20 39  1  0  0  0  0
 21 22  2  0  0  0  0
 21 40  1  0  0  0  0
 22 23  1  0  0  0  0
 22 41  1  0  0  0  0
M  CHG  1   9  -1
M  END
> <s_m_source_file>
AV-unprocessed.smi

> <i_m_source_file_index>
496

> <i_lp_mmshare_version>
43012

> <i_f3d_flags>
0

> <s_epik_input>
W2NIXTFbY0hdW2NIXVtjSF1jKGMxMiluKFtDSDJdW0NIMl1PW0NIM10pYyhuMilbQ0BIXShbQ0gzXSlbTkhdQyg9TyljM1tjSF1bY0hdW2NIXW8z

> <s_epik_cmdline>
J2VwaWtfcHl0aG9uJywgJy1waCcsICc3LjAnLCAnLXRuJywgJzgnLCAnLW1hJywgJzIwMCcsICctbWV0YWxfYmluZGluZycsICctaW1hZScsICc8aW5maWxlLm1hZT4nLCAnLW9tYWUnLCAnPG91dGZpbGUubWFlPic=

> <r_epik_Ionization_Penalty>
7.3423

> <r_epik_Ionization_Penalty_Charging>
6.43826

> <r_epik_Ionization_Penalty_Neutral>
0.90404

> <r_epik_State_Penalty>
6.54438

> <r_epik_Charging_Adjusted_Penalty>
12.9826

> <i_epik_Tot_Q>
-1

> <i_epik_Tot_abs_Q>
1

> <r_epik_Metal_State_Penalty>
2.56942

> <b_epik_Metal_Only>
1

> <s_lp_Force_Field>
OPLS_2005

> <r_lp_Energy>
16.0483

> <b_lp_Chiralities_Consistent>
1

> <s_lp_Variant>
AV-unprocessed.smi:496-6

> <Gold.Version>
5.8.1

> <Gold.Id.Protein>
6NUR|6NUR_protein|mol2

> <Gold.PLP.Fitness>
56.1023

> <Gold.PLP.PLP>
-47.3955

> <Gold.PLP.part.hbond>
-4.9631

> <Gold.PLP.part.metal>
0.0000

> <Gold.PLP.part.buried>
-4.3249

> <Gold.PLP.part.nonpolar>
-38.6784

> <Gold.PLP.part.repulsive>
0.1386

> <Gold.PLP.ligand.clash>
0.0000

> <Gold.PLP.ligand.torsion>
0.7796

> <Gold.PLP.Chemscore.Hbond>
3.3680

> <Gold.PLP.Chemscore.CHOScore>
0.0000

> <Gold.PLP.Chemscore.Metal>
0.0000

> <Gold.Chemscore.Hbonds>
donor molecule, donor type, donor heavy atom, donor atom, acceptor molecule, acceptor atom, score
      P1  H  6896  6909       L1    11  0.24
      P1  H  6931  6943       L1    16  0.57
      P1  H  6934  6947       L1    16  0.85
      P1  H  7989  7998       L1     2  0.77

> <Gold.PLP.Chemscore.Internal.Correction>
0.1620

> <Gold.Rescore>
     Score         DG    S(hbond)    S(metal)    S(lipo)     H(rot)  DE(clash)    DE(int)     intcor
     21.95     -23.79       2.80        0.00     115.60       1.78       0.96       0.88       ----

> <Gold.Chemscore.Fitness>
21.9487

> <Gold.Chemscore.DG>
-23.7933

> <Gold.Chemscore.ZeroCoef>
-5.4800

> <Gold.Chemscore.Hbond>
2.7992

> <Gold.Chemscore.Metal>
0.0000

> <Gold.Chemscore.Lipo>
115.6028

> <Gold.Chemscore.Internal_Hbond>
0.0000

> <Gold.Chemscore.DEClash>
0.9646

> <Gold.Chemscore.DEInternal>
0.8800

> <Gold.Chemscore.Rot>
1.7819

> <Gold.Chemscore.Internal.Correction>
   9.000000E+99

> <Gold.Chemscore.Hbonds>
donor molecule, donor type, donor heavy atom, donor atom, acceptor molecule, acceptor atom, score
      P1  H  6896  6909       L1    11  0.12
      P1  H  6931  6943       L1    16  0.07
      P1  H  6934  6947       L1    16  0.58
      P1  H  7989  7998       L1     2  0.66

> <Gold.Chemscore.Hbond.Weighted>
-9.3494

> <Gold.Chemscore.Metal.Weighted>
-0.0000

> <Gold.Chemscore.Lipo.Weighted>
-13.5255

> <Gold.Chemscore.Internal_Hbond.Weighted>
0.0000

> <Gold.Chemscore.DEClash.Weighted>
0.9646

> <Gold.Chemscore.DEInternal.Weighted>
0.8800

> <Gold.Chemscore.Rot.Weighted>
4.5617

> <Gold.Chemscore.Internal.Correction.Weighted>
   9.000000E+99

> <Gold.Protein.RotatedTorsions>
[ 6907 6896 6895 6894 ] final   29.12 input  -60.11 | X-H torsion
[ 7974 7965 7964 7962 ] final -116.45 input  175.53 | X-H torsion
[ 8008 7997 7996 7995 ] final  158.02 input   59.86 | X-H torsion
[ 10167 10162 10161 10158 ] final   -0.83 input  -65.29 | X-H torsion
[ 10718 10713 10712 10709 ] final    0.58 input   66.30 | X-H torsion
[ 10763 10752 10751 10750 ] final -122.32 input  -60.55 | X-H torsion
[ 11005 11000 10999 10996 ] final  130.01 input  -57.11 | X-H torsion

> <Gold.Protein.ActiveResidues>
 VAL166  LYS551  ARG553  GLY616  TRP617  ASP618  TYR619  PRO620  LYS621  CYS622 
 ASP623  PHE694  ASN695  SER759  ASP760  ASP761  ALA762  ILE779  LEU786  VAL792 
 PHE793  MET794  SER795  GLU796  ALA797  LYS798  CYS799  TRP800  GLU811  SER814 

> <Gold.Protein.RotatedAtoms>
  152.0269  134.9790  160.0571 H   0  0  0  0  0  0  0  0  0  0  0  0  # atno 6907 bound_to 6896
  152.1283  133.4388  159.4716 H   0  0  0  0  0  0  0  0  0  0  0  0  # atno 6908 bound_to 6896
  150.6854  134.2370  159.4500 H   0  0  0  0  0  0  0  0  0  0  0  0  # atno 6909 bound_to 6896
  145.0966  140.8525  143.3951 H   0  0  0  0  0  0  0  0  0  0  0  0  # atno 7974 bound_to 7965
  156.2328  140.1869  156.7198 H   0  0  0  0  0  0  0  0  0  0  0  0  # atno 8008 bound_to 7997
  154.6053  140.0630  156.9450 H   0  0  0  0  0  0  0  0  0  0  0  0  # atno 8009 bound_to 7997
  155.2106  140.3299  155.4332 H   0  0  0  0  0  0  0  0  0  0  0  0  # atno 8010 bound_to 7997
  140.6784  143.6848  150.8076 H   0  0  0  0  0  0  0  0  0  0  0  0  # atno 10167 bound_to 10162
  156.8355  130.5503  149.5682 H   0  0  0  0  0  0  0  0  0  0  0  0  # atno 10718 bound_to 10713
  154.8687  135.4137  154.2763 H   0  0  0  0  0  0  0  0  0  0  0  0  # atno 10763 bound_to 10752
  153.3664  135.7005  153.6677 H   0  0  0  0  0  0  0  0  0  0  0  0  # atno 10764 bound_to 10752
  153.5557  135.3620  155.2750 H   0  0  0  0  0  0  0  0  0  0  0  0  # atno 10765 bound_to 10752
  139.9647  134.9593  156.9231 H   0  0  0  0  0  0  0  0  0  0  0  0  # atno 11005 bound_to 11000
  145.1004  139.2827  143.5689 LP  0  0  0  0  0  0  0  0  0  0  0  0  # atno 17320 bound_to 7965
  146.3530  140.0569  142.8632 LP  0  0  0  0  0  0  0  0  0  0  0  0  # atno 17321 bound_to 7965
  140.0544  143.5217  152.2658 LP  0  0  0  0  0  0  0  0  0  0  0  0  # atno 17342 bound_to 10162
  139.6091  144.7604  151.2994 LP  0  0  0  0  0  0  0  0  0  0  0  0  # atno 17343 bound_to 10162
  156.0910  130.5895  150.9732 LP  0  0  0  0  0  0  0  0  0  0  0  0  # atno 17370 bound_to 10713
  157.6384  131.0913  150.8302 LP  0  0  0  0  0  0  0  0  0  0  0  0  # atno 17371 bound_to 10713
  140.5422  134.0709  155.7345 LP  0  0  0  0  0  0  0  0  0  0  0  0  # atno 17394 bound_to 11000
  141.1326  133.9275  157.2502 LP  0  0  0  0  0  0  0  0  0  0  0  0  # atno 17395 bound_to 11000

$$$$
