AV-unprocessed.smi:1912|AV-procd|sdf|7749|dock9
  -GOLD-   22720 9493D 1   1.00000     0.00000
 Structure written by MMmdl.
 43 45  0  0  0  0  0  0  0  0  1 V2000
  143.3329  144.1601  158.0549 C   0  0  0  0  0  0  0  0  0  0  0  0
  144.4848  143.4981  158.5559 O   0  0  0  0  0  0  0  0  0  0  0  0
  145.2724  142.8017  157.6645 C   0  0  0  0  0  0  0  0  0  0  0  0
  144.9422  142.5911  156.3053 C   0  0  0  0  0  0  0  0  0  0  0  0
  145.8027  141.8574  155.4684 C   0  0  0  0  0  0  0  0  0  0  0  0
  147.0140  141.3169  155.9658 C   0  0  0  0  0  0  0  0  0  0  0  0
  147.8802  140.5687  155.1948 O   0  0  0  0  0  0  0  0  0  0  0  0
  147.5732  140.3858  153.8211 C   0  0  0  0  0  0  0  0  0  0  0  0
  147.3527  141.5342  157.3242 C   0  0  0  0  0  0  0  0  0  0  0  0
  148.6302  140.9341  157.9113 C   0  0  1  0  0  0  0  0  0  0  0  0
  148.5471  139.5324  158.0756 O   0  0  0  0  0  0  0  0  0  0  0  0
  149.8719  141.2395  157.0466 C   0  0  0  0  0  0  0  0  0  0  0  0
  151.1144  140.8293  157.6874 N   0  0  0  0  0  0  0  0  0  0  0  0
  151.9560  139.8342  157.3142 C   0  0  0  0  0  0  0  0  0  0  0  0
  151.6989  138.9954  156.1029 C   0  0  0  0  0  0  0  0  0  0  0  0
  153.0197  139.6475  158.0956 N   0  0  0  0  0  0  0  0  0  0  0  0
  152.8541  140.6145  159.0683 C   0  0  0  0  0  0  0  0  0  0  0  0
  153.6464  140.9275  160.1959 C   0  0  0  0  0  0  0  0  0  0  0  0
  153.2691  141.9710  161.0662 C   0  0  0  0  0  0  0  0  0  0  0  0
  152.0974  142.7160  160.8216 C   0  0  0  0  0  0  0  0  0  0  0  0
  151.2951  142.4222  159.7027 C   0  0  0  0  0  0  0  0  0  0  0  0
  151.6743  141.3776  158.8382 C   0  0  0  0  0  0  0  0  0  0  0  0
  146.4787  142.2690  158.1562 C   0  0  0  0  0  0  0  0  0  0  0  0
  142.8138  144.6493  158.8789 H   0  0  0  0  0  0  0  0  0  0  0  0
  142.6361  143.4560  157.5981 H   0  0  0  0  0  0  0  0  0  0  0  0
  143.5978  144.9300  157.3290 H   0  0  0  0  0  0  0  0  0  0  0  0
  144.0299  142.9794  155.8787 H   0  0  0  0  0  0  0  0  0  0  0  0
  145.5055  141.7199  154.4401 H   0  0  0  0  0  0  0  0  0  0  0  0
  148.2901  139.6910  153.3838 H   0  0  0  0  0  0  0  0  0  0  0  0
  147.6424  141.3238  153.2690 H   0  0  0  0  0  0  0  0  0  0  0  0
  146.5785  139.9576  153.6887 H   0  0  0  0  0  0  0  0  0  0  0  0
  148.7843  141.3305  158.9145 H   0  0  0  0  0  0  0  0  0  0  0  0
  148.9582  139.1193  157.3317 H   0  0  0  0  0  0  0  0  0  0  0  0
  149.7976  140.7316  156.0844 H   0  0  0  0  0  0  0  0  0  0  0  0
  149.9276  142.3052  156.8209 H   0  0  0  0  0  0  0  0  0  0  0  0
  152.4752  138.2377  155.9916 H   0  0  0  0  0  0  0  0  0  0  0  0
  151.6958  139.6165  155.2070 H   0  0  0  0  0  0  0  0  0  0  0  0
  150.7375  138.4894  156.1870 H   0  0  0  0  0  0  0  0  0  0  0  0
  154.5453  140.3623  160.3925 H   0  0  0  0  0  0  0  0  0  0  0  0
  153.8814  142.2007  161.9258 H   0  0  0  0  0  0  0  0  0  0  0  0
  151.8140  143.5121  161.4944 H   0  0  0  0  0  0  0  0  0  0  0  0
  150.3938  142.9874  159.5172 H   0  0  0  0  0  0  0  0  0  0  0  0
  146.7258  142.4182  159.1971 H   0  0  0  0  0  0  0  0  0  0  0  0
  1  2  1  0  0  0  0
  1 24  1  0  0  0  0
  1 25  1  0  0  0  0
  1 26  1  0  0  0  0
  2  3  1  0  0  0  0
  3 23  1  0  0  0  0
  3  4  2  0  0  0  0
  4  5  1  0  0  0  0
  4 27  1  0  0  0  0
  5  6  2  0  0  0  0
  5 28  1  0  0  0  0
  6  7  1  0  0  0  0
  6  9  1  0  0  0  0
  7  8  1  0  0  0  0
  8 29  1  0  0  0  0
  8 30  1  0  0  0  0
  8 31  1  0  0  0  0
  9 10  1  0  0  0  0
  9 23  2  0  0  0  0
 10 11  1  0  0  0  0
 10 12  1  0  0  0  0
 10 32  1  0  0  0  0
 11 33  1  0  0  0  0
 12 13  1  0  0  0  0
 12 34  1  0  0  0  0
 12 35  1  0  0  0  0
 13 22  1  0  0  0  0
 13 14  1  0  0  0  0
 14 15  1  0  0  0  0
 14 16  2  0  0  0  0
 15 36  1  0  0  0  0
 15 37  1  0  0  0  0
 15 38  1  0  0  0  0
 16 17  1  0  0  0  0
 17 22  2  0  0  0  0
 17 18  1  0  0  0  0
 18 19  2  0  0  0  0
 18 39  1  0  0  0  0
 19 20  1  0  0  0  0
 19 40  1  0  0  0  0
 20 21  2  0  0  0  0
 20 41  1  0  0  0  0
 21 22  1  0  0  0  0
 21 42  1  0  0  0  0
 23 43  1  0  0  0  0
M  END
> <s_m_source_file>
AV-unprocessed.smi

> <i_m_source_file_index>
1912

> <i_lp_mmshare_version>
43012

> <i_f3d_flags>
0

> <s_epik_input>
W0NIM11PYzFbY0hdW2NIXWMoT1tDSDNdKWMoW2NIXTEpW0NASF0oW09IXSlbQ0gyXW4oYyhuMilbQ0gzXSljKGMyMylbY0hdW2NIXVtjSF1bY0hdMw==

> <s_epik_cmdline>
J2VwaWtfcHl0aG9uJywgJy1waCcsICc3LjAnLCAnLXRuJywgJzgnLCAnLW1hJywgJzIwMCcsICctbWV0YWxfYmluZGluZycsICctaW1hZScsICc8aW5maWxlLm1hZT4nLCAnLW9tYWUnLCAnPG91dGZpbGUubWFlPic=

> <r_lp_tautomer_probability>
1

> <r_epik_Ionization_Penalty>
0.129663

> <r_epik_Ionization_Penalty_Charging>
0

> <r_epik_Ionization_Penalty_Neutral>
0.129663

> <r_epik_State_Penalty>
0.119073

> <r_epik_Charging_Adjusted_Penalty>
0.119073

> <i_epik_Tot_Q>
0

> <i_epik_Tot_abs_Q>
0

> <r_epik_Metal_State_Penalty>
0.000131867

> <b_epik_Metal_Only>
0

> <s_lp_Force_Field>
OPLS_2005

> <r_lp_Energy>
18.0714

> <b_lp_Chiralities_Consistent>
1

> <s_lp_Variant>
AV-unprocessed.smi:1912-2

> <Gold.Version>
5.8.1

> <Gold.Id.Protein>
6NUR|6NUR_protein|mol2

> <Gold.PLP.Fitness>
40.9653

> <Gold.PLP.PLP>
-38.6446

> <Gold.PLP.part.hbond>
-1.0000

> <Gold.PLP.part.metal>
0.0000

> <Gold.PLP.part.buried>
-2.5513

> <Gold.PLP.part.nonpolar>
-34.0057

> <Gold.PLP.part.repulsive>
0.2020

> <Gold.PLP.ligand.clash>
0.0000

> <Gold.PLP.ligand.torsion>
0.3728

> <Gold.PLP.Chemscore.Hbond>
1.0000

> <Gold.PLP.Chemscore.CHOScore>
0.0000

> <Gold.PLP.Chemscore.Metal>
0.0000

> <Gold.Chemscore.Hbonds>
donor molecule, donor type, donor heavy atom, donor atom, acceptor molecule, acceptor atom, score
      P1  H  7997  8010       L1    16  1.00

> <Gold.PLP.Chemscore.Internal.Correction>
0.0664

> <Gold.Rescore>
     Score         DG    S(hbond)    S(metal)    S(lipo)     H(rot)  DE(clash)    DE(int)     intcor
     12.75     -14.47       0.57        0.00     107.95       2.17       0.27       1.45       ----

> <Gold.Chemscore.Fitness>
12.7463

> <Gold.Chemscore.DG>
-14.4655

> <Gold.Chemscore.ZeroCoef>
-5.4800

> <Gold.Chemscore.Hbond>
0.5713

> <Gold.Chemscore.Metal>
0.0000

> <Gold.Chemscore.Lipo>
107.9490

> <Gold.Chemscore.Internal_Hbond>
0.0000

> <Gold.Chemscore.DEClash>
0.2729

> <Gold.Chemscore.DEInternal>
1.4463

> <Gold.Chemscore.Rot>
2.1690

> <Gold.Chemscore.Internal.Correction>
   9.000000E+99

> <Gold.Chemscore.Hbonds>
donor molecule, donor type, donor heavy atom, donor atom, acceptor molecule, acceptor atom, score
      P1  H  7997  8010       L1    16  0.51

> <Gold.Chemscore.Hbond.Weighted>
-1.9081

> <Gold.Chemscore.Metal.Weighted>
-0.0000

> <Gold.Chemscore.Lipo.Weighted>
-12.6300

> <Gold.Chemscore.Internal_Hbond.Weighted>
0.0000

> <Gold.Chemscore.DEClash.Weighted>
0.2729

> <Gold.Chemscore.DEInternal.Weighted>
1.4463

> <Gold.Chemscore.Rot.Weighted>
5.5526

> <Gold.Chemscore.Internal.Correction.Weighted>
   9.000000E+99

> <Gold.Protein.RotatedTorsions>
[ 6907 6896 6895 6894 ] final -173.96 input  -60.11 | X-H torsion
[ 7974 7965 7964 7962 ] final -179.78 input  175.53 | X-H torsion
[ 8008 7997 7996 7995 ] final   27.36 input   59.86 | X-H torsion
[ 10167 10162 10161 10158 ] final -169.37 input  -65.29 | X-H torsion
[ 10718 10713 10712 10709 ] final   90.96 input   66.30 | X-H torsion
[ 10763 10752 10751 10750 ] final  142.04 input  -60.55 | X-H torsion
[ 11005 11000 10999 10996 ] final  117.35 input  -57.11 | X-H torsion

> <Gold.Protein.ActiveResidues>
 VAL166  LYS551  ARG553  GLY616  TRP617  ASP618  TYR619  PRO620  LYS621  CYS622 
 ASP623  PHE694  ASN695  SER759  ASP760  ASP761  ALA762  ILE779  LEU786  VAL792 
 PHE793  MET794  SER795  GLU796  ALA797  LYS798  CYS799  TRP800  GLU811  SER814 

> <Gold.Protein.RotatedAtoms>
  151.5646  133.3398  159.2977 H   0  0  0  0  0  0  0  0  0  0  0  0  # atno 6907 bound_to 6896
  150.8402  134.7695  159.6938 H   0  0  0  0  0  0  0  0  0  0  0  0  # atno 6908 bound_to 6896
  152.4471  134.5478  159.9909 H   0  0  0  0  0  0  0  0  0  0  0  0  # atno 6909 bound_to 6896
  144.7139  140.0666  143.6431 H   0  0  0  0  0  0  0  0  0  0  0  0  # atno 7974 bound_to 7965
  155.0417  140.3170  155.4722 H   0  0  0  0  0  0  0  0  0  0  0  0  # atno 8008 bound_to 7997
  156.2853  140.2162  156.5485 H   0  0  0  0  0  0  0  0  0  0  0  0  # atno 8009 bound_to 7997
  154.7284  140.0483  157.0691 H   0  0  0  0  0  0  0  0  0  0  0  0  # atno 8010 bound_to 7997
  139.5927  144.1178  152.1653 H   0  0  0  0  0  0  0  0  0  0  0  0  # atno 10167 bound_to 10162
  157.6960  131.0390  150.3657 H   0  0  0  0  0  0  0  0  0  0  0  0  # atno 10718 bound_to 10713
  153.9493  135.2971  155.3439 H   0  0  0  0  0  0  0  0  0  0  0  0  # atno 10763 bound_to 10752
  154.7435  135.5014  153.9166 H   0  0  0  0  0  0  0  0  0  0  0  0  # atno 10764 bound_to 10752
  153.1002  135.6732  153.9795 H   0  0  0  0  0  0  0  0  0  0  0  0  # atno 10765 bound_to 10752
  139.9071  134.9609  156.7337 H   0  0  0  0  0  0  0  0  0  0  0  0  # atno 11005 bound_to 11000
  145.9819  139.2948  143.1037 LP  0  0  0  0  0  0  0  0  0  0  0  0  # atno 17320 bound_to 7965
  145.9001  140.9248  143.0507 LP  0  0  0  0  0  0  0  0  0  0  0  0  # atno 17321 bound_to 7965
  140.0756  144.5743  150.7159 LP  0  0  0  0  0  0  0  0  0  0  0  0  # atno 17342 bound_to 10162
  140.7186  143.2568  151.4352 LP  0  0  0  0  0  0  0  0  0  0  0  0  # atno 17343 bound_to 10162
  156.4088  130.3930  149.6906 LP  0  0  0  0  0  0  0  0  0  0  0  0  # atno 17370 bound_to 10713
  156.4198  130.7763  151.2780 LP  0  0  0  0  0  0  0  0  0  0  0  0  # atno 17371 bound_to 10713
  140.6905  133.9394  155.7963 LP  0  0  0  0  0  0  0  0  0  0  0  0  # atno 17394 bound_to 11000
  141.0445  134.0574  157.3861 LP  0  0  0  0  0  0  0  0  0  0  0  0  # atno 17395 bound_to 11000

$$$$
