AV-unprocessed.smi:2919|AV-procd|sdf|11193|dock5
  -GOLD-   2272016 83D 1   1.00000     0.00000
 Structure written by MMmdl.
 34 36  0  0  0  0  0  0  0  0  1 V2000
  152.4757  143.9509  161.4676 C   0  0  0  0  0  0  0  0  0  0  0  0
  151.8894  143.0796  160.3710 C   0  0  0  0  0  0  0  0  0  0  0  0
  150.6470  143.4271  159.9699 N   0  0  0  0  0  0  0  0  0  0  0  0
  150.0279  142.7364  159.0115 N   0  0  0  0  0  0  0  0  0  0  0  0
  150.6258  141.6732  158.4218 C   0  0  0  0  0  0  0  0  0  0  0  0
  149.9093  140.9959  157.4181 N   0  0  0  0  0  0  0  0  0  0  0  0
  150.3845  140.9832  156.0377 C   0  0  1  0  0  0  0  0  0  0  0  0
  150.5383  139.5690  155.4732 C   0  0  0  0  0  0  0  0  0  0  0  0
  149.7006  139.6481  154.1891 C   0  0  1  0  0  0  0  0  0  0  0  0
  148.1974  139.6376  154.4958 C   0  0  0  0  0  0  0  0  0  0  0  0
  147.9896  141.0349  155.0760 C   0  0  0  0  0  0  0  0  0  0  0  0
  149.4126  141.6173  155.0218 C   0  0  2  0  0  0  0  0  0  0  0  0
  149.8819  141.0078  153.8309 O   0  0  0  0  0  0  0  0  0  0  0  0
  151.9300  141.2539  158.7921 C   0  0  0  0  0  0  0  0  0  0  0  0
  152.5691  140.1052  158.1529 C   0  0  0  0  0  0  0  0  0  0  0  0
  153.0752  139.1962  157.6465 N   0  0  0  0  0  0  0  0  0  0  0  0
  152.5917  141.9851  159.8104 C   0  0  0  0  0  0  0  0  0  0  0  0
  153.9951  141.6044  160.2753 C   0  0  0  0  0  0  0  0  0  0  0  0
  153.3996  144.4203  161.1284 H   0  0  0  0  0  0  0  0  0  0  0  0
  152.6909  143.3544  162.3544 H   0  0  0  0  0  0  0  0  0  0  0  0
  151.7866  144.7449  161.7597 H   0  0  0  0  0  0  0  0  0  0  0  0
  148.9265  140.8221  157.5717 H   0  0  0  0  0  0  0  0  0  0  0  0
  151.3520  141.4842  155.9810 H   0  0  0  0  0  0  0  0  0  0  0  0
  151.5850  139.3672  155.2431 H   0  0  0  0  0  0  0  0  0  0  0  0
  150.1836  138.7850  156.1439 H   0  0  0  0  0  0  0  0  0  0  0  0
  149.9999  138.9353  153.4204 H   0  0  0  0  0  0  0  0  0  0  0  0
  147.6142  139.5121  153.5828 H   0  0  0  0  0  0  0  0  0  0  0  0
  147.9204  138.8442  155.1908 H   0  0  0  0  0  0  0  0  0  0  0  0
  147.3170  141.6114  154.4401 H   0  0  0  0  0  0  0  0  0  0  0  0
  147.5688  141.0212  156.0816 H   0  0  0  0  0  0  0  0  0  0  0  0
  149.4409  142.7070  155.0023 H   0  0  0  0  0  0  0  0  0  0  0  0
  154.0058  140.5764  160.6392 H   0  0  0  0  0  0  0  0  0  0  0  0
  154.3704  142.2352  161.0792 H   0  0  0  0  0  0  0  0  0  0  0  0
  154.6991  141.6805  159.4459 H   0  0  0  0  0  0  0  0  0  0  0  0
  1  2  1  0  0  0  0
  1 19  1  0  0  0  0
  1 20  1  0  0  0  0
  1 21  1  0  0  0  0
  2 17  1  0  0  0  0
  2  3  2  0  0  0  0
  3  4  1  0  0  0  0
  4  5  2  0  0  0  0
  5  6  1  0  0  0  0
  5 14  1  0  0  0  0
  6  7  1  0  0  0  0
  6 22  1  0  0  0  0
  7 12  1  0  0  0  0
  7  8  1  0  0  0  0
  7 23  1  0  0  0  0
  8  9  1  0  0  0  0
  8 24  1  0  0  0  0
  8 25  1  0  0  0  0
  9 13  1  0  0  0  0
  9 10  1  0  0  0  0
  9 26  1  0  0  0  0
 10 11  1  0  0  0  0
 10 27  1  0  0  0  0
 10 28  1  0  0  0  0
 11 12  1  0  0  0  0
 11 29  1  0  0  0  0
 11 30  1  0  0  0  0
 12 13  1  0  0  0  0
 12 31  1  0  0  0  0
 14 15  1  0  0  0  0
 14 17  2  0  0  0  0
 15 16  3  0  0  0  0
 17 18  1  0  0  0  0
 18 32  1  0  0  0  0
 18 33  1  0  0  0  0
 18 34  1  0  0  0  0
M  END
> <s_m_source_file>
AV-unprocessed.smi

> <i_m_source_file_index>
2919

> <i_lp_mmshare_version>
43012

> <i_f3d_flags>
0

> <s_epik_input>
W0NIM11jMW5uYyhjKEMjTiljMVtDSDNdKVtOSF1bQ0BIXShbQ0gyXVtDQEBIXTIzKVtDQEBIXShPMylbQ0gyXVtDSDJdMg==

> <s_epik_cmdline>
J2VwaWtfcHl0aG9uJywgJy1waCcsICc3LjAnLCAnLXRuJywgJzgnLCAnLW1hJywgJzIwMCcsICctbWV0YWxfYmluZGluZycsICctaW1hZScsICc8aW5maWxlLm1hZT4nLCAnLW9tYWUnLCAnPG91dGZpbGUubWFlPic=

> <r_lp_tautomer_probability>
1

> <r_epik_Ionization_Penalty>
0.00143865

> <r_epik_Ionization_Penalty_Charging>
0

> <r_epik_Ionization_Penalty_Neutral>
0.00143865

> <r_epik_State_Penalty>
-0

> <r_epik_Charging_Adjusted_Penalty>
0

> <i_epik_Tot_Q>
0

> <i_epik_Tot_abs_Q>
0

> <r_epik_Metal_State_Penalty>
-0

> <b_epik_Metal_Only>
0

> <s_lp_Force_Field>
OPLS_2005

> <r_lp_Energy>
49.159

> <b_lp_Chiralities_Consistent>
1

> <s_lp_Variant>
AV-unprocessed.smi:2919-2

> <Gold.Version>
5.8.1

> <Gold.Id.Protein>
6NUR|6NUR_protein|mol2

> <Gold.PLP.Fitness>
37.5810

> <Gold.PLP.PLP>
-32.2602

> <Gold.PLP.part.hbond>
-4.3863

> <Gold.PLP.part.metal>
0.0000

> <Gold.PLP.part.buried>
-0.2687

> <Gold.PLP.part.nonpolar>
-28.0830

> <Gold.PLP.part.repulsive>
2.1465

> <Gold.PLP.ligand.clash>
0.0000

> <Gold.PLP.ligand.torsion>
0.6255

> <Gold.PLP.Chemscore.Hbond>
2.1872

> <Gold.PLP.Chemscore.CHOScore>
0.0000

> <Gold.PLP.Chemscore.Metal>
0.0000

> <Gold.Chemscore.Hbonds>
donor molecule, donor type, donor heavy atom, donor atom, acceptor molecule, acceptor atom, score
      P1  H  7989  7998       L1    13  0.33
      P1  H  7997  8008       L1    16  1.00
      P1  H  8011  8017       L1    13  0.83

> <Gold.PLP.Chemscore.Internal.Correction>
0.0102

> <Gold.Rescore>
     Score         DG    S(hbond)    S(metal)    S(lipo)     H(rot)  DE(clash)    DE(int)     intcor
     17.50     -18.62       1.63        0.00      87.51       1.00       0.49       0.64       ----

> <Gold.Chemscore.Fitness>
17.4955

> <Gold.Chemscore.DG>
-18.6178

> <Gold.Chemscore.ZeroCoef>
-5.4800

> <Gold.Chemscore.Hbond>
1.6344

> <Gold.Chemscore.Metal>
0.0000

> <Gold.Chemscore.Lipo>
87.5116

> <Gold.Chemscore.Internal_Hbond>
0.0000

> <Gold.Chemscore.DEClash>
0.4853

> <Gold.Chemscore.DEInternal>
0.6371

> <Gold.Chemscore.Rot>
1.0000

> <Gold.Chemscore.Internal.Correction>
   9.000000E+99

> <Gold.Chemscore.Hbonds>
donor molecule, donor type, donor heavy atom, donor atom, acceptor molecule, acceptor atom, score
      P1  H  7989  7998       L1    13  0.06
      P1  H  7997  8008       L1    16  0.25
      P1  H  8011  8017       L1    13  0.51

> <Gold.Chemscore.Hbond.Weighted>
-5.4590

> <Gold.Chemscore.Metal.Weighted>
-0.0000

> <Gold.Chemscore.Lipo.Weighted>
-10.2389

> <Gold.Chemscore.Internal_Hbond.Weighted>
0.0000

> <Gold.Chemscore.DEClash.Weighted>
0.4853

> <Gold.Chemscore.DEInternal.Weighted>
0.6371

> <Gold.Chemscore.Rot.Weighted>
2.5600

> <Gold.Chemscore.Internal.Correction.Weighted>
   9.000000E+99

> <Gold.Protein.RotatedTorsions>
[ 6907 6896 6895 6894 ] final   96.69 input  -60.11 | X-H torsion
[ 7974 7965 7964 7962 ] final  -70.77 input  175.53 | X-H torsion
[ 8008 7997 7996 7995 ] final  -61.65 input   59.86 | X-H torsion
[ 10167 10162 10161 10158 ] final  139.23 input  -65.29 | X-H torsion
[ 10718 10713 10712 10709 ] final   21.39 input   66.30 | X-H torsion
[ 10763 10752 10751 10750 ] final -170.01 input  -60.55 | X-H torsion
[ 11005 11000 10999 10996 ] final   55.50 input  -57.11 | X-H torsion

> <Gold.Protein.ActiveResidues>
 VAL166  LYS551  ARG553  GLY616  TRP617  ASP618  TYR619  PRO620  LYS621  CYS622 
 ASP623  PHE694  ASN695  SER759  ASP760  ASP761  ALA762  ILE779  LEU786  VAL792 
 PHE793  MET794  SER795  GLU796  ALA797  LYS798  CYS799  TRP800  GLU811  SER814 

> <Gold.Protein.RotatedAtoms>
  152.5432  134.0848  159.8250 H   0  0  0  0  0  0  0  0  0  0  0  0  # atno 6907 bound_to 6896
  151.0945  133.5283  159.2620 H   0  0  0  0  0  0  0  0  0  0  0  0  # atno 6908 bound_to 6896
  151.2061  135.0471  159.8946 H   0  0  0  0  0  0  0  0  0  0  0  0  # atno 6909 bound_to 6896
  145.6867  140.9168  143.0803 H   0  0  0  0  0  0  0  0  0  0  0  0  # atno 7974 bound_to 7965
  154.4459  140.1013  156.6465 H   0  0  0  0  0  0  0  0  0  0  0  0  # atno 8008 bound_to 7997
  155.5445  140.3484  155.4436 H   0  0  0  0  0  0  0  0  0  0  0  0  # atno 8009 bound_to 7997
  156.0573  140.1318  156.9970 H   0  0  0  0  0  0  0  0  0  0  0  0  # atno 8010 bound_to 7997
  139.5085  144.6307  151.5825 H   0  0  0  0  0  0  0  0  0  0  0  0  # atno 10167 bound_to 10162
  157.1378  130.6619  149.5971 H   0  0  0  0  0  0  0  0  0  0  0  0  # atno 10718 bound_to 10713
  154.6462  135.2905  155.0043 H   0  0  0  0  0  0  0  0  0  0  0  0  # atno 10763 bound_to 10752
  154.1153  135.6556  153.4896 H   0  0  0  0  0  0  0  0  0  0  0  0  # atno 10764 bound_to 10752
  153.0352  135.5275  154.7350 H   0  0  0  0  0  0  0  0  0  0  0  0  # atno 10765 bound_to 10752
  140.0602  134.5613  155.9161 H   0  0  0  0  0  0  0  0  0  0  0  0  # atno 11005 bound_to 11000
  144.7009  139.8768  143.7444 LP  0  0  0  0  0  0  0  0  0  0  0  0  # atno 17320 bound_to 7965
  146.0917  139.3907  143.0401 LP  0  0  0  0  0  0  0  0  0  0  0  0  # atno 17321 bound_to 7965
  140.6039  143.9560  150.6405 LP  0  0  0  0  0  0  0  0  0  0  0  0  # atno 17342 bound_to 10162
  140.2781  143.3409  152.1177 LP  0  0  0  0  0  0  0  0  0  0  0  0  # atno 17343 bound_to 10162
  155.9795  130.4788  150.6717 LP  0  0  0  0  0  0  0  0  0  0  0  0  # atno 17370 bound_to 10713
  157.4335  131.0852  151.1015 LP  0  0  0  0  0  0  0  0  0  0  0  0  # atno 17371 bound_to 10713
  141.1970  133.6594  156.5718 LP  0  0  0  0  0  0  0  0  0  0  0  0  # atno 17394 bound_to 11000
  140.3782  134.7546  157.4644 LP  0  0  0  0  0  0  0  0  0  0  0  0  # atno 17395 bound_to 11000

$$$$
