AV-unprocessed.smi:1978|AV-procd|sdf|8006|dock1
  -GOLD-   2272010193D 1   1.00000     0.00000
 Structure written by MMmdl.
 44 45  0  0  0  0  0  0  0  0  3 V2000
  146.6830  135.9692  162.5477 C   0  0  0  0  0  0  0  0  0  0  0  0
  147.4793  135.8290  161.2955 C   0  0  0  0  0  0  0  0  0  0  0  0
  147.9109  134.7431  160.5880 C   0  0  0  0  0  0  0  0  0  0  0  0
  148.6108  135.3243  159.4956 C   0  0  0  0  0  0  0  0  0  0  0  0
  149.2371  134.6560  158.5148 N   0  5  0  0  0  0  0  0  0  0  0  0
  149.2455  135.1460  157.2547 C   0  0  0  0  0  0  0  0  0  0  0  0
  150.0207  135.9918  156.8022 O   0  0  0  0  0  0  0  0  0  0  0  0
  148.2895  134.6290  156.4697 N   0  0  0  0  0  0  0  0  0  0  0  0
  148.0425  134.9916  155.0769 C   0  0  0  0  0  0  0  0  0  0  0  0
  147.9770  133.7610  154.1262 C   0  0  2  0  0  0  0  0  0  0  0  0
  149.4119  133.2186  153.8950 C   0  0  0  0  0  0  0  0  0  0  0  0
  147.2659  134.0900  152.8418 N   0  3  2  0  0  0  0  0  0  0  0  0
  146.1351  135.0550  153.0038 C   0  0  0  0  0  0  0  0  0  0  0  0
  145.6053  135.5449  151.6460 C   0  0  0  0  0  0  0  0  0  0  0  0
  145.1745  134.3762  150.7576 C   0  0  0  0  0  0  0  0  0  0  0  0
  146.3317  133.3800  150.6249 C   0  0  0  0  0  0  0  0  0  0  0  0
  146.8621  132.9149  151.9978 C   0  0  2  0  0  0  0  0  0  0  0  0
  145.8735  131.9590  152.7045 C   0  0  0  0  0  0  0  0  0  0  0  0
  148.6180  136.6457  159.5451 N   0  0  0  0  0  0  0  0  0  0  0  0
  147.8895  136.9778  160.6937 O   0  0  0  0  0  0  0  0  0  0  0  0
  147.2694  135.6610  163.4131 H   0  0  0  0  0  0  0  0  0  0  0  0
  145.7879  135.3485  162.5068 H   0  0  0  0  0  0  0  0  0  0  0  0
  146.3697  137.0022  162.7013 H   0  0  0  0  0  0  0  0  0  0  0  0
  147.7499  133.6998  160.8139 H   0  0  0  0  0  0  0  0  0  0  0  0
  147.6811  133.9343  156.8782 H   0  0  0  0  0  0  0  0  0  0  0  0
  147.1279  135.5807  155.0709 H   0  0  0  0  0  0  0  0  0  0  0  0
  148.8405  135.6631  154.7589 H   0  0  0  0  0  0  0  0  0  0  0  0
  147.4040  132.9757  154.6207 H   0  0  0  0  0  0  0  0  0  0  0  0
  149.9327  133.0265  154.8326 H   0  0  0  0  0  0  0  0  0  0  0  0
  150.0157  133.9273  153.3274 H   0  0  0  0  0  0  0  0  0  0  0  0
  149.4230  132.2661  153.3678 H   0  0  0  0  0  0  0  0  0  0  0  0
  145.3336  134.6004  153.5865 H   0  0  0  0  0  0  0  0  0  0  0  0
  146.4369  135.9435  153.5505 H   0  0  0  0  0  0  0  0  0  0  0  0
  144.7658  136.2242  151.7975 H   0  0  0  0  0  0  0  0  0  0  0  0
  146.3806  136.1218  151.1401 H   0  0  0  0  0  0  0  0  0  0  0  0
  144.2980  133.8864  151.1827 H   0  0  0  0  0  0  0  0  0  0  0  0
  144.8778  134.7413  149.7740 H   0  0  0  0  0  0  0  0  0  0  0  0
  146.0178  132.5216  150.0296 H   0  0  0  0  0  0  0  0  0  0  0  0
  147.1436  133.8508  150.0688 H   0  0  0  0  0  0  0  0  0  0  0  0
  147.7552  132.3401  151.7579 H   0  0  0  0  0  0  0  0  0  0  0  0
  145.6437  131.1057  152.0662 H   0  0  0  0  0  0  0  0  0  0  0  0
  144.9275  132.4414  152.9468 H   0  0  0  0  0  0  0  0  0  0  0  0
  146.2804  131.5580  153.6320 H   0  0  0  0  0  0  0  0  0  0  0  0
  147.9546  134.5784  152.2878 H   0  0  0  0  0  0  0  0  0  0  0  0
  1  2  1  0  0  0  0
  1 21  1  0  0  0  0
  1 22  1  0  0  0  0
  1 23  1  0  0  0  0
  2 20  1  0  0  0  0
  2  3  2  0  0  0  0
  3  4  1  0  0  0  0
  3 24  1  0  0  0  0
  4  5  1  0  0  0  0
  4 19  2  0  0  0  0
  5  6  1  0  0  0  0
  6  7  2  0  0  0  0
  6  8  1  0  0  0  0
  8  9  1  0  0  0  0
  8 25  1  0  0  0  0
  9 10  1  0  0  0  0
  9 26  1  0  0  0  0
  9 27  1  0  0  0  0
 10 11  1  0  0  0  0
 10 12  1  0  0  0  0
 10 28  1  0  0  0  0
 11 29  1  0  0  0  0
 11 30  1  0  0  0  0
 11 31  1  0  0  0  0
 12 17  1  0  0  0  0
 12 13  1  0  0  0  0
 12 44  1  0  0  0  0
 13 14  1  0  0  0  0
 13 32  1  0  0  0  0
 13 33  1  0  0  0  0
 14 15  1  0  0  0  0
 14 34  1  0  0  0  0
 14 35  1  0  0  0  0
 15 16  1  0  0  0  0
 15 36  1  0  0  0  0
 15 37  1  0  0  0  0
 16 17  1  0  0  0  0
 16 38  1  0  0  0  0
 16 39  1  0  0  0  0
 17 18  1  0  0  0  0
 17 40  1  0  0  0  0
 18 41  1  0  0  0  0
 18 42  1  0  0  0  0
 18 43  1  0  0  0  0
 19 20  1  0  0  0  0
M  CHG  1   5  -1
M  CHG  1  12   1
M  END
> <s_m_source_file>
AV-unprocessed.smi

> <i_m_source_file_index>
1978

> <i_lp_mmshare_version>
43012

> <i_f3d_flags>
0

> <s_epik_input>
W0NIM11jMVtjSF1jKG5vMSlbTkhdQyg9TylbTkhdW0NIMl1bQ0BIXShbQ0gzXSlOMltDSDJdW0NIMl1bQ0gyXVtDSDJdW0NASF0yW0NIM10=

> <s_epik_cmdline>
J2VwaWtfcHl0aG9uJywgJy1waCcsICc3LjAnLCAnLXRuJywgJzgnLCAnLW1hJywgJzIwMCcsICctbWV0YWxfYmluZGluZycsICctaW1hZScsICc8aW5maWxlLm1hZT4nLCAnLW9tYWUnLCAnPG91dGZpbGUubWFlPic=

> <r_epik_Ionization_Penalty>
6.22372

> <r_epik_Ionization_Penalty_Charging>
6.22362

> <r_epik_Ionization_Penalty_Neutral>
9.65074e-05

> <r_epik_State_Penalty>
6.22363

> <r_epik_Charging_Adjusted_Penalty>
12.4472

> <i_epik_Tot_Q>
0

> <i_epik_Tot_abs_Q>
2

> <r_epik_Metal_State_Penalty>
2.16675

> <b_epik_Metal_Only>
1

> <s_lp_Force_Field>
OPLS_2005

> <r_lp_Energy>
13.4454

> <b_lp_Chiralities_Consistent>
1

> <s_lp_Variant>
AV-unprocessed.smi:1978-15

> <Gold.Version>
5.8.1

> <Gold.Id.Protein>
6NUR|6NUR_protein|mol2

> <Gold.PLP.Fitness>
45.0257

> <Gold.PLP.PLP>
-30.7504

> <Gold.PLP.part.hbond>
-4.0000

> <Gold.PLP.part.metal>
0.0000

> <Gold.PLP.part.buried>
-3.9197

> <Gold.PLP.part.nonpolar>
-23.0276

> <Gold.PLP.part.repulsive>
0.0116

> <Gold.PLP.ligand.clash>
0.0000

> <Gold.PLP.ligand.torsion>
1.4950

> <Gold.PLP.Chemscore.Hbond>
5.6960

> <Gold.PLP.Chemscore.CHOScore>
0.0000

> <Gold.PLP.Chemscore.Metal>
0.0000

> <Gold.Chemscore.Hbonds>
donor molecule, donor type, donor heavy atom, donor atom, acceptor molecule, acceptor atom, score
      L1  H    12    44       P1  7948  2.00
      P1  H  6896  6909       L1     5  1.50
      P1  H  6931  6943       L1    20  0.77
      P1  H  6934  6947       L1    20  0.55

> <Gold.PLP.Chemscore.Internal.Correction>
0.1772

> <Gold.Rescore>
     Score         DG    S(hbond)    S(metal)    S(lipo)     H(rot)  DE(clash)    DE(int)     intcor
     16.39     -17.86       2.59        0.00      65.00       1.52       0.01       1.46       ----

> <Gold.Chemscore.Fitness>
16.3926

> <Gold.Chemscore.DG>
-17.8610

> <Gold.Chemscore.ZeroCoef>
-5.4800

> <Gold.Chemscore.Hbond>
2.5942

> <Gold.Chemscore.Metal>
0.0000

> <Gold.Chemscore.Lipo>
65.0008

> <Gold.Chemscore.Internal_Hbond>
0.0000

> <Gold.Chemscore.DEClash>
0.0089

> <Gold.Chemscore.DEInternal>
1.4595

> <Gold.Chemscore.Rot>
1.5190

> <Gold.Chemscore.Internal.Correction>
   9.000000E+99

> <Gold.Chemscore.Hbonds>
donor molecule, donor type, donor heavy atom, donor atom, acceptor molecule, acceptor atom, score
      L1  H    12    44       P1  7948  0.38
      P1  H  6896  6909       L1     5  0.09
      P1  H  6931  6943       L1    20  0.46
      P1  H  6934  6947       L1    20  0.53

> <Gold.Chemscore.Hbond.Weighted>
-8.6646

> <Gold.Chemscore.Metal.Weighted>
-0.0000

> <Gold.Chemscore.Lipo.Weighted>
-7.6051

> <Gold.Chemscore.Internal_Hbond.Weighted>
0.0000

> <Gold.Chemscore.DEClash.Weighted>
0.0089

> <Gold.Chemscore.DEInternal.Weighted>
1.4595

> <Gold.Chemscore.Rot.Weighted>
3.8886

> <Gold.Chemscore.Internal.Correction.Weighted>
   9.000000E+99

> <Gold.Protein.RotatedTorsions>
[ 6907 6896 6895 6894 ] final   31.86 input  -60.11 | X-H torsion
[ 7974 7965 7964 7962 ] final  -88.37 input  175.53 | X-H torsion
[ 8008 7997 7996 7995 ] final -103.59 input   59.86 | X-H torsion
[ 10167 10162 10161 10158 ] final  124.69 input  -65.29 | X-H torsion
[ 10718 10713 10712 10709 ] final  120.39 input   66.30 | X-H torsion
[ 10763 10752 10751 10750 ] final -156.79 input  -60.55 | X-H torsion
[ 11005 11000 10999 10996 ] final   40.40 input  -57.11 | X-H torsion

> <Gold.Protein.ActiveResidues>
 VAL166  LYS551  ARG553  GLY616  TRP617  ASP618  TYR619  PRO620  LYS621  CYS622 
 ASP623  PHE694  ASN695  SER759  ASP760  ASP761  ALA762  ILE779  LEU786  VAL792 
 PHE793  MET794  SER795  GLU796  ALA797  LYS798  CYS799  TRP800  GLU811  SER814 

> <Gold.Protein.RotatedAtoms>
  152.0663  134.9562  160.0574 H   0  0  0  0  0  0  0  0  0  0  0  0  # atno 6907 bound_to 6896
  152.0905  133.4193  159.4550 H   0  0  0  0  0  0  0  0  0  0  0  0  # atno 6908 bound_to 6896
  150.6837  134.2796  159.4665 H   0  0  0  0  0  0  0  0  0  0  0  0  # atno 6909 bound_to 6896
  145.4541  140.9561  143.2006 H   0  0  0  0  0  0  0  0  0  0  0  0  # atno 7974 bound_to 7965
  154.8732  140.0422  157.1737 H   0  0  0  0  0  0  0  0  0  0  0  0  # atno 8008 bound_to 7997
  154.8717  140.2959  155.5456 H   0  0  0  0  0  0  0  0  0  0  0  0  # atno 8009 bound_to 7997
  156.2999  140.2428  156.3707 H   0  0  0  0  0  0  0  0  0  0  0  0  # atno 8010 bound_to 7997
  139.5727  144.6947  151.3734 H   0  0  0  0  0  0  0  0  0  0  0  0  # atno 10167 bound_to 10162
  157.5894  131.1066  150.8029 H   0  0  0  0  0  0  0  0  0  0  0  0  # atno 10718 bound_to 10713
  154.7686  135.3138  154.8235 H   0  0  0  0  0  0  0  0  0  0  0  0  # atno 10763 bound_to 10752
  153.8977  135.6819  153.4761 H   0  0  0  0  0  0  0  0  0  0  0  0  # atno 10764 bound_to 10752
  153.1296  135.4786  154.9261 H   0  0  0  0  0  0  0  0  0  0  0  0  # atno 10765 bound_to 10752
  140.1935  134.3958  155.8134 H   0  0  0  0  0  0  0  0  0  0  0  0  # atno 11005 bound_to 11000
  144.8043  139.6080  143.7057 LP  0  0  0  0  0  0  0  0  0  0  0  0  # atno 17320 bound_to 7965
  146.2488  139.6155  142.9441 LP  0  0  0  0  0  0  0  0  0  0  0  0  # atno 17321 bound_to 7965
  140.7011  143.7628  150.7405 LP  0  0  0  0  0  0  0  0  0  0  0  0  # atno 17342 bound_to 10162
  140.1139  143.4673  152.2353 LP  0  0  0  0  0  0  0  0  0  0  0  0  # atno 17343 bound_to 10162
  156.8455  130.5062  149.5317 LP  0  0  0  0  0  0  0  0  0  0  0  0  # atno 17370 bound_to 10713
  156.0946  130.5922  150.9792 LP  0  0  0  0  0  0  0  0  0  0  0  0  # atno 17371 bound_to 10713
  141.2226  133.7058  156.8135 LP  0  0  0  0  0  0  0  0  0  0  0  0  # atno 17394 bound_to 11000
  140.2133  134.8811  157.3299 LP  0  0  0  0  0  0  0  0  0  0  0  0  # atno 17395 bound_to 11000

$$$$
