AV-unprocessed.smi:2523|AV-procd|sdf|9920|dock7
  -GOLD-   2272013553D 1   1.00000     0.00000
 Structure written by MMmdl.
 34 36  0  0  0  0  0  0  0  0  1 V2000
  153.7715  137.0073  156.7602 C   0  0  0  0  0  0  0  0  0  0  0  0
  152.6888  137.7505  156.1197 N   0  0  0  0  0  0  0  0  0  0  0  0
  151.9677  137.0274  155.1624 N   0  0  0  0  0  0  0  0  0  0  0  0
  150.9814  137.5644  154.5149 C   0  0  0  0  0  0  0  0  0  0  0  0
  150.6367  138.9521  154.8079 C   0  0  0  0  0  0  0  0  0  0  0  0
  149.6632  139.8715  154.3294 C   0  0  0  0  0  0  0  0  0  0  0  0
  149.7607  141.0578  154.9266 N   0  0  0  0  0  0  0  0  0  0  0  0
  150.7905  140.9457  155.8047 N   0  0  0  0  0  0  0  0  0  0  0  0
  151.1646  142.0904  156.6212 C   0  0  0  0  0  0  0  0  0  0  0  0
  150.5049  142.0682  158.0153 C   0  0  2  0  0  0  0  0  0  0  0  0
  149.3301  142.8567  158.0151 O   0  0  0  0  0  0  0  0  0  0  0  0
  151.4803  142.5063  159.0960 C   0  0  0  0  0  0  0  0  0  0  0  0
  151.2681  143.7137  159.7955 C   0  0  0  0  0  0  0  0  0  0  0  0
  152.1685  144.1189  160.7998 C   0  0  0  0  0  0  0  0  0  0  0  0
  153.2838  143.3184  161.1124 C   0  0  0  0  0  0  0  0  0  0  0  0
  153.4993  142.1111  160.4200 C   0  0  0  0  0  0  0  0  0  0  0  0
  154.8636  141.1274  160.8040 Cl  0  0  0  0  0  0  0  0  0  0  0  0
  152.6000  141.7065  159.4140 C   0  0  0  0  0  0  0  0  0  0  0  0
  151.3195  139.6719  155.7321 C   0  0  0  0  0  0  0  0  0  0  0  0
  152.4467  139.0501  156.4683 C   0  0  0  0  0  0  0  0  0  0  0  0
  153.0936  139.6684  157.3136 O   0  0  0  0  0  0  0  0  0  0  0  0
  153.6176  136.9575  157.8390 H   0  0  0  0  0  0  0  0  0  0  0  0
  154.7314  137.4910  156.5737 H   0  0  0  0  0  0  0  0  0  0  0  0
  153.8400  135.9832  156.3895 H   0  0  0  0  0  0  0  0  0  0  0  0
  150.4209  136.9998  153.7699 H   0  0  0  0  0  0  0  0  0  0  0  0
  148.9016  139.7220  153.5785 H   0  0  0  0  0  0  0  0  0  0  0  0
  152.2506  142.0930  156.7271 H   0  0  0  0  0  0  0  0  0  0  0  0
  150.9152  143.0062  156.0865 H   0  0  0  0  0  0  0  0  0  0  0  0
  150.1901  141.0462  158.2310 H   0  0  0  0  0  0  0  0  0  0  0  0
  149.1972  143.1959  158.8869 H   0  0  0  0  0  0  0  0  0  0  0  0
  150.4143  144.3340  159.5651 H   0  0  0  0  0  0  0  0  0  0  0  0
  152.0033  145.0443  161.3316 H   0  0  0  0  0  0  0  0  0  0  0  0
  153.9720  143.6306  161.8841 H   0  0  0  0  0  0  0  0  0  0  0  0
  152.7687  140.7785  158.8870 H   0  0  0  0  0  0  0  0  0  0  0  0
  1  2  1  0  0  0  0
  1 22  1  0  0  0  0
  1 23  1  0  0  0  0
  1 24  1  0  0  0  0
  2 20  1  0  0  0  0
  2  3  1  0  0  0  0
  3  4  2  0  0  0  0
  4  5  1  0  0  0  0
  4 25  1  0  0  0  0
  5 19  2  0  0  0  0
  5  6  1  0  0  0  0
  6  7  2  0  0  0  0
  6 26  1  0  0  0  0
  7  8  1  0  0  0  0
  8  9  1  0  0  0  0
  8 19  1  0  0  0  0
  9 10  1  0  0  0  0
  9 27  1  0  0  0  0
  9 28  1  0  0  0  0
 10 11  1  0  0  0  0
 10 12  1  0  0  0  0
 10 29  1  0  0  0  0
 11 30  1  0  0  0  0
 12 18  1  0  0  0  0
 12 13  2  0  0  0  0
 13 14  1  0  0  0  0
 13 31  1  0  0  0  0
 14 15  2  0  0  0  0
 14 32  1  0  0  0  0
 15 16  1  0  0  0  0
 15 33  1  0  0  0  0
 16 17  1  0  0  0  0
 16 18  2  0  0  0  0
 18 34  1  0  0  0  0
 19 20  1  0  0  0  0
 20 21  2  0  0  0  0
M  END
> <s_m_source_file>
AV-unprocessed.smi

> <i_m_source_file_index>
2523

> <i_lp_mmshare_version>
43012

> <i_f3d_flags>
0

> <s_epik_input>
W2NIXTFubihbQ0gzXSljKD1PKWMoYzEyKW4obltjSF0yKVtDSDJdW0NASF0oW09IXSljM1tjSF1bY0hdW2NIXWMoQ2wpW2NIXTM=

> <s_epik_cmdline>
J2VwaWtfcHl0aG9uJywgJy1waCcsICc3LjAnLCAnLXRuJywgJzgnLCAnLW1hJywgJzIwMCcsICctbWV0YWxfYmluZGluZycsICctaW1hZScsICc8aW5maWxlLm1hZT4nLCAnLW9tYWUnLCAnPG91dGZpbGUubWFlPic=

> <r_lp_tautomer_probability>
1

> <r_epik_Ionization_Penalty>
8.52698e-06

> <r_epik_Ionization_Penalty_Charging>
1.65421e-10

> <r_epik_Ionization_Penalty_Neutral>
8.52681e-06

> <r_epik_State_Penalty>
-0

> <r_epik_Charging_Adjusted_Penalty>
1.65421e-10

> <i_epik_Tot_Q>
0

> <i_epik_Tot_abs_Q>
0

> <r_epik_Metal_State_Penalty>
-0

> <b_epik_Metal_Only>
0

> <s_lp_Force_Field>
OPLS_2005

> <r_lp_Energy>
27.0285

> <b_lp_Chiralities_Consistent>
1

> <s_lp_Variant>
AV-unprocessed.smi:2523-1

> <Gold.Version>
5.8.1

> <Gold.Id.Protein>
6NUR|6NUR_protein|mol2

> <Gold.PLP.Fitness>
52.8710

> <Gold.PLP.PLP>
-42.7900

> <Gold.PLP.part.hbond>
-4.2964

> <Gold.PLP.part.metal>
0.0000

> <Gold.PLP.part.buried>
-1.8084

> <Gold.PLP.part.nonpolar>
-36.6284

> <Gold.PLP.part.repulsive>
0.2012

> <Gold.PLP.ligand.clash>
0.0000

> <Gold.PLP.ligand.torsion>
1.0464

> <Gold.PLP.Chemscore.Hbond>
1.9920

> <Gold.PLP.Chemscore.CHOScore>
2.0584

> <Gold.PLP.Chemscore.Metal>
0.0000

> <Gold.Chemscore.Hbonds>
donor molecule, donor type, donor heavy atom, donor atom, acceptor molecule, acceptor atom, score
      P1  H  7997  8009       L1    21  0.96
      P1  H 10752 10764       L1     3  0.96
      L1  C     4    25       P1  7948  0.72
      L1  C     4    25       P1  7949  0.36
      L1  C     6    26       P1  7957  0.72

> <Gold.PLP.Chemscore.Internal.Correction>
0.0226

> <Gold.Rescore>
     Score         DG    S(hbond)    S(metal)    S(lipo)     H(rot)  DE(clash)    DE(int)     intcor
     16.46     -18.91       1.51        0.00     113.78       1.93       0.04       2.42       ----

> <Gold.Chemscore.Fitness>
16.4567

> <Gold.Chemscore.DG>
-18.9136

> <Gold.Chemscore.ZeroCoef>
-5.4800

> <Gold.Chemscore.Hbond>
1.5130

> <Gold.Chemscore.Metal>
0.0000

> <Gold.Chemscore.Lipo>
113.7762

> <Gold.Chemscore.Internal_Hbond>
0.0000

> <Gold.Chemscore.DEClash>
0.0370

> <Gold.Chemscore.DEInternal>
2.4200

> <Gold.Chemscore.Rot>
1.9265

> <Gold.Chemscore.Internal.Correction>
   9.000000E+99

> <Gold.Chemscore.Hbonds>
donor molecule, donor type, donor heavy atom, donor atom, acceptor molecule, acceptor atom, score
      P1  H  7997  8009       L1    21  0.83
      P1  H 10752 10764       L1     3  0.72

> <Gold.Chemscore.Hbond.Weighted>
-5.0535

> <Gold.Chemscore.Metal.Weighted>
-0.0000

> <Gold.Chemscore.Lipo.Weighted>
-13.3118

> <Gold.Chemscore.Internal_Hbond.Weighted>
0.0000

> <Gold.Chemscore.DEClash.Weighted>
0.0370

> <Gold.Chemscore.DEInternal.Weighted>
2.4200

> <Gold.Chemscore.Rot.Weighted>
4.9317

> <Gold.Chemscore.Internal.Correction.Weighted>
   9.000000E+99

> <Gold.Protein.RotatedTorsions>
[ 6907 6896 6895 6894 ] final   73.91 input  -60.11 | X-H torsion
[ 7974 7965 7964 7962 ] final -104.72 input  175.53 | X-H torsion
[ 8008 7997 7996 7995 ] final  162.18 input   59.86 | X-H torsion
[ 10167 10162 10161 10158 ] final   33.24 input  -65.29 | X-H torsion
[ 10718 10713 10712 10709 ] final -142.87 input   66.30 | X-H torsion
[ 10763 10752 10751 10750 ] final  -64.43 input  -60.55 | X-H torsion
[ 11005 11000 10999 10996 ] final  -11.49 input  -57.11 | X-H torsion

> <Gold.Protein.ActiveResidues>
 VAL166  LYS551  ARG553  GLY616  TRP617  ASP618  TYR619  PRO620  LYS621  CYS622 
 ASP623  PHE694  ASN695  SER759  ASP760  ASP761  ALA762  ILE779  LEU786  VAL792 
 PHE793  MET794  SER795  GLU796  ALA797  LYS798  CYS799  TRP800  GLU811  SER814 

> <Gold.Protein.RotatedAtoms>
  152.4948  134.4350  159.9524 H   0  0  0  0  0  0  0  0  0  0  0  0  # atno 6907 bound_to 6896
  151.4331  133.3658  159.2779 H   0  0  0  0  0  0  0  0  0  0  0  0  # atno 6908 bound_to 6896
  150.9141  134.8581  159.7504 H   0  0  0  0  0  0  0  0  0  0  0  0  # atno 6909 bound_to 6896
  145.2396  140.9200  143.3157 H   0  0  0  0  0  0  0  0  0  0  0  0  # atno 7974 bound_to 7965
  156.2050  140.1757  156.7819 H   0  0  0  0  0  0  0  0  0  0  0  0  # atno 8008 bound_to 7997
  154.5642  140.0694  156.8897 H   0  0  0  0  0  0  0  0  0  0  0  0  # atno 8009 bound_to 7997
  155.2791  140.3348  155.4262 H   0  0  0  0  0  0  0  0  0  0  0  0  # atno 8010 bound_to 7997
  140.4426  144.1166  150.6176 H   0  0  0  0  0  0  0  0  0  0  0  0  # atno 10167 bound_to 10162
  156.3511  130.7688  151.1841 H   0  0  0  0  0  0  0  0  0  0  0  0  # atno 10718 bound_to 10713
  154.3299  135.6178  153.5546 H   0  0  0  0  0  0  0  0  0  0  0  0  # atno 10763 bound_to 10752
  152.9812  135.5744  154.4973 H   0  0  0  0  0  0  0  0  0  0  0  0  # atno 10764 bound_to 10752
  154.4658  135.2857  155.1656 H   0  0  0  0  0  0  0  0  0  0  0  0  # atno 10765 bound_to 10752
  140.7558  133.8555  155.9083 H   0  0  0  0  0  0  0  0  0  0  0  0  # atno 11005 bound_to 11000
  144.9601  139.3989  143.6360 LP  0  0  0  0  0  0  0  0  0  0  0  0  # atno 17320 bound_to 7965
  146.3332  139.8650  142.8850 LP  0  0  0  0  0  0  0  0  0  0  0  0  # atno 17321 bound_to 7965
  140.4301  143.2572  151.9606 LP  0  0  0  0  0  0  0  0  0  0  0  0  # atno 17342 bound_to 10162
  139.4790  144.5752  151.8024 LP  0  0  0  0  0  0  0  0  0  0  0  0  # atno 17343 bound_to 10162
  157.7461  131.0427  150.4709 LP  0  0  0  0  0  0  0  0  0  0  0  0  # atno 17370 bound_to 10713
  156.4904  130.4094  149.6410 LP  0  0  0  0  0  0  0  0  0  0  0  0  # atno 17371 bound_to 10713
  140.9709  134.1533  157.4577 LP  0  0  0  0  0  0  0  0  0  0  0  0  # atno 17394 bound_to 11000
  139.8779  134.9978  156.5866 LP  0  0  0  0  0  0  0  0  0  0  0  0  # atno 17395 bound_to 11000

$$$$
