AV-unprocessed.smi:1767|AV-procd|sdf|7141|dock10
  -GOLD-   22720 8383D 1   1.00000     0.00000
 Structure written by MMmdl.
 33 35  0  0  0  0  0  0  0  0  2 V2000
  151.8748  138.6653  158.5579 O   0  0  0  0  0  0  0  0  0  0  0  0
  151.2876  139.7388  157.8520 C   0  0  2  0  0  0  0  0  0  0  0  0
  151.4860  139.4878  156.3432 C   0  0  0  0  0  0  0  0  0  0  0  0
  150.2793  138.9489  155.6993 N   0  0  0  0  0  0  0  0  0  0  0  0
  149.9554  137.6593  155.4099 C   0  0  0  0  0  0  0  0  0  0  0  0
  148.7226  137.6637  154.8317 N   0  3  0  0  0  0  0  0  0  0  0  0
  148.2514  138.9754  154.7479 C   0  0  0  0  0  0  0  0  0  0  0  0
  147.0567  139.4824  154.2461 C   0  0  0  0  0  0  0  0  0  0  0  0
  146.8839  140.8806  154.3143 C   0  0  0  0  0  0  0  0  0  0  0  0
  147.8774  141.7173  154.8626 C   0  0  0  0  0  0  0  0  0  0  0  0
  149.0856  141.1924  155.3657 C   0  0  0  0  0  0  0  0  0  0  0  0
  149.2486  139.8085  155.2984 C   0  0  0  0  0  0  0  0  0  0  0  0
  151.8324  141.0902  158.2953 C   0  0  0  0  0  0  0  0  0  0  0  0
  151.3889  142.2691  157.6579 C   0  0  0  0  0  0  0  0  0  0  0  0
  151.9102  143.5212  158.0367 C   0  0  0  0  0  0  0  0  0  0  0  0
  152.8766  143.6026  159.0572 C   0  0  0  0  0  0  0  0  0  0  0  0
  153.3810  144.8061  159.4178 F   0  0  0  0  0  0  0  0  0  0  0  0
  153.3201  142.4313  159.7003 C   0  0  0  0  0  0  0  0  0  0  0  0
  152.8003  141.1784  159.3207 C   0  0  0  0  0  0  0  0  0  0  0  0
  152.7088  138.9506  158.8994 H   0  0  0  0  0  0  0  0  0  0  0  0
  150.2206  139.7052  158.0773 H   0  0  0  0  0  0  0  0  0  0  0  0
  151.8110  140.3894  155.8237 H   0  0  0  0  0  0  0  0  0  0  0  0
  152.2745  138.7489  156.1921 H   0  0  0  0  0  0  0  0  0  0  0  0
  150.5638  136.7888  155.6096 H   0  0  0  0  0  0  0  0  0  0  0  0
  146.2936  138.8436  153.8261 H   0  0  0  0  0  0  0  0  0  0  0  0
  145.9710  141.3198  153.9387 H   0  0  0  0  0  0  0  0  0  0  0  0
  147.7092  142.7840  154.8995 H   0  0  0  0  0  0  0  0  0  0  0  0
  149.8359  141.8448  155.7865 H   0  0  0  0  0  0  0  0  0  0  0  0
  150.6548  142.2159  156.8673 H   0  0  0  0  0  0  0  0  0  0  0  0
  151.5703  144.4194  157.5422 H   0  0  0  0  0  0  0  0  0  0  0  0
  154.0620  142.4929  160.4829 H   0  0  0  0  0  0  0  0  0  0  0  0
  153.1555  140.2848  159.8127 H   0  0  0  0  0  0  0  0  0  0  0  0
  148.2399  136.8307  154.5195 H   0  0  0  0  0  0  0  0  0  0  0  0
  1  2  1  0  0  0  0
  1 20  1  0  0  0  0
  2  3  1  0  0  0  0
  2 13  1  0  0  0  0
  2 21  1  0  0  0  0
  3  4  1  0  0  0  0
  3 22  1  0  0  0  0
  3 23  1  0  0  0  0
  4 12  1  0  0  0  0
  4  5  1  0  0  0  0
  5  6  2  0  0  0  0
  5 24  1  0  0  0  0
  6  7  1  0  0  0  0
  6 33  1  0  0  0  0
  7 12  2  0  0  0  0
  7  8  1  0  0  0  0
  8  9  2  0  0  0  0
  8 25  1  0  0  0  0
  9 10  1  0  0  0  0
  9 26  1  0  0  0  0
 10 11  2  0  0  0  0
 10 27  1  0  0  0  0
 11 12  1  0  0  0  0
 11 28  1  0  0  0  0
 13 19  1  0  0  0  0
 13 14  2  0  0  0  0
 14 15  1  0  0  0  0
 14 29  1  0  0  0  0
 15 16  2  0  0  0  0
 15 30  1  0  0  0  0
 16 17  1  0  0  0  0
 16 18  1  0  0  0  0
 18 19  2  0  0  0  0
 18 31  1  0  0  0  0
 19 32  1  0  0  0  0
M  CHG  1   6   1
M  END
> <s_m_source_file>
AV-unprocessed.smi

> <i_m_source_file_index>
1767

> <i_lp_mmshare_version>
43012

> <i_f3d_flags>
0

> <s_epik_input>
W2NIXTFbY0hdYyhGKVtjSF1bY0hdYzFbQ0BIXShbT0hdKVtDSDJdbihbY0hdbjIpYyhjMjMpW2NIXVtjSF1bY0hdW2NIXTM=

> <s_epik_cmdline>
J2VwaWtfcHl0aG9uJywgJy1waCcsICc3LjAnLCAnLXRuJywgJzgnLCAnLW1hJywgJzIwMCcsICctbWV0YWxfYmluZGluZycsICctaW1hZScsICc8aW5maWxlLm1hZT4nLCAnLW9tYWUnLCAnPG91dGZpbGUubWFlPic=

> <r_epik_Ionization_Penalty>
1.3029

> <r_epik_Ionization_Penalty_Charging>
1.3029

> <r_epik_Ionization_Penalty_Neutral>
1.79538e-06

> <r_epik_State_Penalty>
1.377

> <r_epik_Charging_Adjusted_Penalty>
2.6799

> <i_epik_Tot_Q>
1

> <i_epik_Tot_abs_Q>
1

> <r_epik_Metal_State_Penalty>
5.40879

> <b_epik_Metal_Only>
0

> <s_lp_Force_Field>
OPLS_2005

> <r_lp_Energy>
17.7516

> <b_lp_Chiralities_Consistent>
1

> <s_lp_Variant>
AV-unprocessed.smi:1767-3

> <Gold.Version>
5.8.1

> <Gold.Id.Protein>
6NUR|6NUR_protein|mol2

> <Gold.PLP.Fitness>
51.0626

> <Gold.PLP.PLP>
-46.9479

> <Gold.PLP.part.hbond>
-1.2620

> <Gold.PLP.part.metal>
0.0000

> <Gold.PLP.part.buried>
0.2617

> <Gold.PLP.part.nonpolar>
-46.0728

> <Gold.PLP.part.repulsive>
0.0431

> <Gold.PLP.ligand.clash>
0.0000

> <Gold.PLP.ligand.torsion>
0.9501

> <Gold.PLP.Chemscore.Hbond>
2.0000

> <Gold.PLP.Chemscore.CHOScore>
0.0000

> <Gold.PLP.Chemscore.Metal>
0.0000

> <Gold.PLP.Chemscore.Internal.Correction>
0.0148

> <Gold.Rescore>
     Score         DG    S(hbond)    S(metal)    S(lipo)     H(rot)  DE(clash)    DE(int)     intcor
     14.49     -17.00       0.89        0.00     116.01       1.97       2.15       0.37       ----

> <Gold.Chemscore.Fitness>
14.4857

> <Gold.Chemscore.DG>
-16.9987

> <Gold.Chemscore.ZeroCoef>
-5.4800

> <Gold.Chemscore.Hbond>
0.8932

> <Gold.Chemscore.Metal>
0.0000

> <Gold.Chemscore.Lipo>
116.0058

> <Gold.Chemscore.Internal_Hbond>
0.0000

> <Gold.Chemscore.DEClash>
2.1454

> <Gold.Chemscore.DEInternal>
0.3676

> <Gold.Chemscore.Rot>
1.9677

> <Gold.Chemscore.Internal.Correction>
   9.000000E+99

> <Gold.Chemscore.Hbond.Weighted>
-2.9832

> <Gold.Chemscore.Metal.Weighted>
-0.0000

> <Gold.Chemscore.Lipo.Weighted>
-13.5727

> <Gold.Chemscore.Internal_Hbond.Weighted>
0.0000

> <Gold.Chemscore.DEClash.Weighted>
2.1454

> <Gold.Chemscore.DEInternal.Weighted>
0.3676

> <Gold.Chemscore.Rot.Weighted>
5.0372

> <Gold.Chemscore.Internal.Correction.Weighted>
   9.000000E+99

> <Gold.Protein.RotatedTorsions>
[ 6907 6896 6895 6894 ] final   -5.09 input  -60.11 | X-H torsion
[ 7974 7965 7964 7962 ] final -128.09 input  175.53 | X-H torsion
[ 8008 7997 7996 7995 ] final   77.05 input   59.86 | X-H torsion
[ 10167 10162 10161 10158 ] final -156.39 input  -65.29 | X-H torsion
[ 10718 10713 10712 10709 ] final   26.75 input   66.30 | X-H torsion
[ 10763 10752 10751 10750 ] final -111.82 input  -60.55 | X-H torsion
[ 11005 11000 10999 10996 ] final  119.94 input  -57.11 | X-H torsion

> <Gold.Protein.ActiveResidues>
 VAL166  LYS551  ARG553  GLY616  TRP617  ASP618  TYR619  PRO620  LYS621  CYS622 
 ASP623  PHE694  ASN695  SER759  ASP760  ASP761  ALA762  ILE779  LEU786  VAL792 
 PHE793  MET794  SER795  GLU796  ALA797  LYS798  CYS799  TRP800  GLU811  SER814 

> <Gold.Protein.RotatedAtoms>
  151.4871  135.1055  159.9793 H   0  0  0  0  0  0  0  0  0  0  0  0  # atno 6907 bound_to 6896
  152.4756  133.8126  159.7022 H   0  0  0  0  0  0  0  0  0  0  0  0  # atno 6908 bound_to 6896
  150.8791  133.7335  159.2963 H   0  0  0  0  0  0  0  0  0  0  0  0  # atno 6909 bound_to 6896
  144.9705  140.7540  143.4673 H   0  0  0  0  0  0  0  0  0  0  0  0  # atno 7974 bound_to 7965
  155.8360  140.3464  155.5602 H   0  0  0  0  0  0  0  0  0  0  0  0  # atno 8008 bound_to 7997
  155.8191  140.0910  157.1879 H   0  0  0  0  0  0  0  0  0  0  0  0  # atno 8009 bound_to 7997
  154.4004  140.1433  156.3466 H   0  0  0  0  0  0  0  0  0  0  0  0  # atno 8010 bound_to 7997
  139.6854  143.9510  152.2358 H   0  0  0  0  0  0  0  0  0  0  0  0  # atno 10167 bound_to 10162
  157.2110  130.6934  149.6228 H   0  0  0  0  0  0  0  0  0  0  0  0  # atno 10718 bound_to 10713
  154.8319  135.4513  154.1099 H   0  0  0  0  0  0  0  0  0  0  0  0  # atno 10763 bound_to 10752
  153.2364  135.6911  153.7838 H   0  0  0  0  0  0  0  0  0  0  0  0  # atno 10764 bound_to 10752
  153.7202  135.3343  155.3241 H   0  0  0  0  0  0  0  0  0  0  0  0  # atno 10765 bound_to 10752
  139.9166  134.9632  156.7732 H   0  0  0  0  0  0  0  0  0  0  0  0  # atno 11005 bound_to 11000
  145.2566  139.2009  143.4914 LP  0  0  0  0  0  0  0  0  0  0  0  0  # atno 17320 bound_to 7965
  146.3380  140.2489  142.8598 LP  0  0  0  0  0  0  0  0  0  0  0  0  # atno 17321 bound_to 7965
  139.9312  144.6740  150.8361 LP  0  0  0  0  0  0  0  0  0  0  0  0  # atno 17342 bound_to 10162
  140.7666  143.3307  151.2415 LP  0  0  0  0  0  0  0  0  0  0  0  0  # atno 17343 bound_to 10162
  155.9690  130.4551  150.5875 LP  0  0  0  0  0  0  0  0  0  0  0  0  # atno 17370 bound_to 10713
  157.3672  131.0759  151.1588 LP  0  0  0  0  0  0  0  0  0  0  0  0  # atno 17371 bound_to 10713
  140.6604  133.9650  155.7802 LP  0  0  0  0  0  0  0  0  0  0  0  0  # atno 17394 bound_to 11000
  141.0647  134.0294  157.3610 LP  0  0  0  0  0  0  0  0  0  0  0  0  # atno 17395 bound_to 11000

$$$$
