AV-unprocessed.smi:1535|AV-procd|sdf|6174|dock8
  -GOLD-   22720 6323D 1   1.00000     0.00000
 Structure written by MMmdl.
 47 48  0  0  0  0  0  0  0  0  2 V2000
  144.0067  132.4486  149.8274 C   0  0  0  0  0  0  0  0  0  0  0  0
  145.1489  132.4866  150.8284 C   0  0  0  0  0  0  0  0  0  0  0  0
  145.6244  131.2656  151.3562 C   0  0  0  0  0  0  0  0  0  0  0  0
  146.6702  131.3330  152.2688 C   0  0  0  0  0  0  0  0  0  0  0  0
  147.3510  130.3213  152.9472 N   0  3  0  0  0  0  0  0  0  0  0  0
  148.3134  130.8718  153.7359 C   0  0  0  0  0  0  0  0  0  0  0  0
  148.2468  132.2241  153.5879 N   0  0  0  0  0  0  0  0  0  0  0  0
  149.0861  133.2741  154.1917 C   0  0  0  0  0  0  0  0  0  0  0  0
  148.4810  133.8568  155.4838 C   0  0  2  0  0  0  0  0  0  0  0  0
  147.7586  135.0291  155.1573 O   0  0  0  0  0  0  0  0  0  0  0  0
  149.5769  134.2041  156.5100 C   0  0  0  0  0  0  0  0  0  0  0  0
  149.2794  133.9514  157.9262 N   0  0  0  0  0  0  0  0  0  0  0  0
  148.8455  132.5678  158.0797 C   0  0  0  0  0  0  0  0  0  0  0  0
  148.2744  134.8637  158.4830 C   0  0  0  0  0  0  0  0  0  0  0  0
  148.1935  134.8785  160.0226 C   0  0  2  0  0  0  0  0  0  0  0  0
  147.1624  133.8698  160.5469 C   0  0  0  0  0  0  0  0  0  0  0  0
  147.8863  136.2316  160.5113 C   0  0  0  0  0  0  0  0  0  0  0  0
  147.6450  137.2953  160.8972 N   0  0  0  0  0  0  0  0  0  0  0  0
  147.2441  132.5578  152.6662 C   0  0  0  0  0  0  0  0  0  0  0  0
  146.7867  133.7701  152.1505 C   0  0  0  0  0  0  0  0  0  0  0  0
  145.7232  133.7229  151.2208 C   0  0  0  0  0  0  0  0  0  0  0  0
  145.2020  135.0308  150.6495 C   0  0  0  0  0  0  0  0  0  0  0  0
  143.6763  131.4271  149.6375 H   0  0  0  0  0  0  0  0  0  0  0  0
  144.3172  132.8803  148.8756 H   0  0  0  0  0  0  0  0  0  0  0  0
  143.1512  133.0116  150.2013 H   0  0  0  0  0  0  0  0  0  0  0  0
  145.1939  130.3197  151.0610 H   0  0  0  0  0  0  0  0  0  0  0  0
  149.0032  130.3311  154.3679 H   0  0  0  0  0  0  0  0  0  0  0  0
  150.0600  132.8280  154.3972 H   0  0  0  0  0  0  0  0  0  0  0  0
  149.2503  134.0769  153.4748 H   0  0  0  0  0  0  0  0  0  0  0  0
  147.8012  133.1162  155.9018 H   0  0  0  0  0  0  0  0  0  0  0  0
  147.2500  135.2886  155.9104 H   0  0  0  0  0  0  0  0  0  0  0  0
  150.4857  133.6642  156.2390 H   0  0  0  0  0  0  0  0  0  0  0  0
  149.8204  135.2607  156.3879 H   0  0  0  0  0  0  0  0  0  0  0  0
  148.6821  132.3268  159.1307 H   0  0  0  0  0  0  0  0  0  0  0  0
  149.6018  131.8786  157.7027 H   0  0  0  0  0  0  0  0  0  0  0  0
  147.9160  132.3825  157.5392 H   0  0  0  0  0  0  0  0  0  0  0  0
  148.4528  135.8736  158.1101 H   0  0  0  0  0  0  0  0  0  0  0  0
  147.2818  134.5998  158.1141 H   0  0  0  0  0  0  0  0  0  0  0  0
  149.1547  134.6279  160.4634 H   0  0  0  0  0  0  0  0  0  0  0  0
  147.1134  133.8932  161.6359 H   0  0  0  0  0  0  0  0  0  0  0  0
  147.4207  132.8526  160.2507 H   0  0  0  0  0  0  0  0  0  0  0  0
  146.1647  134.0868  160.1642 H   0  0  0  0  0  0  0  0  0  0  0  0
  147.2154  134.7171  152.4414 H   0  0  0  0  0  0  0  0  0  0  0  0
  145.7620  135.8851  151.0313 H   0  0  0  0  0  0  0  0  0  0  0  0
  144.1546  135.1732  150.9162 H   0  0  0  0  0  0  0  0  0  0  0  0
  145.2872  135.0367  149.5625 H   0  0  0  0  0  0  0  0  0  0  0  0
  147.1778  129.3269  152.8748 H   0  0  0  0  0  0  0  0  0  0  0  0
  1  2  1  0  0  0  0
  1 23  1  0  0  0  0
  1 24  1  0  0  0  0
  1 25  1  0  0  0  0
  2 21  1  0  0  0  0
  2  3  2  0  0  0  0
  3  4  1  0  0  0  0
  3 26  1  0  0  0  0
  4 19  2  0  0  0  0
  4  5  1  0  0  0  0
  5  6  2  0  0  0  0
  5 47  1  0  0  0  0
  6  7  1  0  0  0  0
  6 27  1  0  0  0  0
  7  8  1  0  0  0  0
  7 19  1  0  0  0  0
  8  9  1  0  0  0  0
  8 28  1  0  0  0  0
  8 29  1  0  0  0  0
  9 10  1  0  0  0  0
  9 11  1  0  0  0  0
  9 30  1  0  0  0  0
 10 31  1  0  0  0  0
 11 12  1  0  0  0  0
 11 32  1  0  0  0  0
 11 33  1  0  0  0  0
 12 13  1  0  0  0  0
 12 14  1  0  0  0  0
 13 34  1  0  0  0  0
 13 35  1  0  0  0  0
 13 36  1  0  0  0  0
 14 15  1  0  0  0  0
 14 37  1  0  0  0  0
 14 38  1  0  0  0  0
 15 16  1  0  0  0  0
 15 17  1  0  0  0  0
 15 39  1  0  0  0  0
 16 40  1  0  0  0  0
 16 41  1  0  0  0  0
 16 42  1  0  0  0  0
 17 18  3  0  0  0  0
 19 20  1  0  0  0  0
 20 21  2  0  0  0  0
 20 43  1  0  0  0  0
 21 22  1  0  0  0  0
 22 44  1  0  0  0  0
 22 45  1  0  0  0  0
 22 46  1  0  0  0  0
M  CHG  1   5   1
M  END
> <s_m_source_file>
AV-unprocessed.smi

> <i_m_source_file_index>
1535

> <i_lp_mmshare_version>
43012

> <i_f3d_flags>
0

> <s_epik_input>
W0NIM11jKFtjSF0xKWMoW0NIM10pW2NIXWMoYzEyKW4oW2NIXW4yKVtDSDJdW0NASF0oW09IXSlbQ0gyXU4oW0NIM10pW0NIMl1bQ0BIXShbQ0gzXSlDI04=

> <s_epik_cmdline>
J2VwaWtfcHl0aG9uJywgJy1waCcsICc3LjAnLCAnLXRuJywgJzgnLCAnLW1hJywgJzIwMCcsICctbWV0YWxfYmluZGluZycsICctaW1hZScsICc8aW5maWxlLm1hZT4nLCAnLW9tYWUnLCAnPG91dGZpbGUubWFlPic=

> <r_epik_Ionization_Penalty>
1.22846

> <r_epik_Ionization_Penalty_Charging>
1.21333

> <r_epik_Ionization_Penalty_Neutral>
0.0151341

> <r_epik_State_Penalty>
1.27012

> <r_epik_Charging_Adjusted_Penalty>
2.48344

> <i_epik_Tot_Q>
1

> <i_epik_Tot_abs_Q>
1

> <r_epik_Metal_State_Penalty>
5.28751

> <b_epik_Metal_Only>
0

> <s_lp_Force_Field>
OPLS_2005

> <r_lp_Energy>
32.9236

> <b_lp_Chiralities_Consistent>
1

> <s_lp_Variant>
AV-unprocessed.smi:1535-5

> <Gold.Version>
5.8.1

> <Gold.Id.Protein>
6NUR|6NUR_protein|mol2

> <Gold.PLP.Fitness>
42.1477

> <Gold.PLP.PLP>
-37.4576

> <Gold.PLP.part.hbond>
-3.5780

> <Gold.PLP.part.metal>
0.0000

> <Gold.PLP.part.buried>
-3.9436

> <Gold.PLP.part.nonpolar>
-30.1870

> <Gold.PLP.part.repulsive>
0.0000

> <Gold.PLP.ligand.clash>
0.0000

> <Gold.PLP.ligand.torsion>
1.9371

> <Gold.PLP.Chemscore.Hbond>
2.8080

> <Gold.PLP.Chemscore.CHOScore>
0.0000

> <Gold.PLP.Chemscore.Metal>
0.0000

> <Gold.Chemscore.Hbonds>
donor molecule, donor type, donor heavy atom, donor atom, acceptor molecule, acceptor atom, score
      P1  H  6896  6908       L1    12  0.95
      P1  H  6931  6943       L1    18  0.80
      P1  H  6934  6947       L1    18  0.91

> <Gold.PLP.Chemscore.Internal.Correction>
0.1403

> <Gold.Rescore>
     Score         DG    S(hbond)    S(metal)    S(lipo)     H(rot)  DE(clash)    DE(int)     intcor
     13.32     -15.42       2.03        0.00      83.60       2.59       0.00       2.09       ----

> <Gold.Chemscore.Fitness>
13.3244

> <Gold.Chemscore.DG>
-15.4195

> <Gold.Chemscore.ZeroCoef>
-5.4800

> <Gold.Chemscore.Hbond>
2.0339

> <Gold.Chemscore.Metal>
0.0000

> <Gold.Chemscore.Lipo>
83.6024

> <Gold.Chemscore.Internal_Hbond>
0.0000

> <Gold.Chemscore.DEClash>
0.0009

> <Gold.Chemscore.DEInternal>
2.0942

> <Gold.Chemscore.Rot>
2.5918

> <Gold.Chemscore.Internal.Correction>
   9.000000E+99

> <Gold.Chemscore.Hbonds>
donor molecule, donor type, donor heavy atom, donor atom, acceptor molecule, acceptor atom, score
      P1  H  6896  6908       L1    12  0.07
      P1  H  6931  6943       L1    18  0.76
      P1  H  6934  6947       L1    18  0.90

> <Gold.Chemscore.Hbond.Weighted>
-6.7931

> <Gold.Chemscore.Metal.Weighted>
-0.0000

> <Gold.Chemscore.Lipo.Weighted>
-9.7815

> <Gold.Chemscore.Internal_Hbond.Weighted>
0.0000

> <Gold.Chemscore.DEClash.Weighted>
0.0009

> <Gold.Chemscore.DEInternal.Weighted>
2.0942

> <Gold.Chemscore.Rot.Weighted>
6.6351

> <Gold.Chemscore.Internal.Correction.Weighted>
   9.000000E+99

> <Gold.Protein.RotatedTorsions>
[ 6907 6896 6895 6894 ] final  133.75 input  -60.11 | X-H torsion
[ 7974 7965 7964 7962 ] final   74.13 input  175.53 | X-H torsion
[ 8008 7997 7996 7995 ] final -144.67 input   59.86 | X-H torsion
[ 10167 10162 10161 10158 ] final  115.85 input  -65.29 | X-H torsion
[ 10718 10713 10712 10709 ] final  115.20 input   66.30 | X-H torsion
[ 10763 10752 10751 10750 ] final    1.37 input  -60.55 | X-H torsion
[ 11005 11000 10999 10996 ] final   22.27 input  -57.11 | X-H torsion

> <Gold.Protein.ActiveResidues>
 VAL166  LYS551  ARG553  GLY616  TRP617  ASP618  TYR619  PRO620  LYS621  CYS622 
 ASP623  PHE694  ASN695  SER759  ASP760  ASP761  ALA762  ILE779  LEU786  VAL792 
 PHE793  MET794  SER795  GLU796  ALA797  LYS798  CYS799  TRP800  GLU811  SER814 

> <Gold.Protein.RotatedAtoms>
  152.3187  133.5830  159.5729 H   0  0  0  0  0  0  0  0  0  0  0  0  # atno 6907 bound_to 6896
  150.7360  134.0044  159.3658 H   0  0  0  0  0  0  0  0  0  0  0  0  # atno 6908 bound_to 6896
  151.7930  135.0731  160.0441 H   0  0  0  0  0  0  0  0  0  0  0  0  # atno 6909 bound_to 6896
  145.7322  139.2688  143.1535 H   0  0  0  0  0  0  0  0  0  0  0  0  # atno 7974 bound_to 7965
  155.5307  140.0599  157.2889 H   0  0  0  0  0  0  0  0  0  0  0  0  # atno 8008 bound_to 7997
  154.4485  140.1936  156.0536 H   0  0  0  0  0  0  0  0  0  0  0  0  # atno 8009 bound_to 7997
  156.0654  140.3267  155.7515 H   0  0  0  0  0  0  0  0  0  0  0  0  # atno 8010 bound_to 7997
  139.6288  144.7112  151.2476 H   0  0  0  0  0  0  0  0  0  0  0  0  # atno 10167 bound_to 10162
  157.6236  131.1009  150.7295 H   0  0  0  0  0  0  0  0  0  0  0  0  # atno 10718 bound_to 10713
  153.3089  135.6961  153.7134 H   0  0  0  0  0  0  0  0  0  0  0  0  # atno 10763 bound_to 10752
  153.6019  135.3460  155.2949 H   0  0  0  0  0  0  0  0  0  0  0  0  # atno 10764 bound_to 10752
  154.8570  135.4342  154.2221 H   0  0  0  0  0  0  0  0  0  0  0  0  # atno 10765 bound_to 10752
  140.3824  134.1907  155.7663 H   0  0  0  0  0  0  0  0  0  0  0  0  # atno 11005 bound_to 11000
  146.0527  140.8053  142.9774 LP  0  0  0  0  0  0  0  0  0  0  0  0  # atno 17320 bound_to 7965
  144.6890  140.3077  143.7253 LP  0  0  0  0  0  0  0  0  0  0  0  0  # atno 17321 bound_to 7965
  140.7427  143.6518  150.8242 LP  0  0  0  0  0  0  0  0  0  0  0  0  # atno 17342 bound_to 10162
  140.0140  143.5613  152.2827 LP  0  0  0  0  0  0  0  0  0  0  0  0  # atno 17343 bound_to 10162
  156.7648  130.4810  149.5430 LP  0  0  0  0  0  0  0  0  0  0  0  0  # atno 17370 bound_to 10713
  156.1395  130.6235  151.0447 LP  0  0  0  0  0  0  0  0  0  0  0  0  # atno 17371 bound_to 10713
  141.1919  133.8185  157.0861 LP  0  0  0  0  0  0  0  0  0  0  0  0  # atno 17394 bound_to 11000
  140.0469  134.9826  157.1064 LP  0  0  0  0  0  0  0  0  0  0  0  0  # atno 17395 bound_to 11000

$$$$
