AV-unprocessed.smi:1085|AV-procd|sdf|4720|dock8
  -GOLD-   22720 3243D 1   1.00000     0.00000
 Structure written by MMmdl.
 33 34  0  0  0  0  0  0  0  0  1 V2000
  148.4376  141.3972  157.1182 O   0  0  0  0  0  0  0  0  0  0  0  0
  149.5009  141.6262  156.5427 C   0  0  0  0  0  0  0  0  0  0  0  0
  149.7210  141.1334  155.1125 C   0  0  0  0  0  0  0  0  0  0  0  0
  150.8188  140.1851  155.0594 N   0  0  0  0  0  0  0  0  0  0  0  0
  150.8861  138.9486  154.5614 C   0  0  0  0  0  0  0  0  0  0  0  0
  152.0998  138.4349  154.6914 N   0  0  0  0  0  0  0  0  0  0  0  0
  152.8061  139.4493  155.3165 N   0  0  0  0  0  0  0  0  0  0  0  0
  152.0515  140.4902  155.5374 N   0  0  0  0  0  0  0  0  0  0  0  0
  150.5101  142.3179  157.0939 N   0  0  0  0  0  0  0  0  0  0  0  0
  150.4852  142.9763  158.3974 C   0  0  2  0  0  0  0  0  0  0  0  0
  151.0177  144.4217  158.3024 C   0  0  0  0  0  0  0  0  0  0  0  0
  152.5246  144.4592  157.9983 C   0  0  0  0  0  0  0  0  0  0  0  0
  153.3204  143.6498  159.0343 C   0  0  0  0  0  0  0  0  0  0  0  0
  152.8239  142.1911  159.1264 C   0  0  1  0  0  0  0  0  0  0  0  0
  153.6245  141.3724  160.1600 C   0  0  0  0  0  0  0  0  0  0  0  0
  154.9275  141.3947  159.8775 F   0  0  0  0  0  0  0  0  0  0  0  0
  153.4397  141.8748  161.3809 F   0  0  0  0  0  0  0  0  0  0  0  0
  153.2058  140.1069  160.1640 F   0  0  0  0  0  0  0  0  0  0  0  0
  151.3047  142.1604  159.4169 C   0  0  0  0  0  0  0  0  0  0  0  0
  148.8120  140.6625  154.7350 H   0  0  0  0  0  0  0  0  0  0  0  0
  149.9506  141.9731  154.4551 H   0  0  0  0  0  0  0  0  0  0  0  0
  150.0562  138.4338  154.1000 H   0  0  0  0  0  0  0  0  0  0  0  0
  151.3458  142.4459  156.5410 H   0  0  0  0  0  0  0  0  0  0  0  0
  149.4499  143.0050  158.7423 H   0  0  0  0  0  0  0  0  0  0  0  0
  150.4704  144.9849  157.5457 H   0  0  0  0  0  0  0  0  0  0  0  0
  150.8329  144.9329  159.2482 H   0  0  0  0  0  0  0  0  0  0  0  0
  152.7116  144.0637  156.9988 H   0  0  0  0  0  0  0  0  0  0  0  0
  152.8737  145.4921  157.9884 H   0  0  0  0  0  0  0  0  0  0  0  0
  154.3784  143.6703  158.7715 H   0  0  0  0  0  0  0  0  0  0  0  0
  153.2369  144.1306  160.0099 H   0  0  0  0  0  0  0  0  0  0  0  0
  152.9893  141.7257  158.1533 H   0  0  0  0  0  0  0  0  0  0  0  0
  151.1217  142.5594  160.4154 H   0  0  0  0  0  0  0  0  0  0  0  0
  150.9453  141.1307  159.4354 H   0  0  0  0  0  0  0  0  0  0  0  0
  1  2  2  0  0  0  0
  2  3  1  0  0  0  0
  2  9  1  0  0  0  0
  3  4  1  0  0  0  0
  3 20  1  0  0  0  0
  3 21  1  0  0  0  0
  4  8  1  0  0  0  0
  4  5  1  0  0  0  0
  5  6  2  0  0  0  0
  5 22  1  0  0  0  0
  6  7  1  0  0  0  0
  7  8  2  0  0  0  0
  9 10  1  0  0  0  0
  9 23  1  0  0  0  0
 10 19  1  0  0  0  0
 10 11  1  0  0  0  0
 10 24  1  0  0  0  0
 11 12  1  0  0  0  0
 11 25  1  0  0  0  0
 11 26  1  0  0  0  0
 12 13  1  0  0  0  0
 12 27  1  0  0  0  0
 12 28  1  0  0  0  0
 13 14  1  0  0  0  0
 13 29  1  0  0  0  0
 13 30  1  0  0  0  0
 14 15  1  0  0  0  0
 14 19  1  0  0  0  0
 14 31  1  0  0  0  0
 15 16  1  0  0  0  0
 15 17  1  0  0  0  0
 15 18  1  0  0  0  0
 19 32  1  0  0  0  0
 19 33  1  0  0  0  0
M  END
> <s_m_source_file>
AV-unprocessed.smi

> <i_m_source_file_index>
1085

> <i_lp_mmshare_version>
43012

> <i_f3d_flags>
0

> <s_epik_input>
bjFubltjSF1uMVtDSDJdQyg9TylbTkhdW0NAQEhdMltDSDJdW0NIMl1bQ0gyXVtDQEBIXShDKEYpKEYpRilbQ0gyXTI=

> <s_epik_cmdline>
J2VwaWtfcHl0aG9uJywgJy1waCcsICc3LjAnLCAnLXRuJywgJzgnLCAnLW1hJywgJzIwMCcsICctbWV0YWxfYmluZGluZycsICctaW1hZScsICc8aW5maWxlLm1hZT4nLCAnLW9tYWUnLCAnPG91dGZpbGUubWFlPic=

> <r_lp_tautomer_probability>
1

> <r_epik_Ionization_Penalty>
8.41315e-07

> <r_epik_Ionization_Penalty_Charging>
0

> <r_epik_Ionization_Penalty_Neutral>
8.41315e-07

> <r_epik_State_Penalty>
-0

> <r_epik_Charging_Adjusted_Penalty>
0

> <i_epik_Tot_Q>
0

> <i_epik_Tot_abs_Q>
0

> <r_epik_Metal_State_Penalty>
-0

> <b_epik_Metal_Only>
0

> <s_lp_Force_Field>
OPLS_2005

> <r_lp_Energy>
11.1057

> <b_lp_Chiralities_Consistent>
1

> <s_lp_Variant>
AV-unprocessed.smi:1085-1

> <Gold.Version>
5.8.1

> <Gold.Id.Protein>
6NUR|6NUR_protein|mol2

> <Gold.PLP.Fitness>
42.3542

> <Gold.PLP.PLP>
-39.7446

> <Gold.PLP.part.hbond>
-2.5208

> <Gold.PLP.part.metal>
0.0000

> <Gold.PLP.part.buried>
-0.2451

> <Gold.PLP.part.nonpolar>
-36.1221

> <Gold.PLP.part.repulsive>
0.1934

> <Gold.PLP.ligand.clash>
0.0000

> <Gold.PLP.ligand.torsion>
0.2105

> <Gold.PLP.Chemscore.Hbond>
1.0000

> <Gold.PLP.Chemscore.CHOScore>
0.0000

> <Gold.PLP.Chemscore.Metal>
0.0000

> <Gold.Chemscore.Hbonds>
donor molecule, donor type, donor heavy atom, donor atom, acceptor molecule, acceptor atom, score
      P1  H  7997  8010       L1     7  0.95

> <Gold.PLP.Chemscore.Internal.Correction>
0.0306

> <Gold.Rescore>
     Score         DG    S(hbond)    S(metal)    S(lipo)     H(rot)  DE(clash)    DE(int)     intcor
      9.81     -10.10       0.00        0.00      84.20       2.05       0.05       0.23       ----

> <Gold.Chemscore.Fitness>
9.8110

> <Gold.Chemscore.DG>
-10.0954

> <Gold.Chemscore.ZeroCoef>
-5.4800

> <Gold.Chemscore.Hbond>
0.0001

> <Gold.Chemscore.Metal>
0.0000

> <Gold.Chemscore.Lipo>
84.2038

> <Gold.Chemscore.Internal_Hbond>
0.0000

> <Gold.Chemscore.DEClash>
0.0516

> <Gold.Chemscore.DEInternal>
0.2328

> <Gold.Chemscore.Rot>
2.0456

> <Gold.Chemscore.Internal.Correction>
   9.000000E+99

> <Gold.Chemscore.Hbonds>
donor molecule, donor type, donor heavy atom, donor atom, acceptor molecule, acceptor atom, score
      P1  H  7997  8010       L1     7  0.21

> <Gold.Chemscore.Hbond.Weighted>
-0.0003

> <Gold.Chemscore.Metal.Weighted>
-0.0000

> <Gold.Chemscore.Lipo.Weighted>
-9.8518

> <Gold.Chemscore.Internal_Hbond.Weighted>
0.0000

> <Gold.Chemscore.DEClash.Weighted>
0.0516

> <Gold.Chemscore.DEInternal.Weighted>
0.2328

> <Gold.Chemscore.Rot.Weighted>
5.2368

> <Gold.Chemscore.Internal.Correction.Weighted>
   9.000000E+99

> <Gold.Protein.RotatedTorsions>
[ 6907 6896 6895 6894 ] final -158.72 input  -60.11 | X-H torsion
[ 7974 7965 7964 7962 ] final  -33.89 input  175.53 | X-H torsion
[ 8008 7997 7996 7995 ] final  115.50 input   59.86 | X-H torsion
[ 10167 10162 10161 10158 ] final   45.67 input  -65.29 | X-H torsion
[ 10718 10713 10712 10709 ] final   41.92 input   66.30 | X-H torsion
[ 10763 10752 10751 10750 ] final   25.58 input  -60.55 | X-H torsion
[ 11005 11000 10999 10996 ] final  -87.56 input  -57.11 | X-H torsion

> <Gold.Protein.ActiveResidues>
 VAL166  LYS551  ARG553  GLY616  TRP617  ASP618  TYR619  PRO620  LYS621  CYS622 
 ASP623  PHE694  ASN695  SER759  ASP760  ASP761  ALA762  ILE779  LEU786  VAL792 
 PHE793  MET794  SER795  GLU796  ALA797  LYS798  CYS799  TRP800  GLU811  SER814 

> <Gold.Protein.RotatedAtoms>
  151.3225  133.4034  159.2655 H   0  0  0  0  0  0  0  0  0  0  0  0  # atno 6907 bound_to 6896
  151.0023  134.9332  159.7971 H   0  0  0  0  0  0  0  0  0  0  0  0  # atno 6908 bound_to 6896
  152.5278  134.3190  159.9194 H   0  0  0  0  0  0  0  0  0  0  0  0  # atno 6909 bound_to 6896
  146.0874  140.5971  142.8880 H   0  0  0  0  0  0  0  0  0  0  0  0  # atno 7974 bound_to 7965
  156.2385  140.2937  156.0378 H   0  0  0  0  0  0  0  0  0  0  0  0  # atno 8008 bound_to 7997
  155.2022  140.0410  157.2936 H   0  0  0  0  0  0  0  0  0  0  0  0  # atno 8009 bound_to 7997
  154.6123  140.2455  155.7660 H   0  0  0  0  0  0  0  0  0  0  0  0  # atno 8010 bound_to 7997
  140.3218  144.2696  150.6181 H   0  0  0  0  0  0  0  0  0  0  0  0  # atno 10167 bound_to 10162
  157.3990  130.7849  149.7332 H   0  0  0  0  0  0  0  0  0  0  0  0  # atno 10718 bound_to 10713
  153.0681  135.6579  154.0308 H   0  0  0  0  0  0  0  0  0  0  0  0  # atno 10763 bound_to 10752
  153.9960  135.2941  155.3409 H   0  0  0  0  0  0  0  0  0  0  0  0  # atno 10764 bound_to 10752
  154.7047  135.5230  153.8646 H   0  0  0  0  0  0  0  0  0  0  0  0  # atno 10765 bound_to 10752
  141.1615  133.7518  156.9324 H   0  0  0  0  0  0  0  0  0  0  0  0  # atno 11005 bound_to 11000
  144.7335  140.4742  143.6920 LP  0  0  0  0  0  0  0  0  0  0  0  0  # atno 17320 bound_to 7965
  145.6104  139.1512  143.3079 LP  0  0  0  0  0  0  0  0  0  0  0  0  # atno 17321 bound_to 7965
  140.5477  143.2212  151.7979 LP  0  0  0  0  0  0  0  0  0  0  0  0  # atno 17342 bound_to 10162
  139.4873  144.4518  151.9645 LP  0  0  0  0  0  0  0  0  0  0  0  0  # atno 17343 bound_to 10162
  155.9818  130.4016  150.3452 LP  0  0  0  0  0  0  0  0  0  0  0  0  # atno 17370 bound_to 10713
  157.1577  131.0337  151.2855 LP  0  0  0  0  0  0  0  0  0  0  0  0  # atno 17371 bound_to 10713
  140.1377  134.9314  157.2425 LP  0  0  0  0  0  0  0  0  0  0  0  0  # atno 17394 bound_to 11000
  140.2874  134.3279  155.7325 LP  0  0  0  0  0  0  0  0  0  0  0  0  # atno 17395 bound_to 11000

$$$$
