AV-unprocessed.smi:2712|AV-procd|sdf|10474|dock9
  -GOLD-   2272014513D 1   1.00000     0.00000
 Structure written by MMmdl.
 52 53  0  0  0  0  0  0  0  0  1 V2000
  148.9341  132.5459  153.1948 C   0  0  0  0  0  0  0  0  0  0  0  0
  149.4164  133.3377  154.3741 C   0  0  0  0  0  0  0  0  0  0  0  0
  150.2918  132.7850  155.3898 C   0  0  0  0  0  0  0  0  0  0  0  0
  150.6818  133.5628  156.4221 C   0  0  0  0  0  0  0  0  0  0  0  0
  150.2477  134.9528  156.5432 C   0  0  0  0  0  0  0  0  0  0  0  0
  150.5973  135.6912  157.4635 O   0  0  0  0  0  0  0  0  0  0  0  0
  149.4274  135.3628  155.5301 N   0  0  0  0  0  0  0  0  0  0  0  0
  148.9136  136.7416  155.4731 C   0  0  0  0  0  0  0  0  0  0  0  0
  149.9934  137.8267  155.3130 C   0  0  0  0  0  0  0  0  0  0  0  0
  150.8906  137.6625  154.4871 O   0  0  0  0  0  0  0  0  0  0  0  0
  149.9055  138.9218  156.0870 N   0  0  0  0  0  0  0  0  0  0  0  0
  150.8036  140.0720  156.0620 C   0  0  2  0  0  0  0  0  0  0  0  0
  152.1275  139.7000  156.7554 C   0  0  0  0  0  0  0  0  0  0  0  0
  152.1130  139.8415  158.2849 C   0  0  0  0  0  0  0  0  0  0  0  0
  152.5219  141.2460  158.7667 C   0  0  0  0  0  0  0  0  0  0  0  0
  151.4760  142.3774  158.5608 C   0  0  1  0  0  0  0  0  0  0  0  0
  151.9400  143.7659  159.1390 C   0  0  0  0  0  0  0  0  0  0  0  0
  152.4974  143.6338  160.5732 C   0  0  0  0  0  0  0  0  0  0  0  0
  150.7736  144.7808  159.1659 C   0  0  0  0  0  0  0  0  0  0  0  0
  153.0328  144.3918  158.2396 C   0  0  0  0  0  0  0  0  0  0  0  0
  151.0016  142.4609  157.0808 C   0  0  0  0  0  0  0  0  0  0  0  0
  150.0842  141.3008  156.6576 C   0  0  0  0  0  0  0  0  0  0  0  0
  149.0228  134.5650  154.4723 N   0  0  0  0  0  0  0  0  0  0  0  0
  149.3823  131.5522  153.1763 H   0  0  0  0  0  0  0  0  0  0  0  0
  149.1904  133.0447  152.2596 H   0  0  0  0  0  0  0  0  0  0  0  0
  147.8512  132.4235  153.2273 H   0  0  0  0  0  0  0  0  0  0  0  0
  150.6228  131.7598  155.3145 H   0  0  0  0  0  0  0  0  0  0  0  0
  151.3330  133.1494  157.1786 H   0  0  0  0  0  0  0  0  0  0  0  0
  148.2143  136.8404  154.6410 H   0  0  0  0  0  0  0  0  0  0  0  0
  148.3283  136.9628  156.3675 H   0  0  0  0  0  0  0  0  0  0  0  0
  149.1361  138.9679  156.7393 H   0  0  0  0  0  0  0  0  0  0  0  0
  151.0490  140.2872  155.0203 H   0  0  0  0  0  0  0  0  0  0  0  0
  152.3878  138.6735  156.4927 H   0  0  0  0  0  0  0  0  0  0  0  0
  152.9371  140.3053  156.3458 H   0  0  0  0  0  0  0  0  0  0  0  0
  151.1496  139.5455  158.7022 H   0  0  0  0  0  0  0  0  0  0  0  0
  152.8371  139.1339  158.6898 H   0  0  0  0  0  0  0  0  0  0  0  0
  152.7304  141.1397  159.8300 H   0  0  0  0  0  0  0  0  0  0  0  0
  153.4706  141.5192  158.3050 H   0  0  0  0  0  0  0  0  0  0  0  0
  150.6078  142.0891  159.1551 H   0  0  0  0  0  0  0  0  0  0  0  0
  152.7968  144.6053  160.9682 H   0  0  0  0  0  0  0  0  0  0  0  0
  153.3779  142.9924  160.6111 H   0  0  0  0  0  0  0  0  0  0  0  0
  151.7593  143.2228  161.2615 H   0  0  0  0  0  0  0  0  0  0  0  0
  150.0197  144.5223  159.9093 H   0  0  0  0  0  0  0  0  0  0  0  0
  150.2810  144.8485  158.1951 H   0  0  0  0  0  0  0  0  0  0  0  0
  151.1219  145.7814  159.4242 H   0  0  0  0  0  0  0  0  0  0  0  0
  153.2707  145.4085  158.5549 H   0  0  0  0  0  0  0  0  0  0  0  0
  152.7100  144.4461  157.1994 H   0  0  0  0  0  0  0  0  0  0  0  0
  153.9723  143.8423  158.2673 H   0  0  0  0  0  0  0  0  0  0  0  0
  150.4210  143.3674  156.9301 H   0  0  0  0  0  0  0  0  0  0  0  0
  151.8483  142.5484  156.3993 H   0  0  0  0  0  0  0  0  0  0  0  0
  149.3832  141.6698  155.9076 H   0  0  0  0  0  0  0  0  0  0  0  0
  149.4608  141.0051  157.5027 H   0  0  0  0  0  0  0  0  0  0  0  0
  1  2  1  0  0  0  0
  1 24  1  0  0  0  0
  1 25  1  0  0  0  0
  1 26  1  0  0  0  0
  2 23  2  0  0  0  0
  2  3  1  0  0  0  0
  3  4  2  0  0  0  0
  3 27  1  0  0  0  0
  4  5  1  0  0  0  0
  4 28  1  0  0  0  0
  5  6  2  0  0  0  0
  5  7  1  0  0  0  0
  7  8  1  0  0  0  0
  7 23  1  0  0  0  0
  8  9  1  0  0  0  0
  8 29  1  0  0  0  0
  8 30  1  0  0  0  0
  9 10  2  0  0  0  0
  9 11  1  0  0  0  0
 11 12  1  0  0  0  0
 11 31  1  0  0  0  0
 12 22  1  0  0  0  0
 12 13  1  0  0  0  0
 12 32  1  0  0  0  0
 13 14  1  0  0  0  0
 13 33  1  0  0  0  0
 13 34  1  0  0  0  0
 14 15  1  0  0  0  0
 14 35  1  0  0  0  0
 14 36  1  0  0  0  0
 15 16  1  0  0  0  0
 15 37  1  0  0  0  0
 15 38  1  0  0  0  0
 16 17  1  0  0  0  0
 16 21  1  0  0  0  0
 16 39  1  0  0  0  0
 17 18  1  0  0  0  0
 17 19  1  0  0  0  0
 17 20  1  0  0  0  0
 18 40  1  0  0  0  0
 18 41  1  0  0  0  0
 18 42  1  0  0  0  0
 19 43  1  0  0  0  0
 19 44  1  0  0  0  0
 19 45  1  0  0  0  0
 20 46  1  0  0  0  0
 20 47  1  0  0  0  0
 20 48  1  0  0  0  0
 21 22  1  0  0  0  0
 21 49  1  0  0  0  0
 21 50  1  0  0  0  0
 22 51  1  0  0  0  0
 22 52  1  0  0  0  0
M  END
> <s_m_source_file>
AV-unprocessed.smi

> <i_m_source_file_index>
2712

> <i_lp_mmshare_version>
43012

> <i_f3d_flags>
0

> <s_epik_input>
W0NIM11jMVtjSF1bY0hdYyg9TyluKG4xKVtDSDJdQyg9TylbTkhdW0NAQEhdMltDSDJdW0NIMl1bQ0gyXVtDQEBIXShDKFtDSDNdKShbQ0gzXSlbQ0gzXSlbQ0gyXVtDSDJdMg==

> <s_epik_cmdline>
J2VwaWtfcHl0aG9uJywgJy1waCcsICc3LjAnLCAnLXRuJywgJzgnLCAnLW1hJywgJzIwMCcsICctbWV0YWxfYmluZGluZycsICctaW1hZScsICc8aW5maWxlLm1hZT4nLCAnLW9tYWUnLCAnPG91dGZpbGUubWFlPic=

> <r_lp_tautomer_probability>
1

> <r_epik_Ionization_Penalty>
8.71758e-07

> <r_epik_Ionization_Penalty_Charging>
8.50442e-07

> <r_epik_Ionization_Penalty_Neutral>
2.13165e-08

> <r_epik_State_Penalty>
-0

> <r_epik_Charging_Adjusted_Penalty>
8.50442e-07

> <i_epik_Tot_Q>
0

> <i_epik_Tot_abs_Q>
0

> <r_epik_Metal_State_Penalty>
-0

> <b_epik_Metal_Only>
0

> <s_lp_Force_Field>
OPLS_2005

> <r_lp_Energy>
38.8827

> <b_lp_Chiralities_Consistent>
1

> <s_lp_Variant>
AV-unprocessed.smi:2712-1

> <Gold.Version>
5.8.1

> <Gold.Id.Protein>
6NUR|6NUR_protein|mol2

> <Gold.PLP.Fitness>
41.7901

> <Gold.PLP.PLP>
-42.4833

> <Gold.PLP.part.hbond>
-0.9768

> <Gold.PLP.part.metal>
0.0000

> <Gold.PLP.part.buried>
-6.7331

> <Gold.PLP.part.nonpolar>
-35.9167

> <Gold.PLP.part.repulsive>
0.7211

> <Gold.PLP.ligand.clash>
0.0000

> <Gold.PLP.ligand.torsion>
0.5818

> <Gold.PLP.Chemscore.Hbond>
0.1287

> <Gold.PLP.Chemscore.CHOScore>
0.0000

> <Gold.PLP.Chemscore.Metal>
0.0000

> <Gold.Chemscore.Hbonds>
donor molecule, donor type, donor heavy atom, donor atom, acceptor molecule, acceptor atom, score
      P1  H  6896  6907       L1     6  0.12

> <Gold.PLP.Chemscore.Internal.Correction>
0.0843

> <Gold.Rescore>
     Score         DG    S(hbond)    S(metal)    S(lipo)     H(rot)  DE(clash)    DE(int)     intcor
     17.63     -18.32       0.78        0.00     120.76       1.52       0.04       0.65       ----

> <Gold.Chemscore.Fitness>
17.6333

> <Gold.Chemscore.DG>
-18.3208

> <Gold.Chemscore.ZeroCoef>
-5.4800

> <Gold.Chemscore.Hbond>
0.7763

> <Gold.Chemscore.Metal>
0.0000

> <Gold.Chemscore.Lipo>
120.7637

> <Gold.Chemscore.Internal_Hbond>
0.0000

> <Gold.Chemscore.DEClash>
0.0396

> <Gold.Chemscore.DEInternal>
0.6478

> <Gold.Chemscore.Rot>
1.5162

> <Gold.Chemscore.Internal.Correction>
   9.000000E+99

> <Gold.Chemscore.Hbonds>
donor molecule, donor type, donor heavy atom, donor atom, acceptor molecule, acceptor atom, score
      P1  H  6896  6907       L1     6  0.10

> <Gold.Chemscore.Hbond.Weighted>
-2.5929

> <Gold.Chemscore.Metal.Weighted>
-0.0000

> <Gold.Chemscore.Lipo.Weighted>
-14.1294

> <Gold.Chemscore.Internal_Hbond.Weighted>
0.0000

> <Gold.Chemscore.DEClash.Weighted>
0.0396

> <Gold.Chemscore.DEInternal.Weighted>
0.6478

> <Gold.Chemscore.Rot.Weighted>
3.8814

> <Gold.Chemscore.Internal.Correction.Weighted>
   9.000000E+99

> <Gold.Protein.RotatedTorsions>
[ 6907 6896 6895 6894 ] final  -71.43 input  -60.11 | X-H torsion
[ 7974 7965 7964 7962 ] final  -19.03 input  175.53 | X-H torsion
[ 8008 7997 7996 7995 ] final  110.17 input   59.86 | X-H torsion
[ 10167 10162 10161 10158 ] final  150.88 input  -65.29 | X-H torsion
[ 10718 10713 10712 10709 ] final  113.22 input   66.30 | X-H torsion
[ 10763 10752 10751 10750 ] final -161.04 input  -60.55 | X-H torsion
[ 11005 11000 10999 10996 ] final -122.04 input  -57.11 | X-H torsion

> <Gold.Protein.ActiveResidues>
 VAL166  LYS551  ARG553  GLY616  TRP617  ASP618  TYR619  PRO620  LYS621  CYS622 
 ASP623  PHE694  ASN695  SER759  ASP760  ASP761  ALA762  ILE779  LEU786  VAL792 
 PHE793  MET794  SER795  GLU796  ALA797  LYS798  CYS799  TRP800  GLU811  SER814 

> <Gold.Protein.RotatedAtoms>
  150.7213  134.5309  159.5699 H   0  0  0  0  0  0  0  0  0  0  0  0  # atno 6907 bound_to 6896
  152.2842  134.7791  160.0399 H   0  0  0  0  0  0  0  0  0  0  0  0  # atno 6908 bound_to 6896
  151.8427  133.3391  159.3685 H   0  0  0  0  0  0  0  0  0  0  0  0  # atno 6909 bound_to 6896
  146.1862  140.4004  142.8475 H   0  0  0  0  0  0  0  0  0  0  0  0  # atno 7974 bound_to 7965
  156.2033  140.3044  155.9573 H   0  0  0  0  0  0  0  0  0  0  0  0  # atno 8008 bound_to 7997
  155.2902  140.0441  157.3039 H   0  0  0  0  0  0  0  0  0  0  0  0  # atno 8009 bound_to 7997
  154.5599  140.2317  155.8360 H   0  0  0  0  0  0  0  0  0  0  0  0  # atno 8010 bound_to 7997
  139.4846  144.5486  151.7440 H   0  0  0  0  0  0  0  0  0  0  0  0  # atno 10167 bound_to 10162
  157.6350  131.0980  150.7009 H   0  0  0  0  0  0  0  0  0  0  0  0  # atno 10718 bound_to 10713
  154.7338  135.3052  154.8846 H   0  0  0  0  0  0  0  0  0  0  0  0  # atno 10763 bound_to 10752
  153.9680  135.6745  153.4750 H   0  0  0  0  0  0  0  0  0  0  0  0  # atno 10764 bound_to 10752
  153.0943  135.4943  154.8672 H   0  0  0  0  0  0  0  0  0  0  0  0  # atno 10765 bound_to 10752
  141.0025  134.0382  157.3519 H   0  0  0  0  0  0  0  0  0  0  0  0  # atno 11005 bound_to 11000
  144.8402  140.6845  143.6234 LP  0  0  0  0  0  0  0  0  0  0  0  0  # atno 17320 bound_to 7965
  145.3930  139.1612  143.4218 LP  0  0  0  0  0  0  0  0  0  0  0  0  # atno 17321 bound_to 7965
  140.5037  144.1131  150.5977 LP  0  0  0  0  0  0  0  0  0  0  0  0  # atno 17342 bound_to 10162
  140.4032  143.2693  151.9922 LP  0  0  0  0  0  0  0  0  0  0  0  0  # atno 17343 bound_to 10162
  156.7342  130.4719  149.5492 LP  0  0  0  0  0  0  0  0  0  0  0  0  # atno 17370 bound_to 10713
  156.1582  130.6356  151.0685 LP  0  0  0  0  0  0  0  0  0  0  0  0  # atno 17371 bound_to 10713
  139.9046  135.0176  156.7428 LP  0  0  0  0  0  0  0  0  0  0  0  0  # atno 17394 bound_to 11000
  140.6866  133.9427  155.7941 LP  0  0  0  0  0  0  0  0  0  0  0  0  # atno 17395 bound_to 11000

$$$$
