AV-unprocessed.smi:247|AV-procd|sdf|1892|dock5
  -GOLD-   2262020553D 1   1.00000     0.00000
 Structure written by MMmdl.
 61 65  0  0  0  0  0  0  0  0  1 V2000
  148.4447  140.6816  153.2893 O   0  0  0  0  0  0  0  0  0  0  0  0
  148.2953  139.5453  154.1176 C   0  0  0  0  0  0  0  0  0  0  0  0
  149.5626  139.2194  154.9570 C   0  0  0  0  0  0  0  0  0  0  0  0
  149.1821  138.1654  156.0456 C   0  0  0  0  0  0  0  0  0  0  0  0
  148.3794  137.0491  155.5675 N   0  0  0  0  0  0  0  0  0  0  0  0
  147.0354  137.0691  155.2670 C   0  0  0  0  0  0  0  0  0  0  0  0
  146.5367  135.9326  154.8649 N   0  0  0  0  0  0  0  0  0  0  0  0
  147.6242  135.0680  154.8678 C   0  0  0  0  0  0  0  0  0  0  0  0
  147.7976  133.6876  154.5667 C   0  0  0  0  0  0  0  0  0  0  0  0
  146.8056  132.8501  154.1948 N   0  0  0  0  0  0  0  0  0  0  0  0
  146.7007  131.6421  155.0099 C   0  0  0  0  0  0  0  0  0  0  0  0
  146.4813  130.4758  154.0419 C   0  0  0  0  0  0  0  0  0  0  0  0
  145.9839  131.1587  152.7737 C   0  0  0  0  0  0  0  0  0  0  0  0
  146.7874  132.4659  152.7826 C   0  0  1  0  0  0  0  0  0  0  0  0
  146.3285  133.6231  151.8299 C   0  0  2  0  0  0  0  0  0  0  0  0
  145.0367  134.3534  152.2694 C   0  0  0  0  0  0  0  0  0  0  0  0
  143.9085  133.4874  152.1719 O   0  0  0  0  0  0  0  0  0  0  0  0
  143.6333  133.0729  150.8377 C   0  0  0  0  0  0  0  0  0  0  0  0
  144.8346  132.3106  150.2561 C   0  0  0  0  0  0  0  0  0  0  0  0
  146.1033  133.1685  150.3667 C   0  0  2  0  0  0  0  0  0  0  0  0
  147.2125  132.4820  149.8247 O   0  0  0  0  0  0  0  0  0  0  0  0
  149.0412  133.1616  154.6793 N   0  0  0  0  0  0  0  0  0  0  0  0
  150.0587  133.9344  155.0717 C   0  0  0  0  0  0  0  0  0  0  0  0
  150.0467  135.2283  155.4000 N   0  0  0  0  0  0  0  0  0  0  0  0
  148.7947  135.7583  155.2877 C   0  0  0  0  0  0  0  0  0  0  0  0
  150.6911  138.7099  154.0232 C   0  0  0  0  0  0  0  0  0  0  0  0
  152.0419  138.5882  154.7504 C   0  0  0  0  0  0  0  0  0  0  0  0
  152.4026  139.8445  155.3115 O   0  0  0  0  0  0  0  0  0  0  0  0
  151.4781  140.3056  156.2896 C   0  0  0  0  0  0  0  0  0  0  0  0
  150.0857  140.4997  155.6581 C   0  0  0  0  0  0  0  0  0  0  0  0
  149.1147  140.4997  152.6482 H   0  0  0  0  0  0  0  0  0  0  0  0
  147.4401  139.7163  154.7722 H   0  0  0  0  0  0  0  0  0  0  0  0
  148.0351  138.7094  153.4682 H   0  0  0  0  0  0  0  0  0  0  0  0
  150.0673  137.7425  156.5176 H   0  0  0  0  0  0  0  0  0  0  0  0
  148.6314  138.6508  156.8525 H   0  0  0  0  0  0  0  0  0  0  0  0
  146.4281  137.9566  155.3684 H   0  0  0  0  0  0  0  0  0  0  0  0
  147.5688  131.4704  155.6477 H   0  0  0  0  0  0  0  0  0  0  0  0
  145.8348  131.7536  155.6628 H   0  0  0  0  0  0  0  0  0  0  0  0
  147.4320  129.9793  153.8426 H   0  0  0  0  0  0  0  0  0  0  0  0
  145.7852  129.7303  154.4271 H   0  0  0  0  0  0  0  0  0  0  0  0
  146.1527  130.5578  151.8798 H   0  0  0  0  0  0  0  0  0  0  0  0
  144.9141  131.3416  152.8742 H   0  0  0  0  0  0  0  0  0  0  0  0
  147.8037  132.1847  152.5074 H   0  0  0  0  0  0  0  0  0  0  0  0
  147.1160  134.3782  151.8192 H   0  0  0  0  0  0  0  0  0  0  0  0
  145.1211  134.7360  153.2856 H   0  0  0  0  0  0  0  0  0  0  0  0
  144.8683  135.2316  151.6435 H   0  0  0  0  0  0  0  0  0  0  0  0
  142.7501  132.4343  150.8418 H   0  0  0  0  0  0  0  0  0  0  0  0
  143.3934  133.9419  150.2231 H   0  0  0  0  0  0  0  0  0  0  0  0
  144.9623  131.3686  150.7904 H   0  0  0  0  0  0  0  0  0  0  0  0
  144.6403  132.0530  149.2143 H   0  0  0  0  0  0  0  0  0  0  0  0
  145.9673  134.0575  149.7491 H   0  0  0  0  0  0  0  0  0  0  0  0
  147.3859  131.7222  150.3593 H   0  0  0  0  0  0  0  0  0  0  0  0
  151.0186  133.4443  155.1379 H   0  0  0  0  0  0  0  0  0  0  0  0
  150.4226  137.7621  153.5583 H   0  0  0  0  0  0  0  0  0  0  0  0
  150.8293  139.4078  153.1966 H   0  0  0  0  0  0  0  0  0  0  0  0
  152.0157  137.8216  155.5251 H   0  0  0  0  0  0  0  0  0  0  0  0
  152.8160  138.2900  154.0433 H   0  0  0  0  0  0  0  0  0  0  0  0
  151.4478  139.6168  157.1338 H   0  0  0  0  0  0  0  0  0  0  0  0
  151.8389  141.2559  156.6831 H   0  0  0  0  0  0  0  0  0  0  0  0
  150.1675  141.3162  154.9405 H   0  0  0  0  0  0  0  0  0  0  0  0
  149.3766  140.8369  156.4148 H   0  0  0  0  0  0  0  0  0  0  0  0
  1  2  1  0  0  0  0
  1 31  1  0  0  0  0
  2  3  1  0  0  0  0
  2 32  1  0  0  0  0
  2 33  1  0  0  0  0
  3 30  1  0  0  0  0
  3  4  1  0  0  0  0
  3 26  1  0  0  0  0
  4  5  1  0  0  0  0
  4 34  1  0  0  0  0
  4 35  1  0  0  0  0
  5 25  1  0  0  0  0
  5  6  1  0  0  0  0
  6  7  2  0  0  0  0
  6 36  1  0  0  0  0
  7  8  1  0  0  0  0
  8 25  2  0  0  0  0
  8  9  1  0  0  0  0
  9 10  1  0  0  0  0
  9 22  2  0  0  0  0
 10 14  1  0  0  0  0
 10 11  1  0  0  0  0
 11 12  1  0  0  0  0
 11 37  1  0  0  0  0
 11 38  1  0  0  0  0
 12 13  1  0  0  0  0
 12 39  1  0  0  0  0
 12 40  1  0  0  0  0
 13 14  1  0  0  0  0
 13 41  1  0  0  0  0
 13 42  1  0  0  0  0
 14 15  1  0  0  0  0
 14 43  1  0  0  0  0
 15 20  1  0  0  0  0
 15 16  1  0  0  0  0
 15 44  1  0  0  0  0
 16 17  1  0  0  0  0
 16 45  1  0  0  0  0
 16 46  1  0  0  0  0
 17 18  1  0  0  0  0
 18 19  1  0  0  0  0
 18 47  1  0  0  0  0
 18 48  1  0  0  0  0
 19 20  1  0  0  0  0
 19 49  1  0  0  0  0
 19 50  1  0  0  0  0
 20 21  1  0  0  0  0
 20 51  1  0  0  0  0
 21 52  1  0  0  0  0
 22 23  1  0  0  0  0
 23 24  2  0  0  0  0
 23 53  1  0  0  0  0
 24 25  1  0  0  0  0
 26 27  1  0  0  0  0
 26 54  1  0  0  0  0
 26 55  1  0  0  0  0
 27 28  1  0  0  0  0
 27 56  1  0  0  0  0
 27 57  1  0  0  0  0
 28 29  1  0  0  0  0
 29 30  1  0  0  0  0
 29 58  1  0  0  0  0
 29 59  1  0  0  0  0
 30 60  1  0  0  0  0
 30 61  1  0  0  0  0
M  END
> <s_m_source_file>
AV-unprocessed.smi

> <i_m_source_file_index>
247

> <i_lp_mmshare_version>
43012

> <i_f3d_flags>
0

> <s_epik_input>
W0NIMl0xW0NIMl1PW0NIMl1bQ0gyXUMxKFtDSDJdW09IXSlbQ0gyXW4oW2NIXW4yKWMoYzIzKW5bY0hdbmMzTjRbQ0gyXVtDSDJdW0NIMl1bQ0BIXTRbQ0BASF01W0NIMl1PW0NIMl1bQ0gyXVtDQEhdNVtPSF0=

> <s_epik_cmdline>
J2VwaWtfcHl0aG9uJywgJy1waCcsICc3LjAnLCAnLXRuJywgJzgnLCAnLW1hJywgJzIwMCcsICctbWV0YWxfYmluZGluZycsICctaW1hZScsICc8aW5maWxlLm1hZT4nLCAnLW9tYWUnLCAnPG91dGZpbGUubWFlPic=

> <r_lp_tautomer_probability>
1

> <r_epik_Ionization_Penalty>
0.00362597

> <r_epik_Ionization_Penalty_Charging>
0

> <r_epik_Ionization_Penalty_Neutral>
0.00362597

> <r_epik_State_Penalty>
0.00241433

> <r_epik_Charging_Adjusted_Penalty>
0.00241433

> <i_epik_Tot_Q>
0

> <i_epik_Tot_abs_Q>
0

> <r_epik_Metal_State_Penalty>
-0

> <b_epik_Metal_Only>
0

> <s_lp_Force_Field>
OPLS_2005

> <r_lp_Energy>
63.5358

> <b_lp_Chiralities_Consistent>
1

> <s_lp_Variant>
AV-unprocessed.smi:247-5

> <Gold.Version>
5.8.1

> <Gold.Id.Protein>
6NUR|6NUR_protein|mol2

> <Gold.PLP.Fitness>
48.1989

> <Gold.PLP.PLP>
-41.6825

> <Gold.PLP.part.hbond>
-3.7263

> <Gold.PLP.part.metal>
0.0000

> <Gold.PLP.part.buried>
-7.1341

> <Gold.PLP.part.nonpolar>
-30.4781

> <Gold.PLP.part.repulsive>
0.4794

> <Gold.PLP.ligand.clash>
0.0767

> <Gold.PLP.ligand.torsion>
0.8114

> <Gold.PLP.Chemscore.Hbond>
2.7052

> <Gold.PLP.Chemscore.CHOScore>
0.0000

> <Gold.PLP.Chemscore.Metal>
0.0000

> <Gold.Chemscore.Hbonds>
donor molecule, donor type, donor heavy atom, donor atom, acceptor molecule, acceptor atom, score
      L1  H     1    31       P1  7957  1.00
      L1  H    21    52       P1 10747  0.42
      P1  H  7989  7998       L1    28  0.20
      P1  H  7997  8008       L1    28  0.73

> <Gold.PLP.Chemscore.Internal.Correction>
0.1003

> <Gold.Rescore>
     Score         DG    S(hbond)    S(metal)    S(lipo)     H(rot)  DE(clash)    DE(int)     intcor
     12.95     -16.09       2.23        0.00      97.56       3.23       0.19       2.95       ----

> <Gold.Chemscore.Fitness>
12.9498

> <Gold.Chemscore.DG>
-16.0884

> <Gold.Chemscore.ZeroCoef>
-5.4800

> <Gold.Chemscore.Hbond>
2.2327

> <Gold.Chemscore.Metal>
0.0000

> <Gold.Chemscore.Lipo>
97.5602

> <Gold.Chemscore.Internal_Hbond>
0.0000

> <Gold.Chemscore.DEClash>
0.1890

> <Gold.Chemscore.DEInternal>
2.9496

> <Gold.Chemscore.Rot>
3.2278

> <Gold.Chemscore.Internal.Correction>
   9.000000E+99

> <Gold.Chemscore.Hbonds>
donor molecule, donor type, donor heavy atom, donor atom, acceptor molecule, acceptor atom, score
      L1  H     1    31       P1  7957  0.96
      L1  H    21    52       P1 10747  0.40
      P1  H  7997  8008       L1    28  0.43

> <Gold.Chemscore.Hbond.Weighted>
-7.4571

> <Gold.Chemscore.Metal.Weighted>
-0.0000

> <Gold.Chemscore.Lipo.Weighted>
-11.4145

> <Gold.Chemscore.Internal_Hbond.Weighted>
0.0000

> <Gold.Chemscore.DEClash.Weighted>
0.1890

> <Gold.Chemscore.DEInternal.Weighted>
2.9496

> <Gold.Chemscore.Rot.Weighted>
8.2633

> <Gold.Chemscore.Internal.Correction.Weighted>
   9.000000E+99

> <Gold.Protein.RotatedTorsions>
[ 6907 6896 6895 6894 ] final    2.19 input  -60.11 | X-H torsion
[ 7974 7965 7964 7962 ] final  102.27 input  175.53 | X-H torsion
[ 8008 7997 7996 7995 ] final  -28.90 input   59.86 | X-H torsion
[ 10167 10162 10161 10158 ] final  -61.00 input  -65.29 | X-H torsion
[ 10718 10713 10712 10709 ] final   89.60 input   66.30 | X-H torsion
[ 10763 10752 10751 10750 ] final -157.69 input  -60.55 | X-H torsion
[ 11005 11000 10999 10996 ] final   26.39 input  -57.11 | X-H torsion

> <Gold.Protein.ActiveResidues>
 VAL166  LYS551  ARG553  GLY616  TRP617  ASP618  TYR619  PRO620  LYS621  CYS622 
 ASP623  PHE694  ASN695  SER759  ASP760  ASP761  ALA762  ILE779  LEU786  VAL792 
 PHE793  MET794  SER795  GLU796  ALA797  LYS798  CYS799  TRP800  GLU811  SER814 

> <Gold.Protein.RotatedAtoms>
  151.6048  135.1044  160.0067 H   0  0  0  0  0  0  0  0  0  0  0  0  # atno 6907 bound_to 6896
  152.4239  133.7158  159.6516 H   0  0  0  0  0  0  0  0  0  0  0  0  # atno 6908 bound_to 6896
  150.8127  133.8320  159.3197 H   0  0  0  0  0  0  0  0  0  0  0  0  # atno 6909 bound_to 6896
  145.3613  139.2417  143.3505 H   0  0  0  0  0  0  0  0  0  0  0  0  # atno 7974 bound_to 7965
  154.4312  140.1833  156.1162 H   0  0  0  0  0  0  0  0  0  0  0  0  # atno 8008 bound_to 7997
  156.0179  140.3344  155.6983 H   0  0  0  0  0  0  0  0  0  0  0  0  # atno 8009 bound_to 7997
  155.6018  140.0641  157.2721 H   0  0  0  0  0  0  0  0  0  0  0  0  # atno 8010 bound_to 7997
  140.6035  143.2367  151.5875 H   0  0  0  0  0  0  0  0  0  0  0  0  # atno 10167 bound_to 10162
  157.6956  131.0339  150.3451 H   0  0  0  0  0  0  0  0  0  0  0  0  # atno 10718 bound_to 10713
  154.7616  135.3119  154.8367 H   0  0  0  0  0  0  0  0  0  0  0  0  # atno 10763 bound_to 10752
  153.9126  135.6804  153.4754 H   0  0  0  0  0  0  0  0  0  0  0  0  # atno 10764 bound_to 10752
  153.1217  135.4819  154.9138 H   0  0  0  0  0  0  0  0  0  0  0  0  # atno 10765 bound_to 10752
  140.3376  134.2369  155.7694 H   0  0  0  0  0  0  0  0  0  0  0  0  # atno 11005 bound_to 11000
  146.2926  140.4247  142.8734 LP  0  0  0  0  0  0  0  0  0  0  0  0  # atno 17320 bound_to 7965
  144.8644  140.7186  143.6086 LP  0  0  0  0  0  0  0  0  0  0  0  0  # atno 17321 bound_to 7965
  139.5308  144.2923  152.1142 LP  0  0  0  0  0  0  0  0  0  0  0  0  # atno 17342 bound_to 10162
  140.2108  144.4564  150.6387 LP  0  0  0  0  0  0  0  0  0  0  0  0  # atno 17343 bound_to 10162
  156.3906  130.3897  149.7032 LP  0  0  0  0  0  0  0  0  0  0  0  0  # atno 17370 bound_to 10713
  156.4384  130.7849  151.2870 LP  0  0  0  0  0  0  0  0  0  0  0  0  # atno 17371 bound_to 10713
  141.2047  133.7879  157.0272 LP  0  0  0  0  0  0  0  0  0  0  0  0  # atno 17394 bound_to 11000
  140.0808  134.9649  157.1621 LP  0  0  0  0  0  0  0  0  0  0  0  0  # atno 17395 bound_to 11000

$$$$
