AV-unprocessed.smi:3327|AV-procd|sdf|12788|dock10
  -GOLD-   2272019133D 1   1.00000     0.00000
 Structure written by MMmdl.
 41 42  0  0  0  0  0  0  0  0  2 V2000
  151.5643  142.3968  157.8052 C   0  0  0  0  0  0  0  0  0  0  0  0
  150.3581  141.6304  157.2453 C   0  0  1  0  0  0  0  0  0  0  0  0
  149.0514  142.0253  157.9673 C   0  0  0  0  0  0  0  0  0  0  0  0
  147.8177  141.3548  157.3342 C   0  0  0  0  0  0  0  0  0  0  0  0
  147.7948  141.5751  155.8117 C   0  0  0  0  0  0  0  0  0  0  0  0
  149.0517  141.0687  155.2438 N   0  0  0  0  0  0  0  0  0  0  0  0
  149.1756  139.9678  154.4630 C   0  0  0  0  0  0  0  0  0  0  0  0
  150.2688  139.5665  154.0599 O   0  0  0  0  0  0  0  0  0  0  0  0
  147.9117  139.1882  154.0683 C   0  0  0  0  0  0  0  0  0  0  0  0
  147.8941  138.8281  152.6357 N   0  3  0  0  0  0  0  0  0  0  0  0
  146.5491  138.5379  152.0993 C   0  0  0  0  0  0  0  0  0  0  0  0
  145.8129  137.4895  152.9490 C   0  0  0  0  0  0  0  0  0  0  0  0
  145.2928  136.3977  152.1457 N   0  0  0  0  0  0  0  0  0  0  0  0
  145.8879  135.7607  151.0772 C   0  0  0  0  0  0  0  0  0  0  0  0
  145.0238  134.7943  150.6483 C   0  0  0  0  0  0  0  0  0  0  0  0
  143.9116  134.9203  151.5268 C   0  0  0  0  0  0  0  0  0  0  0  0
  144.0771  135.8789  152.4243 N   0  0  0  0  0  0  0  0  0  0  0  0
  150.2092  141.8365  155.7228 C   0  0  0  0  0  0  0  0  0  0  0  0
  151.4564  143.4714  157.6544 H   0  0  0  0  0  0  0  0  0  0  0  0
  152.4883  142.0837  157.3185 H   0  0  0  0  0  0  0  0  0  0  0  0
  151.6794  142.2202  158.8749 H   0  0  0  0  0  0  0  0  0  0  0  0
  150.5329  140.5681  157.4235 H   0  0  0  0  0  0  0  0  0  0  0  0
  149.1114  141.7690  159.0256 H   0  0  0  0  0  0  0  0  0  0  0  0
  148.9268  143.1080  157.9205 H   0  0  0  0  0  0  0  0  0  0  0  0
  147.8311  140.2854  157.5486 H   0  0  0  0  0  0  0  0  0  0  0  0
  146.9069  141.7503  157.7845 H   0  0  0  0  0  0  0  0  0  0  0  0
  146.9022  141.1191  155.3871 H   0  0  0  0  0  0  0  0  0  0  0  0
  147.7078  142.6403  155.5921 H   0  0  0  0  0  0  0  0  0  0  0  0
  147.8496  138.2749  154.6616 H   0  0  0  0  0  0  0  0  0  0  0  0
  147.0324  139.7957  154.2866 H   0  0  0  0  0  0  0  0  0  0  0  0
  148.2893  139.5957  152.1104 H   0  0  0  0  0  0  0  0  0  0  0  0
  145.9728  139.4636  152.0807 H   0  0  0  0  0  0  0  0  0  0  0  0
  146.6308  138.1916  151.0679 H   0  0  0  0  0  0  0  0  0  0  0  0
  146.4684  137.0853  153.7222 H   0  0  0  0  0  0  0  0  0  0  0  0
  144.9745  137.9581  153.4659 H   0  0  0  0  0  0  0  0  0  0  0  0
  146.8659  136.0437  150.7153 H   0  0  0  0  0  0  0  0  0  0  0  0
  145.1637  134.1035  149.8300 H   0  0  0  0  0  0  0  0  0  0  0  0
  142.9964  134.3469  151.5402 H   0  0  0  0  0  0  0  0  0  0  0  0
  150.0584  142.8934  155.4970 H   0  0  0  0  0  0  0  0  0  0  0  0
  151.1353  141.5583  155.2177 H   0  0  0  0  0  0  0  0  0  0  0  0
  148.4810  138.0172  152.5004 H   0  0  0  0  0  0  0  0  0  0  0  0
  1  2  1  0  0  0  0
  1 19  1  0  0  0  0
  1 20  1  0  0  0  0
  1 21  1  0  0  0  0
  2 18  1  0  0  0  0
  2  3  1  0  0  0  0
  2 22  1  0  0  0  0
  3  4  1  0  0  0  0
  3 23  1  0  0  0  0
  3 24  1  0  0  0  0
  4  5  1  0  0  0  0
  4 25  1  0  0  0  0
  4 26  1  0  0  0  0
  5  6  1  0  0  0  0
  5 27  1  0  0  0  0
  5 28  1  0  0  0  0
  6  7  1  0  0  0  0
  6 18  1  0  0  0  0
  7  8  2  0  0  0  0
  7  9  1  0  0  0  0
  9 10  1  0  0  0  0
  9 29  1  0  0  0  0
  9 30  1  0  0  0  0
 10 11  1  0  0  0  0
 10 31  1  0  0  0  0
 10 41  1  0  0  0  0
 11 12  1  0  0  0  0
 11 32  1  0  0  0  0
 11 33  1  0  0  0  0
 12 13  1  0  0  0  0
 12 34  1  0  0  0  0
 12 35  1  0  0  0  0
 13 17  1  0  0  0  0
 13 14  1  0  0  0  0
 14 15  2  0  0  0  0
 14 36  1  0  0  0  0
 15 16  1  0  0  0  0
 15 37  1  0  0  0  0
 16 17  2  0  0  0  0
 16 38  1  0  0  0  0
 18 39  1  0  0  0  0
 18 40  1  0  0  0  0
M  CHG  1  10   1
M  END
> <s_m_source_file>
AV-unprocessed.smi

> <i_m_source_file_index>
3327

> <i_lp_mmshare_version>
43012

> <i_f3d_flags>
0

> <s_epik_input>
W0NIM11bQ0BASF0xW0NIMl1bQ0gyXVtDSDJdTihbQ0gyXTEpQyg9TylbQ0gyXVtOSF1bQ0gyXVtDSDJdbjJbY0hdW2NIXVtjSF1uMg==

> <s_epik_cmdline>
J2VwaWtfcHl0aG9uJywgJy1waCcsICc3LjAnLCAnLXRuJywgJzgnLCAnLW1hJywgJzIwMCcsICctbWV0YWxfYmluZGluZycsICctaW1hZScsICc8aW5maWxlLm1hZT4nLCAnLW9tYWUnLCAnPG91dGZpbGUubWFlPic=

> <r_lp_tautomer_probability>
1

> <r_epik_Ionization_Penalty>
0.195801

> <r_epik_Ionization_Penalty_Charging>
0.195799

> <r_epik_Ionization_Penalty_Neutral>
2.33113e-06

> <r_epik_State_Penalty>
0.185548

> <r_epik_Charging_Adjusted_Penalty>
0.381347

> <i_epik_Tot_Q>
1

> <i_epik_Tot_abs_Q>
1

> <r_epik_Metal_State_Penalty>
0.186014

> <b_epik_Metal_Only>
0

> <s_lp_Force_Field>
OPLS_2005

> <r_lp_Energy>
21.4811

> <b_lp_Chiralities_Consistent>
1

> <s_lp_Variant>
AV-unprocessed.smi:3327-2

> <Gold.Version>
5.8.1

> <Gold.Id.Protein>
6NUR|6NUR_protein|mol2

> <Gold.PLP.Fitness>
48.4901

> <Gold.PLP.PLP>
-33.4814

> <Gold.PLP.part.hbond>
-2.7792

> <Gold.PLP.part.metal>
0.0000

> <Gold.PLP.part.buried>
-3.8605

> <Gold.PLP.part.nonpolar>
-27.9336

> <Gold.PLP.part.repulsive>
0.8396

> <Gold.PLP.ligand.clash>
0.0000

> <Gold.PLP.ligand.torsion>
0.9459

> <Gold.PLP.Chemscore.Hbond>
4.0000

> <Gold.PLP.Chemscore.CHOScore>
1.6231

> <Gold.PLP.Chemscore.Metal>
0.0000

> <Gold.Chemscore.Hbonds>
donor molecule, donor type, donor heavy atom, donor atom, acceptor molecule, acceptor atom, score
      L1  H    10    31       P1  7957  0.86
      L1  H    10    41       P1  7948  2.00
      P1  H  7989  7998       L1     8  1.00
      L1  C    14    36       P1  7948  1.00
      L1  C    16    38       P1 10186  0.23

> <Gold.PLP.Chemscore.Internal.Correction>
0.0311

> <Gold.Rescore>
     Score         DG    S(hbond)    S(metal)    S(lipo)     H(rot)  DE(clash)    DE(int)     intcor
     17.16     -18.01       2.81        0.00      66.30       1.80       0.10       0.75       ----

> <Gold.Chemscore.Fitness>
17.1589

> <Gold.Chemscore.DG>
-18.0079

> <Gold.Chemscore.ZeroCoef>
-5.4800

> <Gold.Chemscore.Hbond>
2.8050

> <Gold.Chemscore.Metal>
0.0000

> <Gold.Chemscore.Lipo>
66.3036

> <Gold.Chemscore.Internal_Hbond>
0.0000

> <Gold.Chemscore.DEClash>
0.0978

> <Gold.Chemscore.DEInternal>
0.7512

> <Gold.Chemscore.Rot>
1.7963

> <Gold.Chemscore.Internal.Correction>
   9.000000E+99

> <Gold.Chemscore.Hbonds>
donor molecule, donor type, donor heavy atom, donor atom, acceptor molecule, acceptor atom, score
      L1  H    10    31       P1  7957  0.85
      L1  H    10    41       P1  7948  0.98
      P1  H  7989  7998       L1     8  0.95

> <Gold.Chemscore.Hbond.Weighted>
-9.3688

> <Gold.Chemscore.Metal.Weighted>
-0.0000

> <Gold.Chemscore.Lipo.Weighted>
-7.7575

> <Gold.Chemscore.Internal_Hbond.Weighted>
0.0000

> <Gold.Chemscore.DEClash.Weighted>
0.0978

> <Gold.Chemscore.DEInternal.Weighted>
0.7512

> <Gold.Chemscore.Rot.Weighted>
4.5985

> <Gold.Chemscore.Internal.Correction.Weighted>
   9.000000E+99

> <Gold.Protein.RotatedTorsions>
[ 6907 6896 6895 6894 ] final   18.76 input  -60.11 | X-H torsion
[ 7974 7965 7964 7962 ] final  -36.30 input  175.53 | X-H torsion
[ 8008 7997 7996 7995 ] final   31.86 input   59.86 | X-H torsion
[ 10167 10162 10161 10158 ] final   -0.52 input  -65.29 | X-H torsion
[ 10718 10713 10712 10709 ] final  173.44 input   66.30 | X-H torsion
[ 10763 10752 10751 10750 ] final -114.51 input  -60.55 | X-H torsion
[ 11005 11000 10999 10996 ] final -132.89 input  -57.11 | X-H torsion

> <Gold.Protein.ActiveResidues>
 VAL166  LYS551  ARG553  GLY616  TRP617  ASP618  TYR619  PRO620  LYS621  CYS622 
 ASP623  PHE694  ASN695  SER759  ASP760  ASP761  ALA762  ILE779  LEU786  VAL792 
 PHE793  MET794  SER795  GLU796  ALA797  LYS798  CYS799  TRP800  GLU811  SER814 

> <Gold.Protein.RotatedAtoms>
  151.8703  135.0491  160.0478 H   0  0  0  0  0  0  0  0  0  0  0  0  # atno 6907 bound_to 6896
  152.2593  133.5279  159.5380 H   0  0  0  0  0  0  0  0  0  0  0  0  # atno 6908 bound_to 6896
  150.7111  134.0768  159.3926 H   0  0  0  0  0  0  0  0  0  0  0  0  # atno 6909 bound_to 6896
  146.0673  140.6262  142.8969 H   0  0  0  0  0  0  0  0  0  0  0  0  # atno 7974 bound_to 7965
  155.1132  140.3241  155.4516 H   0  0  0  0  0  0  0  0  0  0  0  0  # atno 8008 bound_to 7997
  156.2684  140.2040  156.6204 H   0  0  0  0  0  0  0  0  0  0  0  0  # atno 8009 bound_to 7997
  154.6740  140.0533  157.0182 H   0  0  0  0  0  0  0  0  0  0  0  0  # atno 8010 bound_to 7997
  140.6771  143.6885  150.8047 H   0  0  0  0  0  0  0  0  0  0  0  0  # atno 10167 bound_to 10162
  156.9643  131.0070  151.2920 H   0  0  0  0  0  0  0  0  0  0  0  0  # atno 10718 bound_to 10713
  154.8443  135.4415  154.1517 H   0  0  0  0  0  0  0  0  0  0  0  0  # atno 10763 bound_to 10752
  153.2676  135.6942  153.7520 H   0  0  0  0  0  0  0  0  0  0  0  0  # atno 10764 bound_to 10752
  153.6773  135.3409  155.3144 H   0  0  0  0  0  0  0  0  0  0  0  0  # atno 10765 bound_to 10752
  140.9130  134.1544  157.4375 H   0  0  0  0  0  0  0  0  0  0  0  0  # atno 11005 bound_to 11000
  144.7210  140.4373  143.7008 LP  0  0  0  0  0  0  0  0  0  0  0  0  # atno 17320 bound_to 7965
  145.6454  139.1556  143.2892 LP  0  0  0  0  0  0  0  0  0  0  0  0  # atno 17321 bound_to 7965
  140.0579  143.5184  152.2642 LP  0  0  0  0  0  0  0  0  0  0  0  0  # atno 17342 bound_to 10162
  139.6070  144.7599  151.3040 LP  0  0  0  0  0  0  0  0  0  0  0  0  # atno 17343 bound_to 10162
  157.5636  130.8263  149.8298 LP  0  0  0  0  0  0  0  0  0  0  0  0  # atno 17370 bound_to 10713
  156.0309  130.3765  150.1690 LP  0  0  0  0  0  0  0  0  0  0  0  0  # atno 17371 bound_to 10713
  139.8761  134.9943  156.5685 LP  0  0  0  0  0  0  0  0  0  0  0  0  # atno 17394 bound_to 11000
  140.8086  133.8447  155.8790 LP  0  0  0  0  0  0  0  0  0  0  0  0  # atno 17395 bound_to 11000

$$$$
