AV-unprocessed.smi:1286|AV-procd|sdf|5378|dock2
  -GOLD-   22720 4523D 1   1.00000     0.00000
 Structure written by MMmdl.
 36 37  0  0  0  0  0  0  0  0  1 V2000
  147.3906  141.5546  156.1635 C   0  0  0  0  0  0  0  0  0  0  0  0
  148.8560  141.1269  155.9621 C   0  0  1  0  0  0  0  0  0  0  0  0
  149.1337  140.5347  154.5661 C   0  0  0  0  0  0  0  0  0  0  0  0
  150.2923  139.6596  154.5464 N   0  0  0  0  0  0  0  0  0  0  0  0
  150.3639  138.3459  154.1341 C   0  0  0  0  0  0  0  0  0  0  0  0
  151.6571  137.9392  154.2968 C   0  0  0  0  0  0  0  0  0  0  0  0
  152.3089  139.0883  154.8255 C   0  0  0  0  0  0  0  0  0  0  0  0
  151.4890  140.1159  154.9759 N   0  0  0  0  0  0  0  0  0  0  0  0
  149.7443  142.2648  156.1810 N   0  0  0  0  0  0  0  0  0  0  0  0
  150.8376  142.2636  156.9591 C   0  0  0  0  0  0  0  0  0  0  0  0
  151.2150  141.2795  157.5952 O   0  0  0  0  0  0  0  0  0  0  0  0
  151.6210  143.5789  157.0346 C   0  0  0  0  0  0  0  0  0  0  0  0
  152.0987  143.9395  158.4584 C   0  0  1  0  0  0  0  0  0  0  0  0
  151.9154  145.3963  158.8107 C   0  0  0  0  0  0  0  0  0  0  0  0
  151.2325  145.5708  159.9397 C   0  0  0  0  0  0  0  0  0  0  0  0
  150.8179  144.2701  160.5689 C   0  0  0  0  0  0  0  0  0  0  0  0
  151.3098  143.1995  159.5692 C   0  0  0  0  0  0  0  0  0  0  0  0
  146.7110  140.7064  156.0773 H   0  0  0  0  0  0  0  0  0  0  0  0
  147.0908  142.2980  155.4241 H   0  0  0  0  0  0  0  0  0  0  0  0
  147.2377  141.9881  157.1523 H   0  0  0  0  0  0  0  0  0  0  0  0
  149.0871  140.3549  156.6986 H   0  0  0  0  0  0  0  0  0  0  0  0
  148.2644  139.9789  154.2103 H   0  0  0  0  0  0  0  0  0  0  0  0
  149.3058  141.3359  153.8462 H   0  0  0  0  0  0  0  0  0  0  0  0
  149.4987  137.8180  153.7606 H   0  0  0  0  0  0  0  0  0  0  0  0
  152.0740  136.9689  154.0724 H   0  0  0  0  0  0  0  0  0  0  0  0
  153.3460  139.2055  155.1031 H   0  0  0  0  0  0  0  0  0  0  0  0
  149.5104  143.1213  155.7000 H   0  0  0  0  0  0  0  0  0  0  0  0
  152.4791  143.5301  156.3619 H   0  0  0  0  0  0  0  0  0  0  0  0
  150.9778  144.3732  156.6542 H   0  0  0  0  0  0  0  0  0  0  0  0
  153.1607  143.7099  158.5593 H   0  0  0  0  0  0  0  0  0  0  0  0
  152.3207  146.1933  158.2046 H   0  0  0  0  0  0  0  0  0  0  0  0
  150.9981  146.5265  160.3845 H   0  0  0  0  0  0  0  0  0  0  0  0
  151.2928  144.1608  161.5443 H   0  0  0  0  0  0  0  0  0  0  0  0
  149.7360  144.2359  160.7011 H   0  0  0  0  0  0  0  0  0  0  0  0
  150.4542  142.6665  159.1518 H   0  0  0  0  0  0  0  0  0  0  0  0
  151.9347  142.4557  160.0648 H   0  0  0  0  0  0  0  0  0  0  0  0
  1  2  1  0  0  0  0
  1 18  1  0  0  0  0
  1 19  1  0  0  0  0
  1 20  1  0  0  0  0
  2  3  1  0  0  0  0
  2  9  1  0  0  0  0
  2 21  1  0  0  0  0
  3  4  1  0  0  0  0
  3 22  1  0  0  0  0
  3 23  1  0  0  0  0
  4  8  1  0  0  0  0
  4  5  1  0  0  0  0
  5  6  2  0  0  0  0
  5 24  1  0  0  0  0
  6  7  1  0  0  0  0
  6 25  1  0  0  0  0
  7  8  2  0  0  0  0
  7 26  1  0  0  0  0
  9 10  1  0  0  0  0
  9 27  1  0  0  0  0
 10 11  2  0  0  0  0
 10 12  1  0  0  0  0
 12 13  1  0  0  0  0
 12 28  1  0  0  0  0
 12 29  1  0  0  0  0
 13 17  1  0  0  0  0
 13 14  1  0  0  0  0
 13 30  1  0  0  0  0
 14 15  2  0  0  0  0
 14 31  1  0  0  0  0
 15 16  1  0  0  0  0
 15 32  1  0  0  0  0
 16 17  1  0  0  0  0
 16 33  1  0  0  0  0
 16 34  1  0  0  0  0
 17 35  1  0  0  0  0
 17 36  1  0  0  0  0
M  END
> <s_m_source_file>
AV-unprocessed.smi

> <i_m_source_file_index>
1286

> <i_lp_mmshare_version>
43012

> <i_f3d_flags>
0

> <s_epik_input>
bjFbY0hdW2NIXVtjSF1uMVtDSDJdW0NAQEhdKFtDSDNdKVtOSF1DKD1PKVtDSDJdW0NAQEhdMltDSF09W0NIXVtDSDJdW0NIMl0y

> <s_epik_cmdline>
J2VwaWtfcHl0aG9uJywgJy1waCcsICc3LjAnLCAnLXRuJywgJzgnLCAnLW1hJywgJzIwMCcsICctbWV0YWxfYmluZGluZycsICctaW1hZScsICc8aW5maWxlLm1hZT4nLCAnLW9tYWUnLCAnPG91dGZpbGUubWFlPic=

> <r_lp_tautomer_probability>
1

> <r_epik_Ionization_Penalty>
0.000301761

> <r_epik_Ionization_Penalty_Charging>
0

> <r_epik_Ionization_Penalty_Neutral>
0.000301761

> <r_epik_State_Penalty>
-0

> <r_epik_Charging_Adjusted_Penalty>
0

> <i_epik_Tot_Q>
0

> <i_epik_Tot_abs_Q>
0

> <r_epik_Metal_State_Penalty>
-0

> <b_epik_Metal_Only>
0

> <s_lp_Force_Field>
OPLS_2005

> <r_lp_Energy>
16.9784

> <b_lp_Chiralities_Consistent>
1

> <s_lp_Variant>
AV-unprocessed.smi:1286-4

> <Gold.Version>
5.8.1

> <Gold.Id.Protein>
6NUR|6NUR_protein|mol2

> <Gold.PLP.Fitness>
46.5690

> <Gold.PLP.PLP>
-41.1561

> <Gold.PLP.part.hbond>
-2.0000

> <Gold.PLP.part.metal>
0.0000

> <Gold.PLP.part.buried>
-5.3098

> <Gold.PLP.part.nonpolar>
-34.6166

> <Gold.PLP.part.repulsive>
0.1584

> <Gold.PLP.ligand.clash>
0.0000

> <Gold.PLP.ligand.torsion>
1.2324

> <Gold.PLP.Chemscore.Hbond>
1.7000

> <Gold.PLP.Chemscore.CHOScore>
0.9134

> <Gold.PLP.Chemscore.Metal>
0.0000

> <Gold.Chemscore.Hbonds>
donor molecule, donor type, donor heavy atom, donor atom, acceptor molecule, acceptor atom, score
      L1  H     9    27       P1  8028  1.00
      P1  H  7989  7998       L1     8  0.40
      L1  C     5    24       P1  7948  1.00

> <Gold.PLP.Chemscore.Internal.Correction>
0.0376

> <Gold.Rescore>
     Score         DG    S(hbond)    S(metal)    S(lipo)     H(rot)  DE(clash)    DE(int)     intcor
     11.32     -17.77       1.00        0.00     112.22       1.64       1.48       4.96       ----

> <Gold.Chemscore.Fitness>
11.3178

> <Gold.Chemscore.DG>
-17.7656

> <Gold.Chemscore.ZeroCoef>
-5.4800

> <Gold.Chemscore.Hbond>
1.0040

> <Gold.Chemscore.Metal>
0.0000

> <Gold.Chemscore.Lipo>
112.2159

> <Gold.Chemscore.Internal_Hbond>
0.0000

> <Gold.Chemscore.DEClash>
1.4829

> <Gold.Chemscore.DEInternal>
4.9648

> <Gold.Chemscore.Rot>
1.6394

> <Gold.Chemscore.Internal.Correction>
   9.000000E+99

> <Gold.Chemscore.Hbonds>
donor molecule, donor type, donor heavy atom, donor atom, acceptor molecule, acceptor atom, score
      L1  H     9    27       P1  8028  0.97

> <Gold.Chemscore.Hbond.Weighted>
-3.3532

> <Gold.Chemscore.Metal.Weighted>
-0.0000

> <Gold.Chemscore.Lipo.Weighted>
-13.1293

> <Gold.Chemscore.Internal_Hbond.Weighted>
0.0000

> <Gold.Chemscore.DEClash.Weighted>
1.4829

> <Gold.Chemscore.DEInternal.Weighted>
4.9648

> <Gold.Chemscore.Rot.Weighted>
4.1969

> <Gold.Chemscore.Internal.Correction.Weighted>
   9.000000E+99

> <Gold.Protein.RotatedTorsions>
[ 6907 6896 6895 6894 ] final  166.58 input  -60.11 | X-H torsion
[ 7974 7965 7964 7962 ] final -138.53 input  175.53 | X-H torsion
[ 8008 7997 7996 7995 ] final  -61.43 input   59.86 | X-H torsion
[ 10167 10162 10161 10158 ] final  120.65 input  -65.29 | X-H torsion
[ 10718 10713 10712 10709 ] final  123.05 input   66.30 | X-H torsion
[ 10763 10752 10751 10750 ] final  157.49 input  -60.55 | X-H torsion
[ 11005 11000 10999 10996 ] final  165.37 input  -57.11 | X-H torsion

> <Gold.Protein.ActiveResidues>
 VAL166  LYS551  ARG553  GLY616  TRP617  ASP618  TYR619  PRO620  LYS621  CYS622 
 ASP623  PHE694  ASN695  SER759  ASP760  ASP761  ALA762  ILE779  LEU786  VAL792 
 PHE793  MET794  SER795  GLU796  ALA797  LYS798  CYS799  TRP800  GLU811  SER814 

> <Gold.Protein.RotatedAtoms>
  151.8767  133.3487  159.3752 H   0  0  0  0  0  0  0  0  0  0  0  0  # atno 6907 bound_to 6896
  150.7138  134.5059  159.5593 H   0  0  0  0  0  0  0  0  0  0  0  0  # atno 6908 bound_to 6896
  152.2602  134.8042  160.0483 H   0  0  0  0  0  0  0  0  0  0  0  0  # atno 6909 bound_to 6896
  144.8751  140.6424  143.5242 H   0  0  0  0  0  0  0  0  0  0  0  0  # atno 7974 bound_to 7965
  154.4447  140.1018  156.6429 H   0  0  0  0  0  0  0  0  0  0  0  0  # atno 8008 bound_to 7997
  155.5481  140.3485  155.4443 H   0  0  0  0  0  0  0  0  0  0  0  0  # atno 8009 bound_to 7997
  156.0548  140.1312  156.9998 H   0  0  0  0  0  0  0  0  0  0  0  0  # atno 8010 bound_to 7997
  139.5968  144.7044  151.3156 H   0  0  0  0  0  0  0  0  0  0  0  0  # atno 10167 bound_to 10162
  157.5695  131.1084  150.8394 H   0  0  0  0  0  0  0  0  0  0  0  0  # atno 10718 bound_to 10713
  154.2011  135.2790  155.2990 H   0  0  0  0  0  0  0  0  0  0  0  0  # atno 10763 bound_to 10752
  154.5854  135.5576  153.7229 H   0  0  0  0  0  0  0  0  0  0  0  0  # atno 10764 bound_to 10752
  153.0087  135.6355  154.2149 H   0  0  0  0  0  0  0  0  0  0  0  0  # atno 10765 bound_to 10752
  140.2554  134.7944  157.3541 H   0  0  0  0  0  0  0  0  0  0  0  0  # atno 11005 bound_to 11000
  145.4058  139.1589  143.4152 LP  0  0  0  0  0  0  0  0  0  0  0  0  # atno 17320 bound_to 7965
  146.2957  140.4158  142.8723 LP  0  0  0  0  0  0  0  0  0  0  0  0  # atno 17321 bound_to 7965
  140.7218  143.7113  150.7767 LP  0  0  0  0  0  0  0  0  0  0  0  0  # atno 17342 bound_to 10162
  140.0681  143.5088  152.2594 LP  0  0  0  0  0  0  0  0  0  0  0  0  # atno 17343 bound_to 10162
  156.8869  130.5199  149.5288 LP  0  0  0  0  0  0  0  0  0  0  0  0  # atno 17370 bound_to 10713
  156.0741  130.5767  150.9439 LP  0  0  0  0  0  0  0  0  0  0  0  0  # atno 17371 bound_to 10713
  140.1517  134.4842  155.7957 LP  0  0  0  0  0  0  0  0  0  0  0  0  # atno 17394 bound_to 11000
  141.2196  133.6865  156.7389 LP  0  0  0  0  0  0  0  0  0  0  0  0  # atno 17395 bound_to 11000

$$$$
