AV-unprocessed.smi:3277|AV-procd|sdf|12539|dock3
  -GOLD-   2272018453D 1   1.00000     0.00000
 Structure written by MMmdl.
 35 37  0  0  0  0  0  0  0  0  1 V2000
  149.7137  136.3474  155.0315 C   0  0  0  0  0  0  0  0  0  0  0  0
  150.5475  137.5383  154.9760 N   0  0  0  0  0  0  0  0  0  0  0  0
  151.7533  137.6432  155.5538 C   0  0  0  0  0  0  0  0  0  0  0  0
  152.2724  136.7360  156.2041 O   0  0  0  0  0  0  0  0  0  0  0  0
  152.4877  138.9724  155.3700 C   0  0  0  0  0  0  0  0  0  0  0  0
  151.6185  140.0573  155.9194 C   0  0  0  0  0  0  0  0  0  0  0  0
  151.8935  140.7246  157.0432 N   0  0  0  0  0  0  0  0  0  0  0  0
  150.9362  141.6989  157.3481 C   0  0  0  0  0  0  0  0  0  0  0  0
  151.0748  142.5640  158.5733 C   0  0  1  0  0  0  0  0  0  0  0  0
  152.3706  142.3466  159.3839 C   0  0  0  0  0  0  0  0  0  0  0  0
  152.8837  143.7860  159.5860 C   0  0  2  0  0  0  0  0  0  0  0  0
  151.9213  144.5643  160.5055 C   0  0  0  0  0  0  0  0  0  0  0  0
  150.7040  144.8198  159.5931 C   0  0  0  0  0  0  0  0  0  0  0  0
  151.0977  144.0861  158.2965 C   0  0  1  0  0  0  0  0  0  0  0  0
  152.5893  144.4095  158.2278 C   0  0  0  0  0  0  0  0  0  0  0  0
  149.9147  141.7483  156.4318 C   0  0  0  0  0  0  0  0  0  0  0  0
  150.1206  140.5794  155.1565 S   0  0  0  0  0  0  0  0  0  0  0  0
  148.7808  136.5215  154.4954 H   0  0  0  0  0  0  0  0  0  0  0  0
  149.4716  136.0892  156.0633 H   0  0  0  0  0  0  0  0  0  0  0  0
  150.2187  135.4983  154.5691 H   0  0  0  0  0  0  0  0  0  0  0  0
  150.1907  138.3292  154.4593 H   0  0  0  0  0  0  0  0  0  0  0  0
  153.4453  138.9671  155.8923 H   0  0  0  0  0  0  0  0  0  0  0  0
  152.6864  139.1526  154.3124 H   0  0  0  0  0  0  0  0  0  0  0  0
  150.2259  142.3461  159.2235 H   0  0  0  0  0  0  0  0  0  0  0  0
  152.1936  141.8227  160.3239 H   0  0  0  0  0  0  0  0  0  0  0  0
  153.1038  141.7700  158.8178 H   0  0  0  0  0  0  0  0  0  0  0  0
  153.9268  143.8368  159.8990 H   0  0  0  0  0  0  0  0  0  0  0  0
  151.6589  143.9956  161.3985 H   0  0  0  0  0  0  0  0  0  0  0  0
  152.3639  145.5079  160.8268 H   0  0  0  0  0  0  0  0  0  0  0  0
  149.7724  144.4507  160.0234 H   0  0  0  0  0  0  0  0  0  0  0  0
  150.5820  145.8879  159.4083 H   0  0  0  0  0  0  0  0  0  0  0  0
  150.5060  144.3942  157.4334 H   0  0  0  0  0  0  0  0  0  0  0  0
  152.7990  145.4799  158.1886 H   0  0  0  0  0  0  0  0  0  0  0  0
  153.1108  143.9190  157.4053 H   0  0  0  0  0  0  0  0  0  0  0  0
  149.0543  142.4008  156.4307 H   0  0  0  0  0  0  0  0  0  0  0  0
  1  2  1  0  0  0  0
  1 18  1  0  0  0  0
  1 19  1  0  0  0  0
  1 20  1  0  0  0  0
  2  3  1  0  0  0  0
  2 21  1  0  0  0  0
  3  4  2  0  0  0  0
  3  5  1  0  0  0  0
  5  6  1  0  0  0  0
  5 22  1  0  0  0  0
  5 23  1  0  0  0  0
  6 17  1  0  0  0  0
  6  7  2  0  0  0  0
  7  8  1  0  0  0  0
  8  9  1  0  0  0  0
  8 16  2  0  0  0  0
  9 14  1  0  0  0  0
  9 10  1  0  0  0  0
  9 24  1  0  0  0  0
 10 11  1  0  0  0  0
 10 25  1  0  0  0  0
 10 26  1  0  0  0  0
 11 15  1  0  0  0  0
 11 12  1  0  0  0  0
 11 27  1  0  0  0  0
 12 13  1  0  0  0  0
 12 28  1  0  0  0  0
 12 29  1  0  0  0  0
 13 14  1  0  0  0  0
 13 30  1  0  0  0  0
 13 31  1  0  0  0  0
 14 15  1  0  0  0  0
 14 32  1  0  0  0  0
 15 33  1  0  0  0  0
 15 34  1  0  0  0  0
 16 17  1  0  0  0  0
 16 35  1  0  0  0  0
M  END
> <s_m_source_file>
AV-unprocessed.smi

> <i_m_source_file_index>
3277

> <i_lp_mmshare_version>
43012

> <i_f3d_flags>
0

> <s_epik_input>
W0NIM11bTkhdQyg9TylbQ0gyXWMxbmMoW2NIXXMxKVtDQEhdKFtDSDJdW0NAQEhdMjMpW0NAQEhdKFtDSDJdMylbQ0gyXVtDSDJdMg==

> <s_epik_cmdline>
J2VwaWtfcHl0aG9uJywgJy1waCcsICc3LjAnLCAnLXRuJywgJzgnLCAnLW1hJywgJzIwMCcsICctbWV0YWxfYmluZGluZycsICctaW1hZScsICc8aW5maWxlLm1hZT4nLCAnLW9tYWUnLCAnPG91dGZpbGUubWFlPic=

> <r_lp_tautomer_probability>
1

> <r_epik_Ionization_Penalty>
8.50008e-05

> <r_epik_Ionization_Penalty_Charging>
0

> <r_epik_Ionization_Penalty_Neutral>
8.50008e-05

> <r_epik_State_Penalty>
-0

> <r_epik_Charging_Adjusted_Penalty>
0

> <i_epik_Tot_Q>
0

> <i_epik_Tot_abs_Q>
0

> <r_epik_Metal_State_Penalty>
-0

> <b_epik_Metal_Only>
0

> <s_lp_Force_Field>
OPLS_2005

> <r_lp_Energy>
44.5578

> <b_lp_Chiralities_Consistent>
1

> <s_lp_Variant>
AV-unprocessed.smi:3277-4

> <Gold.Version>
5.8.1

> <Gold.Id.Protein>
6NUR|6NUR_protein|mol2

> <Gold.PLP.Fitness>
45.9069

> <Gold.PLP.PLP>
-40.2544

> <Gold.PLP.part.hbond>
-1.0000

> <Gold.PLP.part.metal>
0.0000

> <Gold.PLP.part.buried>
-3.0243

> <Gold.PLP.part.nonpolar>
-36.7180

> <Gold.PLP.part.repulsive>
0.0600

> <Gold.PLP.ligand.clash>
0.0000

> <Gold.PLP.ligand.torsion>
0.1221

> <Gold.PLP.Chemscore.Hbond>
1.0000

> <Gold.PLP.Chemscore.CHOScore>
0.9651

> <Gold.PLP.Chemscore.Metal>
0.0000

> <Gold.Chemscore.Hbonds>
donor molecule, donor type, donor heavy atom, donor atom, acceptor molecule, acceptor atom, score
      P1  H 10752 10764       L1     4  1.00
      L1  C    16    35       P1  8028  0.99

> <Gold.PLP.Chemscore.Internal.Correction>
0.0013

> <Gold.Rescore>
     Score         DG    S(hbond)    S(metal)    S(lipo)     H(rot)  DE(clash)    DE(int)     intcor
     18.91     -19.21       0.95        0.00     121.04       1.41       0.15       0.15       ----

> <Gold.Chemscore.Fitness>
18.9057

> <Gold.Chemscore.DG>
-19.2055

> <Gold.Chemscore.ZeroCoef>
-5.4800

> <Gold.Chemscore.Hbond>
0.9516

> <Gold.Chemscore.Metal>
0.0000

> <Gold.Chemscore.Lipo>
121.0437

> <Gold.Chemscore.Internal_Hbond>
0.0000

> <Gold.Chemscore.DEClash>
0.1489

> <Gold.Chemscore.DEInternal>
0.1508

> <Gold.Chemscore.Rot>
1.4122

> <Gold.Chemscore.Internal.Correction>
   9.000000E+99

> <Gold.Chemscore.Hbonds>
donor molecule, donor type, donor heavy atom, donor atom, acceptor molecule, acceptor atom, score
      P1  H 10752 10764       L1     4  0.63

> <Gold.Chemscore.Hbond.Weighted>
-3.1785

> <Gold.Chemscore.Metal.Weighted>
-0.0000

> <Gold.Chemscore.Lipo.Weighted>
-14.1621

> <Gold.Chemscore.Internal_Hbond.Weighted>
0.0000

> <Gold.Chemscore.DEClash.Weighted>
0.1489

> <Gold.Chemscore.DEInternal.Weighted>
0.1508

> <Gold.Chemscore.Rot.Weighted>
3.6151

> <Gold.Chemscore.Internal.Correction.Weighted>
   9.000000E+99

> <Gold.Protein.RotatedTorsions>
[ 6907 6896 6895 6894 ] final  102.44 input  -60.11 | X-H torsion
[ 7974 7965 7964 7962 ] final  173.50 input  175.53 | X-H torsion
[ 8008 7997 7996 7995 ] final   82.48 input   59.86 | X-H torsion
[ 10167 10162 10161 10158 ] final   -1.73 input  -65.29 | X-H torsion
[ 10718 10713 10712 10709 ] final -135.75 input   66.30 | X-H torsion
[ 10763 10752 10751 10750 ] final  -35.57 input  -60.55 | X-H torsion
[ 11005 11000 10999 10996 ] final   65.83 input  -57.11 | X-H torsion

> <Gold.Protein.ActiveResidues>
 VAL166  LYS551  ARG553  GLY616  TRP617  ASP618  TYR619  PRO620  LYS621  CYS622 
 ASP623  PHE694  ASN695  SER759  ASP760  ASP761  ALA762  ILE779  LEU786  VAL792 
 PHE793  MET794  SER795  GLU796  ALA797  LYS798  CYS799  TRP800  GLU811  SER814 

> <Gold.Protein.RotatedAtoms>
  152.5323  133.9975  159.7879 H   0  0  0  0  0  0  0  0  0  0  0  0  # atno 6907 bound_to 6896
  151.0200  133.5877  159.2679 H   0  0  0  0  0  0  0  0  0  0  0  0  # atno 6908 bound_to 6896
  151.2921  135.0751  159.9261 H   0  0  0  0  0  0  0  0  0  0  0  0  # atno 6909 bound_to 6896
  144.7242  139.9656  143.6436 H   0  0  0  0  0  0  0  0  0  0  0  0  # atno 7974 bound_to 7965
  155.9111  140.3427  155.6100 H   0  0  0  0  0  0  0  0  0  0  0  0  # atno 8008 bound_to 7997
  155.7386  140.0804  157.2275 H   0  0  0  0  0  0  0  0  0  0  0  0  # atno 8009 bound_to 7997
  154.4056  140.1575  156.2577 H   0  0  0  0  0  0  0  0  0  0  0  0  # atno 8010 bound_to 7997
  140.6822  143.6741  150.8161 H   0  0  0  0  0  0  0  0  0  0  0  0  # atno 10167 bound_to 10162
  156.2695  130.7257  151.1219 H   0  0  0  0  0  0  0  0  0  0  0  0  # atno 10718 bound_to 10713
  153.8655  135.6836  153.4779 H   0  0  0  0  0  0  0  0  0  0  0  0  # atno 10763 bound_to 10752
  153.1317  135.4695  154.9357 H   0  0  0  0  0  0  0  0  0  0  0  0  # atno 10764 bound_to 10752
  154.7739  135.3247  154.8083 H   0  0  0  0  0  0  0  0  0  0  0  0  # atno 10765 bound_to 10752
  139.9869  134.6653  156.0159 H   0  0  0  0  0  0  0  0  0  0  0  0  # atno 11005 bound_to 11000
  146.0603  139.3597  143.0585 LP  0  0  0  0  0  0  0  0  0  0  0  0  # atno 17320 bound_to 7965
  145.8101  140.9730  143.0953 LP  0  0  0  0  0  0  0  0  0  0  0  0  # atno 17321 bound_to 7965
  140.0442  143.5315  152.2703 LP  0  0  0  0  0  0  0  0  0  0  0  0  # atno 17342 bound_to 10162
  139.6153  144.7618  151.2860 LP  0  0  0  0  0  0  0  0  0  0  0  0  # atno 17343 bound_to 10162
  157.7279  131.0636  150.5844 LP  0  0  0  0  0  0  0  0  0  0  0  0  # atno 17370 bound_to 10713
  156.5939  130.4336  149.5925 LP  0  0  0  0  0  0  0  0  0  0  0  0  # atno 17371 bound_to 10713
  141.1533  133.6546  156.4080 LP  0  0  0  0  0  0  0  0  0  0  0  0  # atno 17394 bound_to 11000
  140.4984  134.6509  157.5239 LP  0  0  0  0  0  0  0  0  0  0  0  0  # atno 17395 bound_to 11000

$$$$
