AV-unprocessed.smi:919|AV-procd|sdf|4167|dock1
  -GOLD-   22720 2 73D 1   1.00000     0.00000
 Structure written by MMmdl.
 43 45  0  0  0  0  0  0  0  0  1 V2000
  148.6056  124.8578  153.5632 C   0  0  0  0  0  0  0  0  0  0  0  0
  148.7021  124.3495  152.1533 C   0  0  0  0  0  0  0  0  0  0  0  0
  148.7228  123.0466  151.9268 N   0  0  0  0  0  0  0  0  0  0  0  0
  148.8187  122.9012  150.5393 O   0  0  0  0  0  0  0  0  0  0  0  0
  148.8513  124.1371  149.9785 C   0  0  0  0  0  0  0  0  0  0  0  0
  148.9570  124.1913  148.4921 C   0  0  0  0  0  0  0  0  0  0  0  0
  148.7770  125.1008  150.9460 C   0  0  0  0  0  0  0  0  0  0  0  0
  148.7789  126.5971  150.7924 C   0  0  0  0  0  0  0  0  0  0  0  0
  147.5577  127.2316  151.4762 C   0  0  0  0  0  0  0  0  0  0  0  0
  147.5060  128.6701  151.2475 N   0  0  0  0  0  0  0  0  0  0  0  0
  146.5337  129.4863  151.6888 C   0  0  0  0  0  0  0  0  0  0  0  0
  145.5756  129.1004  152.3562 O   0  0  0  0  0  0  0  0  0  0  0  0
  146.6834  130.7766  151.3411 N   0  0  0  0  0  0  0  0  0  0  0  0
  145.8037  131.9022  151.6639 C   0  0  1  0  0  0  0  0  0  0  0  0
  146.4057  133.2731  151.2732 C   0  0  0  0  0  0  0  0  0  0  0  0
  145.3504  133.8500  150.3117 C   0  0  2  0  0  0  0  0  0  0  0  0
  144.0727  134.2012  151.0986 C   0  0  0  0  0  0  0  0  0  0  0  0
  143.4810  132.8160  151.4266 C   0  0  0  0  0  0  0  0  0  0  0  0
  144.5162  131.8552  150.8124 C   0  0  1  0  0  0  0  0  0  0  0  0
  144.9178  132.6070  149.5466 C   0  0  0  0  0  0  0  0  0  0  0  0
  149.2077  125.7570  153.6977 H   0  0  0  0  0  0  0  0  0  0  0  0
  148.9559  124.1172  154.2830 H   0  0  0  0  0  0  0  0  0  0  0  0
  147.5754  125.1079  153.8164 H   0  0  0  0  0  0  0  0  0  0  0  0
  149.2255  125.1924  148.1544 H   0  0  0  0  0  0  0  0  0  0  0  0
  148.0086  123.9202  148.0282 H   0  0  0  0  0  0  0  0  0  0  0  0
  149.7199  123.5002  148.1329 H   0  0  0  0  0  0  0  0  0  0  0  0
  149.6904  127.0252  151.2112 H   0  0  0  0  0  0  0  0  0  0  0  0
  148.7880  126.8680  149.7359 H   0  0  0  0  0  0  0  0  0  0  0  0
  146.6357  126.7643  151.1254 H   0  0  0  0  0  0  0  0  0  0  0  0
  147.6022  127.0598  152.5521 H   0  0  0  0  0  0  0  0  0  0  0  0
  148.2566  129.0748  150.7072 H   0  0  0  0  0  0  0  0  0  0  0  0
  147.5060  131.0049  150.8017 H   0  0  0  0  0  0  0  0  0  0  0  0
  145.5509  131.8661  152.7252 H   0  0  0  0  0  0  0  0  0  0  0  0
  146.5691  133.9147  152.1400 H   0  0  0  0  0  0  0  0  0  0  0  0
  147.3625  133.1610  150.7609 H   0  0  0  0  0  0  0  0  0  0  0  0
  145.7229  134.6664  149.6922 H   0  0  0  0  0  0  0  0  0  0  0  0
  144.2878  134.7853  151.9942 H   0  0  0  0  0  0  0  0  0  0  0  0
  143.3809  134.7765  150.4819 H   0  0  0  0  0  0  0  0  0  0  0  0
  143.3482  132.6609  152.4979 H   0  0  0  0  0  0  0  0  0  0  0  0
  142.5082  132.6930  150.9488 H   0  0  0  0  0  0  0  0  0  0  0  0
  144.1263  130.8498  150.6489 H   0  0  0  0  0  0  0  0  0  0  0  0
  144.0841  132.7855  148.8650 H   0  0  0  0  0  0  0  0  0  0  0  0
  145.7324  132.1309  148.9979 H   0  0  0  0  0  0  0  0  0  0  0  0
  1  2  1  0  0  0  0
  1 21  1  0  0  0  0
  1 22  1  0  0  0  0
  1 23  1  0  0  0  0
  2  7  1  0  0  0  0
  2  3  2  0  0  0  0
  3  4  1  0  0  0  0
  4  5  1  0  0  0  0
  5  6  1  0  0  0  0
  5  7  2  0  0  0  0
  6 24  1  0  0  0  0
  6 25  1  0  0  0  0
  6 26  1  0  0  0  0
  7  8  1  0  0  0  0
  8  9  1  0  0  0  0
  8 27  1  0  0  0  0
  8 28  1  0  0  0  0
  9 10  1  0  0  0  0
  9 29  1  0  0  0  0
  9 30  1  0  0  0  0
 10 11  1  0  0  0  0
 10 31  1  0  0  0  0
 11 12  2  0  0  0  0
 11 13  1  0  0  0  0
 13 14  1  0  0  0  0
 13 32  1  0  0  0  0
 14 19  1  0  0  0  0
 14 15  1  0  0  0  0
 14 33  1  0  0  0  0
 15 16  1  0  0  0  0
 15 34  1  0  0  0  0
 15 35  1  0  0  0  0
 16 20  1  0  0  0  0
 16 17  1  0  0  0  0
 16 36  1  0  0  0  0
 17 18  1  0  0  0  0
 17 37  1  0  0  0  0
 17 38  1  0  0  0  0
 18 19  1  0  0  0  0
 18 39  1  0  0  0  0
 18 40  1  0  0  0  0
 19 20  1  0  0  0  0
 19 41  1  0  0  0  0
 20 42  1  0  0  0  0
 20 43  1  0  0  0  0
M  END
> <s_m_source_file>
AV-unprocessed.smi

> <i_m_source_file_index>
919

> <i_lp_mmshare_version>
43012

> <i_f3d_flags>
0

> <s_epik_input>
W0NIM11jMW5vYyhbQ0gzXSljMVtDSDJdW0NIMl1bTkhdQyg9TylbTkhdW0NASF0oW0NIMl1bQ0BASF0yMylbQ0BASF0oW0NIMl0zKVtDSDJdW0NIMl0y

> <s_epik_cmdline>
J2VwaWtfcHl0aG9uJywgJy1waCcsICc3LjAnLCAnLXRuJywgJzgnLCAnLW1hJywgJzIwMCcsICctbWV0YWxfYmluZGluZycsICctaW1hZScsICc8aW5maWxlLm1hZT4nLCAnLW9tYWUnLCAnPG91dGZpbGUubWFlPic=

> <r_lp_tautomer_probability>
1

> <r_epik_Ionization_Penalty>
6.40771e-05

> <r_epik_Ionization_Penalty_Charging>
0

> <r_epik_Ionization_Penalty_Neutral>
6.40771e-05

> <r_epik_State_Penalty>
-0

> <r_epik_Charging_Adjusted_Penalty>
0

> <i_epik_Tot_Q>
0

> <i_epik_Tot_abs_Q>
0

> <r_epik_Metal_State_Penalty>
-0

> <b_epik_Metal_Only>
0

> <s_lp_Force_Field>
OPLS_2005

> <r_lp_Energy>
47.296

> <b_lp_Chiralities_Consistent>
1

> <s_lp_Variant>
AV-unprocessed.smi:919-4

> <Gold.Version>
5.8.1

> <Gold.Id.Protein>
6NUR|6NUR_protein|mol2

> <Gold.PLP.Fitness>
43.5990

> <Gold.PLP.PLP>
-39.0572

> <Gold.PLP.part.hbond>
-1.9946

> <Gold.PLP.part.metal>
0.0000

> <Gold.PLP.part.buried>
-4.4760

> <Gold.PLP.part.nonpolar>
-32.1717

> <Gold.PLP.part.repulsive>
0.3005

> <Gold.PLP.ligand.clash>
0.0000

> <Gold.PLP.ligand.torsion>
0.1587

> <Gold.PLP.Chemscore.Hbond>
1.6120

> <Gold.PLP.Chemscore.CHOScore>
0.0000

> <Gold.PLP.Chemscore.Metal>
0.0000

> <Gold.Chemscore.Hbonds>
donor molecule, donor type, donor heavy atom, donor atom, acceptor molecule, acceptor atom, score
      L1  H    10    31       P1 10747  0.57
      L1  H    13    32       P1 10747  1.00

> <Gold.PLP.Chemscore.Internal.Correction>
0.0232

> <Gold.Rescore>
     Score         DG    S(hbond)    S(metal)    S(lipo)     H(rot)  DE(clash)    DE(int)     intcor
     16.70     -16.84       1.12        0.00      98.25       1.52       0.08       0.06       ----

> <Gold.Chemscore.Fitness>
16.6997

> <Gold.Chemscore.DG>
-16.8435

> <Gold.Chemscore.ZeroCoef>
-5.4800

> <Gold.Chemscore.Hbond>
1.1225

> <Gold.Chemscore.Metal>
0.0000

> <Gold.Chemscore.Lipo>
98.2530

> <Gold.Chemscore.Internal_Hbond>
0.0000

> <Gold.Chemscore.DEClash>
0.0819

> <Gold.Chemscore.DEInternal>
0.0618

> <Gold.Chemscore.Rot>
1.5161

> <Gold.Chemscore.Internal.Correction>
   9.000000E+99

> <Gold.Chemscore.Hbonds>
donor molecule, donor type, donor heavy atom, donor atom, acceptor molecule, acceptor atom, score
      L1  H    10    31       P1 10747  0.06
      L1  H    13    32       P1 10747  0.96

> <Gold.Chemscore.Hbond.Weighted>
-3.7491

> <Gold.Chemscore.Metal.Weighted>
-0.0000

> <Gold.Chemscore.Lipo.Weighted>
-11.4956

> <Gold.Chemscore.Internal_Hbond.Weighted>
0.0000

> <Gold.Chemscore.DEClash.Weighted>
0.0819

> <Gold.Chemscore.DEInternal.Weighted>
0.0618

> <Gold.Chemscore.Rot.Weighted>
3.8813

> <Gold.Chemscore.Internal.Correction.Weighted>
   9.000000E+99

> <Gold.Protein.RotatedTorsions>
[ 6907 6896 6895 6894 ] final  132.14 input  -60.11 | X-H torsion
[ 7974 7965 7964 7962 ] final  -28.33 input  175.53 | X-H torsion
[ 8008 7997 7996 7995 ] final -103.31 input   59.86 | X-H torsion
[ 10167 10162 10161 10158 ] final   70.33 input  -65.29 | X-H torsion
[ 10718 10713 10712 10709 ] final  -69.55 input   66.30 | X-H torsion
[ 10763 10752 10751 10750 ] final  -65.97 input  -60.55 | X-H torsion
[ 11005 11000 10999 10996 ] final  -42.22 input  -57.11 | X-H torsion

> <Gold.Protein.ActiveResidues>
 VAL166  LYS551  ARG553  GLY616  TRP617  ASP618  TYR619  PRO620  LYS621  CYS622 
 ASP623  PHE694  ASN695  SER759  ASP760  ASP761  ALA762  ILE779  LEU786  VAL792 
 PHE793  MET794  SER795  GLU796  ALA797  LYS798  CYS799  TRP800  GLU811  SER814 

> <Gold.Protein.RotatedAtoms>
  152.3355  133.6006  159.5839 H   0  0  0  0  0  0  0  0  0  0  0  0  # atno 6907 bound_to 6896
  150.7447  133.9803  159.3583 H   0  0  0  0  0  0  0  0  0  0  0  0  # atno 6908 bound_to 6896
  151.7673  135.0796  160.0405 H   0  0  0  0  0  0  0  0  0  0  0  0  # atno 6909 bound_to 6896
  146.1295  140.5269  142.8699 H   0  0  0  0  0  0  0  0  0  0  0  0  # atno 7974 bound_to 7965
  154.8691  140.0423  157.1713 H   0  0  0  0  0  0  0  0  0  0  0  0  # atno 8008 bound_to 7997
  154.8758  140.2965  155.5433 H   0  0  0  0  0  0  0  0  0  0  0  0  # atno 8009 bound_to 7997
  156.2999  140.2420  156.3754 H   0  0  0  0  0  0  0  0  0  0  0  0  # atno 8010 bound_to 7997
  140.0581  144.5256  150.7314 H   0  0  0  0  0  0  0  0  0  0  0  0  # atno 10167 bound_to 10162
  156.0450  130.4315  150.2164 H   0  0  0  0  0  0  0  0  0  0  0  0  # atno 10718 bound_to 10713
  154.3528  135.6133  153.5651 H   0  0  0  0  0  0  0  0  0  0  0  0  # atno 10763 bound_to 10752
  152.9797  135.5796  154.4723 H   0  0  0  0  0  0  0  0  0  0  0  0  # atno 10764 bound_to 10752
  154.4447  135.2851  155.1800 H   0  0  0  0  0  0  0  0  0  0  0  0  # atno 10765 bound_to 10752
  141.0301  133.6824  156.2565 H   0  0  0  0  0  0  0  0  0  0  0  0  # atno 11005 bound_to 11000
  144.7676  140.5566  143.6692 LP  0  0  0  0  0  0  0  0  0  0  0  0  # atno 17320 bound_to 7965
  145.5291  139.1475  143.3509 LP  0  0  0  0  0  0  0  0  0  0  0  0  # atno 17321 bound_to 7965
  140.7185  143.2566  151.4357 LP  0  0  0  0  0  0  0  0  0  0  0  0  # atno 17342 bound_to 10162
  139.5911  144.1498  152.2089 LP  0  0  0  0  0  0  0  0  0  0  0  0  # atno 17343 bound_to 10162
  157.0255  130.9992  151.3327 LP  0  0  0  0  0  0  0  0  0  0  0  0  # atno 17370 bound_to 10713
  157.5314  130.8061  149.7922 LP  0  0  0  0  0  0  0  0  0  0  0  0  # atno 17371 bound_to 10713
  140.6422  134.5154  157.5570 LP  0  0  0  0  0  0  0  0  0  0  0  0  # atno 17394 bound_to 11000
  139.9202  134.8165  156.1236 LP  0  0  0  0  0  0  0  0  0  0  0  0  # atno 17395 bound_to 11000

$$$$
