#       Name:                AV-unprocessed.smi:1866
#       Creating user name   scv26
#       Creation time:       Fri Mar 27 09:27:34 2020


#       File generated by GOLD software.
#

@<TRIPOS>MOLECULE
AV-unprocessed.smi:1866
    36    37     1
SMALL
NO_CHARGES


@<TRIPOS>ATOM
      1 ****        -6.5665   1.8906  -0.5932 C.3            1 S1                 0.0000
      2 ****        -5.1962   1.3275  -0.4293 C.2            1 S1                 0.0000
      3 ****        -4.9346   0.0172  -0.5120 N.2            1 S1                 0.0000
      4 ****        -3.5884  -0.2634  -0.3238 N.2            1 S1                 0.0000
      5 ****        -2.8720   0.8480  -0.1048 C.2            1 S1                 0.0000
      6 ****        -1.4698   0.8523   0.1191 N.am           1 S1                 0.0000
      7 ****        -0.6305  -0.1968   0.1715 C.2            1 S1                 0.0000
      8 ****        -0.9548  -1.3766   0.0338 O.2            1 S1                 0.0000
      9 ****         0.6293   0.2026   0.3972 N.am           1 S1                 0.0000
     10 ****         1.7852  -0.6787   0.5503 C.3            1 S1                 0.0000
     11 ****         2.3239  -1.1274  -0.8217 C.3            1 S1                 0.0000
     12 ****         3.6516  -1.8724  -0.6557 C.3            1 S1                 0.0000
     13 ****         4.6818  -0.9816   0.0569 C.3            1 S1                 0.0000
     14 ****         4.1394  -0.3002   1.2331 N.am           1 S1                 0.0000
     15 ****         2.8404  -0.0610   1.4856 C.2            1 S1                 0.0000
     16 ****         2.4905   0.6018   2.4610 O.2            1 S1                 0.0000
     17 ****        -3.7936   2.3419  -0.1142 S.3            1 S1                 0.0000
     18 ****        -7.3093   1.0930  -0.6295 H              1 S1                 0.0000
     19 ****        -6.6243   2.4653  -1.5176 H              1 S1                 0.0000
     20 ****        -6.8021   2.5479   0.2439 H              1 S1                 0.0000
     21 ****        -1.0572   1.7627   0.2584 H              1 S1                 0.0000
     22 ****         0.8028   1.1915   0.5025 H              1 S1                 0.0000
     23 ****         1.4537  -1.5756   1.0774 H              1 S1                 0.0000
     24 ****         1.5986  -1.7695  -1.3226 H              1 S1                 0.0000
     25 ****         2.4721  -0.2609  -1.4678 H              1 S1                 0.0000
     26 ****         3.4874  -2.7807  -0.0743 H              1 S1                 0.0000
     27 ****         4.0354  -2.1893  -1.6257 H              1 S1                 0.0000
     28 ****         5.5494  -1.5714   0.3528 H              1 S1                 0.0000
     29 ****         5.0433  -0.2172  -0.6319 H              1 S1                 0.0000
     30 ****         4.8138   0.0803   1.8814 H              1 S1                 0.0000
     31 ****        -5.6296  -0.6797  -0.6891 LP             1 S1                 0.0000
     32 ****        -3.1996  -1.1844  -0.3487 LP             1 S1                 0.0000
     33 ****        -1.9114  -1.6161  -0.1323 LP             1 S1                 0.0000
     34 ****        -0.2616  -2.0953   0.0880 LP             1 S1                 0.0000
     35 ****         1.5181   0.7407   2.6483 LP             1 S1                 0.0000
     36 ****         3.1785   1.0017   3.0666 LP             1 S1                 0.0000
@<TRIPOS>BOND
    1    1    2 1     
    2    1   18 1     
    3    1   19 1     
    4    1   20 1     
    5    2   17 1     
    6    2    3 2     
    7    3    4 1     
    8    4    5 2     
    9    5    6 1     
   10    5   17 1     
   11    6    7 am    
   12    6   21 1     
   13    7    8 2     
   14    7    9 am    
   15    9   10 1     
   16    9   22 1     
   17   10   15 1     
   18   10   11 1     
   19   10   23 1     
   20   11   12 1     
   21   11   24 1     
   22   11   25 1     
   23   12   13 1     
   24   12   26 1     
   25   12   27 1     
   26   13   14 1     
   27   13   28 1     
   28   13   29 1     
   29   14   15 am    
   30   14   30 1     
   31   15   16 2     
   32    3   31 1     
   33    4   32 1     
   34    8   33 1     
   35    8   34 1     
   36   16   35 1     
   37   16   36 1     
@<TRIPOS>SUBSTRUCTURE
      1 S1             1
@<TRIPOS>SET
LONE_PAIRS      STATIC     ATOMS    <user>   **** ""
6 31 32 33 34 35 36
DONOR_HYDROGENS      STATIC     ATOMS    <user>   **** ""
3 21 22 30
ATOM$BLUE        STATIC     ATOMS    COLORGROUP SYSTEM
6 31 32 33 34 35 36
ATOM$RED        STATIC     ATOMS    COLORGROUP SYSTEM
3 21 22 30
