AV-unprocessed.smi:674|AV-procd|sdf|3300|dock3
  -GOLD-   22720 0263D 1   1.00000     0.00000
 Structure written by MMmdl.
 47 48  0  0  0  0  0  0  0  0  1 V2000
  145.3446  130.4302  151.8869 C   0  0  0  0  0  0  0  0  0  0  0  0
  146.4347  129.8819  152.8149 C   0  0  0  0  0  0  0  0  0  0  0  0
  147.4034  130.9492  153.2412 C   0  0  0  0  0  0  0  0  0  0  0  0
  147.3416  132.3461  152.9656 C   0  0  0  0  0  0  0  0  0  0  0  0
  148.4642  132.8265  153.5827 C   0  0  0  0  0  0  0  0  0  0  0  0
  148.9217  134.1055  153.6422 N   0  0  0  0  0  0  0  0  0  0  0  0
  149.4564  134.7597  154.6879 C   0  0  0  0  0  0  0  0  0  0  0  0
  149.6704  134.2778  155.8006 O   0  0  0  0  0  0  0  0  0  0  0  0
  149.7376  136.0302  154.3697 N   0  0  0  0  0  0  0  0  0  0  0  0
  150.3188  137.0005  155.2913 C   0  0  1  0  0  0  0  0  0  0  0  0
  151.4551  137.8032  154.6617 C   0  0  0  0  0  0  0  0  0  0  0  0
  150.9395  139.0035  155.4770 C   0  0  1  0  0  0  0  0  0  0  0  0
  151.5853  139.2752  156.8445 C   0  0  0  0  0  0  0  0  0  0  0  0
  150.9036  140.2074  154.7087 O   0  0  0  0  0  0  0  0  0  0  0  0
  150.2143  141.3066  155.2901 C   0  0  0  0  0  0  0  0  0  0  0  0
  149.5299  138.3285  155.4274 C   0  0  0  0  0  0  0  0  0  0  0  0
  148.6285  138.7265  154.2412 C   0  0  0  0  0  0  0  0  0  0  0  0
  148.6567  138.4619  156.6792 C   0  0  0  0  0  0  0  0  0  0  0  0
  149.1323  131.7745  154.1718 N   0  0  0  0  0  0  0  0  0  0  0  0
  150.3623  131.7592  154.9401 C   0  0  0  0  0  0  0  0  0  0  0  0
  148.4710  130.6168  153.9593 N   0  0  0  0  0  0  0  0  0  0  0  0
  144.6476  129.6433  151.5984 H   0  0  0  0  0  0  0  0  0  0  0  0
  145.7745  130.8445  150.9745 H   0  0  0  0  0  0  0  0  0  0  0  0
  144.7724  131.2190  152.3761 H   0  0  0  0  0  0  0  0  0  0  0  0
  145.9678  129.4351  153.6932 H   0  0  0  0  0  0  0  0  0  0  0  0
  146.9665  129.0730  152.3125 H   0  0  0  0  0  0  0  0  0  0  0  0
  146.5917  132.8828  152.4044 H   0  0  0  0  0  0  0  0  0  0  0  0
  148.8355  134.6328  152.7861 H   0  0  0  0  0  0  0  0  0  0  0  0
  149.5313  136.3507  153.4349 H   0  0  0  0  0  0  0  0  0  0  0  0
  150.6093  136.5745  156.2541 H   0  0  0  0  0  0  0  0  0  0  0  0
  152.4539  137.4608  154.9338 H   0  0  0  0  0  0  0  0  0  0  0  0
  151.3577  137.9311  153.5818 H   0  0  0  0  0  0  0  0  0  0  0  0
  151.5066  138.4154  157.5095 H   0  0  0  0  0  0  0  0  0  0  0  0
  151.1116  140.1197  157.3453 H   0  0  0  0  0  0  0  0  0  0  0  0
  152.6485  139.4962  156.7556 H   0  0  0  0  0  0  0  0  0  0  0  0
  150.3316  142.1797  154.6486 H   0  0  0  0  0  0  0  0  0  0  0  0
  150.6113  141.5643  156.2719 H   0  0  0  0  0  0  0  0  0  0  0  0
  149.1455  141.1156  155.3824 H   0  0  0  0  0  0  0  0  0  0  0  0
  148.2657  139.7498  154.3432 H   0  0  0  0  0  0  0  0  0  0  0  0
  147.7525  138.0815  154.1658 H   0  0  0  0  0  0  0  0  0  0  0  0
  149.1504  138.6674  153.2860 H   0  0  0  0  0  0  0  0  0  0  0  0
  148.3973  139.5027  156.8745 H   0  0  0  0  0  0  0  0  0  0  0  0
  149.1560  138.0782  157.5687 H   0  0  0  0  0  0  0  0  0  0  0  0
  147.7251  137.9035  156.5804 H   0  0  0  0  0  0  0  0  0  0  0  0
  150.8685  132.7222  154.8765 H   0  0  0  0  0  0  0  0  0  0  0  0
  151.0297  130.9879  154.5541 H   0  0  0  0  0  0  0  0  0  0  0  0
  150.1371  131.5463  155.9854 H   0  0  0  0  0  0  0  0  0  0  0  0
  1  2  1  0  0  0  0
  1 22  1  0  0  0  0
  1 23  1  0  0  0  0
  1 24  1  0  0  0  0
  2  3  1  0  0  0  0
  2 25  1  0  0  0  0
  2 26  1  0  0  0  0
  3 21  2  0  0  0  0
  3  4  1  0  0  0  0
  4  5  2  0  0  0  0
  4 27  1  0  0  0  0
  5  6  1  0  0  0  0
  5 19  1  0  0  0  0
  6  7  1  0  0  0  0
  6 28  1  0  0  0  0
  7  8  2  0  0  0  0
  7  9  1  0  0  0  0
  9 10  1  0  0  0  0
  9 29  1  0  0  0  0
 10 16  1  0  0  0  0
 10 11  1  0  0  0  0
 10 30  1  0  0  0  0
 11 12  1  0  0  0  0
 11 31  1  0  0  0  0
 11 32  1  0  0  0  0
 12 13  1  0  0  0  0
 12 14  1  0  0  0  0
 12 16  1  0  0  0  0
 13 33  1  0  0  0  0
 13 34  1  0  0  0  0
 13 35  1  0  0  0  0
 14 15  1  0  0  0  0
 15 36  1  0  0  0  0
 15 37  1  0  0  0  0
 15 38  1  0  0  0  0
 16 17  1  0  0  0  0
 16 18  1  0  0  0  0
 17 39  1  0  0  0  0
 17 40  1  0  0  0  0
 17 41  1  0  0  0  0
 18 42  1  0  0  0  0
 18 43  1  0  0  0  0
 18 44  1  0  0  0  0
 19 20  1  0  0  0  0
 19 21  1  0  0  0  0
 20 45  1  0  0  0  0
 20 46  1  0  0  0  0
 20 47  1  0  0  0  0
M  END
> <s_m_source_file>
AV-unprocessed.smi

> <i_m_source_file_index>
674

> <i_lp_mmshare_version>
43012

> <i_f3d_flags>
0

> <s_epik_input>
W0NIM11bQ0gyXWMxW2NIXWMobihuMSlbQ0gzXSlbTkhdQyg9TylbTkhdW0NAQEhdKEMyKFtDSDNdKVtDSDNdKVtDSDJdW0NAQF0yKFtDSDNdKU9bQ0gzXQ==

> <s_epik_cmdline>
J2VwaWtfcHl0aG9uJywgJy1waCcsICc3LjAnLCAnLXRuJywgJzgnLCAnLW1hJywgJzIwMCcsICctbWV0YWxfYmluZGluZycsICctaW1hZScsICc8aW5maWxlLm1hZT4nLCAnLW9tYWUnLCAnPG91dGZpbGUubWFlPic=

> <r_lp_tautomer_probability>
1

> <r_epik_Ionization_Penalty>
0.000101626

> <r_epik_Ionization_Penalty_Charging>
0

> <r_epik_Ionization_Penalty_Neutral>
0.000101626

> <r_epik_State_Penalty>
-0

> <r_epik_Charging_Adjusted_Penalty>
0

> <i_epik_Tot_Q>
0

> <i_epik_Tot_abs_Q>
0

> <r_epik_Metal_State_Penalty>
-0

> <b_epik_Metal_Only>
0

> <s_lp_Force_Field>
OPLS_2005

> <r_lp_Energy>
22.8754

> <b_lp_Chiralities_Consistent>
1

> <s_lp_Variant>
AV-unprocessed.smi:674-2

> <Gold.Version>
5.8.1

> <Gold.Id.Protein>
6NUR|6NUR_protein|mol2

> <Gold.PLP.Fitness>
40.4196

> <Gold.PLP.PLP>
-33.1907

> <Gold.PLP.part.hbond>
-3.2568

> <Gold.PLP.part.metal>
0.0000

> <Gold.PLP.part.buried>
-3.0931

> <Gold.PLP.part.nonpolar>
-26.3784

> <Gold.PLP.part.repulsive>
0.2094

> <Gold.PLP.ligand.clash>
0.0000

> <Gold.PLP.ligand.torsion>
0.5522

> <Gold.PLP.Chemscore.Hbond>
2.6500

> <Gold.PLP.Chemscore.CHOScore>
0.0000

> <Gold.PLP.Chemscore.Metal>
0.0000

> <Gold.Chemscore.Hbonds>
donor molecule, donor type, donor heavy atom, donor atom, acceptor molecule, acceptor atom, score
      L1  H     6    28       P1  7948  0.60
      L1  H     9    29       P1  7948  1.00
      P1  H  7989  7998       L1    14  1.00

> <Gold.PLP.Chemscore.Internal.Correction>
0.3833

> <Gold.Rescore>
     Score         DG    S(hbond)    S(metal)    S(lipo)     H(rot)  DE(clash)    DE(int)     intcor
     13.00     -15.83       1.81        0.00      66.54       1.37       0.19       2.64       ----

> <Gold.Chemscore.Fitness>
13.0004

> <Gold.Chemscore.DG>
-15.8268

> <Gold.Chemscore.ZeroCoef>
-5.4800

> <Gold.Chemscore.Hbond>
1.8136

> <Gold.Chemscore.Metal>
0.0000

> <Gold.Chemscore.Lipo>
66.5435

> <Gold.Chemscore.Internal_Hbond>
0.0000

> <Gold.Chemscore.DEClash>
0.1904

> <Gold.Chemscore.DEInternal>
2.6360

> <Gold.Chemscore.Rot>
1.3658

> <Gold.Chemscore.Internal.Correction>
   9.000000E+99

> <Gold.Chemscore.Hbonds>
donor molecule, donor type, donor heavy atom, donor atom, acceptor molecule, acceptor atom, score
      L1  H     6    28       P1  7948  0.04
      L1  H     9    29       P1  7948  0.54
      P1  H  7989  7998       L1    14  0.33

> <Gold.Chemscore.Hbond.Weighted>
-6.0576

> <Gold.Chemscore.Metal.Weighted>
-0.0000

> <Gold.Chemscore.Lipo.Weighted>
-7.7856

> <Gold.Chemscore.Internal_Hbond.Weighted>
0.0000

> <Gold.Chemscore.DEClash.Weighted>
0.1904

> <Gold.Chemscore.DEInternal.Weighted>
2.6360

> <Gold.Chemscore.Rot.Weighted>
3.4963

> <Gold.Chemscore.Internal.Correction.Weighted>
   9.000000E+99

> <Gold.Protein.RotatedTorsions>
[ 6907 6896 6895 6894 ] final  -78.94 input  -60.11 | X-H torsion
[ 7974 7965 7964 7962 ] final  -82.35 input  175.53 | X-H torsion
[ 8008 7997 7996 7995 ] final  126.83 input   59.86 | X-H torsion
[ 10167 10162 10161 10158 ] final  157.08 input  -65.29 | X-H torsion
[ 10718 10713 10712 10709 ] final   14.78 input   66.30 | X-H torsion
[ 10763 10752 10751 10750 ] final   90.81 input  -60.55 | X-H torsion
[ 11005 11000 10999 10996 ] final  131.90 input  -57.11 | X-H torsion

> <Gold.Protein.ActiveResidues>
 VAL166  LYS551  ARG553  GLY616  TRP617  ASP618  TYR619  PRO620  LYS621  CYS622 
 ASP623  PHE694  ASN695  SER759  ASP760  ASP761  ALA762  ILE779  LEU786  VAL792 
 PHE793  MET794  SER795  GLU796  ALA797  LYS798  CYS799  TRP800  GLU811  SER814 

> <Gold.Protein.RotatedAtoms>
  150.6961  134.4196  159.5198 H   0  0  0  0  0  0  0  0  0  0  0  0  # atno 6907 bound_to 6896
  152.1941  134.8643  160.0524 H   0  0  0  0  0  0  0  0  0  0  0  0  # atno 6908 bound_to 6896
  151.9587  133.3653  159.4064 H   0  0  0  0  0  0  0  0  0  0  0  0  # atno 6909 bound_to 6896
  145.5345  140.9517  143.1585 H   0  0  0  0  0  0  0  0  0  0  0  0  # atno 7974 bound_to 7965
  156.2875  140.2683  156.2175 H   0  0  0  0  0  0  0  0  0  0  0  0  # atno 8008 bound_to 7997
  155.0201  140.0386  157.2452 H   0  0  0  0  0  0  0  0  0  0  0  0  # atno 8009 bound_to 7997
  154.7443  140.2731  155.6352 H   0  0  0  0  0  0  0  0  0  0  0  0  # atno 8010 bound_to 7997
  139.4822  144.4950  151.8252 H   0  0  0  0  0  0  0  0  0  0  0  0  # atno 10167 bound_to 10162
  157.0441  130.6243  149.5756 H   0  0  0  0  0  0  0  0  0  0  0  0  # atno 10718 bound_to 10713
  153.2015  135.4420  155.0272 H   0  0  0  0  0  0  0  0  0  0  0  0  # atno 10763 bound_to 10752
  154.8149  135.3311  154.7205 H   0  0  0  0  0  0  0  0  0  0  0  0  # atno 10764 bound_to 10752
  153.7650  135.6989  153.4973 H   0  0  0  0  0  0  0  0  0  0  0  0  # atno 10765 bound_to 10752
  139.9758  134.9564  156.9505 H   0  0  0  0  0  0  0  0  0  0  0  0  # atno 11005 bound_to 11000
  144.7608  139.6960  143.7235 LP  0  0  0  0  0  0  0  0  0  0  0  0  # atno 17320 bound_to 7965
  146.2022  139.5324  142.9736 LP  0  0  0  0  0  0  0  0  0  0  0  0  # atno 17321 bound_to 7965
  140.4438  144.1950  150.5893 LP  0  0  0  0  0  0  0  0  0  0  0  0  # atno 17342 bound_to 10162
  140.4656  143.2432  151.9160 LP  0  0  0  0  0  0  0  0  0  0  0  0  # atno 17343 bound_to 10162
  156.0028  130.5111  150.7726 LP  0  0  0  0  0  0  0  0  0  0  0  0  # atno 17370 bound_to 10713
  157.5082  131.0923  151.0231 LP  0  0  0  0  0  0  0  0  0  0  0  0  # atno 17371 bound_to 10713
  140.5198  134.0919  155.7289 LP  0  0  0  0  0  0  0  0  0  0  0  0  # atno 17394 bound_to 11000
  141.1435  133.9096  157.2270 LP  0  0  0  0  0  0  0  0  0  0  0  0  # atno 17395 bound_to 11000

$$$$
