AV-unprocessed.smi:1700|AV-procd|sdf|6820|dock10
  -GOLD-   22720 7593D 1   1.00000     0.00000
 Structure written by MMmdl.
 34 35  0  0  0  0  0  0  0  0  1 V2000
  146.9176  142.6954  154.0937 C   0  0  0  0  0  0  0  0  0  0  0  0
  147.4994  141.2955  153.9807 C   0  0  0  0  0  0  0  0  0  0  0  0
  146.7713  140.2995  153.2959 C   0  0  0  0  0  0  0  0  0  0  0  0
  147.3102  139.0058  153.1911 C   0  0  0  0  0  0  0  0  0  0  0  0
  148.5629  138.7617  153.7793 C   0  0  0  0  0  0  0  0  0  0  0  0
  149.2651  139.7074  154.4361 N   0  0  0  0  0  0  0  0  0  0  0  0
  148.7590  140.9614  154.5470 C   0  0  0  0  0  0  0  0  0  0  0  0
  149.4434  142.0082  155.2277 N   0  0  0  0  0  0  0  0  0  0  0  0
  150.5423  141.9271  155.9987 C   0  0  0  0  0  0  0  0  0  0  0  0
  151.1681  140.8954  156.2444 O   0  0  0  0  0  0  0  0  0  0  0  0
  150.8854  143.1300  156.4813 N   0  0  0  0  0  0  0  0  0  0  0  0
  152.0189  143.3843  157.3630 C   0  0  0  0  0  0  0  0  0  0  0  0
  151.5611  143.8513  158.7543 C   0  0  1  0  0  0  0  0  0  0  0  0
  152.6166  143.6691  159.8408 C   0  0  0  0  0  0  0  0  0  0  0  0
  152.1464  144.6549  160.8864 C   0  0  0  0  0  0  0  0  0  0  0  0
  151.6083  145.8046  160.0356 C   0  0  0  0  0  0  0  0  0  0  0  0
  151.3025  145.2517  158.7570 O   0  0  0  0  0  0  0  0  0  0  0  0
  145.9458  142.7624  153.6038 H   0  0  0  0  0  0  0  0  0  0  0  0
  147.5804  143.4234  153.6251 H   0  0  0  0  0  0  0  0  0  0  0  0
  146.7842  142.9701  155.1404 H   0  0  0  0  0  0  0  0  0  0  0  0
  145.8108  140.5209  152.8546 H   0  0  0  0  0  0  0  0  0  0  0  0
  146.7776  138.2217  152.6736 H   0  0  0  0  0  0  0  0  0  0  0  0
  149.0139  137.7820  153.7217 H   0  0  0  0  0  0  0  0  0  0  0  0
  149.0440  142.9279  155.1168 H   0  0  0  0  0  0  0  0  0  0  0  0
  150.3152  143.9256  156.2341 H   0  0  0  0  0  0  0  0  0  0  0  0
  152.6289  142.4834  157.4492 H   0  0  0  0  0  0  0  0  0  0  0  0
  152.6515  144.1430  156.9017 H   0  0  0  0  0  0  0  0  0  0  0  0
  150.6490  143.3331  159.0558 H   0  0  0  0  0  0  0  0  0  0  0  0
  152.6716  142.6454  160.2121 H   0  0  0  0  0  0  0  0  0  0  0  0
  153.6029  143.9555  159.4727 H   0  0  0  0  0  0  0  0  0  0  0  0
  151.3393  144.2147  161.4736 H   0  0  0  0  0  0  0  0  0  0  0  0
  152.9367  144.9642  161.5711 H   0  0  0  0  0  0  0  0  0  0  0  0
  150.7277  146.2639  160.4851 H   0  0  0  0  0  0  0  0  0  0  0  0
  152.3652  146.5789  159.9070 H   0  0  0  0  0  0  0  0  0  0  0  0
  1  2  1  0  0  0  0
  1 18  1  0  0  0  0
  1 19  1  0  0  0  0
  1 20  1  0  0  0  0
  2  7  1  0  0  0  0
  2  3  2  0  0  0  0
  3  4  1  0  0  0  0
  3 21  1  0  0  0  0
  4  5  2  0  0  0  0
  4 22  1  0  0  0  0
  5  6  1  0  0  0  0
  5 23  1  0  0  0  0
  6  7  2  0  0  0  0
  7  8  1  0  0  0  0
  8  9  1  0  0  0  0
  8 24  1  0  0  0  0
  9 10  2  0  0  0  0
  9 11  1  0  0  0  0
 11 12  1  0  0  0  0
 11 25  1  0  0  0  0
 12 13  1  0  0  0  0
 12 26  1  0  0  0  0
 12 27  1  0  0  0  0
 13 17  1  0  0  0  0
 13 14  1  0  0  0  0
 13 28  1  0  0  0  0
 14 15  1  0  0  0  0
 14 29  1  0  0  0  0
 14 30  1  0  0  0  0
 15 16  1  0  0  0  0
 15 31  1  0  0  0  0
 15 32  1  0  0  0  0
 16 17  1  0  0  0  0
 16 33  1  0  0  0  0
 16 34  1  0  0  0  0
M  END
> <s_m_source_file>
AV-unprocessed.smi

> <i_m_source_file_index>
1700

> <i_lp_mmshare_version>
43012

> <i_f3d_flags>
0

> <s_epik_input>
W0NIM11jMVtjSF1bY0hdW2NIXW5jMVtOSF1DKD1PKVtOSF1bQ0gyXVtDQEBIXTJbQ0gyXVtDSDJdW0NIMl1PMg==

> <s_epik_cmdline>
J2VwaWtfcHl0aG9uJywgJy1waCcsICc3LjAnLCAnLXRuJywgJzgnLCAnLW1hJywgJzIwMCcsICctbWV0YWxfYmluZGluZycsICctaW1hZScsICc8aW5maWxlLm1hZT4nLCAnLW9tYWUnLCAnPG91dGZpbGUubWFlPic=

> <r_lp_tautomer_probability>
1

> <r_epik_Ionization_Penalty>
5.57253e-05

> <r_epik_Ionization_Penalty_Charging>
0

> <r_epik_Ionization_Penalty_Neutral>
5.57253e-05

> <r_epik_State_Penalty>
-0

> <r_epik_Charging_Adjusted_Penalty>
0

> <i_epik_Tot_Q>
0

> <i_epik_Tot_abs_Q>
0

> <r_epik_Metal_State_Penalty>
-0

> <b_epik_Metal_Only>
0

> <s_lp_Force_Field>
OPLS_2005

> <r_lp_Energy>
19.2835

> <b_lp_Chiralities_Consistent>
1

> <s_lp_Variant>
AV-unprocessed.smi:1700-2

> <Gold.Version>
5.8.1

> <Gold.Id.Protein>
6NUR|6NUR_protein|mol2

> <Gold.PLP.Fitness>
43.5586

> <Gold.PLP.PLP>
-35.0992

> <Gold.PLP.part.hbond>
-2.0000

> <Gold.PLP.part.metal>
0.0000

> <Gold.PLP.part.buried>
-3.4737

> <Gold.PLP.part.nonpolar>
-30.6200

> <Gold.PLP.part.repulsive>
0.5267

> <Gold.PLP.ligand.clash>
0.0000

> <Gold.PLP.ligand.torsion>
0.2601

> <Gold.PLP.Chemscore.Hbond>
2.0000

> <Gold.PLP.Chemscore.CHOScore>
0.9918

> <Gold.PLP.Chemscore.Metal>
0.0000

> <Gold.Chemscore.Hbonds>
donor molecule, donor type, donor heavy atom, donor atom, acceptor molecule, acceptor atom, score
      L1  H     8    24       P1  8028  1.00
      L1  H    11    25       P1  8028  1.00
      L1  C     5    23       P1  7948  0.96

> <Gold.PLP.Chemscore.Internal.Correction>
0.0043

> <Gold.Rescore>
     Score         DG    S(hbond)    S(metal)    S(lipo)     H(rot)  DE(clash)    DE(int)     intcor
     16.96     -19.02       1.97        0.00      86.56       1.23       0.66       1.41       ----

> <Gold.Chemscore.Fitness>
16.9553

> <Gold.Chemscore.DG>
-19.0244

> <Gold.Chemscore.ZeroCoef>
-5.4800

> <Gold.Chemscore.Hbond>
1.9684

> <Gold.Chemscore.Metal>
0.0000

> <Gold.Chemscore.Lipo>
86.5648

> <Gold.Chemscore.Internal_Hbond>
0.0000

> <Gold.Chemscore.DEClash>
0.6558

> <Gold.Chemscore.DEInternal>
1.4133

> <Gold.Chemscore.Rot>
1.2337

> <Gold.Chemscore.Internal.Correction>
   9.000000E+99

> <Gold.Chemscore.Hbonds>
donor molecule, donor type, donor heavy atom, donor atom, acceptor molecule, acceptor atom, score
      L1  H     8    24       P1  8028  0.96
      L1  H    11    25       P1  8028  0.99

> <Gold.Chemscore.Hbond.Weighted>
-6.5745

> <Gold.Chemscore.Metal.Weighted>
-0.0000

> <Gold.Chemscore.Lipo.Weighted>
-10.1281

> <Gold.Chemscore.Internal_Hbond.Weighted>
0.0000

> <Gold.Chemscore.DEClash.Weighted>
0.6558

> <Gold.Chemscore.DEInternal.Weighted>
1.4133

> <Gold.Chemscore.Rot.Weighted>
3.1582

> <Gold.Chemscore.Internal.Correction.Weighted>
   9.000000E+99

> <Gold.Protein.RotatedTorsions>
[ 6907 6896 6895 6894 ] final   35.31 input  -60.11 | X-H torsion
[ 7974 7965 7964 7962 ] final   38.84 input  175.53 | X-H torsion
[ 8008 7997 7996 7995 ] final  -23.81 input   59.86 | X-H torsion
[ 10167 10162 10161 10158 ] final   43.83 input  -65.29 | X-H torsion
[ 10718 10713 10712 10709 ] final  -19.20 input   66.30 | X-H torsion
[ 10763 10752 10751 10750 ] final  -31.21 input  -60.55 | X-H torsion
[ 11005 11000 10999 10996 ] final  -69.40 input  -57.11 | X-H torsion

> <Gold.Protein.ActiveResidues>
 VAL166  LYS551  ARG553  GLY616  TRP617  ASP618  TYR619  PRO620  LYS621  CYS622 
 ASP623  PHE694  ASN695  SER759  ASP760  ASP761  ALA762  ILE779  LEU786  VAL792 
 PHE793  MET794  SER795  GLU796  ALA797  LYS798  CYS799  TRP800  GLU811  SER814 

> <Gold.Protein.RotatedAtoms>
  152.1144  134.9251  160.0565 H   0  0  0  0  0  0  0  0  0  0  0  0  # atno 6907 bound_to 6896
  152.0416  133.3975  159.4347 H   0  0  0  0  0  0  0  0  0  0  0  0  # atno 6908 bound_to 6896
  150.6845  134.3330  159.4878 H   0  0  0  0  0  0  0  0  0  0  0  0  # atno 6909 bound_to 6896
  146.1031  139.5724  142.9401 H   0  0  0  0  0  0  0  0  0  0  0  0  # atno 7974 bound_to 7965
  154.4564  140.1970  156.0368 H   0  0  0  0  0  0  0  0  0  0  0  0  # atno 8008 bound_to 7997
  156.0754  140.3279  155.7599 H   0  0  0  0  0  0  0  0  0  0  0  0  # atno 8009 bound_to 7997
  155.5197  140.0568  157.2900 H   0  0  0  0  0  0  0  0  0  0  0  0  # atno 8010 bound_to 7997
  140.3404  144.2477  150.6156 H   0  0  0  0  0  0  0  0  0  0  0  0  # atno 10167 bound_to 10162
  156.5490  130.4697  149.6461 H   0  0  0  0  0  0  0  0  0  0  0  0  # atno 10718 bound_to 10713
  153.7935  135.6896  153.4867 H   0  0  0  0  0  0  0  0  0  0  0  0  # atno 10763 bound_to 10752
  153.1734  135.4534  154.9931 H   0  0  0  0  0  0  0  0  0  0  0  0  # atno 10764 bound_to 10752
  154.8035  135.3347  154.7430 H   0  0  0  0  0  0  0  0  0  0  0  0  # atno 10765 bound_to 10752
  141.1553  133.6763  156.6593 H   0  0  0  0  0  0  0  0  0  0  0  0  # atno 11005 bound_to 11000
  145.5815  141.0382  143.2119 LP  0  0  0  0  0  0  0  0  0  0  0  0  # atno 17320 bound_to 7965
  144.7448  139.7349  143.7296 LP  0  0  0  0  0  0  0  0  0  0  0  0  # atno 17321 bound_to 7965
  140.5314  143.2242  151.8232 LP  0  0  0  0  0  0  0  0  0  0  0  0  # atno 17342 bound_to 10162
  139.4841  144.4715  151.9419 LP  0  0  0  0  0  0  0  0  0  0  0  0  # atno 17343 bound_to 10162
  156.2902  130.7120  151.1966 LP  0  0  0  0  0  0  0  0  0  0  0  0  # atno 17370 bound_to 10713
  157.7391  131.0533  150.5252 LP  0  0  0  0  0  0  0  0  0  0  0  0  # atno 17371 bound_to 10713
  140.3259  134.7969  157.4289 LP  0  0  0  0  0  0  0  0  0  0  0  0  # atno 17394 bound_to 11000
  140.1057  134.5413  155.8312 LP  0  0  0  0  0  0  0  0  0  0  0  0  # atno 17395 bound_to 11000

$$$$
