AV-unprocessed.smi:3187|AV-procd|sdf|12177|dock8
  -GOLD-   2272018 13D 1   1.00000     0.00000
 Structure written by MMmdl.
 41 42  0  0  0  0  0  0  0  0  2 V2000
  153.8338  140.3922  160.4388 C   0  0  0  0  0  0  0  0  0  0  0  0
  153.0665  141.6981  160.3121 C   0  0  0  0  0  0  0  0  0  0  0  0
  153.0168  142.5467  161.3568 C   0  0  0  0  0  0  0  0  0  0  0  0
  152.3494  143.9021  161.3238 C   0  0  0  0  0  0  0  0  0  0  0  0
  152.1829  144.3982  159.8856 C   0  0  0  0  0  0  0  0  0  0  0  0
  151.5489  143.3217  158.9896 C   0  0  1  0  0  0  0  0  0  0  0  0
  151.3118  143.9035  157.5823 C   0  0  0  0  0  0  0  0  0  0  0  0
  152.3887  142.0071  158.9608 C   0  0  2  0  0  0  0  0  0  0  0  0
  151.5220  140.8297  158.4400 C   0  0  0  0  0  0  0  0  0  0  0  0
  151.1776  140.9584  157.0088 N   0  3  0  0  0  0  0  0  0  0  0  0
  150.3940  139.8295  156.4720 C   0  0  0  0  0  0  0  0  0  0  0  0
  150.3589  139.8655  154.9384 C   0  0  0  0  0  0  0  0  0  0  0  0
  149.0480  140.2367  154.4459 N   0  0  0  0  0  0  0  0  0  0  0  0
  148.1453  139.4245  153.7719 C   0  0  0  0  0  0  0  0  0  0  0  0
  147.0395  140.2009  153.5078 C   0  0  0  0  0  0  0  0  0  0  0  0
  147.2383  141.4852  154.0093 N   0  0  0  0  0  0  0  0  0  0  0  0
  148.4490  141.4311  154.5489 C   0  0  0  0  0  0  0  0  0  0  0  0
  154.5367  140.2802  159.6130 H   0  0  0  0  0  0  0  0  0  0  0  0
  153.1544  139.5403  160.4472 H   0  0  0  0  0  0  0  0  0  0  0  0
  154.4069  140.3581  161.3662 H   0  0  0  0  0  0  0  0  0  0  0  0
  153.4875  142.2791  162.2919 H   0  0  0  0  0  0  0  0  0  0  0  0
  151.3836  143.8293  161.8247 H   0  0  0  0  0  0  0  0  0  0  0  0
  152.9526  144.6121  161.8905 H   0  0  0  0  0  0  0  0  0  0  0  0
  151.5753  145.3041  159.8851 H   0  0  0  0  0  0  0  0  0  0  0  0
  153.1570  144.6806  159.4830 H   0  0  0  0  0  0  0  0  0  0  0  0
  150.5731  143.0896  159.4199 H   0  0  0  0  0  0  0  0  0  0  0  0
  152.2548  144.1372  157.0872 H   0  0  0  0  0  0  0  0  0  0  0  0
  150.7332  144.8263  157.6350 H   0  0  0  0  0  0  0  0  0  0  0  0
  150.7586  143.2236  156.9364 H   0  0  0  0  0  0  0  0  0  0  0  0
  153.2073  142.1652  158.2567 H   0  0  0  0  0  0  0  0  0  0  0  0
  152.0434  139.8863  158.6096 H   0  0  0  0  0  0  0  0  0  0  0  0
  150.5824  140.7601  158.9855 H   0  0  0  0  0  0  0  0  0  0  0  0
  150.6496  141.8098  156.8803 H   0  0  0  0  0  0  0  0  0  0  0  0
  150.8370  138.8923  156.8125 H   0  0  0  0  0  0  0  0  0  0  0  0
  149.3800  139.8727  156.8724 H   0  0  0  0  0  0  0  0  0  0  0  0
  151.0897  140.5786  154.5540 H   0  0  0  0  0  0  0  0  0  0  0  0
  150.6192  138.8894  154.5268 H   0  0  0  0  0  0  0  0  0  0  0  0
  148.3567  138.3906  153.5414 H   0  0  0  0  0  0  0  0  0  0  0  0
  146.1232  139.9362  153.0010 H   0  0  0  0  0  0  0  0  0  0  0  0
  148.9094  142.2804  155.0323 H   0  0  0  0  0  0  0  0  0  0  0  0
  152.0368  141.0290  156.4823 H   0  0  0  0  0  0  0  0  0  0  0  0
  1  2  1  0  0  0  0
  1 18  1  0  0  0  0
  1 19  1  0  0  0  0
  1 20  1  0  0  0  0
  2  8  1  0  0  0  0
  2  3  2  0  0  0  0
  3  4  1  0  0  0  0
  3 21  1  0  0  0  0
  4  5  1  0  0  0  0
  4 22  1  0  0  0  0
  4 23  1  0  0  0  0
  5  6  1  0  0  0  0
  5 24  1  0  0  0  0
  5 25  1  0  0  0  0
  6  7  1  0  0  0  0
  6  8  1  0  0  0  0
  6 26  1  0  0  0  0
  7 27  1  0  0  0  0
  7 28  1  0  0  0  0
  7 29  1  0  0  0  0
  8  9  1  0  0  0  0
  8 30  1  0  0  0  0
  9 10  1  0  0  0  0
  9 31  1  0  0  0  0
  9 32  1  0  0  0  0
 10 11  1  0  0  0  0
 10 33  1  0  0  0  0
 10 41  1  0  0  0  0
 11 12  1  0  0  0  0
 11 34  1  0  0  0  0
 11 35  1  0  0  0  0
 12 13  1  0  0  0  0
 12 36  1  0  0  0  0
 12 37  1  0  0  0  0
 13 17  1  0  0  0  0
 13 14  1  0  0  0  0
 14 15  2  0  0  0  0
 14 38  1  0  0  0  0
 15 16  1  0  0  0  0
 15 39  1  0  0  0  0
 16 17  2  0  0  0  0
 17 40  1  0  0  0  0
M  CHG  1  10   1
M  END
> <s_m_source_file>
AV-unprocessed.smi

> <i_m_source_file_index>
3187

> <i_lp_mmshare_version>
43012

> <i_f3d_flags>
0

> <s_epik_input>
W0NIM11DMT1bQ0hdW0NIMl1bQ0gyXVtDQEBIXShbQ0gzXSlbQ0BIXTFbQ0gyXVtOSF1bQ0gyXVtDSDJdbjJbY0hdW2NIXW5bY0hdMg==

> <s_epik_cmdline>
J2VwaWtfcHl0aG9uJywgJy1waCcsICc3LjAnLCAnLXRuJywgJzgnLCAnLW1hJywgJzIwMCcsICctbWV0YWxfYmluZGluZycsICctaW1hZScsICc8aW5maWxlLm1hZT4nLCAnLW9tYWUnLCAnPG91dGZpbGUubWFlPic=

> <r_lp_tautomer_probability>
1

> <r_epik_Ionization_Penalty>
0.0501625

> <r_epik_Ionization_Penalty_Charging>
0.0501625

> <r_epik_Ionization_Penalty_Neutral>
0

> <r_epik_State_Penalty>
0.0972392

> <r_epik_Charging_Adjusted_Penalty>
0.147402

> <i_epik_Tot_Q>
1

> <i_epik_Tot_abs_Q>
1

> <r_epik_Metal_State_Penalty>
0.000104376

> <b_epik_Metal_Only>
0

> <s_lp_Force_Field>
OPLS_2005

> <r_lp_Energy>
17.2086

> <b_lp_Chiralities_Consistent>
1

> <s_lp_Variant>
AV-unprocessed.smi:3187-3

> <Gold.Version>
5.8.1

> <Gold.Id.Protein>
6NUR|6NUR_protein|mol2

> <Gold.PLP.Fitness>
46.8825

> <Gold.PLP.PLP>
-41.2586

> <Gold.PLP.part.hbond>
0.0000

> <Gold.PLP.part.metal>
0.0000

> <Gold.PLP.part.buried>
-1.7766

> <Gold.PLP.part.nonpolar>
-40.4171

> <Gold.PLP.part.repulsive>
0.2468

> <Gold.PLP.ligand.clash>
0.0000

> <Gold.PLP.ligand.torsion>
0.5418

> <Gold.PLP.Chemscore.Hbond>
0.0000

> <Gold.PLP.Chemscore.CHOScore>
2.2226

> <Gold.PLP.Chemscore.Metal>
0.0000

> <Gold.Chemscore.Hbonds>
donor molecule, donor type, donor heavy atom, donor atom, acceptor molecule, acceptor atom, score
      L1  C    14    38       P1  7948  0.37
      L1  C    15    39       P1 10175  0.95
      L1  C    17    40       P1  8028  1.00

> <Gold.PLP.Chemscore.Internal.Correction>
0.0398

> <Gold.Rescore>
     Score         DG    S(hbond)    S(metal)    S(lipo)     H(rot)  DE(clash)    DE(int)     intcor
     13.18     -14.82       0.00        0.00     121.06       1.89       0.07       1.56       ----

> <Gold.Chemscore.Fitness>
13.1837

> <Gold.Chemscore.DG>
-14.8176

> <Gold.Chemscore.ZeroCoef>
-5.4800

> <Gold.Chemscore.Hbond>
0.0000

> <Gold.Chemscore.Metal>
0.0000

> <Gold.Chemscore.Lipo>
121.0582

> <Gold.Chemscore.Internal_Hbond>
0.0000

> <Gold.Chemscore.DEClash>
0.0695

> <Gold.Chemscore.DEInternal>
1.5644

> <Gold.Chemscore.Rot>
1.8853

> <Gold.Chemscore.Internal.Correction>
   9.000000E+99

> <Gold.Chemscore.Hbond.Weighted>
-0.0000

> <Gold.Chemscore.Metal.Weighted>
-0.0000

> <Gold.Chemscore.Lipo.Weighted>
-14.1638

> <Gold.Chemscore.Internal_Hbond.Weighted>
0.0000

> <Gold.Chemscore.DEClash.Weighted>
0.0695

> <Gold.Chemscore.DEInternal.Weighted>
1.5644

> <Gold.Chemscore.Rot.Weighted>
4.8263

> <Gold.Chemscore.Internal.Correction.Weighted>
   9.000000E+99

> <Gold.Protein.RotatedTorsions>
[ 6907 6896 6895 6894 ] final  -50.89 input  -60.11 | X-H torsion
[ 7974 7965 7964 7962 ] final   -7.11 input  175.53 | X-H torsion
[ 8008 7997 7996 7995 ] final  118.11 input   59.86 | X-H torsion
[ 10167 10162 10161 10158 ] final   64.33 input  -65.29 | X-H torsion
[ 10718 10713 10712 10709 ] final   38.63 input   66.30 | X-H torsion
[ 10763 10752 10751 10750 ] final   79.66 input  -60.55 | X-H torsion
[ 11005 11000 10999 10996 ] final  141.63 input  -57.11 | X-H torsion

> <Gold.Protein.ActiveResidues>
 VAL166  LYS551  ARG553  GLY616  TRP617  ASP618  TYR619  PRO620  LYS621  CYS622 
 ASP623  PHE694  ASN695  SER759  ASP760  ASP761  ALA762  ILE779  LEU786  VAL792 
 PHE793  MET794  SER795  GLU796  ALA797  LYS798  CYS799  TRP800  GLU811  SER814 

> <Gold.Protein.RotatedAtoms>
  150.8664  134.8028  159.7121 H   0  0  0  0  0  0  0  0  0  0  0  0  # atno 6907 bound_to 6896
  152.4684  134.5017  159.9736 H   0  0  0  0  0  0  0  0  0  0  0  0  # atno 6908 bound_to 6896
  151.5113  133.3446  159.2921 H   0  0  0  0  0  0  0  0  0  0  0  0  # atno 6909 bound_to 6896
  146.2315  140.2270  142.8339 H   0  0  0  0  0  0  0  0  0  0  0  0  # atno 7974 bound_to 7965
  156.2529  140.2882  156.0783 H   0  0  0  0  0  0  0  0  0  0  0  0  # atno 8008 bound_to 7997
  155.1594  140.0399  157.2856 H   0  0  0  0  0  0  0  0  0  0  0  0  # atno 8009 bound_to 7997
  154.6403  140.2520  155.7336 H   0  0  0  0  0  0  0  0  0  0  0  0  # atno 8010 bound_to 7997
  140.1233  144.4711  150.6907 H   0  0  0  0  0  0  0  0  0  0  0  0  # atno 10167 bound_to 10162
  157.3610  130.7650  149.7048 H   0  0  0  0  0  0  0  0  0  0  0  0  # atno 10718 bound_to 10713
  153.0970  135.4831  154.8797 H   0  0  0  0  0  0  0  0  0  0  0  0  # atno 10763 bound_to 10752
  154.7336  135.3066  154.8852 H   0  0  0  0  0  0  0  0  0  0  0  0  # atno 10764 bound_to 10752
  153.9481  135.6826  153.4797 H   0  0  0  0  0  0  0  0  0  0  0  0  # atno 10765 bound_to 10752
  140.0416  134.9302  157.0853 H   0  0  0  0  0  0  0  0  0  0  0  0  # atno 11005 bound_to 11000
  144.9587  140.8253  143.5527 LP  0  0  0  0  0  0  0  0  0  0  0  0  # atno 17320 bound_to 7965
  145.2239  139.2146  143.5078 LP  0  0  0  0  0  0  0  0  0  0  0  0  # atno 17321 bound_to 7965
  140.6859  143.2350  151.5261 LP  0  0  0  0  0  0  0  0  0  0  0  0  # atno 17342 bound_to 10162
  139.5557  144.2282  152.1608 LP  0  0  0  0  0  0  0  0  0  0  0  0  # atno 17343 bound_to 10162
  155.9737  130.4114  150.3977 LP  0  0  0  0  0  0  0  0  0  0  0  0  # atno 17370 bound_to 10713
  157.2055  131.0448  151.2628 LP  0  0  0  0  0  0  0  0  0  0  0  0  # atno 17371 bound_to 10713
  140.4061  134.2031  155.7163 LP  0  0  0  0  0  0  0  0  0  0  0  0  # atno 17394 bound_to 11000
  141.1886  133.8257  157.0990 LP  0  0  0  0  0  0  0  0  0  0  0  0  # atno 17395 bound_to 11000

$$$$
