#       Name:                AV-unprocessed.smi:2148
#       Creating user name   scv26
#       Creation time:       Fri Mar 27 11:52:29 2020


#       File generated by GOLD software.
#

@<TRIPOS>MOLECULE
AV-unprocessed.smi:2148
    50    51     1
SMALL
NO_CHARGES


@<TRIPOS>ATOM
      1 ****        -5.1837  -1.0304  -3.0347 C.3            1 S1                 0.0000
      2 ****        -5.5283  -2.6548  -2.3046 S.3            1 S1                 0.0000
      3 ****        -5.1157  -2.3488  -0.5604 C.3            1 S1                 0.0000
      4 ****        -5.7815  -3.4059   0.3359 C.3            1 S1                 0.0000
      5 ****        -3.5994  -2.2902  -0.3296 C.2            1 S1                 0.0000
      6 ****        -2.9585  -3.3322  -0.1890 O.2            1 S1                 0.0000
      7 ****        -3.0553  -1.0592  -0.3229 N.am           1 S1                 0.0000
      8 ****        -1.6936  -0.7040  -0.1336 C.ar           1 S1                 0.0000
      9 ****        -0.7782  -1.4651   0.6285 C.ar           1 S1                 0.0000
     10 ****         0.5430  -0.9994   0.7695 C.ar           1 S1                 0.0000
     11 ****         0.9177   0.2176   0.1535 C.ar           1 S1                 0.0000
     12 ****         2.2369   0.6997   0.2884 N.3            1 S1                 0.0000
     13 ****         2.7048   0.8580   1.6622 C.3            1 S1                 0.0000
     14 ****         4.2275   1.0900   1.6903 C.3            1 S1                 0.0000
     15 ****         4.7351   1.3942   3.1035 C.3            1 S1                 0.0000
     16 ****         4.5523   2.1962   0.8524 O.3            1 S1                 0.0000
     17 ****         4.1888   1.9746  -0.5075 C.3            1 S1                 0.0000
     18 ****         4.6684   3.1708  -1.3361 C.3            1 S1                 0.0000
     19 ****         2.6633   1.7836  -0.5935 C.3            1 S1                 0.0000
     20 ****         0.0346   0.9482  -0.5706 N.ar           1 S1                 0.0000
     21 ****        -1.2321   0.5009  -0.6993 C.ar           1 S1                 0.0000
     22 ****        -5.4414  -1.0359  -4.0938 H              1 S1                 0.0000
     23 ****        -4.1272  -0.7791  -2.9422 H              1 S1                 0.0000
     24 ****        -5.7723  -0.2569  -2.5412 H              1 S1                 0.0000
     25 ****        -5.5436  -1.3817  -0.2912 H              1 S1                 0.0000
     26 ****        -5.5240  -3.2575   1.3853 H              1 S1                 0.0000
     27 ****        -5.4808  -4.4168   0.0570 H              1 S1                 0.0000
     28 ****        -6.8675  -3.3536   0.2554 H              1 S1                 0.0000
     29 ****        -3.6768  -0.2976  -0.5538 H              1 S1                 0.0000
     30 ****        -1.0667  -2.3840   1.1154 H              1 S1                 0.0000
     31 ****         1.2527  -1.5814   1.3385 H              1 S1                 0.0000
     32 ****         2.1866   1.7068   2.1109 H              1 S1                 0.0000
     33 ****         2.4657  -0.0148   2.2688 H              1 S1                 0.0000
     34 ****         4.7407   0.2001   1.3213 H              1 S1                 0.0000
     35 ****         4.5212   0.5694   3.7835 H              1 S1                 0.0000
     36 ****         4.2646   2.2915   3.5064 H              1 S1                 0.0000
     37 ****         5.8134   1.5544   3.1037 H              1 S1                 0.0000
     38 ****         4.6929   1.0774  -0.8715 H              1 S1                 0.0000
     39 ****         4.4217   3.0416  -2.3901 H              1 S1                 0.0000
     40 ****         5.7496   3.2882  -1.2598 H              1 S1                 0.0000
     41 ****         4.2069   4.0978  -0.9946 H              1 S1                 0.0000
     42 ****         2.3816   1.5607  -1.6235 H              1 S1                 0.0000
     43 ****         2.1524   2.7038  -0.3062 H              1 S1                 0.0000
     44 ****        -1.8967   1.1249  -1.2792 H              1 S1                 0.0000
     45 ****        -3.4259  -4.2155  -0.2253 LP             1 S1                 0.0000
     46 ****        -1.9706  -3.2952  -0.0386 LP             1 S1                 0.0000
     47 ****         2.7339  -0.0840  -0.0841 LP             1 S1                 0.0000
     48 ****         5.5385   2.3554   0.8991 LP             1 S1                 0.0000
     49 ****         4.0679   3.0048   1.1863 LP             1 S1                 0.0000
     50 ****         0.3173   1.8047  -1.0024 LP             1 S1                 0.0000
@<TRIPOS>BOND
    1    1    2 1     
    2    1   22 1     
    3    1   23 1     
    4    1   24 1     
    5    2    3 1     
    6    3    4 1     
    7    3    5 1     
    8    3   25 1     
    9    4   26 1     
   10    4   27 1     
   11    4   28 1     
   12    5    6 2     
   13    5    7 am    
   14    7    8 1     
   15    7   29 1     
   16    8   21 ar    
   17    8    9 ar    
   18    9   10 ar    
   19    9   30 1     
   20   10   11 ar    
   21   10   31 1     
   22   11   12 1     
   23   11   20 ar    
   24   12   19 1     
   25   12   13 1     
   26   13   14 1     
   27   13   32 1     
   28   13   33 1     
   29   14   15 1     
   30   14   16 1     
   31   14   34 1     
   32   15   35 1     
   33   15   36 1     
   34   15   37 1     
   35   16   17 1     
   36   17   18 1     
   37   17   19 1     
   38   17   38 1     
   39   18   39 1     
   40   18   40 1     
   41   18   41 1     
   42   19   42 1     
   43   19   43 1     
   44   20   21 ar    
   45   21   44 1     
   46    6   45 1     
   47    6   46 1     
   48   12   47 1     
   49   16   48 1     
   50   16   49 1     
   51   20   50 1     
@<TRIPOS>SUBSTRUCTURE
      1 S1             1
@<TRIPOS>SET
LONE_PAIRS      STATIC     ATOMS    <user>   **** ""
6 45 46 47 48 49 50
DONOR_HYDROGENS      STATIC     ATOMS    <user>   **** ""
1 29
ATOM$BLUE        STATIC     ATOMS    COLORGROUP SYSTEM
6 45 46 47 48 49 50
ATOM$RED        STATIC     ATOMS    COLORGROUP SYSTEM
1 29
