AV-unprocessed.smi:1403|AV-procd|sdf|5700|dock9
  -GOLD-   22720 5333D 1   1.00000     0.00000
 Structure written by MMmdl.
 36 37  0  0  0  0  0  0  0  0  1 V2000
  149.9272  139.8520  158.3517 C   0  0  0  0  0  0  0  0  0  0  0  0
  150.5018  140.9493  157.4429 C   0  0  1  0  0  0  0  0  0  0  0  0
  149.5565  141.1949  156.3567 N   0  0  0  0  0  0  0  0  0  0  0  0
  149.7331  140.8524  155.0712 C   0  0  0  0  0  0  0  0  0  0  0  0
  150.7215  140.2409  154.6632 O   0  0  0  0  0  0  0  0  0  0  0  0
  148.6072  141.2548  154.1079 C   0  0  0  0  0  0  0  0  0  0  0  0
  147.4810  140.3095  154.1139 N   0  0  0  0  0  0  0  0  0  0  0  0
  147.5970  139.0774  153.4861 C   0  0  0  0  0  0  0  0  0  0  0  0
  146.5963  138.1663  153.4410 C   0  0  0  0  0  0  0  0  0  0  0  0
  145.3107  138.4493  154.0702 C   0  0  0  0  0  0  0  0  0  0  0  0
  144.3454  137.6889  154.0842 O   0  0  0  0  0  0  0  0  0  0  0  0
  145.2324  139.6995  154.6897 N   0  0  0  0  0  0  0  0  0  0  0  0
  146.2594  140.6434  154.7389 C   0  0  0  0  0  0  0  0  0  0  0  0
  146.0836  141.7194  155.3094 O   0  0  0  0  0  0  0  0  0  0  0  0
  150.7692  142.2639  158.2050 C   0  0  1  0  0  0  0  0  0  0  0  0
  151.9000  142.1924  159.2332 C   0  0  0  0  0  0  0  0  0  0  0  0
  152.3938  143.6281  159.3312 C   0  0  0  0  0  0  0  0  0  0  0  0
  151.7632  144.3244  158.1229 C   0  0  0  0  0  0  0  0  0  0  0  0
  151.2427  143.2723  157.3251 O   0  0  0  0  0  0  0  0  0  0  0  0
  144.3598  139.9412  155.1364 H   0  0  0  0  0  0  0  0  0  0  0  0
  150.6210  139.5950  159.1523 H   0  0  0  0  0  0  0  0  0  0  0  0
  149.7330  138.9394  157.7874 H   0  0  0  0  0  0  0  0  0  0  0  0
  148.9895  140.1663  158.8109 H   0  0  0  0  0  0  0  0  0  0  0  0
  151.4448  140.5799  157.0355 H   0  0  0  0  0  0  0  0  0  0  0  0
  148.7109  141.6901  156.5982 H   0  0  0  0  0  0  0  0  0  0  0  0
  148.2669  142.2541  154.3833 H   0  0  0  0  0  0  0  0  0  0  0  0
  149.0044  141.3545  153.0955 H   0  0  0  0  0  0  0  0  0  0  0  0
  148.5302  138.8264  153.0026 H   0  0  0  0  0  0  0  0  0  0  0  0
  146.7475  137.2235  152.9353 H   0  0  0  0  0  0  0  0  0  0  0  0
  149.8549  142.6184  158.6853 H   0  0  0  0  0  0  0  0  0  0  0  0
  151.5691  141.7944  160.1929 H   0  0  0  0  0  0  0  0  0  0  0  0
  152.7059  141.5556  158.8654 H   0  0  0  0  0  0  0  0  0  0  0  0
  152.0734  144.1016  160.2596 H   0  0  0  0  0  0  0  0  0  0  0  0
  153.4830  143.6659  159.2926 H   0  0  0  0  0  0  0  0  0  0  0  0
  150.9447  144.9736  158.4371 H   0  0  0  0  0  0  0  0  0  0  0  0
  152.4798  144.9257  157.5631 H   0  0  0  0  0  0  0  0  0  0  0  0
  1  2  1  0  0  0  0
  1 21  1  0  0  0  0
  1 22  1  0  0  0  0
  1 23  1  0  0  0  0
  2  3  1  0  0  0  0
  2 15  1  0  0  0  0
  2 24  1  0  0  0  0
  3  4  1  0  0  0  0
  3 25  1  0  0  0  0
  4  5  2  0  0  0  0
  4  6  1  0  0  0  0
  6  7  1  0  0  0  0
  6 26  1  0  0  0  0
  6 27  1  0  0  0  0
  7 13  1  0  0  0  0
  7  8  1  0  0  0  0
  8  9  2  0  0  0  0
  8 28  1  0  0  0  0
  9 10  1  0  0  0  0
  9 29  1  0  0  0  0
 10 11  2  0  0  0  0
 10 12  1  0  0  0  0
 12 20  1  0  0  0  0
 12 13  1  0  0  0  0
 13 14  2  0  0  0  0
 15 19  1  0  0  0  0
 15 16  1  0  0  0  0
 15 30  1  0  0  0  0
 16 17  1  0  0  0  0
 16 31  1  0  0  0  0
 16 32  1  0  0  0  0
 17 18  1  0  0  0  0
 17 33  1  0  0  0  0
 17 34  1  0  0  0  0
 18 19  1  0  0  0  0
 18 35  1  0  0  0  0
 18 36  1  0  0  0  0
M  END
> <s_m_source_file>
AV-unprocessed.smi

> <i_m_source_file_index>
1403

> <i_lp_mmshare_version>
43012

> <i_f3d_flags>
0

> <s_epik_input>
TzFbQ0gyXVtDSDJdW0NIMl1bQ0BIXTFbQ0BIXShbQ0gzXSlbTkhdQyg9TylbQ0gyXW4yW2NIXVtjSF1jKD1PKVtuSF1jMj1P

> <s_epik_cmdline>
J2VwaWtfcHl0aG9uJywgJy1waCcsICc3LjAnLCAnLXRuJywgJzgnLCAnLW1hJywgJzIwMCcsICctbWV0YWxfYmluZGluZycsICctaW1hZScsICc8aW5maWxlLm1hZT4nLCAnLW9tYWUnLCAnPG91dGZpbGUubWFlPic=

> <r_lp_tautomer_probability>
0.999537

> <r_epik_Ionization_Penalty>
0.00331407

> <r_epik_Ionization_Penalty_Charging>
0.00331405

> <r_epik_Ionization_Penalty_Neutral>
2.30132e-08

> <r_epik_State_Penalty>
0.00234266

> <r_epik_Charging_Adjusted_Penalty>
0.00565671

> <i_epik_Tot_Q>
0

> <i_epik_Tot_abs_Q>
0

> <r_epik_Metal_State_Penalty>
0.365604

> <b_epik_Metal_Only>
0

> <s_lp_Force_Field>
OPLS_2005

> <r_lp_Energy>
17.8488

> <b_lp_Chiralities_Consistent>
1

> <s_lp_Variant>
AV-unprocessed.smi:1403-4

> <Gold.Version>
5.8.1

> <Gold.Id.Protein>
6NUR|6NUR_protein|mol2

> <Gold.PLP.Fitness>
35.5357

> <Gold.PLP.PLP>
-29.7812

> <Gold.PLP.part.hbond>
-1.9593

> <Gold.PLP.part.metal>
0.0000

> <Gold.PLP.part.buried>
-2.5469

> <Gold.PLP.part.nonpolar>
-25.2706

> <Gold.PLP.part.repulsive>
0.4876

> <Gold.PLP.ligand.clash>
0.0000

> <Gold.PLP.ligand.torsion>
0.6287

> <Gold.PLP.Chemscore.Hbond>
1.0000

> <Gold.PLP.Chemscore.CHOScore>
1.3291

> <Gold.PLP.Chemscore.Metal>
0.0000

> <Gold.Chemscore.Hbonds>
donor molecule, donor type, donor heavy atom, donor atom, acceptor molecule, acceptor atom, score
      P1  H  7989  7998       L1     5  1.00
      L1  C     8    28       P1  7948  0.19
      L1  C     8    28       P1  7957  0.94

> <Gold.PLP.Chemscore.Internal.Correction>
0.0247

> <Gold.Rescore>
     Score         DG    S(hbond)    S(metal)    S(lipo)     H(rot)  DE(clash)    DE(int)     intcor
     11.20     -11.84       0.95        0.00      71.91       2.04       0.01       0.64       ----

> <Gold.Chemscore.Fitness>
11.1986

> <Gold.Chemscore.DG>
-11.8437

> <Gold.Chemscore.ZeroCoef>
-5.4800

> <Gold.Chemscore.Hbond>
0.9494

> <Gold.Chemscore.Metal>
0.0000

> <Gold.Chemscore.Lipo>
71.9127

> <Gold.Chemscore.Internal_Hbond>
0.0000

> <Gold.Chemscore.DEClash>
0.0051

> <Gold.Chemscore.DEInternal>
0.6400

> <Gold.Chemscore.Rot>
2.0395

> <Gold.Chemscore.Internal.Correction>
   9.000000E+99

> <Gold.Chemscore.Hbonds>
donor molecule, donor type, donor heavy atom, donor atom, acceptor molecule, acceptor atom, score
      P1  H  7989  7998       L1     5  0.96

> <Gold.Chemscore.Hbond.Weighted>
-3.1710

> <Gold.Chemscore.Metal.Weighted>
-0.0000

> <Gold.Chemscore.Lipo.Weighted>
-8.4138

> <Gold.Chemscore.Internal_Hbond.Weighted>
0.0000

> <Gold.Chemscore.DEClash.Weighted>
0.0051

> <Gold.Chemscore.DEInternal.Weighted>
0.6400

> <Gold.Chemscore.Rot.Weighted>
5.2211

> <Gold.Chemscore.Internal.Correction.Weighted>
   9.000000E+99

> <Gold.Protein.RotatedTorsions>
[ 6907 6896 6895 6894 ] final -174.14 input  -60.11 | X-H torsion
[ 7974 7965 7964 7962 ] final  104.00 input  175.53 | X-H torsion
[ 8008 7997 7996 7995 ] final  116.89 input   59.86 | X-H torsion
[ 10167 10162 10161 10158 ] final  108.59 input  -65.29 | X-H torsion
[ 10718 10713 10712 10709 ] final  152.91 input   66.30 | X-H torsion
[ 10763 10752 10751 10750 ] final   37.60 input  -60.55 | X-H torsion
[ 11005 11000 10999 10996 ] final  140.80 input  -57.11 | X-H torsion

> <Gold.Protein.ActiveResidues>
 VAL166  LYS551  ARG553  GLY616  TRP617  ASP618  TYR619  PRO620  LYS621  CYS622 
 ASP623  PHE694  ASN695  SER759  ASP760  ASP761  ALA762  ILE779  LEU786  VAL792 
 PHE793  MET794  SER795  GLU796  ALA797  LYS798  CYS799  TRP800  GLU811  SER814 

> <Gold.Protein.RotatedAtoms>
  151.5675  133.3394  159.2982 H   0  0  0  0  0  0  0  0  0  0  0  0  # atno 6907 bound_to 6896
  150.8387  134.7673  159.6925 H   0  0  0  0  0  0  0  0  0  0  0  0  # atno 6908 bound_to 6896
  152.4458  134.5503  159.9916 H   0  0  0  0  0  0  0  0  0  0  0  0  # atno 6909 bound_to 6896
  145.3386  139.2468  143.3622 H   0  0  0  0  0  0  0  0  0  0  0  0  # atno 7974 bound_to 7965
  156.2464  140.2908  156.0593 H   0  0  0  0  0  0  0  0  0  0  0  0  # atno 8008 bound_to 7997
  155.1793  140.0404  157.2896 H   0  0  0  0  0  0  0  0  0  0  0  0  # atno 8009 bound_to 7997
  154.6271  140.2490  155.7486 H   0  0  0  0  0  0  0  0  0  0  0  0  # atno 8010 bound_to 7997
  139.6834  144.7116  151.1476 H   0  0  0  0  0  0  0  0  0  0  0  0  # atno 10167 bound_to 10162
  157.2516  131.0780  151.1726 H   0  0  0  0  0  0  0  0  0  0  0  0  # atno 10718 bound_to 10713
  153.0031  135.6273  154.2170 H   0  0  0  0  0  0  0  0  0  0  0  0  # atno 10763 bound_to 10752
  154.1914  135.2808  155.3022 H   0  0  0  0  0  0  0  0  0  0  0  0  # atno 10764 bound_to 10752
  154.5757  135.5663  153.7196 H   0  0  0  0  0  0  0  0  0  0  0  0  # atno 10765 bound_to 10752
  140.0354  134.9331  157.0742 H   0  0  0  0  0  0  0  0  0  0  0  0  # atno 11005 bound_to 11000
  146.3017  140.3978  142.8702 LP  0  0  0  0  0  0  0  0  0  0  0  0  # atno 17320 bound_to 7965
  144.8808  140.7398  143.5988 LP  0  0  0  0  0  0  0  0  0  0  0  0  # atno 17321 bound_to 7965
  140.7659  143.5666  150.9041 LP  0  0  0  0  0  0  0  0  0  0  0  0  # atno 17342 bound_to 10162
  139.9339  143.6461  152.3070 LP  0  0  0  0  0  0  0  0  0  0  0  0  # atno 17343 bound_to 10162
  157.3272  130.6966  149.6303 LP  0  0  0  0  0  0  0  0  0  0  0  0  # atno 17370 bound_to 10713
  155.9666  130.4318  150.4936 LP  0  0  0  0  0  0  0  0  0  0  0  0  # atno 17371 bound_to 10713
  140.4157  134.1934  155.7163 LP  0  0  0  0  0  0  0  0  0  0  0  0  # atno 17394 bound_to 11000
  141.1854  133.8324  157.1105 LP  0  0  0  0  0  0  0  0  0  0  0  0  # atno 17395 bound_to 11000

$$$$
