AV-unprocessed.smi:3337|AV-procd|sdf|12865|dock8
  -GOLD-   2272019263D 1   1.00000     0.00000
 Structure written by MMmdl.
 46 47  0  0  0  0  0  0  0  0  2 V2000
  144.7163  133.9382  149.6412 C   0  0  0  0  0  0  0  0  0  0  0  0
  145.6223  134.2048  150.8519 C   0  0  2  0  0  0  0  0  0  0  0  0
  145.5808  133.0353  151.8520 C   0  0  0  0  0  0  0  0  0  0  0  0
  146.4369  133.3216  153.0996 C   0  0  1  0  0  0  0  0  0  0  0  0
  147.9476  133.2107  152.8293 C   0  0  0  0  0  0  0  0  0  0  0  0
  146.0537  134.6802  153.7194 C   0  0  0  0  0  0  0  0  0  0  0  0
  146.1291  135.7825  152.7248 N   0  3  2  0  0  0  0  0  0  0  0  0
  145.9066  137.1124  153.3470 C   0  0  0  0  0  0  0  0  0  0  0  0
  146.5476  138.2569  152.5390 C   0  0  0  0  0  0  0  0  0  0  0  0
  147.8398  138.6431  153.0922 N   0  0  0  0  0  0  0  0  0  0  0  0
  148.0443  139.0542  154.3546 C   0  0  0  0  0  0  0  0  0  0  0  0
  147.1280  139.1838  155.1675 O   0  0  0  0  0  0  0  0  0  0  0  0
  149.4991  139.3739  154.7463 C   0  0  1  0  0  0  0  0  0  0  0  0
  149.6398  140.7048  155.5124 C   0  0  0  0  0  0  0  0  0  0  0  0
  150.0963  138.2694  155.4885 N   0  0  0  0  0  0  0  0  0  0  0  0
  151.0203  137.3819  155.1142 C   0  0  0  0  0  0  0  0  0  0  0  0
  151.3165  136.4875  156.0466 N   0  0  0  0  0  0  0  0  0  0  0  0
  150.4813  136.9098  157.0417 C   0  0  0  0  0  0  0  0  0  0  0  0
  149.7249  137.9701  156.7585 N   0  0  0  0  0  0  0  0  0  0  0  0
  145.2467  135.5228  151.5562 C   0  0  0  0  0  0  0  0  0  0  0  0
  143.6728  133.8336  149.9401 H   0  0  0  0  0  0  0  0  0  0  0  0
  145.0089  133.0222  149.1268 H   0  0  0  0  0  0  0  0  0  0  0  0
  144.7752  134.7528  148.9184 H   0  0  0  0  0  0  0  0  0  0  0  0
  146.6413  134.3014  150.4753 H   0  0  0  0  0  0  0  0  0  0  0  0
  144.5487  132.8649  152.1623 H   0  0  0  0  0  0  0  0  0  0  0  0
  145.9094  132.1121  151.3729 H   0  0  0  0  0  0  0  0  0  0  0  0
  146.2023  132.5508  153.8351 H   0  0  0  0  0  0  0  0  0  0  0  0
  148.2932  133.9637  152.1212 H   0  0  0  0  0  0  0  0  0  0  0  0
  148.2021  132.2313  152.4231 H   0  0  0  0  0  0  0  0  0  0  0  0
  148.5184  133.3398  153.7494 H   0  0  0  0  0  0  0  0  0  0  0  0
  145.0397  134.6328  154.1199 H   0  0  0  0  0  0  0  0  0  0  0  0
  146.7111  134.8911  154.5641 H   0  0  0  0  0  0  0  0  0  0  0  0
  144.8375  137.2840  153.4825 H   0  0  0  0  0  0  0  0  0  0  0  0
  146.3469  137.1120  154.3452 H   0  0  0  0  0  0  0  0  0  0  0  0
  146.6598  137.9706  151.4916 H   0  0  0  0  0  0  0  0  0  0  0  0
  145.9182  139.1455  152.5509 H   0  0  0  0  0  0  0  0  0  0  0  0
  148.6412  138.5652  152.4825 H   0  0  0  0  0  0  0  0  0  0  0  0
  150.0580  139.4736  153.8145 H   0  0  0  0  0  0  0  0  0  0  0  0
  149.2686  141.5430  154.9219 H   0  0  0  0  0  0  0  0  0  0  0  0
  150.6848  140.9101  155.7460 H   0  0  0  0  0  0  0  0  0  0  0  0
  149.0886  140.6920  156.4537 H   0  0  0  0  0  0  0  0  0  0  0  0
  151.4839  137.3876  154.1387 H   0  0  0  0  0  0  0  0  0  0  0  0
  150.4257  136.4182  158.0017 H   0  0  0  0  0  0  0  0  0  0  0  0
  145.3242  136.3373  150.8372 H   0  0  0  0  0  0  0  0  0  0  0  0
  144.2069  135.4940  151.8862 H   0  0  0  0  0  0  0  0  0  0  0  0
  147.0794  135.7849  152.3824 H   0  0  0  0  0  0  0  0  0  0  0  0
  1  2  1  0  0  0  0
  1 21  1  0  0  0  0
  1 22  1  0  0  0  0
  1 23  1  0  0  0  0
  2 20  1  0  0  0  0
  2  3  1  0  0  0  0
  2 24  1  0  0  0  0
  3  4  1  0  0  0  0
  3 25  1  0  0  0  0
  3 26  1  0  0  0  0
  4  5  1  0  0  0  0
  4  6  1  0  0  0  0
  4 27  1  0  0  0  0
  5 28  1  0  0  0  0
  5 29  1  0  0  0  0
  5 30  1  0  0  0  0
  6  7  1  0  0  0  0
  6 31  1  0  0  0  0
  6 32  1  0  0  0  0
  7  8  1  0  0  0  0
  7 20  1  0  0  0  0
  7 46  1  0  0  0  0
  8  9  1  0  0  0  0
  8 33  1  0  0  0  0
  8 34  1  0  0  0  0
  9 10  1  0  0  0  0
  9 35  1  0  0  0  0
  9 36  1  0  0  0  0
 10 11  1  0  0  0  0
 10 37  1  0  0  0  0
 11 12  2  0  0  0  0
 11 13  1  0  0  0  0
 13 14  1  0  0  0  0
 13 15  1  0  0  0  0
 13 38  1  0  0  0  0
 14 39  1  0  0  0  0
 14 40  1  0  0  0  0
 14 41  1  0  0  0  0
 15 19  1  0  0  0  0
 15 16  1  0  0  0  0
 16 17  2  0  0  0  0
 16 42  1  0  0  0  0
 17 18  1  0  0  0  0
 18 19  2  0  0  0  0
 18 43  1  0  0  0  0
 20 44  1  0  0  0  0
 20 45  1  0  0  0  0
M  CHG  1   7   1
M  END
> <s_m_source_file>
AV-unprocessed.smi

> <i_m_source_file_index>
3337

> <i_lp_mmshare_version>
43012

> <i_f3d_flags>
0

> <s_epik_input>
W0NIM11bQ0BASF0xW0NIMl1bQ0BASF0oW0NIM10pW0NIMl1OKFtDSDJdMSlbQ0gyXVtDSDJdW05IXUMoPU8pW0NASF0oW0NIM10pbjJbY0hdbltjSF1uMg==

> <s_epik_cmdline>
J2VwaWtfcHl0aG9uJywgJy1waCcsICc3LjAnLCAnLXRuJywgJzgnLCAnLW1hJywgJzIwMCcsICctbWV0YWxfYmluZGluZycsICctaW1hZScsICc8aW5maWxlLm1hZT4nLCAnLW9tYWUnLCAnPG91dGZpbGUubWFlPic=

> <r_lp_tautomer_probability>
1

> <r_epik_Ionization_Penalty>
0.00175613

> <r_epik_Ionization_Penalty_Charging>
0.00174812

> <r_epik_Ionization_Penalty_Neutral>
8.01354e-06

> <r_epik_State_Penalty>
0.00118332

> <r_epik_Charging_Adjusted_Penalty>
0.00293143

> <i_epik_Tot_Q>
1

> <i_epik_Tot_abs_Q>
1

> <r_epik_Metal_State_Penalty>
-0

> <b_epik_Metal_Only>
0

> <s_lp_Force_Field>
OPLS_2005

> <r_lp_Energy>
24.7209

> <b_lp_Chiralities_Consistent>
1

> <s_lp_Variant>
AV-unprocessed.smi:3337-5

> <Gold.Version>
5.8.1

> <Gold.Id.Protein>
6NUR|6NUR_protein|mol2

> <Gold.PLP.Fitness>
43.8566

> <Gold.PLP.PLP>
-31.7203

> <Gold.PLP.part.hbond>
-4.0000

> <Gold.PLP.part.metal>
0.0000

> <Gold.PLP.part.buried>
-0.9209

> <Gold.PLP.part.nonpolar>
-26.6687

> <Gold.PLP.part.repulsive>
0.1954

> <Gold.PLP.ligand.clash>
0.0000

> <Gold.PLP.ligand.torsion>
1.0772

> <Gold.PLP.Chemscore.Hbond>
3.7200

> <Gold.PLP.Chemscore.CHOScore>
1.0000

> <Gold.PLP.Chemscore.Metal>
0.0000

> <Gold.Chemscore.Hbonds>
donor molecule, donor type, donor heavy atom, donor atom, acceptor molecule, acceptor atom, score
      L1  H     7    46       P1  7948  2.00
      L1  H    10    37       P1  7957  0.40
      P1  H 10752 10763       L1    17  0.15

> <Gold.PLP.Chemscore.Internal.Correction>
0.1307

> <Gold.Rescore>
     Score         DG    S(hbond)    S(metal)    S(lipo)     H(rot)  DE(clash)    DE(int)     intcor
     11.90     -15.24       2.68        0.00      61.99       2.51       1.58       1.76       ----

> <Gold.Chemscore.Fitness>
11.9029

> <Gold.Chemscore.DG>
-15.2379

> <Gold.Chemscore.ZeroCoef>
-5.4800

> <Gold.Chemscore.Hbond>
2.6761

> <Gold.Chemscore.Metal>
0.0000

> <Gold.Chemscore.Lipo>
61.9885

> <Gold.Chemscore.Internal_Hbond>
0.0000

> <Gold.Chemscore.DEClash>
1.5781

> <Gold.Chemscore.DEInternal>
1.7569

> <Gold.Chemscore.Rot>
2.5129

> <Gold.Chemscore.Internal.Correction>
   9.000000E+99

> <Gold.Chemscore.Hbonds>
donor molecule, donor type, donor heavy atom, donor atom, acceptor molecule, acceptor atom, score
      L1  H     7    46       P1  7948  0.98
      L1  H    10    37       P1  7957  0.37
      P1  H 10752 10763       L1    17  0.01

> <Gold.Chemscore.Hbond.Weighted>
-8.9383

> <Gold.Chemscore.Metal.Weighted>
-0.0000

> <Gold.Chemscore.Lipo.Weighted>
-7.2527

> <Gold.Chemscore.Internal_Hbond.Weighted>
0.0000

> <Gold.Chemscore.DEClash.Weighted>
1.5781

> <Gold.Chemscore.DEInternal.Weighted>
1.7569

> <Gold.Chemscore.Rot.Weighted>
6.4331

> <Gold.Chemscore.Internal.Correction.Weighted>
   9.000000E+99

> <Gold.Protein.RotatedTorsions>
[ 6907 6896 6895 6894 ] final  -28.49 input  -60.11 | X-H torsion
[ 7974 7965 7964 7962 ] final    5.24 input  175.53 | X-H torsion
[ 8008 7997 7996 7995 ] final  102.08 input   59.86 | X-H torsion
[ 10167 10162 10161 10158 ] final   90.58 input  -65.29 | X-H torsion
[ 10718 10713 10712 10709 ] final  -57.24 input   66.30 | X-H torsion
[ 10763 10752 10751 10750 ] final   63.72 input  -60.55 | X-H torsion
[ 11005 11000 10999 10996 ] final  -43.86 input  -57.11 | X-H torsion

> <Gold.Protein.ActiveResidues>
 VAL166  LYS551  ARG553  GLY616  TRP617  ASP618  TYR619  PRO620  LYS621  CYS622 
 ASP623  PHE694  ASN695  SER759  ASP760  ASP761  ALA762  ILE779  LEU786  VAL792 
 PHE793  MET794  SER795  GLU796  ALA797  LYS798  CYS799  TRP800  GLU811  SER814 

> <Gold.Protein.RotatedAtoms>
  151.1322  135.0136  159.8587 H   0  0  0  0  0  0  0  0  0  0  0  0  # atno 6907 bound_to 6896
  152.5451  134.1597  159.8563 H   0  0  0  0  0  0  0  0  0  0  0  0  # atno 6908 bound_to 6896
  151.1665  133.4766  159.2627 H   0  0  0  0  0  0  0  0  0  0  0  0  # atno 6909 bound_to 6896
  146.2441  140.0413  142.8382 H   0  0  0  0  0  0  0  0  0  0  0  0  # atno 7974 bound_to 7965
  156.1359  140.3187  155.8420 H   0  0  0  0  0  0  0  0  0  0  0  0  # atno 8008 bound_to 7997
  155.4245  140.0514  157.3040 H   0  0  0  0  0  0  0  0  0  0  0  0  # atno 8009 bound_to 7997
  154.4936  140.2102  155.9506 H   0  0  0  0  0  0  0  0  0  0  0  0  # atno 8010 bound_to 7997
  139.8459  144.6618  150.9227 H   0  0  0  0  0  0  0  0  0  0  0  0  # atno 10167 bound_to 10162
  156.1226  130.4165  150.0414 H   0  0  0  0  0  0  0  0  0  0  0  0  # atno 10718 bound_to 10713
  153.0028  135.5419  154.6397 H   0  0  0  0  0  0  0  0  0  0  0  0  # atno 10763 bound_to 10752
  154.5655  135.2837  155.0880 H   0  0  0  0  0  0  0  0  0  0  0  0  # atno 10764 bound_to 10752
  154.2066  135.6474  153.5155 H   0  0  0  0  0  0  0  0  0  0  0  0  # atno 10765 bound_to 10752
  141.0412  133.6779  156.2792 H   0  0  0  0  0  0  0  0  0  0  0  0  # atno 11005 bound_to 11000
  145.1067  140.9379  143.4681 LP  0  0  0  0  0  0  0  0  0  0  0  0  # atno 17320 bound_to 7965
  145.0618  139.3099  143.5876 LP  0  0  0  0  0  0  0  0  0  0  0  0  # atno 17321 bound_to 7965
  140.7793  143.3870  151.1376 LP  0  0  0  0  0  0  0  0  0  0  0  0  # atno 17342 bound_to 10162
  139.7512  143.8775  152.3077 LP  0  0  0  0  0  0  0  0  0  0  0  0  # atno 17343 bound_to 10162
  156.8348  130.9405  151.3635 LP  0  0  0  0  0  0  0  0  0  0  0  0  # atno 17370 bound_to 10713
  157.6409  130.8805  149.9446 LP  0  0  0  0  0  0  0  0  0  0  0  0  # atno 17371 bound_to 10713
  140.6231  134.5341  157.5550 LP  0  0  0  0  0  0  0  0  0  0  0  0  # atno 17394 bound_to 11000
  139.9277  134.8024  156.1020 LP  0  0  0  0  0  0  0  0  0  0  0  0  # atno 17395 bound_to 11000

$$$$
