AV-unprocessed.smi:2482|AV-procd|sdf|9783|dock9
  -GOLD-   2272013423D 1   1.00000     0.00000
 Structure written by MMmdl.
 34 35  0  0  0  0  0  0  0  0  3 V2000
  152.7320  142.9181  161.2931 C   0  0  0  0  0  0  0  0  0  0  0  0
  152.1965  142.6211  159.9047 C   0  0  0  0  0  0  0  0  0  0  0  0
  151.2837  143.4974  159.4331 N   0  0  0  0  0  0  0  0  0  0  0  0
  150.7747  143.2739  158.2054 C   0  0  0  0  0  0  0  0  0  0  0  0
  151.1497  142.1818  157.4006 C   0  0  0  0  0  0  0  0  0  0  0  0
  152.1096  141.2613  157.8773 C   0  0  0  0  0  0  0  0  0  0  0  0
  152.4726  140.2110  157.1225 N   0  5  0  0  0  0  0  0  0  0  0  0
  151.5653  139.6149  156.3116 C   0  0  0  0  0  0  0  0  0  0  0  0
  150.3509  139.8167  156.2414 O   0  0  0  0  0  0  0  0  0  0  0  0
  152.2308  138.5652  155.3936 C   0  0  2  0  0  0  0  0  0  0  0  0
  151.2358  137.6827  154.6030 C   0  0  0  0  0  0  0  0  0  0  0  0
  150.5258  136.7419  155.5019 N   0  3  1  0  0  0  0  0  0  0  0  0
  149.5158  135.9276  154.7940 C   0  0  0  0  0  0  0  0  0  0  0  0
  151.4877  135.9217  156.2720 C   0  0  0  0  0  0  0  0  0  0  0  0
  152.4632  136.8261  157.0426 C   0  0  0  0  0  0  0  0  0  0  0  0
  153.1138  137.7129  156.1335 O   0  0  0  0  0  0  0  0  0  0  0  0
  152.6395  141.4929  159.1735 C   0  0  0  0  0  0  0  0  0  0  0  0
  153.8121  140.4157  159.8598 Cl  0  0  0  0  0  0  0  0  0  0  0  0
  153.8110  143.0702  161.2585 H   0  0  0  0  0  0  0  0  0  0  0  0
  152.5213  142.0865  161.9660 H   0  0  0  0  0  0  0  0  0  0  0  0
  152.2783  143.8158  161.7149 H   0  0  0  0  0  0  0  0  0  0  0  0
  150.0446  143.9869  157.8526 H   0  0  0  0  0  0  0  0  0  0  0  0
  150.7044  142.0553  156.4245 H   0  0  0  0  0  0  0  0  0  0  0  0
  152.8386  139.1137  154.6722 H   0  0  0  0  0  0  0  0  0  0  0  0
  150.5137  138.3053  154.0723 H   0  0  0  0  0  0  0  0  0  0  0  0
  151.7746  137.1163  153.8418 H   0  0  0  0  0  0  0  0  0  0  0  0
  149.9836  135.2873  154.0450 H   0  0  0  0  0  0  0  0  0  0  0  0
  148.7894  136.5683  154.2929 H   0  0  0  0  0  0  0  0  0  0  0  0
  148.9726  135.2943  155.4959 H   0  0  0  0  0  0  0  0  0  0  0  0
  150.9502  135.2781  156.9694 H   0  0  0  0  0  0  0  0  0  0  0  0
  152.0397  135.2701  155.5927 H   0  0  0  0  0  0  0  0  0  0  0  0
  151.9460  137.3763  157.8296 H   0  0  0  0  0  0  0  0  0  0  0  0
  153.2210  136.2191  157.5380 H   0  0  0  0  0  0  0  0  0  0  0  0
  150.0258  137.3101  156.1717 H   0  0  0  0  0  0  0  0  0  0  0  0
  1  2  1  0  0  0  0
  1 19  1  0  0  0  0
  1 20  1  0  0  0  0
  1 21  1  0  0  0  0
  2 17  1  0  0  0  0
  2  3  2  0  0  0  0
  3  4  1  0  0  0  0
  4  5  2  0  0  0  0
  4 22  1  0  0  0  0
  5  6  1  0  0  0  0
  5 23  1  0  0  0  0
  6  7  1  0  0  0  0
  6 17  2  0  0  0  0
  7  8  1  0  0  0  0
  8  9  2  0  0  0  0
  8 10  1  0  0  0  0
 10 16  1  0  0  0  0
 10 11  1  0  0  0  0
 10 24  1  0  0  0  0
 11 12  1  0  0  0  0
 11 25  1  0  0  0  0
 11 26  1  0  0  0  0
 12 13  1  0  0  0  0
 12 14  1  0  0  0  0
 12 34  1  0  0  0  0
 13 27  1  0  0  0  0
 13 28  1  0  0  0  0
 13 29  1  0  0  0  0
 14 15  1  0  0  0  0
 14 30  1  0  0  0  0
 14 31  1  0  0  0  0
 15 16  1  0  0  0  0
 15 32  1  0  0  0  0
 15 33  1  0  0  0  0
 17 18  1  0  0  0  0
M  CHG  1   7  -1
M  CHG  1  12   1
M  END
> <s_m_source_file>
AV-unprocessed.smi

> <i_m_source_file_index>
2482

> <i_lp_mmshare_version>
43012

> <i_f3d_flags>
0

> <s_epik_input>
W0NIM11jMW5bY0hdW2NIXWMoYzFDbClbTkhdQyg9TylbQ0BASF0yW0NIMl1OKFtDSDNdKVtDSDJdW0NIMl1PMg==

> <s_epik_cmdline>
J2VwaWtfcHl0aG9uJywgJy1waCcsICc3LjAnLCAnLXRuJywgJzgnLCAnLW1hJywgJzIwMCcsICctbWV0YWxfYmluZGluZycsICctaW1hZScsICc8aW5maWxlLm1hZT4nLCAnLW9tYWUnLCAnPG91dGZpbGUubWFlPic=

> <r_epik_Ionization_Penalty>
6.9249

> <r_epik_Ionization_Penalty_Charging>
6.74596

> <r_epik_Ionization_Penalty_Neutral>
0.178941

> <r_epik_State_Penalty>
6.78185

> <r_epik_Charging_Adjusted_Penalty>
13.5278

> <i_epik_Tot_Q>
0

> <i_epik_Tot_abs_Q>
2

> <r_epik_Metal_State_Penalty>
2.70608

> <b_epik_Metal_Only>
1

> <s_lp_Force_Field>
OPLS_2005

> <r_lp_Energy>
12.3895

> <b_lp_Chiralities_Consistent>
1

> <s_lp_Variant>
AV-unprocessed.smi:2482-9

> <Gold.Version>
5.8.1

> <Gold.Id.Protein>
6NUR|6NUR_protein|mol2

> <Gold.PLP.Fitness>
38.6489

> <Gold.PLP.PLP>
-30.1548

> <Gold.PLP.part.hbond>
-1.4860

> <Gold.PLP.part.metal>
0.0000

> <Gold.PLP.part.buried>
-2.8640

> <Gold.PLP.part.nonpolar>
-24.6605

> <Gold.PLP.part.repulsive>
0.0974

> <Gold.PLP.ligand.clash>
0.0000

> <Gold.PLP.ligand.torsion>
0.4883

> <Gold.PLP.Chemscore.Hbond>
2.0000

> <Gold.PLP.Chemscore.CHOScore>
1.0000

> <Gold.PLP.Chemscore.Metal>
0.0000

> <Gold.Chemscore.Hbonds>
donor molecule, donor type, donor heavy atom, donor atom, acceptor molecule, acceptor atom, score
      P1  H  7997  8008       L1     7  2.00
      L1  C     4    22       P1  8028  0.93

> <Gold.PLP.Chemscore.Internal.Correction>
0.4706

> <Gold.Rescore>
     Score         DG    S(hbond)    S(metal)    S(lipo)     H(rot)  DE(clash)    DE(int)     intcor
     14.59     -16.55       0.85        0.00      92.34       1.00       0.04       1.93       ----

> <Gold.Chemscore.Fitness>
14.5889

> <Gold.Chemscore.DG>
-16.5509

> <Gold.Chemscore.ZeroCoef>
-5.4800

> <Gold.Chemscore.Hbond>
0.8463

> <Gold.Chemscore.Metal>
0.0000

> <Gold.Chemscore.Lipo>
92.3439

> <Gold.Chemscore.Internal_Hbond>
0.0000

> <Gold.Chemscore.DEClash>
0.0356

> <Gold.Chemscore.DEInternal>
1.9264

> <Gold.Chemscore.Rot>
1.0000

> <Gold.Chemscore.Internal.Correction>
   9.000000E+99

> <Gold.Chemscore.Hbonds>
donor molecule, donor type, donor heavy atom, donor atom, acceptor molecule, acceptor atom, score
      P1  H  7997  8008       L1     7  0.85

> <Gold.Chemscore.Hbond.Weighted>
-2.8266

> <Gold.Chemscore.Metal.Weighted>
-0.0000

> <Gold.Chemscore.Lipo.Weighted>
-10.8042

> <Gold.Chemscore.Internal_Hbond.Weighted>
0.0000

> <Gold.Chemscore.DEClash.Weighted>
0.0356

> <Gold.Chemscore.DEInternal.Weighted>
1.9264

> <Gold.Chemscore.Rot.Weighted>
2.5600

> <Gold.Chemscore.Internal.Correction.Weighted>
   9.000000E+99

> <Gold.Protein.RotatedTorsions>
[ 6907 6896 6895 6894 ] final  109.46 input  -60.11 | X-H torsion
[ 7974 7965 7964 7962 ] final  -13.58 input  175.53 | X-H torsion
[ 8008 7997 7996 7995 ] final  -63.38 input   59.86 | X-H torsion
[ 10167 10162 10161 10158 ] final -125.94 input  -65.29 | X-H torsion
[ 10718 10713 10712 10709 ] final   56.60 input   66.30 | X-H torsion
[ 10763 10752 10751 10750 ] final  -68.54 input  -60.55 | X-H torsion
[ 11005 11000 10999 10996 ] final   62.01 input  -57.11 | X-H torsion

> <Gold.Protein.ActiveResidues>
 VAL166  LYS551  ARG553  GLY616  TRP617  ASP618  TYR619  PRO620  LYS621  CYS622 
 ASP623  PHE694  ASN695  SER759  ASP760  ASP761  ALA762  ILE779  LEU786  VAL792 
 PHE793  MET794  SER795  GLU796  ALA797  LYS798  CYS799  TRP800  GLU811  SER814 

> <Gold.Protein.RotatedAtoms>
  152.5066  133.8941  159.7407 H   0  0  0  0  0  0  0  0  0  0  0  0  # atno 6907 bound_to 6896
  150.9372  133.6689  159.2805 H   0  0  0  0  0  0  0  0  0  0  0  0  # atno 6908 bound_to 6896
  151.4013  135.0976  159.9609 H   0  0  0  0  0  0  0  0  0  0  0  0  # atno 6909 bound_to 6896
  146.2108  140.3224  142.8391 H   0  0  0  0  0  0  0  0  0  0  0  0  # atno 7974 bound_to 7965
  154.4551  140.0976  156.6734 H   0  0  0  0  0  0  0  0  0  0  0  0  # atno 8008 bound_to 7997
  155.5163  140.3478  155.4379 H   0  0  0  0  0  0  0  0  0  0  0  0  # atno 8009 bound_to 7997
  156.0761  140.1361  156.9758 H   0  0  0  0  0  0  0  0  0  0  0  0  # atno 8010 bound_to 7997
  139.9768  143.5786  152.2393 H   0  0  0  0  0  0  0  0  0  0  0  0  # atno 10167 bound_to 10162
  157.5445  130.8721  149.8870 H   0  0  0  0  0  0  0  0  0  0  0  0  # atno 10718 bound_to 10713
  154.3905  135.6053  153.5841 H   0  0  0  0  0  0  0  0  0  0  0  0  # atno 10763 bound_to 10752
  152.9787  135.5882  154.4303 H   0  0  0  0  0  0  0  0  0  0  0  0  # atno 10764 bound_to 10752
  154.4086  135.2844  155.2029 H   0  0  0  0  0  0  0  0  0  0  0  0  # atno 10765 bound_to 10752
  140.0122  134.6280  155.9764 H   0  0  0  0  0  0  0  0  0  0  0  0  # atno 11005 bound_to 11000
  144.8910  140.7524  143.5926 LP  0  0  0  0  0  0  0  0  0  0  0  0  # atno 17320 bound_to 7965
  145.3147  139.1807  143.4620 LP  0  0  0  0  0  0  0  0  0  0  0  0  # atno 17321 bound_to 7965
  139.6440  144.7657  151.2281 LP  0  0  0  0  0  0  0  0  0  0  0  0  # atno 17342 bound_to 10162
  140.7503  143.6270  150.8459 LP  0  0  0  0  0  0  0  0  0  0  0  0  # atno 17343 bound_to 10162
  156.0524  130.3715  150.1170 LP  0  0  0  0  0  0  0  0  0  0  0  0  # atno 17370 bound_to 10713
  156.9348  130.9725  151.3526 LP  0  0  0  0  0  0  0  0  0  0  0  0  # atno 17371 bound_to 10713
  141.1718  133.6538  156.4681 LP  0  0  0  0  0  0  0  0  0  0  0  0  # atno 17394 bound_to 11000
  140.4535  134.6907  157.5051 LP  0  0  0  0  0  0  0  0  0  0  0  0  # atno 17395 bound_to 11000

$$$$
