AV-unprocessed.smi:2451|AV-procd|sdf|9674|dock10
  -GOLD-   2272013313D 1   1.00000     0.00000
 Structure written by MMmdl.
 38 39  0  0  0  0  0  0  0  0  1 V2000
  153.4337  142.6255  161.4210 C   0  0  0  0  0  0  0  0  0  0  0  0
  152.3631  142.5434  160.3175 C   0  0  1  0  0  0  0  0  0  0  0  0
  152.0873  143.9545  159.7607 C   0  0  0  0  0  0  0  0  0  0  0  0
  150.9991  143.9370  158.6821 C   0  0  0  0  0  0  0  0  0  0  0  0
  151.3985  143.0054  157.5351 C   0  0  0  0  0  0  0  0  0  0  0  0
  151.6816  141.5810  158.0432 C   0  0  1  0  0  0  0  0  0  0  0  0
  152.1339  140.7672  156.9103 N   0  0  0  0  0  0  0  0  0  0  0  0
  150.9543  139.9923  155.9196 S   0  0  0  0  0  0  0  0  0  0  0  0
  151.6445  139.4715  154.7291 O   0  0  0  0  0  0  0  0  0  0  0  0
  150.1827  139.0810  156.7783 O   0  0  0  0  0  0  0  0  0  0  0  0
  149.8821  141.3995  155.4079 C   0  0  0  0  0  0  0  0  0  0  0  0
  148.7687  140.8939  154.5366 C   0  0  0  0  0  0  0  0  0  0  0  0
  147.7306  141.6380  153.9104 C   0  0  0  0  0  0  0  0  0  0  0  0
  147.0085  140.6852  153.2517 C   0  0  0  0  0  0  0  0  0  0  0  0
  147.5476  139.4565  153.4539 O   0  0  0  0  0  0  0  0  0  0  0  0
  148.6701  139.5996  154.2775 N   0  0  0  0  0  0  0  0  0  0  0  0
  152.7371  141.5498  159.1805 C   0  0  2  0  0  0  0  0  0  0  0  0
  152.9126  140.1124  159.7181 C   0  0  0  0  0  0  0  0  0  0  0  0
  154.4096  142.8830  161.0082 H   0  0  0  0  0  0  0  0  0  0  0  0
  153.5342  141.6854  161.9623 H   0  0  0  0  0  0  0  0  0  0  0  0
  153.1769  143.3852  162.1597 H   0  0  0  0  0  0  0  0  0  0  0  0
  151.4410  142.1915  160.7826 H   0  0  0  0  0  0  0  0  0  0  0  0
  151.7813  144.6211  160.5681 H   0  0  0  0  0  0  0  0  0  0  0  0
  153.0050  144.3749  159.3464 H   0  0  0  0  0  0  0  0  0  0  0  0
  150.0533  143.6080  159.1146 H   0  0  0  0  0  0  0  0  0  0  0  0
  150.8342  144.9458  158.3025 H   0  0  0  0  0  0  0  0  0  0  0  0
  150.6064  142.9859  156.7855 H   0  0  0  0  0  0  0  0  0  0  0  0
  152.2840  143.4056  157.0393 H   0  0  0  0  0  0  0  0  0  0  0  0
  150.7494  141.1662  158.4294 H   0  0  0  0  0  0  0  0  0  0  0  0
  152.8221  141.2666  156.3473 H   0  0  0  0  0  0  0  0  0  0  0  0
  149.5024  141.8910  156.3040 H   0  0  0  0  0  0  0  0  0  0  0  0
  150.4982  142.1190  154.8690 H   0  0  0  0  0  0  0  0  0  0  0  0
  147.5482  142.7020  153.9370 H   0  0  0  0  0  0  0  0  0  0  0  0
  146.1276  140.7207  152.6279 H   0  0  0  0  0  0  0  0  0  0  0  0
  153.6924  141.8684  158.7599 H   0  0  0  0  0  0  0  0  0  0  0  0
  152.0023  139.7577  160.2025 H   0  0  0  0  0  0  0  0  0  0  0  0
  153.7258  140.0443  160.4394 H   0  0  0  0  0  0  0  0  0  0  0  0
  153.1539  139.4088  158.9215 H   0  0  0  0  0  0  0  0  0  0  0  0
  1  2  1  0  0  0  0
  1 19  1  0  0  0  0
  1 20  1  0  0  0  0
  1 21  1  0  0  0  0
  2 17  1  0  0  0  0
  2  3  1  0  0  0  0
  2 22  1  0  0  0  0
  3  4  1  0  0  0  0
  3 23  1  0  0  0  0
  3 24  1  0  0  0  0
  4  5  1  0  0  0  0
  4 25  1  0  0  0  0
  4 26  1  0  0  0  0
  5  6  1  0  0  0  0
  5 27  1  0  0  0  0
  5 28  1  0  0  0  0
  6  7  1  0  0  0  0
  6 17  1  0  0  0  0
  6 29  1  0  0  0  0
  7  8  1  0  0  0  0
  7 30  1  0  0  0  0
  8  9  2  0  0  0  0
  8 10  2  0  0  0  0
  8 11  1  0  0  0  0
 11 12  1  0  0  0  0
 11 31  1  0  0  0  0
 11 32  1  0  0  0  0
 12 16  2  0  0  0  0
 12 13  1  0  0  0  0
 13 14  2  0  0  0  0
 13 33  1  0  0  0  0
 14 15  1  0  0  0  0
 14 34  1  0  0  0  0
 15 16  1  0  0  0  0
 17 18  1  0  0  0  0
 17 35  1  0  0  0  0
 18 36  1  0  0  0  0
 18 37  1  0  0  0  0
 18 38  1  0  0  0  0
M  END
> <s_m_source_file>
AV-unprocessed.smi

> <i_m_source_file_index>
2451

> <i_lp_mmshare_version>
43012

> <i_f3d_flags>
0

> <s_epik_input>
W0NIM11bQ0BASF0xW0NIMl1bQ0gyXVtDSDJdW0NASF0oW0NASF0xW0NIM10pW05IXVMoPU8pKD1PKVtDSDJdYzJbY0hdW2NIXW9uMg==

> <s_epik_cmdline>
J2VwaWtfcHl0aG9uJywgJy1waCcsICc3LjAnLCAnLXRuJywgJzgnLCAnLW1hJywgJzIwMCcsICctbWV0YWxfYmluZGluZycsICctaW1hZScsICc8aW5maWxlLm1hZT4nLCAnLW9tYWUnLCAnPG91dGZpbGUubWFlPic=

> <r_lp_tautomer_probability>
1

> <r_epik_Ionization_Penalty>
8.73668e-05

> <r_epik_Ionization_Penalty_Charging>
0

> <r_epik_Ionization_Penalty_Neutral>
8.73668e-05

> <r_epik_State_Penalty>
-0

> <r_epik_Charging_Adjusted_Penalty>
0

> <i_epik_Tot_Q>
0

> <i_epik_Tot_abs_Q>
0

> <r_epik_Metal_State_Penalty>
0.0716439

> <b_epik_Metal_Only>
0

> <s_lp_Force_Field>
OPLS_2005

> <r_lp_Energy>
6.58047

> <b_lp_Chiralities_Consistent>
1

> <s_lp_Variant>
AV-unprocessed.smi:2451-6

> <Gold.Version>
5.8.1

> <Gold.Id.Protein>
6NUR|6NUR_protein|mol2

> <Gold.PLP.Fitness>
42.4490

> <Gold.PLP.PLP>
-37.2119

> <Gold.PLP.part.hbond>
-1.5340

> <Gold.PLP.part.metal>
0.0000

> <Gold.PLP.part.buried>
-3.7829

> <Gold.PLP.part.nonpolar>
-31.6690

> <Gold.PLP.part.repulsive>
0.9860

> <Gold.PLP.ligand.clash>
0.0000

> <Gold.PLP.ligand.torsion>
0.4500

> <Gold.PLP.Chemscore.Hbond>
1.0000

> <Gold.PLP.Chemscore.CHOScore>
0.9989

> <Gold.PLP.Chemscore.Metal>
0.0000

> <Gold.Chemscore.Hbonds>
donor molecule, donor type, donor heavy atom, donor atom, acceptor molecule, acceptor atom, score
      P1  H  7989  7998       L1     9  1.00
      L1  C    14    34       P1 10175  1.00

> <Gold.PLP.Chemscore.Internal.Correction>
0.1406

> <Gold.Rescore>
     Score         DG    S(hbond)    S(metal)    S(lipo)     H(rot)  DE(clash)    DE(int)     intcor
     14.55     -16.43       0.85        0.00     105.55       1.66       0.07       1.81       ----

> <Gold.Chemscore.Fitness>
14.5477

> <Gold.Chemscore.DG>
-16.4312

> <Gold.Chemscore.ZeroCoef>
-5.4800

> <Gold.Chemscore.Hbond>
0.8528

> <Gold.Chemscore.Metal>
0.0000

> <Gold.Chemscore.Lipo>
105.5524

> <Gold.Chemscore.Internal_Hbond>
0.0000

> <Gold.Chemscore.DEClash>
0.0748

> <Gold.Chemscore.DEInternal>
1.8087

> <Gold.Chemscore.Rot>
1.6588

> <Gold.Chemscore.Internal.Correction>
   9.000000E+99

> <Gold.Chemscore.Hbonds>
donor molecule, donor type, donor heavy atom, donor atom, acceptor molecule, acceptor atom, score
      P1  H  7989  7998       L1     9  0.54

> <Gold.Chemscore.Hbond.Weighted>
-2.8482

> <Gold.Chemscore.Metal.Weighted>
-0.0000

> <Gold.Chemscore.Lipo.Weighted>
-12.3496

> <Gold.Chemscore.Internal_Hbond.Weighted>
0.0000

> <Gold.Chemscore.DEClash.Weighted>
0.0748

> <Gold.Chemscore.DEInternal.Weighted>
1.8087

> <Gold.Chemscore.Rot.Weighted>
4.2466

> <Gold.Chemscore.Internal.Correction.Weighted>
   9.000000E+99

> <Gold.Protein.RotatedTorsions>
[ 6907 6896 6895 6894 ] final   93.65 input  -60.11 | X-H torsion
[ 7974 7965 7964 7962 ] final -128.61 input  175.53 | X-H torsion
[ 8008 7997 7996 7995 ] final  -29.90 input   59.86 | X-H torsion
[ 10167 10162 10161 10158 ] final  103.05 input  -65.29 | X-H torsion
[ 10718 10713 10712 10709 ] final -170.31 input   66.30 | X-H torsion
[ 10763 10752 10751 10750 ] final  172.03 input  -60.55 | X-H torsion
[ 11005 11000 10999 10996 ] final   15.86 input  -57.11 | X-H torsion

> <Gold.Protein.ActiveResidues>
 VAL166  LYS551  ARG553  GLY616  TRP617  ASP618  TYR619  PRO620  LYS621  CYS622 
 ASP623  PHE694  ASN695  SER759  ASP760  ASP761  ALA762  ILE779  LEU786  VAL792 
 PHE793  MET794  SER795  GLU796  ALA797  LYS798  CYS799  TRP800  GLU811  SER814 

> <Gold.Protein.RotatedAtoms>
  152.5452  134.1315  159.8440 H   0  0  0  0  0  0  0  0  0  0  0  0  # atno 6907 bound_to 6896
  151.1360  133.4997  159.2605 H   0  0  0  0  0  0  0  0  0  0  0  0  # atno 6908 bound_to 6896
  151.1624  135.0290  159.8771 H   0  0  0  0  0  0  0  0  0  0  0  0  # atno 6909 bound_to 6896
  144.9653  140.7489  143.4704 H   0  0  0  0  0  0  0  0  0  0  0  0  # atno 7974 bound_to 7965
  154.4271  140.1806  156.1321 H   0  0  0  0  0  0  0  0  0  0  0  0  # atno 8008 bound_to 7997
  156.0059  140.3355  155.6867 H   0  0  0  0  0  0  0  0  0  0  0  0  # atno 8009 bound_to 7997
  155.6178  140.0656  157.2678 H   0  0  0  0  0  0  0  0  0  0  0  0  # atno 8010 bound_to 7997
  139.7297  144.7039  151.0742 H   0  0  0  0  0  0  0  0  0  0  0  0  # atno 10167 bound_to 10162
  156.7243  130.9282  151.3100 H   0  0  0  0  0  0  0  0  0  0  0  0  # atno 10718 bound_to 10713
  154.4203  135.2758  155.1980 H   0  0  0  0  0  0  0  0  0  0  0  0  # atno 10763 bound_to 10752
  154.3928  135.6062  153.5856 H   0  0  0  0  0  0  0  0  0  0  0  0  # atno 10764 bound_to 10752
  152.9833  135.5907  154.4498 H   0  0  0  0  0  0  0  0  0  0  0  0  # atno 10765 bound_to 10752
  140.4536  134.1199  155.7706 H   0  0  0  0  0  0  0  0  0  0  0  0  # atno 11005 bound_to 11000
  145.2639  139.1981  143.4877 LP  0  0  0  0  0  0  0  0  0  0  0  0  # atno 17320 bound_to 7965
  146.3366  140.2574  142.8600 LP  0  0  0  0  0  0  0  0  0  0  0  0  # atno 17321 bound_to 7965
  140.7769  143.5059  150.9712 LP  0  0  0  0  0  0  0  0  0  0  0  0  # atno 17342 bound_to 10162
  139.8747  143.7147  152.3163 LP  0  0  0  0  0  0  0  0  0  0  0  0  # atno 17343 bound_to 10162
  157.6885  130.9210  150.0450 LP  0  0  0  0  0  0  0  0  0  0  0  0  # atno 17370 bound_to 10713
  156.1573  130.3643  149.9350 LP  0  0  0  0  0  0  0  0  0  0  0  0  # atno 17371 bound_to 10713
  141.1653  133.8715  157.1732 LP  0  0  0  0  0  0  0  0  0  0  0  0  # atno 17394 bound_to 11000
  139.9991  135.0035  157.0149 LP  0  0  0  0  0  0  0  0  0  0  0  0  # atno 17395 bound_to 11000

$$$$
