#       Name:                AV-unprocessed.smi:1856
#       Creating user name   scv26
#       Creation time:       Fri Mar 27 09:25:18 2020


#       File generated by GOLD software.
#

@<TRIPOS>MOLECULE
AV-unprocessed.smi:1856
    49    50     1
SMALL
NO_CHARGES


@<TRIPOS>ATOM
      1 ****        -2.8282   5.3771  -0.8162 C.3            1 S1                 0.0000
      2 ****        -2.2146   4.1337  -0.1638 C.3            1 S1                 0.0000
      3 ****        -2.3729   2.8733  -1.0345 C.3            1 S1                 0.0000
      4 ****        -1.7629   1.6131  -0.4117 C.2            1 S1                 0.0000
      5 ****        -1.1542   1.6633   0.6578 O.2            1 S1                 0.0000
      6 ****        -1.9260   0.4767  -1.1077 N.am           1 S1                 0.0000
      7 ****        -1.4340  -0.8375  -0.6998 C.3            1 S1                 0.0000
      8 ****        -2.0450  -1.9214  -1.5970 C.3            1 S1                 0.0000
      9 ****         0.0656  -0.9248  -0.7180 C.2            1 S1                 0.0000
     10 ****         0.8945  -0.3202  -1.6179 N.pl3          1 S1                 1.0000
     11 ****         2.2228  -0.6173  -1.3144 C.ar           1 S1                 0.0000
     12 ****         3.4079  -0.2251  -1.9287 C.ar           1 S1                 0.0000
     13 ****         4.6049  -0.7083  -1.3603 C.ar           1 S1                 0.0000
     14 ****         4.5932  -1.5483  -0.2278 C.ar           1 S1                 0.0000
     15 ****         3.3846  -1.9407   0.3847 C.ar           1 S1                 0.0000
     16 ****         2.2061  -1.4564  -0.1824 C.ar           1 S1                 0.0000
     17 ****         0.8566  -1.6262   0.1458 N.pl3          1 S1                 0.0000
     18 ****         0.5045  -2.4769   1.2935 C.3            1 S1                 0.0000
     19 ****         0.6228  -1.7444   2.6437 C.3            1 S1                 0.0000
     20 ****         0.2775  -2.6576   3.8260 C.3            1 S1                 0.0000
     21 ****        -0.2456  -0.6303   2.6697 O.3            1 S1                 0.0000
     22 ****        -2.7028   6.2517  -0.1775 H              1 S1                 0.0000
     23 ****        -3.8960   5.2436  -0.9916 H              1 S1                 0.0000
     24 ****        -2.3541   5.5937  -1.7737 H              1 S1                 0.0000
     25 ****        -1.1577   4.3219   0.0305 H              1 S1                 0.0000
     26 ****        -2.6850   3.9743   0.8076 H              1 S1                 0.0000
     27 ****        -3.4312   2.6888  -1.2231 H              1 S1                 0.0000
     28 ****        -1.9044   3.0372  -2.0058 H              1 S1                 0.0000
     29 ****        -2.4419   0.5216  -1.9746 H              1 S1                 0.0000
     30 ****        -1.7782  -1.0116   0.3206 H              1 S1                 0.0000
     31 ****        -1.7430  -2.9164  -1.2683 H              1 S1                 0.0000
     32 ****        -1.7311  -1.8046  -2.6349 H              1 S1                 0.0000
     33 ****        -3.1346  -1.8847  -1.5716 H              1 S1                 0.0000
     34 ****         3.4192   0.4186  -2.7960 H              1 S1                 0.0000
     35 ****         5.5511  -0.4289  -1.8013 H              1 S1                 0.0000
     36 ****         5.5304  -1.8986   0.1801 H              1 S1                 0.0000
     37 ****         3.3863  -2.5828   1.2533 H              1 S1                 0.0000
     38 ****        -0.5129  -2.8396   1.1438 H              1 S1                 0.0000
     39 ****         1.1439  -3.3602   1.2748 H              1 S1                 0.0000
     40 ****         1.6406  -1.3751   2.7717 H              1 S1                 0.0000
     41 ****         0.9416  -3.5217   3.8590 H              1 S1                 0.0000
     42 ****        -0.7463  -3.0275   3.7575 H              1 S1                 0.0000
     43 ****         0.3777  -2.1288   4.7746 H              1 S1                 0.0000
     44 ****         0.0025  -0.0350   1.9786 H              1 S1                 0.0000
     45 ****         0.5690   0.2645  -2.3767 H              1 S1                 0.0000
     46 ****        -1.0517   2.5365   1.1343 LP             1 S1                 0.0000
     47 ****        -0.7625   0.8308   1.0498 LP             1 S1                 0.0000
     48 ****        -0.1733  -0.1682   3.5536 LP             1 S1                 0.0000
     49 ****        -1.1876  -0.9350   2.5290 LP             1 S1                 0.0000
@<TRIPOS>BOND
    1    1    2 1     
    2    1   22 1     
    3    1   23 1     
    4    1   24 1     
    5    2    3 1     
    6    2   25 1     
    7    2   26 1     
    8    3    4 1     
    9    3   27 1     
   10    3   28 1     
   11    4    5 2     
   12    4    6 am    
   13    6    7 1     
   14    6   29 1     
   15    7    8 1     
   16    7    9 1     
   17    7   30 1     
   18    8   31 1     
   19    8   32 1     
   20    8   33 1     
   21    9   17 1     
   22    9   10 2     
   23   10   11 1     
   24   10   45 1     
   25   11   16 ar    
   26   11   12 ar    
   27   12   13 ar    
   28   12   34 1     
   29   13   14 ar    
   30   13   35 1     
   31   14   15 ar    
   32   14   36 1     
   33   15   16 ar    
   34   15   37 1     
   35   16   17 1     
   36   17   18 1     
   37   18   19 1     
   38   18   38 1     
   39   18   39 1     
   40   19   20 1     
   41   19   21 1     
   42   19   40 1     
   43   20   41 1     
   44   20   42 1     
   45   20   43 1     
   46   21   44 1     
   47    5   46 1     
   48    5   47 1     
   49   21   48 1     
   50   21   49 1     
@<TRIPOS>SUBSTRUCTURE
      1 S1             1
@<TRIPOS>SET
LONE_PAIRS      STATIC     ATOMS    <user>   **** ""
4 46 47 48 49
DONOR_HYDROGENS      STATIC     ATOMS    <user>   **** ""
3 29 45 44
ATOM$BLUE        STATIC     ATOMS    COLORGROUP SYSTEM
4 46 47 48 49
ATOM$RED        STATIC     ATOMS    COLORGROUP SYSTEM
3 29 45 44
