#       Name:                AV-unprocessed.smi:2431
#       Creating user name   scv26
#       Creation time:       Fri Mar 27 13:21:55 2020


#       File generated by GOLD software.
#

@<TRIPOS>MOLECULE
AV-unprocessed.smi:2431
    41    42     1
SMALL
NO_CHARGES


@<TRIPOS>ATOM
      1 ****        -0.5355   1.6065  -0.0947 O.2            1 S1                 0.0000
      2 ****        -1.0196   0.6124  -0.6366 C.2            1 S1                 0.0000
      3 ****        -0.2902  -0.4353  -1.0465 N.am           1 S1                 0.0000
      4 ****         1.1568  -0.5507  -0.9076 C.3            1 S1                 0.0000
      5 ****         1.5485  -1.0309   0.4999 C.3            1 S1                 0.0000
      6 ****         3.0463  -1.1981   0.6635 C.2            1 S1                 0.0000
      7 ****         3.6979  -2.3370   0.8947 C.2            1 S1                 0.0000
      8 ****         5.1833  -2.1394   1.0231 C.3            1 S1                 0.0000
      9 ****         5.3727  -0.6139   0.8681 C.3            1 S1                 0.0000
     10 ****         3.9747  -0.0126   0.5992 C.3            1 S1                 0.0000
     11 ****        -2.3278   0.4174  -0.8754 N.am           1 S1                 0.0000
     12 ****        -3.4224   1.2761  -0.5699 C.ar           1 S1                 0.0000
     13 ****        -3.2814   2.6853  -0.5354 C.ar           1 S1                 0.0000
     14 ****        -4.4021   3.4768  -0.2221 C.ar           1 S1                 0.0000
     15 ****        -5.6193   2.9636   0.0433 N.ar           1 S1                 0.0000
     16 ****        -5.7602   1.6230  -0.0077 C.ar           1 S1                 0.0000
     17 ****        -4.7111   0.7279  -0.3200 C.ar           1 S1                 0.0000
     18 ****        -4.9885  -0.7208  -0.3584 N.pl3          1 S1                 1.0000
     19 ****        -5.7706  -1.1702   0.4724 O.2            1 S1                 0.0000
     20 ****        -4.4520  -1.4014  -1.2268 O.2            1 S1                -1.0000
     21 ****        -0.7693  -1.2120  -1.4786 H              1 S1                 0.0000
     22 ****         1.5126  -1.2608  -1.6546 H              1 S1                 0.0000
     23 ****         1.6290   0.4056  -1.1384 H              1 S1                 0.0000
     24 ****         1.1992  -0.3259   1.2550 H              1 S1                 0.0000
     25 ****         1.0614  -1.9837   0.7118 H              1 S1                 0.0000
     26 ****         3.2389  -3.3105   0.9866 H              1 S1                 0.0000
     27 ****         5.5316  -2.4945   1.9936 H              1 S1                 0.0000
     28 ****         5.7041  -2.6925   0.2409 H              1 S1                 0.0000
     29 ****         5.8011  -0.1889   1.7768 H              1 S1                 0.0000
     30 ****         6.0583  -0.3871   0.0508 H              1 S1                 0.0000
     31 ****         3.9262   0.4580  -0.3830 H              1 S1                 0.0000
     32 ****         3.7022   0.7266   1.3532 H              1 S1                 0.0000
     33 ****        -2.5804  -0.4906  -1.2384 H              1 S1                 0.0000
     34 ****        -2.3417   3.1712  -0.7498 H              1 S1                 0.0000
     35 ****        -4.3176   4.5529  -0.1872 H              1 S1                 0.0000
     36 ****        -6.7544   1.2538   0.1977 H              1 S1                 0.0000
     37 ****         0.4509   1.6612   0.0599 LP             1 S1                 0.0000
     38 ****        -1.1288   2.3591   0.1908 LP             1 S1                 0.0000
     39 ****        -6.3920   3.5564   0.2704 LP             1 S1                 0.0000
     40 ****        -6.1937  -0.5600   1.1423 LP             1 S1                 0.0000
     41 ****        -5.9853  -2.1469   0.4800 LP             1 S1                 0.0000
@<TRIPOS>BOND
    1    1    2 2     
    2    2    3 am    
    3    2   11 am    
    4    3    4 1     
    5    3   21 1     
    6    4    5 1     
    7    4   22 1     
    8    4   23 1     
    9    5    6 1     
   10    5   24 1     
   11    5   25 1     
   12    6   10 1     
   13    6    7 2     
   14    7    8 1     
   15    7   26 1     
   16    8    9 1     
   17    8   27 1     
   18    8   28 1     
   19    9   10 1     
   20    9   29 1     
   21    9   30 1     
   22   10   31 1     
   23   10   32 1     
   24   11   12 1     
   25   11   33 1     
   26   12   17 ar    
   27   12   13 ar    
   28   13   14 ar    
   29   13   34 1     
   30   14   15 ar    
   31   14   35 1     
   32   15   16 ar    
   33   16   17 ar    
   34   16   36 1     
   35   17   18 1     
   36   18   19 2     
   37   18   20 1     
   38    1   37 1     
   39    1   38 1     
   40   15   39 1     
   41   19   40 1     
   42   19   41 1     
@<TRIPOS>SUBSTRUCTURE
      1 S1             1
@<TRIPOS>SET
LONE_PAIRS      STATIC     ATOMS    <user>   **** ""
6 37 38 39 40 41 20
DONOR_HYDROGENS      STATIC     ATOMS    <user>   **** ""
2 21 33
ATOM$BLUE        STATIC     ATOMS    COLORGROUP SYSTEM
6 37 38 39 40 41 20
ATOM$RED        STATIC     ATOMS    COLORGROUP SYSTEM
2 21 33
