AV-unprocessed.smi:2334|AV-procd|sdf|9321|dock1
  -GOLD-   2272012543D 1   1.00000     0.00000
 Structure written by MMmdl.
 49 51  0  0  0  0  0  0  0  0  1 V2000
  149.5744  139.2904  153.9668 C   0  0  0  0  0  0  0  0  0  0  0  0
  150.3212  138.8109  155.1994 C   0  0  0  0  0  0  0  0  0  0  0  0
  150.9123  139.7803  155.9315 N   0  0  0  0  0  0  0  0  0  0  0  0
  151.5930  139.4410  157.0514 C   0  0  0  0  0  0  0  0  0  0  0  0
  152.1973  140.4824  157.7831 N   0  0  0  0  0  0  0  0  0  0  0  0
  151.6202  141.8168  157.8366 C   0  0  0  0  0  0  0  0  0  0  0  0
  152.4893  142.5734  158.8398 C   0  0  0  0  0  0  0  0  0  0  0  0
  152.9097  141.4827  159.8251 C   0  0  0  0  0  0  0  0  0  0  0  0
  153.0079  140.2180  158.9640 C   0  0  0  0  0  0  0  0  0  0  0  0
  151.7057  138.0960  157.4722 C   0  0  0  0  0  0  0  0  0  0  0  0
  151.0912  137.0854  156.7097 C   0  0  0  0  0  0  0  0  0  0  0  0
  150.3864  137.4382  155.5351 C   0  0  0  0  0  0  0  0  0  0  0  0
  149.7134  136.4905  154.7139 N   0  0  0  0  0  0  0  0  0  0  0  0
  149.2713  135.2649  155.0433 C   0  0  0  0  0  0  0  0  0  0  0  0
  149.4063  134.7378  156.1469 O   0  0  0  0  0  0  0  0  0  0  0  0
  148.6770  134.6734  153.9935 N   0  0  0  0  0  0  0  0  0  0  0  0
  148.0807  133.3310  153.9145 C   0  0  0  0  0  0  0  0  0  0  0  0
  149.1211  132.2677  154.3281 C   0  0  0  0  0  0  0  0  0  0  0  0
  146.8891  133.2851  154.8955 C   0  0  0  0  0  0  0  0  0  0  0  0
  145.7191  134.1726  154.4294 C   0  0  0  0  0  0  0  0  0  0  0  0
  145.3036  133.7884  153.1242 O   0  0  0  0  0  0  0  0  0  0  0  0
  146.3293  133.9392  152.1495 C   0  0  0  0  0  0  0  0  0  0  0  0
  147.5230  133.0331  152.5011 C   0  0  0  0  0  0  0  0  0  0  0  0
  149.9829  138.8232  153.0700 H   0  0  0  0  0  0  0  0  0  0  0  0
  149.6506  140.3721  153.8466 H   0  0  0  0  0  0  0  0  0  0  0  0
  148.5172  139.0334  154.0402 H   0  0  0  0  0  0  0  0  0  0  0  0
  151.6230  142.2968  156.8572 H   0  0  0  0  0  0  0  0  0  0  0  0
  150.5897  141.7547  158.1896 H   0  0  0  0  0  0  0  0  0  0  0  0
  153.3705  142.9747  158.3371 H   0  0  0  0  0  0  0  0  0  0  0  0
  151.9646  143.4021  159.3157 H   0  0  0  0  0  0  0  0  0  0  0  0
  153.8396  141.7132  160.3454 H   0  0  0  0  0  0  0  0  0  0  0  0
  152.1296  141.3517  160.5762 H   0  0  0  0  0  0  0  0  0  0  0  0
  152.6615  139.3438  159.5164 H   0  0  0  0  0  0  0  0  0  0  0  0
  154.0375  140.0412  158.6513 H   0  0  0  0  0  0  0  0  0  0  0  0
  152.2531  137.8257  158.3628 H   0  0  0  0  0  0  0  0  0  0  0  0
  151.1617  136.0637  157.0488 H   0  0  0  0  0  0  0  0  0  0  0  0
  149.6161  136.7519  153.7438 H   0  0  0  0  0  0  0  0  0  0  0  0
  148.6347  135.2120  153.1407 H   0  0  0  0  0  0  0  0  0  0  0  0
  148.6748  131.2736  154.3695 H   0  0  0  0  0  0  0  0  0  0  0  0
  149.5354  132.4808  155.3141 H   0  0  0  0  0  0  0  0  0  0  0  0
  149.9523  132.2123  153.6253 H   0  0  0  0  0  0  0  0  0  0  0  0
  146.5279  132.2597  154.9857 H   0  0  0  0  0  0  0  0  0  0  0  0
  147.2056  133.5830  155.8961 H   0  0  0  0  0  0  0  0  0  0  0  0
  144.8748  134.0633  155.1103 H   0  0  0  0  0  0  0  0  0  0  0  0
  145.9947  135.2281  154.4381 H   0  0  0  0  0  0  0  0  0  0  0  0
  145.9272  133.6636  151.1745 H   0  0  0  0  0  0  0  0  0  0  0  0
  146.6336  134.9846  152.0807 H   0  0  0  0  0  0  0  0  0  0  0  0
  148.2967  133.1243  151.7391 H   0  0  0  0  0  0  0  0  0  0  0  0
  147.1898  131.9952  152.4578 H   0  0  0  0  0  0  0  0  0  0  0  0
  1  2  1  0  0  0  0
  1 24  1  0  0  0  0
  1 25  1  0  0  0  0
  1 26  1  0  0  0  0
  2 12  1  0  0  0  0
  2  3  2  0  0  0  0
  3  4  1  0  0  0  0
  4  5  1  0  0  0  0
  4 10  2  0  0  0  0
  5  9  1  0  0  0  0
  5  6  1  0  0  0  0
  6  7  1  0  0  0  0
  6 27  1  0  0  0  0
  6 28  1  0  0  0  0
  7  8  1  0  0  0  0
  7 29  1  0  0  0  0
  7 30  1  0  0  0  0
  8  9  1  0  0  0  0
  8 31  1  0  0  0  0
  8 32  1  0  0  0  0
  9 33  1  0  0  0  0
  9 34  1  0  0  0  0
 10 11  1  0  0  0  0
 10 35  1  0  0  0  0
 11 12  2  0  0  0  0
 11 36  1  0  0  0  0
 12 13  1  0  0  0  0
 13 14  1  0  0  0  0
 13 37  1  0  0  0  0
 14 15  2  0  0  0  0
 14 16  1  0  0  0  0
 16 17  1  0  0  0  0
 16 38  1  0  0  0  0
 17 23  1  0  0  0  0
 17 18  1  0  0  0  0
 17 19  1  0  0  0  0
 18 39  1  0  0  0  0
 18 40  1  0  0  0  0
 18 41  1  0  0  0  0
 19 20  1  0  0  0  0
 19 42  1  0  0  0  0
 19 43  1  0  0  0  0
 20 21  1  0  0  0  0
 20 44  1  0  0  0  0
 20 45  1  0  0  0  0
 21 22  1  0  0  0  0
 22 23  1  0  0  0  0
 22 46  1  0  0  0  0
 22 47  1  0  0  0  0
 23 48  1  0  0  0  0
 23 49  1  0  0  0  0
M  END
> <s_m_source_file>
AV-unprocessed.smi

> <i_m_source_file_index>
2334

> <i_lp_mmshare_version>
43012

> <i_f3d_flags>
0

> <s_epik_input>
W0NIMl0xW0NIMl1bQ0gyXVtDSDJdTjFjKG5jMltDSDNdKVtjSF1bY0hdYzJbTkhdQyg9TylbTkhdQzMoW0NIM10pW0NIMl1bQ0gyXU9bQ0gyXVtDSDJdMw==

> <s_epik_cmdline>
J2VwaWtfcHl0aG9uJywgJy1waCcsICc3LjAnLCAnLXRuJywgJzgnLCAnLW1hJywgJzIwMCcsICctbWV0YWxfYmluZGluZycsICctaW1hZScsICc8aW5maWxlLm1hZT4nLCAnLW9tYWUnLCAnPG91dGZpbGUubWFlPic=

> <r_lp_tautomer_probability>
1

> <r_epik_Ionization_Penalty>
0.314437

> <r_epik_Ionization_Penalty_Charging>
0

> <r_epik_Ionization_Penalty_Neutral>
0.314437

> <r_epik_State_Penalty>
0.308039

> <r_epik_Charging_Adjusted_Penalty>
0.308039

> <i_epik_Tot_Q>
0

> <i_epik_Tot_abs_Q>
0

> <r_epik_Metal_State_Penalty>
0.200041

> <b_epik_Metal_Only>
0

> <s_lp_Force_Field>
OPLS_2005

> <r_lp_Energy>
36.0775

> <b_lp_Chiralities_Consistent>
1

> <s_lp_Variant>
AV-unprocessed.smi:2334-1

> <Gold.Version>
5.8.1

> <Gold.Id.Protein>
6NUR|6NUR_protein|mol2

> <Gold.PLP.Fitness>
37.8715

> <Gold.PLP.PLP>
-32.5167

> <Gold.PLP.part.hbond>
-2.0000

> <Gold.PLP.part.metal>
0.0000

> <Gold.PLP.part.buried>
-2.5366

> <Gold.PLP.part.nonpolar>
-28.0816

> <Gold.PLP.part.repulsive>
0.1593

> <Gold.PLP.ligand.clash>
0.0000

> <Gold.PLP.ligand.torsion>
0.3374

> <Gold.PLP.Chemscore.Hbond>
1.9357

> <Gold.PLP.Chemscore.CHOScore>
0.0000

> <Gold.PLP.Chemscore.Metal>
0.0000

> <Gold.Chemscore.Hbonds>
donor molecule, donor type, donor heavy atom, donor atom, acceptor molecule, acceptor atom, score
      L1  H    13    37       P1  7948  0.95
      L1  H    16    38       P1  7948  1.00

> <Gold.PLP.Chemscore.Internal.Correction>
0.2225

> <Gold.Rescore>
     Score         DG    S(hbond)    S(metal)    S(lipo)     H(rot)  DE(clash)    DE(int)     intcor
     14.83     -16.35       0.94        0.00      87.97       1.00       0.01       1.52       ----

> <Gold.Chemscore.Fitness>
14.8260

> <Gold.Chemscore.DG>
-16.3498

> <Gold.Chemscore.ZeroCoef>
-5.4800

> <Gold.Chemscore.Hbond>
0.9395

> <Gold.Chemscore.Metal>
0.0000

> <Gold.Chemscore.Lipo>
87.9660

> <Gold.Chemscore.Internal_Hbond>
0.0000

> <Gold.Chemscore.DEClash>
0.0052

> <Gold.Chemscore.DEInternal>
1.5187

> <Gold.Chemscore.Rot>
1.0000

> <Gold.Chemscore.Internal.Correction>
   9.000000E+99

> <Gold.Chemscore.Hbonds>
donor molecule, donor type, donor heavy atom, donor atom, acceptor molecule, acceptor atom, score
      L1  H    13    37       P1  7948  0.63
      L1  H    16    38       P1  7948  0.78

> <Gold.Chemscore.Hbond.Weighted>
-3.1378

> <Gold.Chemscore.Metal.Weighted>
-0.0000

> <Gold.Chemscore.Lipo.Weighted>
-10.2920

> <Gold.Chemscore.Internal_Hbond.Weighted>
0.0000

> <Gold.Chemscore.DEClash.Weighted>
0.0052

> <Gold.Chemscore.DEInternal.Weighted>
1.5187

> <Gold.Chemscore.Rot.Weighted>
2.5600

> <Gold.Chemscore.Internal.Correction.Weighted>
   9.000000E+99

> <Gold.Protein.RotatedTorsions>
[ 6907 6896 6895 6894 ] final  -73.76 input  -60.11 | X-H torsion
[ 7974 7965 7964 7962 ] final  151.26 input  175.53 | X-H torsion
[ 8008 7997 7996 7995 ] final -137.88 input   59.86 | X-H torsion
[ 10167 10162 10161 10158 ] final  131.07 input  -65.29 | X-H torsion
[ 10718 10713 10712 10709 ] final -134.01 input   66.30 | X-H torsion
[ 10763 10752 10751 10750 ] final -157.90 input  -60.55 | X-H torsion
[ 11005 11000 10999 10996 ] final  -21.23 input  -57.11 | X-H torsion

> <Gold.Protein.ActiveResidues>
 VAL166  LYS551  ARG553  GLY616  TRP617  ASP618  TYR619  PRO620  LYS621  CYS622 
 ASP623  PHE694  ASN695  SER759  ASP760  ASP761  ALA762  ILE779  LEU786  VAL792 
 PHE793  MET794  SER795  GLU796  ALA797  LYS798  CYS799  TRP800  GLU811  SER814 

> <Gold.Protein.RotatedAtoms>
  150.7118  134.4969  159.5542 H   0  0  0  0  0  0  0  0  0  0  0  0  # atno 6907 bound_to 6896
  152.2575  134.8066  160.0445 H   0  0  0  0  0  0  0  0  0  0  0  0  # atno 6908 bound_to 6896
  151.8791  133.3456  159.3797 H   0  0  0  0  0  0  0  0  0  0  0  0  # atno 6909 bound_to 6896
  144.8305  139.6514  143.6061 H   0  0  0  0  0  0  0  0  0  0  0  0  # atno 7974 bound_to 7965
  155.4191  140.0517  157.3027 H   0  0  0  0  0  0  0  0  0  0  0  0  # atno 8008 bound_to 7997
  154.4911  140.2120  155.9507 H   0  0  0  0  0  0  0  0  0  0  0  0  # atno 8009 bound_to 7997
  156.1343  140.3166  155.8401 H   0  0  0  0  0  0  0  0  0  0  0  0  # atno 8010 bound_to 7997
  139.5400  144.6721  151.4655 H   0  0  0  0  0  0  0  0  0  0  0  0  # atno 10167 bound_to 10162
  156.2509  130.7153  151.1051 H   0  0  0  0  0  0  0  0  0  0  0  0  # atno 10718 bound_to 10713
  154.7599  135.3115  154.8398 H   0  0  0  0  0  0  0  0  0  0  0  0  # atno 10763 bound_to 10752
  153.9161  135.6800  153.4753 H   0  0  0  0  0  0  0  0  0  0  0  0  # atno 10764 bound_to 10752
  153.1199  135.4827  154.9109 H   0  0  0  0  0  0  0  0  0  0  0  0  # atno 10765 bound_to 10752
  140.8541  133.7835  156.0000 H   0  0  0  0  0  0  0  0  0  0  0  0  # atno 11005 bound_to 11000
  146.2608  139.6406  142.9363 LP  0  0  0  0  0  0  0  0  0  0  0  0  # atno 17320 bound_to 7965
  145.4906  141.0438  143.2595 LP  0  0  0  0  0  0  0  0  0  0  0  0  # atno 17321 bound_to 7965
  140.6626  143.8466  150.6905 LP  0  0  0  0  0  0  0  0  0  0  0  0  # atno 17342 bound_to 10162
  140.1865  143.4071  152.1894 LP  0  0  0  0  0  0  0  0  0  0  0  0  # atno 17343 bound_to 10162
  157.7214  131.0679  150.6119 LP  0  0  0  0  0  0  0  0  0  0  0  0  # atno 17370 bound_to 10713
  156.6199  130.4403  149.5826 LP  0  0  0  0  0  0  0  0  0  0  0  0  # atno 17371 bound_to 10713
  140.8757  134.2673  157.5169 LP  0  0  0  0  0  0  0  0  0  0  0  0  # atno 17394 bound_to 11000
  139.8705  134.9589  156.4317 LP  0  0  0  0  0  0  0  0  0  0  0  0  # atno 17395 bound_to 11000

$$$$
