AV-unprocessed.smi:3301|AV-procd|sdf|12652|dock9
  -GOLD-   2272018583D 1   1.00000     0.00000
 Structure written by MMmdl.
 37 38  0  0  0  0  0  0  0  0  2 V2000
  150.8674  138.6572  156.4412 C   0  0  0  0  0  0  0  0  0  0  0  0
  150.0150  139.8760  156.0634 C   0  0  2  0  0  0  0  0  0  0  0  0
  149.6711  139.8726  154.5574 C   0  0  0  0  0  0  0  0  0  0  0  0
  148.4312  140.5924  154.2455 N   0  0  0  0  0  0  0  0  0  0  0  0
  148.1762  141.9271  154.4296 C   0  0  0  0  0  0  0  0  0  0  0  0
  146.8877  142.1403  154.0129 C   0  0  0  0  0  0  0  0  0  0  0  0
  146.4142  140.9295  153.5838 N   0  3  0  0  0  0  0  0  0  0  0  0
  147.3564  139.9907  153.7197 C   0  0  0  0  0  0  0  0  0  0  0  0
  150.7360  141.0933  156.4348 N   0  0  0  0  0  0  0  0  0  0  0  0
  150.3311  141.9967  157.3417 C   0  0  0  0  0  0  0  0  0  0  0  0
  149.2919  141.8817  157.9933 O   0  0  0  0  0  0  0  0  0  0  0  0
  151.2451  143.2113  157.5428 C   0  0  0  0  0  0  0  0  0  0  0  0
  151.7243  143.3341  158.9204 N   0  0  0  0  0  0  0  0  0  0  0  0
  151.5341  144.5688  159.6638 C   0  0  0  0  0  0  0  0  0  0  0  0
  152.0471  144.2721  161.0810 C   0  0  0  0  0  0  0  0  0  0  0  0
  152.7398  142.9069  161.0059 C   0  0  0  0  0  0  0  0  0  0  0  0
  152.3845  142.4016  159.6186 C   0  0  0  0  0  0  0  0  0  0  0  0
  152.6871  141.2773  159.2207 O   0  0  0  0  0  0  0  0  0  0  0  0
  150.3471  137.7278  156.2082 H   0  0  0  0  0  0  0  0  0  0  0  0
  151.0907  138.6489  157.5086 H   0  0  0  0  0  0  0  0  0  0  0  0
  151.8156  138.6511  155.9024 H   0  0  0  0  0  0  0  0  0  0  0  0
  149.0890  139.8079  156.6372 H   0  0  0  0  0  0  0  0  0  0  0  0
  150.4782  140.3210  153.9761 H   0  0  0  0  0  0  0  0  0  0  0  0
  149.5523  138.8502  154.1963 H   0  0  0  0  0  0  0  0  0  0  0  0
  148.9063  142.6075  154.8440 H   0  0  0  0  0  0  0  0  0  0  0  0
  146.2887  143.0388  153.9921 H   0  0  0  0  0  0  0  0  0  0  0  0
  147.2624  138.9492  153.4683 H   0  0  0  0  0  0  0  0  0  0  0  0
  151.6080  141.2671  155.9557 H   0  0  0  0  0  0  0  0  0  0  0  0
  152.0944  143.1200  156.8648 H   0  0  0  0  0  0  0  0  0  0  0  0
  150.7202  144.1261  157.2619 H   0  0  0  0  0  0  0  0  0  0  0  0
  152.1108  145.3675  159.1954 H   0  0  0  0  0  0  0  0  0  0  0  0
  150.4843  144.8648  159.6717 H   0  0  0  0  0  0  0  0  0  0  0  0
  152.7276  145.0504  161.4284 H   0  0  0  0  0  0  0  0  0  0  0  0
  151.2134  144.2304  161.7831 H   0  0  0  0  0  0  0  0  0  0  0  0
  153.8224  143.0022  161.0948 H   0  0  0  0  0  0  0  0  0  0  0  0
  152.3834  142.2232  161.7772 H   0  0  0  0  0  0  0  0  0  0  0  0
  145.4847  140.7648  153.2181 H   0  0  0  0  0  0  0  0  0  0  0  0
  1  2  1  0  0  0  0
  1 19  1  0  0  0  0
  1 20  1  0  0  0  0
  1 21  1  0  0  0  0
  2  3  1  0  0  0  0
  2  9  1  0  0  0  0
  2 22  1  0  0  0  0
  3  4  1  0  0  0  0
  3 23  1  0  0  0  0
  3 24  1  0  0  0  0
  4  8  1  0  0  0  0
  4  5  1  0  0  0  0
  5  6  2  0  0  0  0
  5 25  1  0  0  0  0
  6  7  1  0  0  0  0
  6 26  1  0  0  0  0
  7  8  2  0  0  0  0
  7 37  1  0  0  0  0
  8 27  1  0  0  0  0
  9 10  1  0  0  0  0
  9 28  1  0  0  0  0
 10 11  2  0  0  0  0
 10 12  1  0  0  0  0
 12 13  1  0  0  0  0
 12 29  1  0  0  0  0
 12 30  1  0  0  0  0
 13 17  1  0  0  0  0
 13 14  1  0  0  0  0
 14 15  1  0  0  0  0
 14 31  1  0  0  0  0
 14 32  1  0  0  0  0
 15 16  1  0  0  0  0
 15 33  1  0  0  0  0
 15 34  1  0  0  0  0
 16 17  1  0  0  0  0
 16 35  1  0  0  0  0
 16 36  1  0  0  0  0
 17 18  2  0  0  0  0
M  CHG  1   7   1
M  END
> <s_m_source_file>
AV-unprocessed.smi

> <i_m_source_file_index>
3301

> <i_lp_mmshare_version>
43012

> <i_f3d_flags>
0

> <s_epik_input>
W2NIXTFuW2NIXVtjSF1uMVtDSDJdW0NAQEhdKFtDSDNdKVtOSF1DKD1PKVtDSDJdTjJbQ0gyXVtDSDJdW0NIMl1DMj1P

> <s_epik_cmdline>
J2VwaWtfcHl0aG9uJywgJy1waCcsICc3LjAnLCAnLXRuJywgJzgnLCAnLW1hJywgJzIwMCcsICctbWV0YWxfYmluZGluZycsICctaW1hZScsICc8aW5maWxlLm1hZT4nLCAnLW9tYWUnLCAnPG91dGZpbGUubWFlPic=

> <r_lp_tautomer_probability>
1

> <r_epik_Ionization_Penalty>
0.254232

> <r_epik_Ionization_Penalty_Charging>
0

> <r_epik_Ionization_Penalty_Neutral>
0.254232

> <r_epik_State_Penalty>
0.245698

> <r_epik_Charging_Adjusted_Penalty>
0.245698

> <i_epik_Tot_Q>
1

> <i_epik_Tot_abs_Q>
1

> <r_epik_Metal_State_Penalty>
0.5358

> <b_epik_Metal_Only>
0

> <s_lp_Force_Field>
OPLS_2005

> <r_lp_Energy>
13.6599

> <b_lp_Chiralities_Consistent>
1

> <s_lp_Variant>
AV-unprocessed.smi:3301-1

> <Gold.Version>
5.8.1

> <Gold.Id.Protein>
6NUR|6NUR_protein|mol2

> <Gold.PLP.Fitness>
48.5603

> <Gold.PLP.PLP>
-40.1939

> <Gold.PLP.part.hbond>
-1.0000

> <Gold.PLP.part.metal>
0.0000

> <Gold.PLP.part.buried>
-2.7120

> <Gold.PLP.part.nonpolar>
-36.7296

> <Gold.PLP.part.repulsive>
0.2207

> <Gold.PLP.ligand.clash>
0.0000

> <Gold.PLP.ligand.torsion>
0.3301

> <Gold.PLP.Chemscore.Hbond>
2.0000

> <Gold.PLP.Chemscore.CHOScore>
1.0000

> <Gold.PLP.Chemscore.Metal>
0.0000

> <Gold.Chemscore.Hbonds>
donor molecule, donor type, donor heavy atom, donor atom, acceptor molecule, acceptor atom, score
      L1  H     7    37       P1 10175  2.00
      L1  C     5    25       P1  8028  1.00

> <Gold.PLP.Chemscore.Internal.Correction>
0.0267

> <Gold.Rescore>
     Score         DG    S(hbond)    S(metal)    S(lipo)     H(rot)  DE(clash)    DE(int)     intcor
     11.56     -11.96       0.97        0.00      78.90       2.35       0.01       0.38       ----

> <Gold.Chemscore.Fitness>
11.5625

> <Gold.Chemscore.DG>
-11.9555

> <Gold.Chemscore.ZeroCoef>
-5.4800

> <Gold.Chemscore.Hbond>
0.9739

> <Gold.Chemscore.Metal>
0.0000

> <Gold.Chemscore.Lipo>
78.8975

> <Gold.Chemscore.Internal_Hbond>
0.0000

> <Gold.Chemscore.DEClash>
0.0124

> <Gold.Chemscore.DEInternal>
0.3805

> <Gold.Chemscore.Rot>
2.3470

> <Gold.Chemscore.Internal.Correction>
   9.000000E+99

> <Gold.Chemscore.Hbonds>
donor molecule, donor type, donor heavy atom, donor atom, acceptor molecule, acceptor atom, score
      L1  H     7    37       P1 10175  0.73

> <Gold.Chemscore.Hbond.Weighted>
-3.2528

> <Gold.Chemscore.Metal.Weighted>
-0.0000

> <Gold.Chemscore.Lipo.Weighted>
-9.2310

> <Gold.Chemscore.Internal_Hbond.Weighted>
0.0000

> <Gold.Chemscore.DEClash.Weighted>
0.0124

> <Gold.Chemscore.DEInternal.Weighted>
0.3805

> <Gold.Chemscore.Rot.Weighted>
6.0083

> <Gold.Chemscore.Internal.Correction.Weighted>
   9.000000E+99

> <Gold.Protein.RotatedTorsions>
[ 6907 6896 6895 6894 ] final   83.20 input  -60.11 | X-H torsion
[ 7974 7965 7964 7962 ] final -125.26 input  175.53 | X-H torsion
[ 8008 7997 7996 7995 ] final -174.54 input   59.86 | X-H torsion
[ 10167 10162 10161 10158 ] final  177.06 input  -65.29 | X-H torsion
[ 10718 10713 10712 10709 ] final  153.88 input   66.30 | X-H torsion
[ 10763 10752 10751 10750 ] final  -72.78 input  -60.55 | X-H torsion
[ 11005 11000 10999 10996 ] final   34.34 input  -57.11 | X-H torsion

> <Gold.Protein.ActiveResidues>
 VAL166  LYS551  ARG553  GLY616  TRP617  ASP618  TYR619  PRO620  LYS621  CYS622 
 ASP623  PHE694  ASN695  SER759  ASP760  ASP761  ALA762  ILE779  LEU786  VAL792 
 PHE793  MET794  SER795  GLU796  ALA797  LYS798  CYS799  TRP800  GLU811  SER814 

> <Gold.Protein.RotatedAtoms>
  152.5321  134.2931  159.9050 H   0  0  0  0  0  0  0  0  0  0  0  0  # atno 6907 bound_to 6896
  151.2883  133.4170  159.2639 H   0  0  0  0  0  0  0  0  0  0  0  0  # atno 6908 bound_to 6896
  151.0223  134.9494  159.8123 H   0  0  0  0  0  0  0  0  0  0  0  0  # atno 6909 bound_to 6896
  144.9995  140.7807  143.4505 H   0  0  0  0  0  0  0  0  0  0  0  0  # atno 7974 bound_to 7965
  155.9713  140.1163  157.0809 H   0  0  0  0  0  0  0  0  0  0  0  0  # atno 8008 bound_to 7997
  154.4157  140.1162  156.5378 H   0  0  0  0  0  0  0  0  0  0  0  0  # atno 8009 bound_to 7997
  155.6592  140.3473  155.4779 H   0  0  0  0  0  0  0  0  0  0  0  0  # atno 8010 bound_to 7997
  139.5238  144.2842  152.0520 H   0  0  0  0  0  0  0  0  0  0  0  0  # atno 10167 bound_to 10162
  157.2390  131.0755  151.1804 H   0  0  0  0  0  0  0  0  0  0  0  0  # atno 10718 bound_to 10713
  154.4504  135.5919  153.6188 H   0  0  0  0  0  0  0  0  0  0  0  0  # atno 10763 bound_to 10752
  152.9813  135.6019  154.3611 H   0  0  0  0  0  0  0  0  0  0  0  0  # atno 10764 bound_to 10752
  154.3472  135.2841  155.2370 H   0  0  0  0  0  0  0  0  0  0  0  0  # atno 10765 bound_to 10752
  140.2538  134.3271  155.7881 H   0  0  0  0  0  0  0  0  0  0  0  0  # atno 11005 bound_to 11000
  145.2173  139.2175  143.5111 LP  0  0  0  0  0  0  0  0  0  0  0  0  # atno 17320 bound_to 7965
  146.3449  140.2024  142.8589 LP  0  0  0  0  0  0  0  0  0  0  0  0  # atno 17321 bound_to 7965
  140.2296  144.4382  150.6306 LP  0  0  0  0  0  0  0  0  0  0  0  0  # atno 17342 bound_to 10162
  140.6364  143.2195  151.6385 LP  0  0  0  0  0  0  0  0  0  0  0  0  # atno 17343 bound_to 10162
  157.3399  130.7028  149.6375 LP  0  0  0  0  0  0  0  0  0  0  0  0  # atno 17370 bound_to 10713
  155.9671  130.4283  150.4782 LP  0  0  0  0  0  0  0  0  0  0  0  0  # atno 17371 bound_to 10713
  141.2198  133.7369  156.9080 LP  0  0  0  0  0  0  0  0  0  0  0  0  # atno 17394 bound_to 11000
  140.1531  134.9216  157.2619 LP  0  0  0  0  0  0  0  0  0  0  0  0  # atno 17395 bound_to 11000

$$$$
