AV-unprocessed.smi:1721|AV-procd|sdf|6935|dock7
  -GOLD-   22720 8143D 1   1.00000     0.00000
 Structure written by MMmdl.
 44 46  0  0  0  0  0  0  0  0  2 V2000
  148.6576  140.4935  153.6308 C   0  0  0  0  0  0  0  0  0  0  0  0
  149.2859  139.2182  153.5589 O   0  0  0  0  0  0  0  0  0  0  0  0
  150.4997  139.0427  154.1965 C   0  0  0  0  0  0  0  0  0  0  0  0
  151.2124  140.1456  154.5372 N   0  0  0  0  0  0  0  0  0  0  0  0
  152.3976  139.9788  155.1575 C   0  0  0  0  0  0  0  0  0  0  0  0
  152.9318  138.7155  155.4680 C   0  0  0  0  0  0  0  0  0  0  0  0
  152.1950  137.5696  155.1164 C   0  0  0  0  0  0  0  0  0  0  0  0
  150.9456  137.7267  154.4654 C   0  0  0  0  0  0  0  0  0  0  0  0
  150.1050  136.6510  154.0572 N   0  0  0  0  0  0  0  0  0  0  0  0
  150.0124  135.3984  154.5362 C   0  0  0  0  0  0  0  0  0  0  0  0
  150.6738  134.9305  155.4616 O   0  0  0  0  0  0  0  0  0  0  0  0
  149.0836  134.6978  153.8703 N   0  0  0  0  0  0  0  0  0  0  0  0
  148.7330  133.3044  154.1311 C   0  0  2  0  0  0  0  0  0  0  0  0
  149.9502  132.4038  154.3047 C   0  0  0  0  0  0  0  0  0  0  0  0
  149.3590  131.0129  154.0685 C   0  0  0  0  0  0  0  0  0  0  0  0
  148.2844  131.1907  153.0645 N   0  3  1  0  0  0  0  0  0  0  0  0
  147.1072  130.3097  153.2610 C   0  0  0  0  0  0  0  0  0  0  0  0
  146.0572  130.5466  152.1594 C   0  0  0  0  0  0  0  0  0  0  0  0
  145.7275  132.0391  151.9476 C   0  0  0  0  0  0  0  0  0  0  0  0
  146.4674  132.9490  152.9401 C   0  0  0  0  0  0  0  0  0  0  0  0
  147.9837  132.6471  152.9594 C   0  0  1  0  0  0  0  0  0  0  0  0
  147.7200  140.4649  153.0758 H   0  0  0  0  0  0  0  0  0  0  0  0
  149.2802  141.2718  153.1869 H   0  0  0  0  0  0  0  0  0  0  0  0
  148.4237  140.7654  154.6610 H   0  0  0  0  0  0  0  0  0  0  0  0
  152.9367  140.8790  155.4131 H   0  0  0  0  0  0  0  0  0  0  0  0
  153.8867  138.6271  155.9647 H   0  0  0  0  0  0  0  0  0  0  0  0
  152.6122  136.6053  155.3551 H   0  0  0  0  0  0  0  0  0  0  0  0
  149.4813  136.8740  153.2949 H   0  0  0  0  0  0  0  0  0  0  0  0
  148.5874  135.1610  153.1228 H   0  0  0  0  0  0  0  0  0  0  0  0
  148.1332  133.2299  155.0411 H   0  0  0  0  0  0  0  0  0  0  0  0
  150.7016  132.6239  153.5447 H   0  0  0  0  0  0  0  0  0  0  0  0
  150.4179  132.5037  155.2848 H   0  0  0  0  0  0  0  0  0  0  0  0
  150.1055  130.2940  153.7301 H   0  0  0  0  0  0  0  0  0  0  0  0
  148.9378  130.6399  155.0036 H   0  0  0  0  0  0  0  0  0  0  0  0
  147.4271  129.2671  153.2535 H   0  0  0  0  0  0  0  0  0  0  0  0
  146.6692  130.4958  154.2430 H   0  0  0  0  0  0  0  0  0  0  0  0
  146.4185  130.1259  151.2202 H   0  0  0  0  0  0  0  0  0  0  0  0
  145.1479  129.9958  152.4026 H   0  0  0  0  0  0  0  0  0  0  0  0
  146.0018  132.3245  150.9312 H   0  0  0  0  0  0  0  0  0  0  0  0
  144.6519  132.2016  152.0263 H   0  0  0  0  0  0  0  0  0  0  0  0
  146.2953  133.9939  152.6810 H   0  0  0  0  0  0  0  0  0  0  0  0
  146.0445  132.8129  153.9364 H   0  0  0  0  0  0  0  0  0  0  0  0
  148.4241  132.9775  152.0171 H   0  0  0  0  0  0  0  0  0  0  0  0
  148.6805  130.9341  152.1716 H   0  0  0  0  0  0  0  0  0  0  0  0
  1  2  1  0  0  0  0
  1 22  1  0  0  0  0
  1 23  1  0  0  0  0
  1 24  1  0  0  0  0
  2  3  1  0  0  0  0
  3  8  1  0  0  0  0
  3  4  2  0  0  0  0
  4  5  1  0  0  0  0
  5  6  2  0  0  0  0
  5 25  1  0  0  0  0
  6  7  1  0  0  0  0
  6 26  1  0  0  0  0
  7  8  2  0  0  0  0
  7 27  1  0  0  0  0
  8  9  1  0  0  0  0
  9 10  1  0  0  0  0
  9 28  1  0  0  0  0
 10 11  2  0  0  0  0
 10 12  1  0  0  0  0
 12 13  1  0  0  0  0
 12 29  1  0  0  0  0
 13 21  1  0  0  0  0
 13 14  1  0  0  0  0
 13 30  1  0  0  0  0
 14 15  1  0  0  0  0
 14 31  1  0  0  0  0
 14 32  1  0  0  0  0
 15 16  1  0  0  0  0
 15 33  1  0  0  0  0
 15 34  1  0  0  0  0
 16 21  1  0  0  0  0
 16 17  1  0  0  0  0
 16 44  1  0  0  0  0
 17 18  1  0  0  0  0
 17 35  1  0  0  0  0
 17 36  1  0  0  0  0
 18 19  1  0  0  0  0
 18 37  1  0  0  0  0
 18 38  1  0  0  0  0
 19 20  1  0  0  0  0
 19 39  1  0  0  0  0
 19 40  1  0  0  0  0
 20 21  1  0  0  0  0
 20 41  1  0  0  0  0
 20 42  1  0  0  0  0
 21 43  1  0  0  0  0
M  CHG  1  16   1
M  END
> <s_m_source_file>
AV-unprocessed.smi

> <i_m_source_file_index>
1721

> <i_lp_mmshare_version>
43012

> <i_f3d_flags>
0

> <s_epik_input>
W0NIM11PYzFuW2NIXVtjSF1bY0hdYzFbTkhdQyg9TylbTkhdW0NASF0oW0NIMl1bQ0gyXTIpW0NAQEhdKE4yMylbQ0gyXVtDSDJdW0NIMl1bQ0gyXTM=

> <s_epik_cmdline>
J2VwaWtfcHl0aG9uJywgJy1waCcsICc3LjAnLCAnLXRuJywgJzgnLCAnLW1hJywgJzIwMCcsICctbWV0YWxfYmluZGluZycsICctaW1hZScsICc8aW5maWxlLm1hZT4nLCAnLW9tYWUnLCAnPG91dGZpbGUubWFlPic=

> <r_lp_tautomer_probability>
1

> <r_epik_Ionization_Penalty>
0.00104793

> <r_epik_Ionization_Penalty_Charging>
0.000974069

> <r_epik_Ionization_Penalty_Neutral>
7.38649e-05

> <r_epik_State_Penalty>
0.000633842

> <r_epik_Charging_Adjusted_Penalty>
0.00160791

> <i_epik_Tot_Q>
1

> <i_epik_Tot_abs_Q>
1

> <r_epik_Metal_State_Penalty>
-0

> <b_epik_Metal_Only>
0

> <s_lp_Force_Field>
OPLS_2005

> <r_lp_Energy>
42.7216

> <b_lp_Chiralities_Consistent>
1

> <s_lp_Variant>
AV-unprocessed.smi:1721-1

> <Gold.Version>
5.8.1

> <Gold.Id.Protein>
6NUR|6NUR_protein|mol2

> <Gold.PLP.Fitness>
45.6068

> <Gold.PLP.PLP>
-35.8884

> <Gold.PLP.part.hbond>
-4.4534

> <Gold.PLP.part.metal>
0.0000

> <Gold.PLP.part.buried>
-2.6789

> <Gold.PLP.part.nonpolar>
-30.1115

> <Gold.PLP.part.repulsive>
1.4929

> <Gold.PLP.ligand.clash>
0.0000

> <Gold.PLP.ligand.torsion>
0.5925

> <Gold.PLP.Chemscore.Hbond>
3.6320

> <Gold.PLP.Chemscore.CHOScore>
0.0000

> <Gold.PLP.Chemscore.Metal>
0.0000

> <Gold.Chemscore.Hbonds>
donor molecule, donor type, donor heavy atom, donor atom, acceptor molecule, acceptor atom, score
      L1  H     9    28       P1  7948  0.78
      L1  H    12    29       P1  7948  0.74
      L1  H    16    44       P1 10747  1.00
      P1  H  7989  7998       L1     4  0.45

> <Gold.PLP.Chemscore.Internal.Correction>
0.0075

> <Gold.Rescore>
     Score         DG    S(hbond)    S(metal)    S(lipo)     H(rot)  DE(clash)    DE(int)     intcor
     17.67     -20.01       2.48        0.00      80.60       1.25       0.12       2.22       ----

> <Gold.Chemscore.Fitness>
17.6744

> <Gold.Chemscore.DG>
-20.0069

> <Gold.Chemscore.ZeroCoef>
-5.4800

> <Gold.Chemscore.Hbond>
2.4822

> <Gold.Chemscore.Metal>
0.0000

> <Gold.Chemscore.Lipo>
80.5959

> <Gold.Chemscore.Internal_Hbond>
0.0000

> <Gold.Chemscore.DEClash>
0.1166

> <Gold.Chemscore.DEInternal>
2.2160

> <Gold.Chemscore.Rot>
1.2474

> <Gold.Chemscore.Internal.Correction>
   9.000000E+99

> <Gold.Chemscore.Hbonds>
donor molecule, donor type, donor heavy atom, donor atom, acceptor molecule, acceptor atom, score
      L1  H     9    28       P1  7948  0.63
      L1  H    12    29       P1  7948  0.56
      L1  H    16    44       P1 10747  0.85
      P1  H  7989  7998       L1     4  0.08

> <Gold.Chemscore.Hbond.Weighted>
-8.2907

> <Gold.Chemscore.Metal.Weighted>
-0.0000

> <Gold.Chemscore.Lipo.Weighted>
-9.4297

> <Gold.Chemscore.Internal_Hbond.Weighted>
0.0000

> <Gold.Chemscore.DEClash.Weighted>
0.1166

> <Gold.Chemscore.DEInternal.Weighted>
2.2160

> <Gold.Chemscore.Rot.Weighted>
3.1934

> <Gold.Chemscore.Internal.Correction.Weighted>
   9.000000E+99

> <Gold.Protein.RotatedTorsions>
[ 6907 6896 6895 6894 ] final  178.04 input  -60.11 | X-H torsion
[ 7974 7965 7964 7962 ] final  -84.09 input  175.53 | X-H torsion
[ 8008 7997 7996 7995 ] final  -37.07 input   59.86 | X-H torsion
[ 10167 10162 10161 10158 ] final   45.87 input  -65.29 | X-H torsion
[ 10718 10713 10712 10709 ] final   67.63 input   66.30 | X-H torsion
[ 10763 10752 10751 10750 ] final -120.34 input  -60.55 | X-H torsion
[ 11005 11000 10999 10996 ] final -168.10 input  -57.11 | X-H torsion

> <Gold.Protein.ActiveResidues>
 VAL166  LYS551  ARG553  GLY616  TRP617  ASP618  TYR619  PRO620  LYS621  CYS622 
 ASP623  PHE694  ASN695  SER759  ASP760  ASP761  ALA762  ILE779  LEU786  VAL792 
 PHE793  MET794  SER795  GLU796  ALA797  LYS798  CYS799  TRP800  GLU811  SER814 

> <Gold.Protein.RotatedAtoms>
  151.6943  133.3311  159.3250 H   0  0  0  0  0  0  0  0  0  0  0  0  # atno 6907 bound_to 6896
  150.7765  134.6671  159.6381 H   0  0  0  0  0  0  0  0  0  0  0  0  # atno 6908 bound_to 6896
  152.3808  134.6596  160.0195 H   0  0  0  0  0  0  0  0  0  0  0  0  # atno 6909 bound_to 6896
  145.5113  140.9539  143.1706 H   0  0  0  0  0  0  0  0  0  0  0  0  # atno 7974 bound_to 7965
  154.4060  140.1614  156.2477 H   0  0  0  0  0  0  0  0  0  0  0  0  # atno 8008 bound_to 7997
  155.9146  140.3425  155.6102 H   0  0  0  0  0  0  0  0  0  0  0  0  # atno 8009 bound_to 7997
  155.7295  140.0778  157.2286 H   0  0  0  0  0  0  0  0  0  0  0  0  # atno 8010 bound_to 7997
  140.3198  144.2719  150.6185 H   0  0  0  0  0  0  0  0  0  0  0  0  # atno 10167 bound_to 10162
  157.6242  130.9331  150.0268 H   0  0  0  0  0  0  0  0  0  0  0  0  # atno 10718 bound_to 10713
  154.8641  135.4206  154.2444 H   0  0  0  0  0  0  0  0  0  0  0  0  # atno 10763 bound_to 10752
  153.3403  135.6993  153.6878 H   0  0  0  0  0  0  0  0  0  0  0  0  # atno 10764 bound_to 10752
  153.5859  135.3564  155.2866 H   0  0  0  0  0  0  0  0  0  0  0  0  # atno 10765 bound_to 10752
  140.5457  134.5478  157.5110 H   0  0  0  0  0  0  0  0  0  0  0  0  # atno 11005 bound_to 11000
  144.7726  139.6701  143.7188 LP  0  0  0  0  0  0  0  0  0  0  0  0  # atno 17320 bound_to 7965
  146.2165  139.5558  142.9647 LP  0  0  0  0  0  0  0  0  0  0  0  0  # atno 17321 bound_to 7965
  140.5494  143.2209  151.7953 LP  0  0  0  0  0  0  0  0  0  0  0  0  # atno 17342 bound_to 10162
  139.4876  144.4496  151.9669 LP  0  0  0  0  0  0  0  0  0  0  0  0  # atno 17343 bound_to 10162
  156.1404  130.3642  149.9592 LP  0  0  0  0  0  0  0  0  0  0  0  0  # atno 17370 bound_to 10713
  156.7634  130.9159  151.3642 LP  0  0  0  0  0  0  0  0  0  0  0  0  # atno 17371 bound_to 10713
  139.9481  134.7666  156.0514 LP  0  0  0  0  0  0  0  0  0  0  0  0  # atno 17394 bound_to 11000
  141.1201  133.6615  156.3193 LP  0  0  0  0  0  0  0  0  0  0  0  0  # atno 17395 bound_to 11000

$$$$
