AV-unprocessed.smi:2804|AV-procd|sdf|10809|dock3
  -GOLD-   2272015243D 1   1.00000     0.00000
 Structure written by MMmdl.
 35 36  0  0  0  0  0  0  0  0  1 V2000
  149.2432  141.5478  154.9702 C   0  0  0  0  0  0  0  0  0  0  0  0
  150.0360  141.2145  156.2377 C   0  0  0  0  0  0  0  0  0  0  0  0
  150.9188  142.3830  156.7030 C   0  0  0  0  0  0  0  0  0  0  0  0
  151.6472  142.0402  157.9215 N   0  0  0  0  0  0  0  0  0  0  0  0
  152.2738  140.8697  158.1848 C   0  0  0  0  0  0  0  0  0  0  0  0
  152.3471  139.9014  157.4283 O   0  0  0  0  0  0  0  0  0  0  0  0
  152.7909  140.9409  159.4341 N   0  0  0  0  0  0  0  0  0  0  0  0
  153.5305  139.8875  160.1282 C   0  0  0  0  0  0  0  0  0  0  0  0
  155.0261  140.2398  160.2725 C   0  0  2  0  0  0  0  0  0  0  0  0
  155.7080  139.7754  159.1234 O   0  0  0  0  0  0  0  0  0  0  0  0
  155.6744  139.5852  161.5081 C   0  0  0  0  0  0  0  0  0  0  0  0
  156.9982  139.7395  161.4686 F   0  0  0  0  0  0  0  0  0  0  0  0
  155.2257  140.1769  162.6150 F   0  0  0  0  0  0  0  0  0  0  0  0
  155.3778  138.2864  161.5685 F   0  0  0  0  0  0  0  0  0  0  0  0
  152.4708  142.1869  159.9932 C   0  0  0  0  0  0  0  0  0  0  0  0
  152.7536  142.7373  161.2559 C   0  0  0  0  0  0  0  0  0  0  0  0
  152.2676  144.0399  161.5173 C   0  0  0  0  0  0  0  0  0  0  0  0
  151.5250  144.7494  160.5379 C   0  0  0  0  0  0  0  0  0  0  0  0
  151.2534  144.1716  159.2757 C   0  0  0  0  0  0  0  0  0  0  0  0
  151.7497  142.8774  159.0414 C   0  0  0  0  0  0  0  0  0  0  0  0
  148.6238  140.7037  154.6665 H   0  0  0  0  0  0  0  0  0  0  0  0
  149.9096  141.7873  154.1411 H   0  0  0  0  0  0  0  0  0  0  0  0
  148.5857  142.4026  155.1311 H   0  0  0  0  0  0  0  0  0  0  0  0
  149.3411  140.9397  157.0321 H   0  0  0  0  0  0  0  0  0  0  0  0
  150.6555  140.3362  156.0523 H   0  0  0  0  0  0  0  0  0  0  0  0
  151.6234  142.6561  155.9159 H   0  0  0  0  0  0  0  0  0  0  0  0
  150.3091  143.2691  156.8828 H   0  0  0  0  0  0  0  0  0  0  0  0
  153.0839  139.7692  161.1164 H   0  0  0  0  0  0  0  0  0  0  0  0
  153.3993  138.9249  159.6329 H   0  0  0  0  0  0  0  0  0  0  0  0
  155.1570  141.3207  160.3417 H   0  0  0  0  0  0  0  0  0  0  0  0
  156.5864  139.5337  159.3745 H   0  0  0  0  0  0  0  0  0  0  0  0
  153.3139  142.1923  162.0009 H   0  0  0  0  0  0  0  0  0  0  0  0
  152.4617  144.4989  162.4754 H   0  0  0  0  0  0  0  0  0  0  0  0
  151.1608  145.7417  160.7595 H   0  0  0  0  0  0  0  0  0  0  0  0
  150.6853  144.7049  158.5279 H   0  0  0  0  0  0  0  0  0  0  0  0
  1  2  1  0  0  0  0
  1 21  1  0  0  0  0
  1 22  1  0  0  0  0
  1 23  1  0  0  0  0
  2  3  1  0  0  0  0
  2 24  1  0  0  0  0
  2 25  1  0  0  0  0
  3  4  1  0  0  0  0
  3 26  1  0  0  0  0
  3 27  1  0  0  0  0
  4 20  1  0  0  0  0
  4  5  1  0  0  0  0
  5  6  2  0  0  0  0
  5  7  1  0  0  0  0
  7  8  1  0  0  0  0
  7 15  1  0  0  0  0
  8  9  1  0  0  0  0
  8 28  1  0  0  0  0
  8 29  1  0  0  0  0
  9 10  1  0  0  0  0
  9 11  1  0  0  0  0
  9 30  1  0  0  0  0
 10 31  1  0  0  0  0
 11 12  1  0  0  0  0
 11 13  1  0  0  0  0
 11 14  1  0  0  0  0
 15 20  2  0  0  0  0
 15 16  1  0  0  0  0
 16 17  2  0  0  0  0
 16 32  1  0  0  0  0
 17 18  1  0  0  0  0
 17 33  1  0  0  0  0
 18 19  2  0  0  0  0
 18 34  1  0  0  0  0
 19 20  1  0  0  0  0
 19 35  1  0  0  0  0
M  END
> <s_m_source_file>
AV-unprocessed.smi

> <i_m_source_file_index>
2804

> <i_lp_mmshare_version>
43012

> <i_f3d_flags>
0

> <s_epik_input>
W2NIXTFbY0hdW2NIXVtjSF1jKGMxMiluKFtDSDJdW0NIMl1bQ0gzXSljKD1PKW4yW0NIMl1bQ0BIXShbT0hdKUMoRikoRilG

> <s_epik_cmdline>
J2VwaWtfcHl0aG9uJywgJy1waCcsICc3LjAnLCAnLXRuJywgJzgnLCAnLW1hJywgJzIwMCcsICctbWV0YWxfYmluZGluZycsICctaW1hZScsICc8aW5maWxlLm1hZT4nLCAnLW9tYWUnLCAnPG91dGZpbGUubWFlPic=

> <r_epik_Ionization_Penalty>
0.0117937

> <r_epik_Ionization_Penalty_Charging>
3.30828e-09

> <r_epik_Ionization_Penalty_Neutral>
0.0117937

> <r_epik_State_Penalty>
0.00909547

> <r_epik_Charging_Adjusted_Penalty>
0.00909547

> <i_epik_Tot_Q>
0

> <i_epik_Tot_abs_Q>
0

> <r_epik_Metal_State_Penalty>
0.00909547

> <b_epik_Metal_Only>
0

> <s_lp_Force_Field>
OPLS_2005

> <r_lp_Energy>
41.5992

> <b_lp_Chiralities_Consistent>
1

> <s_lp_Variant>
AV-unprocessed.smi:2804-1

> <Gold.Version>
5.8.1

> <Gold.Id.Protein>
6NUR|6NUR_protein|mol2

> <Gold.PLP.Fitness>
48.2324

> <Gold.PLP.PLP>
-44.5320

> <Gold.PLP.part.hbond>
-2.0000

> <Gold.PLP.part.metal>
0.0000

> <Gold.PLP.part.buried>
-4.3607

> <Gold.PLP.part.nonpolar>
-37.7314

> <Gold.PLP.part.repulsive>
0.0000

> <Gold.PLP.ligand.clash>
0.0000

> <Gold.PLP.ligand.torsion>
0.8411

> <Gold.PLP.Chemscore.Hbond>
1.7753

> <Gold.PLP.Chemscore.CHOScore>
0.0000

> <Gold.PLP.Chemscore.Metal>
0.0000

> <Gold.Chemscore.Hbonds>
donor molecule, donor type, donor heavy atom, donor atom, acceptor molecule, acceptor atom, score
      P1  H  7997  8008       L1    10  0.74
      P1  H  7997  8009       L1     6  0.52

> <Gold.PLP.Chemscore.Internal.Correction>
0.0568

> <Gold.Rescore>
     Score         DG    S(hbond)    S(metal)    S(lipo)     H(rot)  DE(clash)    DE(int)     intcor
     15.34     -17.04       1.46        0.00     107.80       2.32       1.02       0.69       ----

> <Gold.Chemscore.Fitness>
15.3369

> <Gold.Chemscore.DG>
-17.0388

> <Gold.Chemscore.ZeroCoef>
-5.4800

> <Gold.Chemscore.Hbond>
1.4591

> <Gold.Chemscore.Metal>
0.0000

> <Gold.Chemscore.Lipo>
107.7955

> <Gold.Chemscore.Internal_Hbond>
0.0000

> <Gold.Chemscore.DEClash>
1.0157

> <Gold.Chemscore.DEInternal>
0.6862

> <Gold.Chemscore.Rot>
2.3152

> <Gold.Chemscore.Internal.Correction>
   9.000000E+99

> <Gold.Chemscore.Hbonds>
donor molecule, donor type, donor heavy atom, donor atom, acceptor molecule, acceptor atom, score
      P1  H  7997  8008       L1    10  0.29
      P1  H  7997  8009       L1     6  0.22

> <Gold.Chemscore.Hbond.Weighted>
-4.8735

> <Gold.Chemscore.Metal.Weighted>
-0.0000

> <Gold.Chemscore.Lipo.Weighted>
-12.6121

> <Gold.Chemscore.Internal_Hbond.Weighted>
0.0000

> <Gold.Chemscore.DEClash.Weighted>
1.0157

> <Gold.Chemscore.DEInternal.Weighted>
0.6862

> <Gold.Chemscore.Rot.Weighted>
5.9268

> <Gold.Chemscore.Internal.Correction.Weighted>
   9.000000E+99

> <Gold.Protein.RotatedTorsions>
[ 6907 6896 6895 6894 ] final  -52.15 input  -60.11 | X-H torsion
[ 7974 7965 7964 7962 ] final   96.37 input  175.53 | X-H torsion
[ 8008 7997 7996 7995 ] final -168.30 input   59.86 | X-H torsion
[ 10167 10162 10161 10158 ] final  118.19 input  -65.29 | X-H torsion
[ 10718 10713 10712 10709 ] final  148.84 input   66.30 | X-H torsion
[ 10763 10752 10751 10750 ] final -162.78 input  -60.55 | X-H torsion
[ 11005 11000 10999 10996 ] final -139.88 input  -57.11 | X-H torsion

> <Gold.Protein.ActiveResidues>
 VAL166  LYS551  ARG553  GLY616  TRP617  ASP618  TYR619  PRO620  LYS621  CYS622 
 ASP623  PHE694  ASN695  SER759  ASP760  ASP761  ALA762  ILE779  LEU786  VAL792 
 PHE793  MET794  SER795  GLU796  ALA797  LYS798  CYS799  TRP800  GLU811  SER814 

> <Gold.Protein.RotatedAtoms>
  150.8545  134.7879  159.7034 H   0  0  0  0  0  0  0  0  0  0  0  0  # atno 6907 bound_to 6896
  152.4600  134.5202  159.9790 H   0  0  0  0  0  0  0  0  0  0  0  0  # atno 6908 bound_to 6896
  151.5317  133.3410  159.2955 H   0  0  0  0  0  0  0  0  0  0  0  0  # atno 6909 bound_to 6896
  145.4397  139.2302  143.3099 H   0  0  0  0  0  0  0  0  0  0  0  0  # atno 7974 bound_to 7965
  155.8896  140.1022  157.1428 H   0  0  0  0  0  0  0  0  0  0  0  0  # atno 8008 bound_to 7997
  154.4013  140.1313  156.4363 H   0  0  0  0  0  0  0  0  0  0  0  0  # atno 8009 bound_to 7997
  155.7549  140.3464  155.5171 H   0  0  0  0  0  0  0  0  0  0  0  0  # atno 8010 bound_to 7997
  139.6128  144.7085  151.2806 H   0  0  0  0  0  0  0  0  0  0  0  0  # atno 10167 bound_to 10162
  157.3035  131.0875  151.1371 H   0  0  0  0  0  0  0  0  0  0  0  0  # atno 10718 bound_to 10713
  154.7183  135.3020  154.9089 H   0  0  0  0  0  0  0  0  0  0  0  0  # atno 10763 bound_to 10752
  153.9969  135.6712  153.4761 H   0  0  0  0  0  0  0  0  0  0  0  0  # atno 10764 bound_to 10752
  153.0812  135.5008  154.8422 H   0  0  0  0  0  0  0  0  0  0  0  0  # atno 10765 bound_to 10752
  140.8477  134.2324  157.4777 H   0  0  0  0  0  0  0  0  0  0  0  0  # atno 11005 bound_to 11000
  146.2563  140.5144  142.8872 LP  0  0  0  0  0  0  0  0  0  0  0  0  # atno 17320 bound_to 7965
  144.8129  140.6418  143.6403 LP  0  0  0  0  0  0  0  0  0  0  0  0  # atno 17321 bound_to 7965
  140.7331  143.6805  150.8005 LP  0  0  0  0  0  0  0  0  0  0  0  0  # atno 17342 bound_to 10162
  140.0403  143.5353  152.2721 LP  0  0  0  0  0  0  0  0  0  0  0  0  # atno 17343 bound_to 10162
  157.2721  130.6709  149.6024 LP  0  0  0  0  0  0  0  0  0  0  0  0  # atno 17370 bound_to 10713
  155.9673  130.4476  150.5586 LP  0  0  0  0  0  0  0  0  0  0  0  0  # atno 17371 bound_to 10713
  139.8703  134.9667  156.4573 LP  0  0  0  0  0  0  0  0  0  0  0  0  # atno 17394 bound_to 11000
  140.8825  133.7907  155.9482 LP  0  0  0  0  0  0  0  0  0  0  0  0  # atno 17395 bound_to 11000

$$$$
