#       Name:                AV-unprocessed.smi:653
#       Creating user name   scv26
#       Creation time:       Fri Mar 27 00:14:49 2020


#       File generated by GOLD software.
#

@<TRIPOS>MOLECULE
AV-unprocessed.smi:653
    49    50     1
SMALL
NO_CHARGES


@<TRIPOS>ATOM
      1 ****        -5.4415   3.7874  -1.7434 C.3            1 S1                 0.0000
      2 ****        -4.6993   2.6828  -1.0209 C.ar           1 S1                 0.0000
      3 ****        -4.2689   1.5111  -1.6796 C.ar           1 S1                 0.0000
      4 ****        -3.5756   0.5246  -0.9480 C.ar           1 S1                 0.0000
      5 ****        -3.3263   0.7285   0.4273 C.ar           1 S1                 0.0000
      6 ****        -2.5759  -0.3125   1.2420 C.3            1 S1                 0.0000
      7 ****        -1.0582  -0.1155   1.1552 C.2            1 S1                 0.0000
      8 ****        -0.5775   1.0036   0.9701 O.2            1 S1                 0.0000
      9 ****        -0.3117  -1.2211   1.2960 N.am           1 S1                 0.0000
     10 ****         1.1462  -1.2611   1.2435 C.3            1 S1                 0.0000
     11 ****         1.6839  -1.2224  -0.2092 C.3            1 S1                 0.0000
     12 ****         1.2751  -2.4487  -1.0145 C.3            1 S1                 0.0000
     13 ****         2.3834  -3.4610  -0.7128 C.3            1 S1                 0.0000
     14 ****         3.4501  -2.7172  -0.1307 O.3            1 S1                 0.0000
     15 ****         3.2142  -1.3292  -0.3263 C.3            1 S1                 0.0000
     16 ****         4.0643  -0.4649   0.6326 C.3            1 S1                 0.0000
     17 ****         3.7814   1.0360   0.4471 C.3            1 S1                 0.0000
     18 ****         5.5640  -0.7437   0.4428 C.3            1 S1                 0.0000
     19 ****        -3.7825   1.9197   1.0328 C.ar           1 S1                 0.0000
     20 ****        -4.4410   2.8414   0.2967 N.pl3          1 S1                 1.0000
     21 ****        -5.9603   3.3969  -2.6194 H              1 S1                 0.0000
     22 ****        -4.7435   4.5574  -2.0728 H              1 S1                 0.0000
     23 ****        -6.1822   4.2499  -1.0902 H              1 S1                 0.0000
     24 ****        -4.4640   1.3692  -2.7328 H              1 S1                 0.0000
     25 ****        -3.2362  -0.3757  -1.4394 H              1 S1                 0.0000
     26 ****        -2.8826  -0.2555   2.2870 H              1 S1                 0.0000
     27 ****        -2.8445  -1.3088   0.8870 H              1 S1                 0.0000
     28 ****        -0.7853  -2.0996   1.4503 H              1 S1                 0.0000
     29 ****         1.5387  -0.4295   1.8291 H              1 S1                 0.0000
     30 ****         1.4780  -2.1698   1.7466 H              1 S1                 0.0000
     31 ****         1.3327  -0.3120  -0.6966 H              1 S1                 0.0000
     32 ****         0.2810  -2.8281  -0.7778 H              1 S1                 0.0000
     33 ****         1.2850  -2.2054  -2.0779 H              1 S1                 0.0000
     34 ****         2.0491  -4.2178  -0.0028 H              1 S1                 0.0000
     35 ****         2.7158  -3.9682  -1.6189 H              1 S1                 0.0000
     36 ****         3.4997  -1.0932  -1.3539 H              1 S1                 0.0000
     37 ****         3.8198  -0.7330   1.6605 H              1 S1                 0.0000
     38 ****         4.0173   1.3591  -0.5673 H              1 S1                 0.0000
     39 ****         4.3795   1.6355   1.1338 H              1 S1                 0.0000
     40 ****         2.7355   1.2776   0.6356 H              1 S1                 0.0000
     41 ****         5.8858  -0.5156  -0.5737 H              1 S1                 0.0000
     42 ****         5.8008  -1.7895   0.6400 H              1 S1                 0.0000
     43 ****         6.1651  -0.1415   1.1247 H              1 S1                 0.0000
     44 ****        -3.6357   2.1652   2.0747 H              1 S1                 0.0000
     45 ****        -4.7556   3.6966   0.7556 H              1 S1                 0.0000
     46 ****        -1.1791   1.7966   0.8745 LP             1 S1                 0.0000
     47 ****         0.4144   1.1189   0.9153 LP             1 S1                 0.0000
     48 ****         4.3132  -2.9742  -0.5656 LP             1 S1                 0.0000
     49 ****         3.4990  -2.9133   0.8486 LP             1 S1                 0.0000
@<TRIPOS>BOND
    1    1    2 1     
    2    1   21 1     
    3    1   22 1     
    4    1   23 1     
    5    2   20 ar    
    6    2    3 ar    
    7    3    4 ar    
    8    3   24 1     
    9    4    5 ar    
   10    4   25 1     
   11    5    6 1     
   12    5   19 ar    
   13    6    7 1     
   14    6   26 1     
   15    6   27 1     
   16    7    8 2     
   17    7    9 am    
   18    9   10 1     
   19    9   28 1     
   20   10   11 1     
   21   10   29 1     
   22   10   30 1     
   23   11   15 1     
   24   11   12 1     
   25   11   31 1     
   26   12   13 1     
   27   12   32 1     
   28   12   33 1     
   29   13   14 1     
   30   13   34 1     
   31   13   35 1     
   32   14   15 1     
   33   15   16 1     
   34   15   36 1     
   35   16   17 1     
   36   16   18 1     
   37   16   37 1     
   38   17   38 1     
   39   17   39 1     
   40   17   40 1     
   41   18   41 1     
   42   18   42 1     
   43   18   43 1     
   44   19   20 ar    
   45   19   44 1     
   46   20   45 1     
   47    8   46 1     
   48    8   47 1     
   49   14   48 1     
   50   14   49 1     
@<TRIPOS>SUBSTRUCTURE
      1 S1             1
@<TRIPOS>SET
LONE_PAIRS      STATIC     ATOMS    <user>   **** ""
4 46 47 48 49
DONOR_HYDROGENS      STATIC     ATOMS    <user>   **** ""
2 28 45
ATOM$BLUE        STATIC     ATOMS    COLORGROUP SYSTEM
4 46 47 48 49
ATOM$RED        STATIC     ATOMS    COLORGROUP SYSTEM
2 28 45
