AV-unprocessed.smi:1304|AV-procd|sdf|5430|dock4
  -GOLD-   22720 4593D 1   1.00000     0.00000
 Structure written by MMmdl.
 47 48  0  0  0  0  0  0  0  0  1 V2000
  149.9749  139.3293  154.9551 C   0  0  0  0  0  0  0  0  0  0  0  0
  149.3627  140.6340  154.4167 C   0  0  0  0  0  0  0  0  0  0  0  0
  147.8741  140.8944  154.8227 C   0  0  2  0  0  0  0  0  0  0  0  0
  147.4351  142.1895  154.0888 C   0  0  0  0  0  0  0  0  0  0  0  0
  147.8205  141.1798  156.3586 C   0  0  0  0  0  0  0  0  0  0  0  0
  148.9038  142.0383  156.8203 N   0  0  0  0  0  0  0  0  0  0  0  0
  149.8936  141.6722  157.6485 C   0  0  0  0  0  0  0  0  0  0  0  0
  149.9618  140.5520  158.1521 O   0  0  0  0  0  0  0  0  0  0  0  0
  150.9875  142.7086  157.9605 C   0  0  0  0  0  0  0  0  0  0  0  0
  152.0118  142.2491  158.9173 N   0  0  0  0  0  0  0  0  0  0  0  0
  152.2044  143.0318  160.0732 C   0  0  0  0  0  0  0  0  0  0  0  0
  153.1283  142.7204  160.9959 C   0  0  0  0  0  0  0  0  0  0  0  0
  153.9372  141.5440  160.7818 C   0  0  0  0  0  0  0  0  0  0  0  0
  153.7634  140.7896  159.6785 C   0  0  0  0  0  0  0  0  0  0  0  0
  152.7592  141.1298  158.6641 C   0  0  0  0  0  0  0  0  0  0  0  0
  152.6075  140.4578  157.6440 O   0  0  0  0  0  0  0  0  0  0  0  0
  147.0060  139.7284  154.4797 N   0  0  0  0  0  0  0  0  0  0  0  0
  147.1498  139.2279  153.1057 C   0  0  0  0  0  0  0  0  0  0  0  0
  146.1463  138.1079  152.7818 C   0  0  0  0  0  0  0  0  0  0  0  0
  146.2904  137.0471  153.7171 O   0  0  0  0  0  0  0  0  0  0  0  0
  146.0859  137.4793  155.0558 C   0  0  0  0  0  0  0  0  0  0  0  0
  147.0943  138.5875  155.4017 C   0  0  0  0  0  0  0  0  0  0  0  0
  150.9932  139.2060  154.5870 H   0  0  0  0  0  0  0  0  0  0  0  0
  149.4049  138.4555  154.6393 H   0  0  0  0  0  0  0  0  0  0  0  0
  150.0232  139.3252  156.0438 H   0  0  0  0  0  0  0  0  0  0  0  0
  149.9973  141.4593  154.7404 H   0  0  0  0  0  0  0  0  0  0  0  0
  149.4726  140.6531  153.3333 H   0  0  0  0  0  0  0  0  0  0  0  0
  148.0948  143.0259  154.3224 H   0  0  0  0  0  0  0  0  0  0  0  0
  146.4288  142.4996  154.3695 H   0  0  0  0  0  0  0  0  0  0  0  0
  147.4567  142.0773  153.0055 H   0  0  0  0  0  0  0  0  0  0  0  0
  146.8941  141.6858  156.6307 H   0  0  0  0  0  0  0  0  0  0  0  0
  147.8402  140.2434  156.9186 H   0  0  0  0  0  0  0  0  0  0  0  0
  148.9197  142.9791  156.4543 H   0  0  0  0  0  0  0  0  0  0  0  0
  151.4563  142.9971  157.0187 H   0  0  0  0  0  0  0  0  0  0  0  0
  150.5093  143.6188  158.3266 H   0  0  0  0  0  0  0  0  0  0  0  0
  151.5643  143.8986  160.1536 H   0  0  0  0  0  0  0  0  0  0  0  0
  153.2653  143.3354  161.8734 H   0  0  0  0  0  0  0  0  0  0  0  0
  154.6860  141.2673  161.5094 H   0  0  0  0  0  0  0  0  0  0  0  0
  154.3783  139.9134  159.5346 H   0  0  0  0  0  0  0  0  0  0  0  0
  146.9890  140.0224  152.3800 H   0  0  0  0  0  0  0  0  0  0  0  0
  148.1596  138.8499  152.9458 H   0  0  0  0  0  0  0  0  0  0  0  0
  145.1232  138.4865  152.8040 H   0  0  0  0  0  0  0  0  0  0  0  0
  146.3227  137.7218  151.7778 H   0  0  0  0  0  0  0  0  0  0  0  0
  145.0619  137.8355  155.1798 H   0  0  0  0  0  0  0  0  0  0  0  0
  146.2126  136.6299  155.7272 H   0  0  0  0  0  0  0  0  0  0  0  0
  148.0983  138.1637  155.3854 H   0  0  0  0  0  0  0  0  0  0  0  0
  146.8946  138.8941  156.4261 H   0  0  0  0  0  0  0  0  0  0  0  0
  1  2  1  0  0  0  0
  1 23  1  0  0  0  0
  1 24  1  0  0  0  0
  1 25  1  0  0  0  0
  2  3  1  0  0  0  0
  2 26  1  0  0  0  0
  2 27  1  0  0  0  0
  3  4  1  0  0  0  0
  3  5  1  0  0  0  0
  3 17  1  0  0  0  0
  4 28  1  0  0  0  0
  4 29  1  0  0  0  0
  4 30  1  0  0  0  0
  5  6  1  0  0  0  0
  5 31  1  0  0  0  0
  5 32  1  0  0  0  0
  6  7  1  0  0  0  0
  6 33  1  0  0  0  0
  7  8  2  0  0  0  0
  7  9  1  0  0  0  0
  9 10  1  0  0  0  0
  9 34  1  0  0  0  0
  9 35  1  0  0  0  0
 10 15  1  0  0  0  0
 10 11  1  0  0  0  0
 11 12  2  0  0  0  0
 11 36  1  0  0  0  0
 12 13  1  0  0  0  0
 12 37  1  0  0  0  0
 13 14  2  0  0  0  0
 13 38  1  0  0  0  0
 14 15  1  0  0  0  0
 14 39  1  0  0  0  0
 15 16  2  0  0  0  0
 17 22  1  0  0  0  0
 17 18  1  0  0  0  0
 18 19  1  0  0  0  0
 18 40  1  0  0  0  0
 18 41  1  0  0  0  0
 19 20  1  0  0  0  0
 19 42  1  0  0  0  0
 19 43  1  0  0  0  0
 20 21  1  0  0  0  0
 21 22  1  0  0  0  0
 21 44  1  0  0  0  0
 21 45  1  0  0  0  0
 22 46  1  0  0  0  0
 22 47  1  0  0  0  0
M  END
> <s_m_source_file>
AV-unprocessed.smi

> <i_m_source_file_index>
1304

> <i_lp_mmshare_version>
43012

> <i_f3d_flags>
0

> <s_epik_input>
W0NIMl0xW0NIMl1PW0NIMl1bQ0gyXU4xW0NAQF0oW0NIM10pKFtDSDJdW0NIM10pW0NIMl1bTkhdQyg9TylbQ0gyXW4yW2NIXVtjSF1bY0hdW2NIXWMyPU8=

> <s_epik_cmdline>
J2VwaWtfcHl0aG9uJywgJy1waCcsICc3LjAnLCAnLXRuJywgJzgnLCAnLW1hJywgJzIwMCcsICctbWV0YWxfYmluZGluZycsICctaW1hZScsICc8aW5maWxlLm1hZT4nLCAnLW9tYWUnLCAnPG91dGZpbGUubWFlPic=

> <r_lp_tautomer_probability>
1

> <r_epik_Ionization_Penalty>
0.318667

> <r_epik_Ionization_Penalty_Charging>
3.55364e-07

> <r_epik_Ionization_Penalty_Neutral>
0.318667

> <r_epik_State_Penalty>
0.313095

> <r_epik_Charging_Adjusted_Penalty>
0.313095

> <i_epik_Tot_Q>
0

> <i_epik_Tot_abs_Q>
0

> <r_epik_Metal_State_Penalty>
0.313065

> <b_epik_Metal_Only>
0

> <s_lp_Force_Field>
OPLS_2005

> <r_lp_Energy>
51.8872

> <b_lp_Chiralities_Consistent>
1

> <s_lp_Variant>
AV-unprocessed.smi:1304-2

> <Gold.Version>
5.8.1

> <Gold.Id.Protein>
6NUR|6NUR_protein|mol2

> <Gold.PLP.Fitness>
42.1830

> <Gold.PLP.PLP>
-37.4078

> <Gold.PLP.part.hbond>
-2.0000

> <Gold.PLP.part.metal>
0.0000

> <Gold.PLP.part.buried>
-2.8416

> <Gold.PLP.part.nonpolar>
-32.5734

> <Gold.PLP.part.repulsive>
0.2400

> <Gold.PLP.ligand.clash>
0.0000

> <Gold.PLP.ligand.torsion>
0.5476

> <Gold.PLP.Chemscore.Hbond>
1.9199

> <Gold.PLP.Chemscore.CHOScore>
0.0000

> <Gold.PLP.Chemscore.Metal>
0.0000

> <Gold.Chemscore.Hbonds>
donor molecule, donor type, donor heavy atom, donor atom, acceptor molecule, acceptor atom, score
      L1  H     6    33       P1  8028  1.00
      P1  H  7997  8009       L1    16  0.86

> <Gold.PLP.Chemscore.Internal.Correction>
0.1108

> <Gold.Rescore>
     Score         DG    S(hbond)    S(metal)    S(lipo)     H(rot)  DE(clash)    DE(int)     intcor
     14.21     -17.53       1.82        0.00      93.64       1.95       0.30       3.01       ----

> <Gold.Chemscore.Fitness>
14.2143

> <Gold.Chemscore.DG>
-17.5298

> <Gold.Chemscore.ZeroCoef>
-5.4800

> <Gold.Chemscore.Hbond>
1.8234

> <Gold.Chemscore.Metal>
0.0000

> <Gold.Chemscore.Lipo>
93.6365

> <Gold.Chemscore.Internal_Hbond>
0.0000

> <Gold.Chemscore.DEClash>
0.3044

> <Gold.Chemscore.DEInternal>
3.0110

> <Gold.Chemscore.Rot>
1.9515

> <Gold.Chemscore.Internal.Correction>
   9.000000E+99

> <Gold.Chemscore.Hbonds>
donor molecule, donor type, donor heavy atom, donor atom, acceptor molecule, acceptor atom, score
      L1  H     6    33       P1  8028  0.99
      P1  H  7997  8009       L1    16  0.59

> <Gold.Chemscore.Hbond.Weighted>
-6.0901

> <Gold.Chemscore.Metal.Weighted>
-0.0000

> <Gold.Chemscore.Lipo.Weighted>
-10.9555

> <Gold.Chemscore.Internal_Hbond.Weighted>
0.0000

> <Gold.Chemscore.DEClash.Weighted>
0.3044

> <Gold.Chemscore.DEInternal.Weighted>
3.0110

> <Gold.Chemscore.Rot.Weighted>
4.9958

> <Gold.Chemscore.Internal.Correction.Weighted>
   9.000000E+99

> <Gold.Protein.RotatedTorsions>
[ 6907 6896 6895 6894 ] final   45.90 input  -60.11 | X-H torsion
[ 7974 7965 7964 7962 ] final  119.58 input  175.53 | X-H torsion
[ 8008 7997 7996 7995 ] final  172.97 input   59.86 | X-H torsion
[ 10167 10162 10161 10158 ] final  -54.23 input  -65.29 | X-H torsion
[ 10718 10713 10712 10709 ] final  140.12 input   66.30 | X-H torsion
[ 10763 10752 10751 10750 ] final  159.55 input  -60.55 | X-H torsion
[ 11005 11000 10999 10996 ] final -129.93 input  -57.11 | X-H torsion

> <Gold.Protein.ActiveResidues>
 VAL166  LYS551  ARG553  GLY616  TRP617  ASP618  TYR619  PRO620  LYS621  CYS622 
 ASP623  PHE694  ASN695  SER759  ASP760  ASP761  ALA762  ILE779  LEU786  VAL792 
 PHE793  MET794  SER795  GLU796  ALA797  LYS798  CYS799  TRP800  GLU811  SER814 

> <Gold.Protein.RotatedAtoms>
  152.2500  134.8142  160.0447 H   0  0  0  0  0  0  0  0  0  0  0  0  # atno 6907 bound_to 6896
  151.8826  133.3493  159.3779 H   0  0  0  0  0  0  0  0  0  0  0  0  # atno 6908 bound_to 6896
  150.7081  134.4930  159.5569 H   0  0  0  0  0  0  0  0  0  0  0  0  # atno 6909 bound_to 6896
  145.1414  139.3265  143.4614 H   0  0  0  0  0  0  0  0  0  0  0  0  # atno 7974 bound_to 7965
  156.1122  140.1472  156.9323 H   0  0  0  0  0  0  0  0  0  0  0  0  # atno 8008 bound_to 7997
  154.4775  140.0890  156.7340 H   0  0  0  0  0  0  0  0  0  0  0  0  # atno 8009 bound_to 7997
  155.4576  140.3437  155.4311 H   0  0  0  0  0  0  0  0  0  0  0  0  # atno 8010 bound_to 7997
  140.6442  143.2525  151.4906 H   0  0  0  0  0  0  0  0  0  0  0  0  # atno 10167 bound_to 10162
  157.4068  131.1023  151.0495 H   0  0  0  0  0  0  0  0  0  0  0  0  # atno 10718 bound_to 10713
  154.2336  135.2777  155.2880 H   0  0  0  0  0  0  0  0  0  0  0  0  # atno 10763 bound_to 10752
  154.5603  135.5649  153.7005 H   0  0  0  0  0  0  0  0  0  0  0  0  # atno 10764 bound_to 10752
  153.0015  135.6296  154.2478 H   0  0  0  0  0  0  0  0  0  0  0  0  # atno 10765 bound_to 10752
  140.9389  134.1219  157.4168 H   0  0  0  0  0  0  0  0  0  0  0  0  # atno 11005 bound_to 11000
  146.3504  140.1453  142.8593 LP  0  0  0  0  0  0  0  0  0  0  0  0  # atno 17320 bound_to 7965
  145.0528  140.9030  143.4985 LP  0  0  0  0  0  0  0  0  0  0  0  0  # atno 17321 bound_to 7965
  139.5652  144.2060  152.1753 LP  0  0  0  0  0  0  0  0  0  0  0  0  # atno 17342 bound_to 10162
  140.1340  144.5263  150.6785 LP  0  0  0  0  0  0  0  0  0  0  0  0  # atno 17343 bound_to 10162
  157.1474  130.6169  149.5572 LP  0  0  0  0  0  0  0  0  0  0  0  0  # atno 17370 bound_to 10713
  155.9839  130.4861  150.6956 LP  0  0  0  0  0  0  0  0  0  0  0  0  # atno 17371 bound_to 10713
  139.8815  135.0030  156.6161 LP  0  0  0  0  0  0  0  0  0  0  0  0  # atno 17394 bound_to 11000
  140.7761  133.8698  155.8530 LP  0  0  0  0  0  0  0  0  0  0  0  0  # atno 17395 bound_to 11000

$$$$
