AV-unprocessed.smi:3059|AV-procd|sdf|11677|dock1
  -GOLD-   2272017 83D 1   1.00000     0.00000
 Structure written by MMmdl.
 42 43  0  0  0  0  0  0  0  0  1 V2000
  146.3796  138.8841  151.4255 C   0  0  0  0  0  0  0  0  0  0  0  0
  146.4399  138.8588  152.9566 C   0  0  0  0  0  0  0  0  0  0  0  0
  147.3352  139.9093  153.5256 C   0  0  0  0  0  0  0  0  0  0  0  0
  147.3067  141.2586  153.2749 C   0  0  0  0  0  0  0  0  0  0  0  0
  148.2826  141.9807  153.9641 N   0  0  0  0  0  0  0  0  0  0  0  0
  149.0416  141.2038  154.7398 C   0  0  0  0  0  0  0  0  0  0  0  0
  150.1874  141.7154  155.5526 C   0  0  0  0  0  0  0  0  0  0  0  0
  150.0224  141.5015  157.0698 C   0  0  0  0  0  0  0  0  0  0  0  0
  151.0785  142.1327  157.8550 N   0  0  0  0  0  0  0  0  0  0  0  0
  151.9039  141.4994  158.7057 C   0  0  0  0  0  0  0  0  0  0  0  0
  151.8473  140.2832  158.8926 O   0  0  0  0  0  0  0  0  0  0  0  0
  152.8044  142.3073  159.3218 N   0  0  0  0  0  0  0  0  0  0  0  0
  153.0740  143.7075  158.9547 C   0  0  0  0  0  0  0  0  0  0  0  0
  152.0188  144.6742  159.5298 C   0  0  0  0  0  0  0  0  0  0  0  0
  151.4766  144.3209  160.9324 C   0  0  0  0  0  0  0  0  0  0  0  0
  152.5227  143.7963  161.9348 C   0  0  0  0  0  0  0  0  0  0  0  0
  152.7970  142.2822  161.8074 C   0  0  0  0  0  0  0  0  0  0  0  0
  153.5344  141.8719  160.5200 C   0  0  0  0  0  0  0  0  0  0  0  0
  148.6033  139.5025  154.6541 S   0  0  0  0  0  0  0  0  0  0  0  0
  145.7234  138.0993  151.0492 H   0  0  0  0  0  0  0  0  0  0  0  0
  147.3678  138.7289  150.9913 H   0  0  0  0  0  0  0  0  0  0  0  0
  145.9994  139.8388  151.0606 H   0  0  0  0  0  0  0  0  0  0  0  0
  145.4345  138.9844  153.3597 H   0  0  0  0  0  0  0  0  0  0  0  0
  146.7762  137.8755  153.2874 H   0  0  0  0  0  0  0  0  0  0  0  0
  146.6321  141.7879  152.6183 H   0  0  0  0  0  0  0  0  0  0  0  0
  151.0996  141.2244  155.2103 H   0  0  0  0  0  0  0  0  0  0  0  0
  150.3163  142.7773  155.3419 H   0  0  0  0  0  0  0  0  0  0  0  0
  149.0425  141.8493  157.3995 H   0  0  0  0  0  0  0  0  0  0  0  0
  150.0572  140.4336  157.2873 H   0  0  0  0  0  0  0  0  0  0  0  0
  151.1864  143.1312  157.7531 H   0  0  0  0  0  0  0  0  0  0  0  0
  154.0532  144.0090  159.3279 H   0  0  0  0  0  0  0  0  0  0  0  0
  153.1529  143.8305  157.8736 H   0  0  0  0  0  0  0  0  0  0  0  0
  152.4502  145.6754  159.5532 H   0  0  0  0  0  0  0  0  0  0  0  0
  151.1748  144.7368  158.8422 H   0  0  0  0  0  0  0  0  0  0  0  0
  151.0028  145.2124  161.3440 H   0  0  0  0  0  0  0  0  0  0  0  0
  150.6768  143.5860  160.8436 H   0  0  0  0  0  0  0  0  0  0  0  0
  153.4488  144.3668  161.8576 H   0  0  0  0  0  0  0  0  0  0  0  0
  152.1448  143.9784  162.9413 H   0  0  0  0  0  0  0  0  0  0  0  0
  153.3942  141.9619  162.6616 H   0  0  0  0  0  0  0  0  0  0  0  0
  151.8572  141.7335  161.8822 H   0  0  0  0  0  0  0  0  0  0  0  0
  153.6830  140.7910  160.5148 H   0  0  0  0  0  0  0  0  0  0  0  0
  154.5431  142.2857  160.5269 H   0  0  0  0  0  0  0  0  0  0  0  0
  1  2  1  0  0  0  0
  1 20  1  0  0  0  0
  1 21  1  0  0  0  0
  1 22  1  0  0  0  0
  2  3  1  0  0  0  0
  2 23  1  0  0  0  0
  2 24  1  0  0  0  0
  3 19  1  0  0  0  0
  3  4  2  0  0  0  0
  4  5  1  0  0  0  0
  4 25  1  0  0  0  0
  5  6  2  0  0  0  0
  6  7  1  0  0  0  0
  6 19  1  0  0  0  0
  7  8  1  0  0  0  0
  7 26  1  0  0  0  0
  7 27  1  0  0  0  0
  8  9  1  0  0  0  0
  8 28  1  0  0  0  0
  8 29  1  0  0  0  0
  9 10  1  0  0  0  0
  9 30  1  0  0  0  0
 10 11  2  0  0  0  0
 10 12  1  0  0  0  0
 12 18  1  0  0  0  0
 12 13  1  0  0  0  0
 13 14  1  0  0  0  0
 13 31  1  0  0  0  0
 13 32  1  0  0  0  0
 14 15  1  0  0  0  0
 14 33  1  0  0  0  0
 14 34  1  0  0  0  0
 15 16  1  0  0  0  0
 15 35  1  0  0  0  0
 15 36  1  0  0  0  0
 16 17  1  0  0  0  0
 16 37  1  0  0  0  0
 16 38  1  0  0  0  0
 17 18  1  0  0  0  0
 17 39  1  0  0  0  0
 17 40  1  0  0  0  0
 18 41  1  0  0  0  0
 18 42  1  0  0  0  0
M  END
> <s_m_source_file>
AV-unprocessed.smi

> <i_m_source_file_index>
3059

> <i_lp_mmshare_version>
43012

> <i_f3d_flags>
0

> <s_epik_input>
W0NIM11bQ0gyXWMxW2NIXW5jKHMxKVtDSDJdW0NIMl1bTkhdQyg9TylOMltDSDJdW0NIMl1bQ0gyXVtDSDJdW0NIMl1bQ0gyXTI=

> <s_epik_cmdline>
J2VwaWtfcHl0aG9uJywgJy1waCcsICc3LjAnLCAnLXRuJywgJzgnLCAnLW1hJywgJzIwMCcsICctbWV0YWxfYmluZGluZycsICctaW1hZScsICc8aW5maWxlLm1hZT4nLCAnLW9tYWUnLCAnPG91dGZpbGUubWFlPic=

> <r_epik_Ionization_Penalty>
0.000969859

> <r_epik_Ionization_Penalty_Charging>
0

> <r_epik_Ionization_Penalty_Neutral>
0.000969859

> <r_epik_State_Penalty>
0.000588571

> <r_epik_Charging_Adjusted_Penalty>
0.000588571

> <i_epik_Tot_Q>
0

> <i_epik_Tot_abs_Q>
0

> <r_epik_Metal_State_Penalty>
-0

> <b_epik_Metal_Only>
0

> <s_lp_Force_Field>
OPLS_2005

> <r_lp_Energy>
18.9175

> <b_lp_Chiralities_Consistent>
1

> <s_lp_Variant>
AV-unprocessed.smi:3059-1

> <Gold.Version>
5.8.1

> <Gold.Id.Protein>
6NUR|6NUR_protein|mol2

> <Gold.PLP.Fitness>
49.9366

> <Gold.PLP.PLP>
-49.3401

> <Gold.PLP.part.hbond>
-1.0000

> <Gold.PLP.part.metal>
0.0000

> <Gold.PLP.part.buried>
-2.9733

> <Gold.PLP.part.nonpolar>
-44.4793

> <Gold.PLP.part.repulsive>
0.2194

> <Gold.PLP.ligand.clash>
0.0000

> <Gold.PLP.ligand.torsion>
0.1602

> <Gold.PLP.Chemscore.Hbond>
0.2964

> <Gold.PLP.Chemscore.CHOScore>
0.0000

> <Gold.PLP.Chemscore.Metal>
0.0000

> <Gold.Chemscore.Hbonds>
donor molecule, donor type, donor heavy atom, donor atom, acceptor molecule, acceptor atom, score
      P1  H  8011  8017       L1     5  0.17

> <Gold.PLP.Chemscore.Internal.Correction>
0.0276

> <Gold.Rescore>
     Score         DG    S(hbond)    S(metal)    S(lipo)     H(rot)  DE(clash)    DE(int)     intcor
     17.18     -17.44       0.00        0.00     131.82       1.35       0.15       0.12       ----

> <Gold.Chemscore.Fitness>
17.1795

> <Gold.Chemscore.DG>
-17.4432

> <Gold.Chemscore.ZeroCoef>
-5.4800

> <Gold.Chemscore.Hbond>
0.0025

> <Gold.Chemscore.Metal>
0.0000

> <Gold.Chemscore.Lipo>
131.8180

> <Gold.Chemscore.Internal_Hbond>
0.0000

> <Gold.Chemscore.DEClash>
0.1464

> <Gold.Chemscore.DEInternal>
0.1173

> <Gold.Chemscore.Rot>
1.3546

> <Gold.Chemscore.Internal.Correction>
   9.000000E+99

> <Gold.Chemscore.Hbonds>
donor molecule, donor type, donor heavy atom, donor atom, acceptor molecule, acceptor atom, score
      P1  H  8011  8017       L1     5  0.01

> <Gold.Chemscore.Hbond.Weighted>
-0.0083

> <Gold.Chemscore.Metal.Weighted>
-0.0000

> <Gold.Chemscore.Lipo.Weighted>
-15.4227

> <Gold.Chemscore.Internal_Hbond.Weighted>
0.0000

> <Gold.Chemscore.DEClash.Weighted>
0.1464

> <Gold.Chemscore.DEInternal.Weighted>
0.1173

> <Gold.Chemscore.Rot.Weighted>
3.4678

> <Gold.Chemscore.Internal.Correction.Weighted>
   9.000000E+99

> <Gold.Protein.RotatedTorsions>
[ 6907 6896 6895 6894 ] final  174.44 input  -60.11 | X-H torsion
[ 7974 7965 7964 7962 ] final   17.48 input  175.53 | X-H torsion
[ 8008 7997 7996 7995 ] final  129.63 input   59.86 | X-H torsion
[ 10167 10162 10161 10158 ] final   56.25 input  -65.29 | X-H torsion
[ 10718 10713 10712 10709 ] final    2.62 input   66.30 | X-H torsion
[ 10763 10752 10751 10750 ] final  -40.14 input  -60.55 | X-H torsion
[ 11005 11000 10999 10996 ] final  -38.31 input  -57.11 | X-H torsion

> <Gold.Protein.ActiveResidues>
 VAL166  LYS551  ARG553  GLY616  TRP617  ASP618  TYR619  PRO620  LYS621  CYS622 
 ASP623  PHE694  ASN695  SER759  ASP760  ASP761  ALA762  ILE779  LEU786  VAL792 
 PHE793  MET794  SER795  GLU796  ALA797  LYS798  CYS799  TRP800  GLU811  SER814 

> <Gold.Protein.RotatedAtoms>
  151.7523  133.3328  159.3394 H   0  0  0  0  0  0  0  0  0  0  0  0  # atno 6907 bound_to 6896
  150.7530  134.6181  159.6131 H   0  0  0  0  0  0  0  0  0  0  0  0  # atno 6908 bound_to 6896
  152.3460  134.7072  160.0301 H   0  0  0  0  0  0  0  0  0  0  0  0  # atno 6909 bound_to 6896
  146.2217  139.8597  142.8607 H   0  0  0  0  0  0  0  0  0  0  0  0  # atno 7974 bound_to 7965
  156.2940  140.2616  156.2630 H   0  0  0  0  0  0  0  0  0  0  0  0  # atno 8008 bound_to 7997
  154.9769  140.0390  157.2279 H   0  0  0  0  0  0  0  0  0  0  0  0  # atno 8009 bound_to 7997
  154.7807  140.2794  155.6071 H   0  0  0  0  0  0  0  0  0  0  0  0  # atno 8010 bound_to 7997
  140.2108  144.3891  150.6490 H   0  0  0  0  0  0  0  0  0  0  0  0  # atno 10167 bound_to 10162
  156.8657  130.5602  149.5660 H   0  0  0  0  0  0  0  0  0  0  0  0  # atno 10718 bound_to 10713
  153.9411  135.6761  153.4744 H   0  0  0  0  0  0  0  0  0  0  0  0  # atno 10763 bound_to 10752
  153.0931  135.4865  154.8724 H   0  0  0  0  0  0  0  0  0  0  0  0  # atno 10764 bound_to 10752
  154.7376  135.3153  154.8742 H   0  0  0  0  0  0  0  0  0  0  0  0  # atno 10765 bound_to 10752
  141.0018  133.6951  156.2037 H   0  0  0  0  0  0  0  0  0  0  0  0  # atno 11005 bound_to 11000
  145.2717  141.0111  143.3768 LP  0  0  0  0  0  0  0  0  0  0  0  0  # atno 17320 bound_to 7965
  144.9218  139.4402  143.6537 LP  0  0  0  0  0  0  0  0  0  0  0  0  # atno 17321 bound_to 7965
  140.6325  143.2189  151.6466 LP  0  0  0  0  0  0  0  0  0  0  0  0  # atno 17342 bound_to 10162
  139.5181  144.3296  152.0838 LP  0  0  0  0  0  0  0  0  0  0  0  0  # atno 17343 bound_to 10162
  156.0753  130.5776  150.9461 LP  0  0  0  0  0  0  0  0  0  0  0  0  # atno 17370 bound_to 10713
  157.6224  131.0928  150.8596 LP  0  0  0  0  0  0  0  0  0  0  0  0  # atno 17371 bound_to 10713
  140.6876  134.4700  157.5589 LP  0  0  0  0  0  0  0  0  0  0  0  0  # atno 17394 bound_to 11000
  139.9043  134.8485  156.1770 LP  0  0  0  0  0  0  0  0  0  0  0  0  # atno 17395 bound_to 11000

$$$$
