AV-unprocessed.smi:54|AV-procd|sdf|548|dock3
  -GOLD-   2262016443D 1   1.00000     0.00000
 Structure written by MMmdl.
 43 45  0  0  0  0  0  0  0  0  2 V2000
  152.5179  142.4235  161.0483 C   0  0  0  0  0  0  0  0  0  0  0  0
  152.6538  143.3185  159.8052 C   0  0  0  0  0  0  0  0  0  0  0  0
  151.9458  144.6682  160.0092 C   0  0  0  0  0  0  0  0  0  0  0  0
  152.1135  142.6025  158.5591 C   0  0  0  0  0  0  0  0  0  0  0  0
  151.3201  143.1942  157.8230 O   0  0  0  0  0  0  0  0  0  0  0  0
  152.5689  141.3433  158.3726 N   0  0  0  0  0  0  0  0  0  0  0  0
  152.2671  140.4364  157.3499 C   0  0  0  0  0  0  0  0  0  0  0  0
  151.2673  140.6677  156.5284 N   0  0  0  0  0  0  0  0  0  0  0  0
  151.1137  139.6655  155.5905 C   0  0  0  0  0  0  0  0  0  0  0  0
  151.8624  138.5303  155.4465 C   0  0  0  0  0  0  0  0  0  0  0  0
  151.4078  137.7525  154.3891 N   0  0  0  0  0  0  0  0  0  0  0  0
  150.3832  138.4729  153.9353 C   0  0  0  0  0  0  0  0  0  0  0  0
  150.1377  139.6207  154.6017 N   0  0  0  0  0  0  0  0  0  0  0  0
  149.0690  140.6403  154.3382 C   0  0  1  0  0  0  0  0  0  0  0  0
  148.4500  140.3043  153.1306 O   0  0  0  0  0  0  0  0  0  0  0  0
  147.0727  139.9786  153.3280 C   0  0  1  0  0  0  0  0  0  0  0  0
  146.6300  138.8454  152.3853 C   0  0  0  0  0  0  0  0  0  0  0  0
  147.0416  139.1248  151.0645 O   0  0  0  0  0  0  0  0  0  0  0  0
  146.9351  139.6860  154.8301 C   0  0  1  0  0  0  0  0  0  0  0  0
  147.1980  138.3249  155.1283 O   0  0  0  0  0  0  0  0  0  0  0  0
  147.9755  140.6257  155.4208 C   0  0  1  0  0  0  0  0  0  0  0  0
  148.3968  140.2529  156.7211 O   0  0  0  0  0  0  0  0  0  0  0  0
  152.9775  138.3395  156.4038 C   0  0  0  0  0  0  0  0  0  0  0  0
  153.6801  137.3348  156.3118 O   0  0  0  0  0  0  0  0  0  0  0  0
  153.1297  139.3294  157.3347 N   0  5  0  0  0  0  0  0  0  0  0  0
  149.6060  141.5866  154.2652 H   0  0  0  0  0  0  0  0  0  0  0  0
  146.4938  140.8801  153.1190 H   0  0  0  0  0  0  0  0  0  0  0  0
  145.9334  139.9200  155.1919 H   0  0  0  0  0  0  0  0  0  0  0  0
  147.5551  141.6311  155.4667 H   0  0  0  0  0  0  0  0  0  0  0  0
  153.0081  141.4606  160.8985 H   0  0  0  0  0  0  0  0  0  0  0  0
  151.4724  142.2313  161.2932 H   0  0  0  0  0  0  0  0  0  0  0  0
  152.9792  142.8923  161.9178 H   0  0  0  0  0  0  0  0  0  0  0  0
  153.7160  143.5193  159.6539 H   0  0  0  0  0  0  0  0  0  0  0  0
  152.0378  145.3019  159.1259 H   0  0  0  0  0  0  0  0  0  0  0  0
  152.3810  145.2124  160.8477 H   0  0  0  0  0  0  0  0  0  0  0  0
  150.8829  144.5375  160.2170 H   0  0  0  0  0  0  0  0  0  0  0  0
  153.2092  141.0122  159.0792 H   0  0  0  0  0  0  0  0  0  0  0  0
  149.7922  138.1501  153.0917 H   0  0  0  0  0  0  0  0  0  0  0  0
  147.0243  137.8813  152.7066 H   0  0  0  0  0  0  0  0  0  0  0  0
  145.5425  138.7666  152.3763 H   0  0  0  0  0  0  0  0  0  0  0  0
  147.7626  139.7345  151.0978 H   0  0  0  0  0  0  0  0  0  0  0  0
  147.1960  137.8381  154.3181 H   0  0  0  0  0  0  0  0  0  0  0  0
  149.3373  140.3360  156.7662 H   0  0  0  0  0  0  0  0  0  0  0  0
  1  2  1  0  0  0  0
  1 30  1  0  0  0  0
  1 31  1  0  0  0  0
  1 32  1  0  0  0  0
  2  3  1  0  0  0  0
  2  4  1  0  0  0  0
  2 33  1  0  0  0  0
  3 34  1  0  0  0  0
  3 35  1  0  0  0  0
  3 36  1  0  0  0  0
  4  5  2  0  0  0  0
  4  6  1  0  0  0  0
  6 37  1  0  0  0  0
  6  7  1  0  0  0  0
  7 25  1  0  0  0  0
  7  8  2  0  0  0  0
  8  9  1  0  0  0  0
  9 13  1  0  0  0  0
  9 10  2  0  0  0  0
 10 11  1  0  0  0  0
 10 23  1  0  0  0  0
 11 12  2  0  0  0  0
 12 13  1  0  0  0  0
 12 38  1  0  0  0  0
 13 14  1  0  0  0  0
 14 26  1  0  0  0  0
 14 21  1  0  0  0  0
 14 15  1  0  0  0  0
 15 16  1  0  0  0  0
 16 27  1  0  0  0  0
 16 17  1  0  0  0  0
 16 19  1  0  0  0  0
 17 18  1  0  0  0  0
 17 39  1  0  0  0  0
 17 40  1  0  0  0  0
 18 41  1  0  0  0  0
 19 28  1  0  0  0  0
 19 20  1  0  0  0  0
 19 21  1  0  0  0  0
 20 42  1  0  0  0  0
 21 29  1  0  0  0  0
 21 22  1  0  0  0  0
 22 43  1  0  0  0  0
 23 24  2  0  0  0  0
 23 25  1  0  0  0  0
M  CHG  1  25  -1
M  END
> <s_m_source_file>
AV-unprocessed.smi

> <i_m_source_file_index>
54

> <i_lp_mmshare_version>
43012

> <i_f3d_flags>
0

> <s_epik_input>
W0NIM11bQ0hdKFtDSDNdKUMoPU8pW05IXWMobjEpW25IXWMoPU8pYyhjMTIpbltjSF1uMltDQEBIXTNPW0NASF0oW0NIMl1bT0hdKVtDQEBIXShbT0hdKVtDQEhdM1tPSF0=

> <s_epik_cmdline>
J2VwaWtfcHl0aG9uJywgJy1waCcsICc3LjAnLCAnLXRuJywgJzgnLCAnLW1hJywgJzIwMCcsICctbWV0YWxfYmluZGluZycsICctaW1hZScsICc8aW5maWxlLm1hZT4nLCAnLW9tYWUnLCAnPG91dGZpbGUubWFlPic=

> <r_lp_tautomer_probability>
0.85571

> <r_epik_Ionization_Penalty>
1.75936

> <r_epik_Ionization_Penalty_Charging>
4.55893e-11

> <r_epik_Ionization_Penalty_Neutral>
1.75936

> <r_epik_State_Penalty>
1.72072

> <r_epik_Charging_Adjusted_Penalty>
1.72072

> <i_epik_Tot_Q>
-1

> <i_epik_Tot_abs_Q>
1

> <r_epik_Metal_State_Penalty>
0.400338

> <b_epik_Metal_Only>
1

> <s_epik_Chemistry_Notes>
This compound contains an acetal/aminal-like group ( X-CH(R)-Y where X, Y are N, S, or O) that may be acid/base labile, releasing an aldehyde.

> <s_lp_Force_Field>
OPLS_2005

> <r_lp_Energy>
61.5499

> <b_lp_Chiralities_Consistent>
1

> <s_lp_Variant>
AV-unprocessed.smi:54-20

> <Gold.Version>
5.8.1

> <Gold.Id.Protein>
6NUR|6NUR_protein|mol2

> <Gold.PLP.Fitness>
51.9691

> <Gold.PLP.PLP>
-37.3851

> <Gold.PLP.part.hbond>
-4.0000

> <Gold.PLP.part.metal>
0.0000

> <Gold.PLP.part.buried>
-4.1781

> <Gold.PLP.part.nonpolar>
-33.6114

> <Gold.PLP.part.repulsive>
5.4236

> <Gold.PLP.ligand.clash>
0.0000

> <Gold.PLP.ligand.torsion>
0.4477

> <Gold.PLP.Chemscore.Hbond>
3.6750

> <Gold.PLP.Chemscore.CHOScore>
1.3223

> <Gold.PLP.Chemscore.Metal>
0.0000

> <Gold.Chemscore.Hbonds>
donor molecule, donor type, donor heavy atom, donor atom, acceptor molecule, acceptor atom, score
      L1  H    18    41       P1  7957  0.98
      P1  H  7954  7966       L1    18  0.33
      P1  H  7997  8009       L1    25  2.00
      P1  H 10752 10765       L1    24  0.35
      L1  C    12    38       P1  7948  1.00
      L1  C    12    38       P1  7957  0.40

> <Gold.PLP.Chemscore.Internal.Correction>
0.4875

> <Gold.Rescore>
     Score         DG    S(hbond)    S(metal)    S(lipo)     H(rot)  DE(clash)    DE(int)     intcor
      3.75      -8.25       1.63        0.00      65.17       4.02       1.84       2.66       ----

> <Gold.Chemscore.Fitness>
3.7464

> <Gold.Chemscore.DG>
-8.2509

> <Gold.Chemscore.ZeroCoef>
-5.4800

> <Gold.Chemscore.Hbond>
1.6274

> <Gold.Chemscore.Metal>
0.0000

> <Gold.Chemscore.Lipo>
65.1677

> <Gold.Chemscore.Internal_Hbond>
0.0000

> <Gold.Chemscore.DEClash>
1.8436

> <Gold.Chemscore.DEInternal>
2.6610

> <Gold.Chemscore.Rot>
4.0192

> <Gold.Chemscore.Internal.Correction>
   9.000000E+99

> <Gold.Chemscore.Hbonds>
donor molecule, donor type, donor heavy atom, donor atom, acceptor molecule, acceptor atom, score
      L1  H    18    41       P1  7957  0.85
      P1  H  7954  7966       L1    18  0.01
      P1  H  7997  8009       L1    25  0.10
      P1  H 10752 10765       L1    24  0.35

> <Gold.Chemscore.Hbond.Weighted>
-5.4356

> <Gold.Chemscore.Metal.Weighted>
-0.0000

> <Gold.Chemscore.Lipo.Weighted>
-7.6246

> <Gold.Chemscore.Internal_Hbond.Weighted>
0.0000

> <Gold.Chemscore.DEClash.Weighted>
1.8436

> <Gold.Chemscore.DEInternal.Weighted>
2.6610

> <Gold.Chemscore.Rot.Weighted>
10.2893

> <Gold.Chemscore.Internal.Correction.Weighted>
   9.000000E+99

> <Gold.Protein.RotatedTorsions>
[ 6907 6896 6895 6894 ] final   55.58 input  -60.11 | X-H torsion
[ 7974 7965 7964 7962 ] final  -25.68 input  175.53 | X-H torsion
[ 8008 7997 7996 7995 ] final  164.61 input   59.86 | X-H torsion
[ 10167 10162 10161 10158 ] final -141.99 input  -65.29 | X-H torsion
[ 10718 10713 10712 10709 ] final   58.70 input   66.30 | X-H torsion
[ 10763 10752 10751 10750 ] final -113.25 input  -60.55 | X-H torsion
[ 11005 11000 10999 10996 ] final -157.91 input  -57.11 | X-H torsion

> <Gold.Protein.ActiveResidues>
 VAL166  LYS551  ARG553  GLY616  TRP617  ASP618  TYR619  PRO620  LYS621  CYS622 
 ASP623  PHE694  ASN695  SER759  ASP760  ASP761  ALA762  ILE779  LEU786  VAL792 
 PHE793  MET794  SER795  GLU796  ALA797  LYS798  CYS799  TRP800  GLU811  SER814 

> <Gold.Protein.RotatedAtoms>
  152.3552  134.6950  160.0223 H   0  0  0  0  0  0  0  0  0  0  0  0  # atno 6907 bound_to 6896
  151.7291  133.3311  159.3343 H   0  0  0  0  0  0  0  0  0  0  0  0  # atno 6908 bound_to 6896
  150.7567  134.6313  159.6232 H   0  0  0  0  0  0  0  0  0  0  0  0  # atno 6909 bound_to 6896
  146.1475  140.4919  142.8625 H   0  0  0  0  0  0  0  0  0  0  0  0  # atno 7974 bound_to 7965
  156.1866  140.1692  156.8173 H   0  0  0  0  0  0  0  0  0  0  0  0  # atno 8008 bound_to 7997
  154.5421  140.0734  156.8560 H   0  0  0  0  0  0  0  0  0  0  0  0  # atno 8009 bound_to 7997
  155.3194  140.3372  155.4244 H   0  0  0  0  0  0  0  0  0  0  0  0  # atno 8010 bound_to 7997
  139.8132  143.7674  152.2664 H   0  0  0  0  0  0  0  0  0  0  0  0  # atno 10167 bound_to 10162
  157.5617  130.8841  149.9122 H   0  0  0  0  0  0  0  0  0  0  0  0  # atno 10718 bound_to 10713
  154.8387  135.4461  154.1320 H   0  0  0  0  0  0  0  0  0  0  0  0  # atno 10763 bound_to 10752
  153.2528  135.6928  153.7667 H   0  0  0  0  0  0  0  0  0  0  0  0  # atno 10764 bound_to 10752
  153.6973  135.3377  155.3192 H   0  0  0  0  0  0  0  0  0  0  0  0  # atno 10765 bound_to 10752
  140.6594  134.4366  157.5234 H   0  0  0  0  0  0  0  0  0  0  0  0  # atno 11005 bound_to 11000
  144.7864  140.5944  143.6571 LP  0  0  0  0  0  0  0  0  0  0  0  0  # atno 17320 bound_to 7965
  145.4903  139.1489  143.3713 LP  0  0  0  0  0  0  0  0  0  0  0  0  # atno 17321 bound_to 7965
  139.7830  144.7438  151.0062 LP  0  0  0  0  0  0  0  0  0  0  0  0  # atno 17342 bound_to 10162
  140.7817  143.4522  151.0396 LP  0  0  0  0  0  0  0  0  0  0  0  0  # atno 17343 bound_to 10162
  156.0669  130.3691  150.0858 LP  0  0  0  0  0  0  0  0  0  0  0  0  # atno 17370 bound_to 10713
  156.9022  130.9624  151.3575 LP  0  0  0  0  0  0  0  0  0  0  0  0  # atno 17371 bound_to 10713
  139.9018  134.8538  156.1864 LP  0  0  0  0  0  0  0  0  0  0  0  0  # atno 17394 bound_to 11000
  141.0477  133.6905  156.1713 LP  0  0  0  0  0  0  0  0  0  0  0  0  # atno 17395 bound_to 11000

$$$$
