AV-unprocessed.smi:2387|AV-procd|sdf|9470|dock4
  -GOLD-   2272013103D 1   1.00000     0.00000
 Structure written by MMmdl.
 48 50  0  0  0  0  0  0  0  0  2 V2000
  144.1146  131.8739  150.1832 C   0  0  0  0  0  0  0  0  0  0  0  0
  144.5595  133.2371  150.6695 C   0  0  0  0  0  0  0  0  0  0  0  0
  145.6216  133.4036  151.5825 C   0  0  0  0  0  0  0  0  0  0  0  0
  145.9817  134.7036  151.9944 C   0  0  0  0  0  0  0  0  0  0  0  0
  145.2642  135.8189  151.4916 C   0  0  0  0  0  0  0  0  0  0  0  0
  145.5549  137.1681  151.8319 N   0  0  0  0  0  0  0  0  0  0  0  0
  146.0961  137.6422  152.9674 C   0  0  0  0  0  0  0  0  0  0  0  0
  146.4261  136.9556  153.9339 O   0  0  0  0  0  0  0  0  0  0  0  0
  146.2237  138.9803  152.9242 N   0  0  0  0  0  0  0  0  0  0  0  0
  146.7404  139.8684  153.9819 C   0  0  0  0  0  0  0  0  0  0  0  0
  147.9055  139.2305  154.7887 C   0  0  0  0  0  0  0  0  0  0  0  0
  147.7704  139.0087  155.9926 O   0  0  0  0  0  0  0  0  0  0  0  0
  149.0480  138.9564  154.1356 N   0  0  0  0  0  0  0  0  0  0  0  0
  150.2385  138.3666  154.7325 C   0  0  0  0  0  0  0  0  0  0  0  0
  150.5382  138.8221  156.1480 C   0  0  0  0  0  0  0  0  0  0  0  0
  151.1426  140.1794  156.4190 C   0  0  0  0  0  0  0  0  0  0  0  0
  151.9655  138.9311  156.6299 C   0  0  0  0  0  0  0  0  0  0  0  0
  147.2376  141.1858  153.3210 C   0  0  0  0  0  0  0  0  0  0  0  0
  146.3420  142.3225  153.8232 C   0  0  0  0  0  0  0  0  0  0  0  0
  145.7988  141.8281  155.1557 C   0  0  0  0  0  0  0  0  0  0  0  0
  145.5901  140.3336  154.9212 C   0  0  0  0  0  0  0  0  0  0  0  0
  144.2228  135.5853  150.5679 C   0  0  0  0  0  0  0  0  0  0  0  0
  143.9091  134.3239  150.1994 N   0  3  0  0  0  0  0  0  0  0  0  0
  144.7227  131.0823  150.6219 H   0  0  0  0  0  0  0  0  0  0  0  0
  144.2031  131.8092  149.0983 H   0  0  0  0  0  0  0  0  0  0  0  0
  143.0744  131.6944  150.4561 H   0  0  0  0  0  0  0  0  0  0  0  0
  146.1600  132.5477  151.9630 H   0  0  0  0  0  0  0  0  0  0  0  0
  146.8088  134.8181  152.6781 H   0  0  0  0  0  0  0  0  0  0  0  0
  145.2576  137.8604  151.1600 H   0  0  0  0  0  0  0  0  0  0  0  0
  145.9205  139.4431  152.0799 H   0  0  0  0  0  0  0  0  0  0  0  0
  149.0914  139.1725  153.1507 H   0  0  0  0  0  0  0  0  0  0  0  0
  150.1483  137.2793  154.7271 H   0  0  0  0  0  0  0  0  0  0  0  0
  151.0886  138.6038  154.0924 H   0  0  0  0  0  0  0  0  0  0  0  0
  149.8254  138.4592  156.8859 H   0  0  0  0  0  0  0  0  0  0  0  0
  151.3890  140.8056  155.5638 H   0  0  0  0  0  0  0  0  0  0  0  0
  150.8012  140.7127  157.3038 H   0  0  0  0  0  0  0  0  0  0  0  0
  152.1734  138.6328  157.6554 H   0  0  0  0  0  0  0  0  0  0  0  0
  152.7602  138.7280  155.9149 H   0  0  0  0  0  0  0  0  0  0  0  0
  148.2705  141.4096  153.5951 H   0  0  0  0  0  0  0  0  0  0  0  0
  147.2225  141.1428  152.2307 H   0  0  0  0  0  0  0  0  0  0  0  0
  146.8758  143.2688  153.9133 H   0  0  0  0  0  0  0  0  0  0  0  0
  145.5158  142.4725  153.1271 H   0  0  0  0  0  0  0  0  0  0  0  0
  146.5397  141.9838  155.9409 H   0  0  0  0  0  0  0  0  0  0  0  0
  144.8826  142.3391  155.4526 H   0  0  0  0  0  0  0  0  0  0  0  0
  144.6211  140.1986  154.4379 H   0  0  0  0  0  0  0  0  0  0  0  0
  145.5435  139.7812  155.8611 H   0  0  0  0  0  0  0  0  0  0  0  0
  143.6259  136.3657  150.1183 H   0  0  0  0  0  0  0  0  0  0  0  0
  143.1466  134.1855  149.5357 H   0  0  0  0  0  0  0  0  0  0  0  0
  1  2  1  0  0  0  0
  1 24  1  0  0  0  0
  1 25  1  0  0  0  0
  1 26  1  0  0  0  0
  2 23  1  0  0  0  0
  2  3  2  0  0  0  0
  3  4  1  0  0  0  0
  3 27  1  0  0  0  0
  4  5  2  0  0  0  0
  4 28  1  0  0  0  0
  5  6  1  0  0  0  0
  5 22  1  0  0  0  0
  6  7  1  0  0  0  0
  6 29  1  0  0  0  0
  7  8  2  0  0  0  0
  7  9  1  0  0  0  0
  9 10  1  0  0  0  0
  9 30  1  0  0  0  0
 10 21  1  0  0  0  0
 10 11  1  0  0  0  0
 10 18  1  0  0  0  0
 11 12  2  0  0  0  0
 11 13  1  0  0  0  0
 13 14  1  0  0  0  0
 13 31  1  0  0  0  0
 14 15  1  0  0  0  0
 14 32  1  0  0  0  0
 14 33  1  0  0  0  0
 15 17  1  0  0  0  0
 15 16  1  0  0  0  0
 15 34  1  0  0  0  0
 16 17  1  0  0  0  0
 16 35  1  0  0  0  0
 16 36  1  0  0  0  0
 17 37  1  0  0  0  0
 17 38  1  0  0  0  0
 18 19  1  0  0  0  0
 18 39  1  0  0  0  0
 18 40  1  0  0  0  0
 19 20  1  0  0  0  0
 19 41  1  0  0  0  0
 19 42  1  0  0  0  0
 20 21  1  0  0  0  0
 20 43  1  0  0  0  0
 20 44  1  0  0  0  0
 21 45  1  0  0  0  0
 21 46  1  0  0  0  0
 22 23  2  0  0  0  0
 22 47  1  0  0  0  0
 23 48  1  0  0  0  0
M  CHG  1  23   1
M  END
> <s_m_source_file>
AV-unprocessed.smi

> <i_m_source_file_index>
2387

> <i_lp_mmshare_version>
43012

> <i_f3d_flags>
0

> <s_epik_input>
W0NIM11jMVtjSF1bY0hdYyhbY0hdbjEpW05IXUMoPU8pW05IXUMyKFtDSDJdW0NIMl1bQ0gyXVtDSDJdMilDKD1PKVtOSF1bQ0gyXVtDSF0zW0NIMl1bQ0gyXTM=

> <s_epik_cmdline>
J2VwaWtfcHl0aG9uJywgJy1waCcsICc3LjAnLCAnLXRuJywgJzgnLCAnLW1hJywgJzIwMCcsICctbWV0YWxfYmluZGluZycsICctaW1hZScsICc8aW5maWxlLm1hZT4nLCAnLW9tYWUnLCAnPG91dGZpbGUubWFlPic=

> <r_epik_Ionization_Penalty>
2.1018

> <r_epik_Ionization_Penalty_Charging>
2.10178

> <r_epik_Ionization_Penalty_Neutral>
2.02976e-05

> <r_epik_State_Penalty>
2.23801

> <r_epik_Charging_Adjusted_Penalty>
4.33979

> <i_epik_Tot_Q>
1

> <i_epik_Tot_abs_Q>
1

> <r_epik_Metal_State_Penalty>
2.25493

> <b_epik_Metal_Only>
0

> <s_lp_Force_Field>
OPLS_2005

> <r_lp_Energy>
37.3987

> <b_lp_Chiralities_Consistent>
1

> <s_lp_Variant>
AV-unprocessed.smi:2387-2

> <Gold.Version>
5.8.1

> <Gold.Id.Protein>
6NUR|6NUR_protein|mol2

> <Gold.PLP.Fitness>
50.3067

> <Gold.PLP.PLP>
-40.1630

> <Gold.PLP.part.hbond>
-4.0313

> <Gold.PLP.part.metal>
0.0000

> <Gold.PLP.part.buried>
-4.6417

> <Gold.PLP.part.nonpolar>
-32.1426

> <Gold.PLP.part.repulsive>
0.7717

> <Gold.PLP.ligand.clash>
0.0000

> <Gold.PLP.ligand.torsion>
1.2172

> <Gold.PLP.Chemscore.Hbond>
3.9840

> <Gold.PLP.Chemscore.CHOScore>
0.0000

> <Gold.PLP.Chemscore.Metal>
0.0000

> <Gold.Chemscore.Hbonds>
donor molecule, donor type, donor heavy atom, donor atom, acceptor molecule, acceptor atom, score
      L1  H     6    29       P1 10171  0.91
      L1  H    13    31       P1  7957  0.50
      L1  H    23    48       P1 10186  1.05

> <Gold.PLP.Chemscore.Internal.Correction>
0.6261

> <Gold.Rescore>
     Score         DG    S(hbond)    S(metal)    S(lipo)     H(rot)  DE(clash)    DE(int)     intcor
     16.90     -21.94       2.82        0.00      95.82       1.63       0.33       4.72       ----

> <Gold.Chemscore.Fitness>
16.8971

> <Gold.Chemscore.DG>
-21.9446

> <Gold.Chemscore.ZeroCoef>
-5.4800

> <Gold.Chemscore.Hbond>
2.8211

> <Gold.Chemscore.Metal>
0.0000

> <Gold.Chemscore.Lipo>
95.8239

> <Gold.Chemscore.Internal_Hbond>
0.0000

> <Gold.Chemscore.DEClash>
0.3264

> <Gold.Chemscore.DEInternal>
4.7211

> <Gold.Chemscore.Rot>
1.6286

> <Gold.Chemscore.Internal.Correction>
   9.000000E+99

> <Gold.Chemscore.Hbonds>
donor molecule, donor type, donor heavy atom, donor atom, acceptor molecule, acceptor atom, score
      L1  H     6    29       P1 10171  0.84
      L1  H    13    31       P1  7957  0.50
      L1  H    23    48       P1 10186  0.52

> <Gold.Chemscore.Hbond.Weighted>
-9.4224

> <Gold.Chemscore.Metal.Weighted>
-0.0000

> <Gold.Chemscore.Lipo.Weighted>
-11.2114

> <Gold.Chemscore.Internal_Hbond.Weighted>
0.0000

> <Gold.Chemscore.DEClash.Weighted>
0.3264

> <Gold.Chemscore.DEInternal.Weighted>
4.7211

> <Gold.Chemscore.Rot.Weighted>
4.1692

> <Gold.Chemscore.Internal.Correction.Weighted>
   9.000000E+99

> <Gold.Protein.RotatedTorsions>
[ 6907 6896 6895 6894 ] final  139.94 input  -60.11 | X-H torsion
[ 7974 7965 7964 7962 ] final  140.61 input  175.53 | X-H torsion
[ 8008 7997 7996 7995 ] final  -50.33 input   59.86 | X-H torsion
[ 10167 10162 10161 10158 ] final  176.99 input  -65.29 | X-H torsion
[ 10718 10713 10712 10709 ] final -118.52 input   66.30 | X-H torsion
[ 10763 10752 10751 10750 ] final  -90.13 input  -60.55 | X-H torsion
[ 11005 11000 10999 10996 ] final  -68.14 input  -57.11 | X-H torsion

> <Gold.Protein.ActiveResidues>
 VAL166  LYS551  ARG553  GLY616  TRP617  ASP618  TYR619  PRO620  LYS621  CYS622 
 ASP623  PHE694  ASN695  SER759  ASP760  ASP761  ALA762  ILE779  LEU786  VAL792 
 PHE793  MET794  SER795  GLU796  ALA797  LYS798  CYS799  TRP800  GLU811  SER814 

> <Gold.Protein.RotatedAtoms>
  152.2489  133.5198  159.5313 H   0  0  0  0  0  0  0  0  0  0  0  0  # atno 6907 bound_to 6896
  150.7087  134.0987  159.3967 H   0  0  0  0  0  0  0  0  0  0  0  0  # atno 6908 bound_to 6896
  151.8907  135.0417  160.0548 H   0  0  0  0  0  0  0  0  0  0  0  0  # atno 6909 bound_to 6896
  144.9171  139.5216  143.5681 H   0  0  0  0  0  0  0  0  0  0  0  0  # atno 7974 bound_to 7965
  154.4060  140.1275  156.4649 H   0  0  0  0  0  0  0  0  0  0  0  0  # atno 8008 bound_to 7997
  155.7237  140.3492  155.5008 H   0  0  0  0  0  0  0  0  0  0  0  0  # atno 8009 bound_to 7997
  155.9191  140.1049  157.1211 H   0  0  0  0  0  0  0  0  0  0  0  0  # atno 8010 bound_to 7997
  139.5236  144.2850  152.0513 H   0  0  0  0  0  0  0  0  0  0  0  0  # atno 10167 bound_to 10162
  156.1112  130.6250  150.9301 H   0  0  0  0  0  0  0  0  0  0  0  0  # atno 10718 bound_to 10713
  154.6625  135.5316  153.8036 H   0  0  0  0  0  0  0  0  0  0  0  0  # atno 10763 bound_to 10752
  153.0451  135.6509  154.0850 H   0  0  0  0  0  0  0  0  0  0  0  0  # atno 10764 bound_to 10752
  154.0757  135.2951  155.3280 H   0  0  0  0  0  0  0  0  0  0  0  0  # atno 10765 bound_to 10752
  141.1525  133.6734  156.6400 H   0  0  0  0  0  0  0  0  0  0  0  0  # atno 11005 bound_to 11000
  146.3187  139.8022  142.8963 LP  0  0  0  0  0  0  0  0  0  0  0  0  # atno 17320 bound_to 7965
  145.3357  141.0276  143.3421 LP  0  0  0  0  0  0  0  0  0  0  0  0  # atno 17321 bound_to 7965
  140.2304  144.4374  150.6302 LP  0  0  0  0  0  0  0  0  0  0  0  0  # atno 17342 bound_to 10162
  140.6359  143.2195  151.6395 LP  0  0  0  0  0  0  0  0  0  0  0  0  # atno 17343 bound_to 10162
  157.6293  131.0922  150.8472 LP  0  0  0  0  0  0  0  0  0  0  0  0  # atno 17370 bound_to 10713
  156.8582  130.5104  149.5306 LP  0  0  0  0  0  0  0  0  0  0  0  0  # atno 17371 bound_to 10713
  140.3400  134.7857  157.4391 LP  0  0  0  0  0  0  0  0  0  0  0  0  # atno 17394 bound_to 11000
  140.0945  134.5555  155.8411 LP  0  0  0  0  0  0  0  0  0  0  0  0  # atno 17395 bound_to 11000

$$$$
