AV-unprocessed.smi:620|AV-procd|sdf|3087|dock2
  -GOLD-   22720 0 13D 1   1.00000     0.00000
 Structure written by MMmdl.
 33 35  0  0  0  0  0  0  0  0  1 V2000
  153.7385  142.0781  160.7945 C   0  0  0  0  0  0  0  0  0  0  0  0
  152.6473  142.4906  159.8666 C   0  0  0  0  0  0  0  0  0  0  0  0
  152.3271  143.7719  159.6452 N   0  0  0  0  0  0  0  0  0  0  0  0
  151.2846  143.9074  158.7379 N   0  0  0  0  0  0  0  0  0  0  0  0
  150.8458  142.7234  158.3017 C   0  0  0  0  0  0  0  0  0  0  0  0
  149.7843  142.7098  157.3628 N   0  0  0  0  0  0  0  0  0  0  0  0
  149.1670  141.6430  156.8300 C   0  0  0  0  0  0  0  0  0  0  0  0
  149.4164  140.4686  157.1009 O   0  0  0  0  0  0  0  0  0  0  0  0
  148.2257  142.0179  155.9516 N   0  0  0  0  0  0  0  0  0  0  0  0
  147.3715  141.1180  155.1833 C   0  0  0  0  0  0  0  0  0  0  0  0
  148.1338  140.3777  154.0957 C   0  0  0  0  0  0  0  0  0  0  0  0
  147.7669  138.9677  153.6963 C   0  0  0  0  0  0  0  0  0  0  0  0
  149.0634  139.2330  154.4258 C   0  0  0  0  0  0  0  0  0  0  0  0
  146.1846  141.8537  154.5882 C   0  0  0  0  0  0  0  0  0  0  0  0
  146.3708  143.1426  153.8240 C   0  0  0  0  0  0  0  0  0  0  0  0
  145.6882  143.1548  155.1735 C   0  0  0  0  0  0  0  0  0  0  0  0
  151.6825  141.3230  158.9725 S   0  0  0  0  0  0  0  0  0  0  0  0
  154.1958  142.9496  161.2646 H   0  0  0  0  0  0  0  0  0  0  0  0
  154.5072  141.5348  160.2451 H   0  0  0  0  0  0  0  0  0  0  0  0
  153.3399  141.4290  161.5744 H   0  0  0  0  0  0  0  0  0  0  0  0
  149.4646  143.6168  157.0567 H   0  0  0  0  0  0  0  0  0  0  0  0
  148.0901  143.0062  155.7976 H   0  0  0  0  0  0  0  0  0  0  0  0
  146.9670  140.3700  155.8687 H   0  0  0  0  0  0  0  0  0  0  0  0
  148.4519  141.0225  153.2782 H   0  0  0  0  0  0  0  0  0  0  0  0
  146.9779  138.4662  154.2528 H   0  0  0  0  0  0  0  0  0  0  0  0
  147.8254  138.7145  152.6398 H   0  0  0  0  0  0  0  0  0  0  0  0
  149.9881  139.1586  153.8574 H   0  0  0  0  0  0  0  0  0  0  0  0
  149.1265  138.9078  155.4623 H   0  0  0  0  0  0  0  0  0  0  0  0
  145.4125  141.1889  154.2049 H   0  0  0  0  0  0  0  0  0  0  0  0
  147.3757  143.5563  153.7650 H   0  0  0  0  0  0  0  0  0  0  0  0
  145.7498  143.2989  152.9442 H   0  0  0  0  0  0  0  0  0  0  0  0
  144.6126  143.3178  155.1926 H   0  0  0  0  0  0  0  0  0  0  0  0
  146.2400  143.5850  156.0068 H   0  0  0  0  0  0  0  0  0  0  0  0
  1  2  1  0  0  0  0
  1 18  1  0  0  0  0
  1 19  1  0  0  0  0
  1 20  1  0  0  0  0
  2 17  1  0  0  0  0
  2  3  2  0  0  0  0
  3  4  1  0  0  0  0
  4  5  2  0  0  0  0
  5  6  1  0  0  0  0
  5 17  1  0  0  0  0
  6  7  1  0  0  0  0
  6 21  1  0  0  0  0
  7  8  2  0  0  0  0
  7  9  1  0  0  0  0
  9 10  1  0  0  0  0
  9 22  1  0  0  0  0
 10 11  1  0  0  0  0
 10 14  1  0  0  0  0
 10 23  1  0  0  0  0
 11 13  1  0  0  0  0
 11 12  1  0  0  0  0
 11 24  1  0  0  0  0
 12 13  1  0  0  0  0
 12 25  1  0  0  0  0
 12 26  1  0  0  0  0
 13 27  1  0  0  0  0
 13 28  1  0  0  0  0
 14 16  1  0  0  0  0
 14 15  1  0  0  0  0
 14 29  1  0  0  0  0
 15 16  1  0  0  0  0
 15 30  1  0  0  0  0
 15 31  1  0  0  0  0
 16 32  1  0  0  0  0
 16 33  1  0  0  0  0
M  END
> <s_m_source_file>
AV-unprocessed.smi

> <i_m_source_file_index>
620

> <i_lp_mmshare_version>
43012

> <i_f3d_flags>
0

> <s_epik_input>
W0NIM11jMW5uYyhzMSlbTkhdQyg9TylbTkhdW0NIXShbQ0hdMltDSDJdW0NIMl0yKVtDSF0zW0NIMl1bQ0gyXTM=

> <s_epik_cmdline>
J2VwaWtfcHl0aG9uJywgJy1waCcsICc3LjAnLCAnLXRuJywgJzgnLCAnLW1hJywgJzIwMCcsICctbWV0YWxfYmluZGluZycsICctaW1hZScsICc8aW5maWxlLm1hZT4nLCAnLW9tYWUnLCAnPG91dGZpbGUubWFlPic=

> <r_lp_tautomer_probability>
1

> <r_epik_Ionization_Penalty>
0.000349386

> <r_epik_Ionization_Penalty_Charging>
0

> <r_epik_Ionization_Penalty_Neutral>
0.000349386

> <r_epik_State_Penalty>
-0

> <r_epik_Charging_Adjusted_Penalty>
0

> <i_epik_Tot_Q>
0

> <i_epik_Tot_abs_Q>
0

> <r_epik_Metal_State_Penalty>
0.178889

> <b_epik_Metal_Only>
0

> <s_lp_Force_Field>
OPLS_2005

> <r_lp_Energy>
21.1743

> <b_lp_Chiralities_Consistent>
1

> <s_lp_Variant>
AV-unprocessed.smi:620-1

> <Gold.Version>
5.8.1

> <Gold.Id.Protein>
6NUR|6NUR_protein|mol2

> <Gold.PLP.Fitness>
37.0968

> <Gold.PLP.PLP>
-31.6324

> <Gold.PLP.part.hbond>
-2.0000

> <Gold.PLP.part.metal>
0.0000

> <Gold.PLP.part.buried>
-5.3541

> <Gold.PLP.part.nonpolar>
-24.5361

> <Gold.PLP.part.repulsive>
0.1889

> <Gold.PLP.ligand.clash>
0.0000

> <Gold.PLP.ligand.torsion>
1.2574

> <Gold.PLP.Chemscore.Hbond>
1.9520

> <Gold.PLP.Chemscore.CHOScore>
0.0000

> <Gold.PLP.Chemscore.Metal>
0.0000

> <Gold.Chemscore.Hbonds>
donor molecule, donor type, donor heavy atom, donor atom, acceptor molecule, acceptor atom, score
      L1  H     6    21       P1  8028  0.99
      L1  H     9    22       P1  8028  0.98

> <Gold.PLP.Chemscore.Internal.Correction>
2.1232

> <Gold.Rescore>
     Score         DG    S(hbond)    S(metal)    S(lipo)     H(rot)  DE(clash)    DE(int)     intcor
     14.42     -16.54       1.94        0.00      70.62       1.44       0.08       2.05       ----

> <Gold.Chemscore.Fitness>
14.4159

> <Gold.Chemscore.DG>
-16.5430

> <Gold.Chemscore.ZeroCoef>
-5.4800

> <Gold.Chemscore.Hbond>
1.9422

> <Gold.Chemscore.Metal>
0.0000

> <Gold.Chemscore.Lipo>
70.6197

> <Gold.Chemscore.Internal_Hbond>
0.0000

> <Gold.Chemscore.DEClash>
0.0782

> <Gold.Chemscore.DEInternal>
2.0489

> <Gold.Chemscore.Rot>
1.4400

> <Gold.Chemscore.Internal.Correction>
   9.000000E+99

> <Gold.Chemscore.Hbonds>
donor molecule, donor type, donor heavy atom, donor atom, acceptor molecule, acceptor atom, score
      L1  H     6    21       P1  8028  0.81
      L1  H     9    22       P1  8028  0.73

> <Gold.Chemscore.Hbond.Weighted>
-6.4869

> <Gold.Chemscore.Metal.Weighted>
-0.0000

> <Gold.Chemscore.Lipo.Weighted>
-8.2625

> <Gold.Chemscore.Internal_Hbond.Weighted>
0.0000

> <Gold.Chemscore.DEClash.Weighted>
0.0782

> <Gold.Chemscore.DEInternal.Weighted>
2.0489

> <Gold.Chemscore.Rot.Weighted>
3.6864

> <Gold.Chemscore.Internal.Correction.Weighted>
   9.000000E+99

> <Gold.Protein.RotatedTorsions>
[ 6907 6896 6895 6894 ] final   82.61 input  -60.11 | X-H torsion
[ 7974 7965 7964 7962 ] final -104.57 input  175.53 | X-H torsion
[ 8008 7997 7996 7995 ] final  -30.61 input   59.86 | X-H torsion
[ 10167 10162 10161 10158 ] final -174.46 input  -65.29 | X-H torsion
[ 10718 10713 10712 10709 ] final -109.69 input   66.30 | X-H torsion
[ 10763 10752 10751 10750 ] final   50.09 input  -60.55 | X-H torsion
[ 11005 11000 10999 10996 ] final   16.81 input  -57.11 | X-H torsion

> <Gold.Protein.ActiveResidues>
 VAL166  LYS551  ARG553  GLY616  TRP617  ASP618  TYR619  PRO620  LYS621  CYS622 
 ASP623  PHE694  ASN695  SER759  ASP760  ASP761  ALA762  ILE779  LEU786  VAL792 
 PHE793  MET794  SER795  GLU796  ALA797  LYS798  CYS799  TRP800  GLU811  SER814 

> <Gold.Protein.RotatedAtoms>
  152.5304  134.3023  159.9082 H   0  0  0  0  0  0  0  0  0  0  0  0  # atno 6907 bound_to 6896
  151.2973  133.4132  159.2645 H   0  0  0  0  0  0  0  0  0  0  0  0  # atno 6908 bound_to 6896
  151.0149  134.9441  159.8085 H   0  0  0  0  0  0  0  0  0  0  0  0  # atno 6909 bound_to 6896
  145.2414  140.9206  143.3147 H   0  0  0  0  0  0  0  0  0  0  0  0  # atno 7974 bound_to 7965
  154.4244  140.1787  156.1434 H   0  0  0  0  0  0  0  0  0  0  0  0  # atno 8008 bound_to 7997
  155.9973  140.3363  155.6786 H   0  0  0  0  0  0  0  0  0  0  0  0  # atno 8009 bound_to 7997
  155.6290  140.0668  157.2645 H   0  0  0  0  0  0  0  0  0  0  0  0  # atno 8010 bound_to 7997
  139.5633  144.1817  152.1273 H   0  0  0  0  0  0  0  0  0  0  0  0  # atno 10167 bound_to 10162
  156.0550  130.5776  150.8134 H   0  0  0  0  0  0  0  0  0  0  0  0  # atno 10718 bound_to 10713
  152.9785  135.5890  154.4196 H   0  0  0  0  0  0  0  0  0  0  0  0  # atno 10763 bound_to 10752
  154.3822  135.2767  155.2206 H   0  0  0  0  0  0  0  0  0  0  0  0  # atno 10764 bound_to 10752
  154.4115  135.6080  153.6010 H   0  0  0  0  0  0  0  0  0  0  0  0  # atno 10765 bound_to 10752
  140.4430  134.1302  155.7692 H   0  0  0  0  0  0  0  0  0  0  0  0  # atno 11005 bound_to 11000
  144.9585  139.4005  143.6367 LP  0  0  0  0  0  0  0  0  0  0  0  0  # atno 17320 bound_to 7965
  146.3327  139.8627  142.8853 LP  0  0  0  0  0  0  0  0  0  0  0  0  # atno 17321 bound_to 7965
  140.1335  144.5267  150.6788 LP  0  0  0  0  0  0  0  0  0  0  0  0  # atno 17342 bound_to 10162
  140.6914  143.2378  151.5119 LP  0  0  0  0  0  0  0  0  0  0  0  0  # atno 17343 bound_to 10162
  157.5512  131.0944  150.9693 LP  0  0  0  0  0  0  0  0  0  0  0  0  # atno 17370 bound_to 10713
  156.9952  130.5579  149.5306 LP  0  0  0  0  0  0  0  0  0  0  0  0  # atno 17371 bound_to 10713
  141.1697  133.8632  157.1607 LP  0  0  0  0  0  0  0  0  0  0  0  0  # atno 17394 bound_to 11000
  140.0057  135.0009  157.0288 LP  0  0  0  0  0  0  0  0  0  0  0  0  # atno 17395 bound_to 11000

$$$$
