AV-unprocessed.smi:1484|AV-procd|sdf|5999|dock1
  -GOLD-   22720 6 93D 1   1.00000     0.00000
 Structure written by MMmdl.
 38 39  0  0  0  0  0  0  0  0  1 V2000
  153.5523  142.0107  161.1062 C   0  0  0  0  0  0  0  0  0  0  0  0
  153.1421  142.3684  159.6707 C   0  0  2  0  0  0  0  0  0  0  0  0
  152.7009  143.8405  159.5608 C   0  0  0  0  0  0  0  0  0  0  0  0
  152.2899  144.1986  158.1241 C   0  0  0  0  0  0  0  0  0  0  0  0
  151.1873  143.2611  157.6085 C   0  0  0  0  0  0  0  0  0  0  0  0
  151.6152  141.7833  157.7107 C   0  0  2  0  0  0  0  0  0  0  0  0
  150.5310  140.9022  157.2877 N   0  0  0  0  0  0  0  0  0  0  0  0
  150.4893  140.2222  156.1319 C   0  0  0  0  0  0  0  0  0  0  0  0
  151.3765  140.2851  155.2793 O   0  0  0  0  0  0  0  0  0  0  0  0
  149.2393  139.3587  155.9063 C   0  0  0  0  0  0  0  0  0  0  0  0
  148.3794  139.8474  154.8187 N   0  0  0  0  0  0  0  0  0  0  0  0
  148.2179  138.9478  153.7759 N   0  0  0  0  0  0  0  0  0  0  0  0
  147.4735  139.2555  152.7682 C   0  0  0  0  0  0  0  0  0  0  0  0
  147.3384  138.3342  151.7587 O   0  0  0  0  0  0  0  0  0  0  0  0
  146.7991  140.5332  152.6984 C   0  0  0  0  0  0  0  0  0  0  0  0
  146.9668  141.4052  153.7165 C   0  0  0  0  0  0  0  0  0  0  0  0
  147.8045  141.0881  154.8745 C   0  0  0  0  0  0  0  0  0  0  0  0
  147.9767  141.8642  155.8142 O   0  0  0  0  0  0  0  0  0  0  0  0
  152.0319  141.4334  159.1521 C   0  0  0  0  0  0  0  0  0  0  0  0
  147.6849  137.5270  152.1061 H   0  0  0  0  0  0  0  0  0  0  0  0
  152.7166  142.1238  161.7977 H   0  0  0  0  0  0  0  0  0  0  0  0
  154.3620  142.6525  161.4545 H   0  0  0  0  0  0  0  0  0  0  0  0
  153.8998  140.9792  161.1697 H   0  0  0  0  0  0  0  0  0  0  0  0
  154.0190  142.2321  159.0361 H   0  0  0  0  0  0  0  0  0  0  0  0
  151.8639  144.0270  160.2352 H   0  0  0  0  0  0  0  0  0  0  0  0
  153.5091  144.4979  159.8831 H   0  0  0  0  0  0  0  0  0  0  0  0
  151.9472  145.2329  158.0823 H   0  0  0  0  0  0  0  0  0  0  0  0
  153.1592  144.1346  157.4684 H   0  0  0  0  0  0  0  0  0  0  0  0
  150.2755  143.4234  158.1852 H   0  0  0  0  0  0  0  0  0  0  0  0
  150.9482  143.5149  156.5751 H   0  0  0  0  0  0  0  0  0  0  0  0
  152.4778  141.6198  157.0613 H   0  0  0  0  0  0  0  0  0  0  0  0
  149.7559  140.7966  157.9263 H   0  0  0  0  0  0  0  0  0  0  0  0
  149.5392  138.3277  155.7076 H   0  0  0  0  0  0  0  0  0  0  0  0
  148.6798  139.3246  156.8429 H   0  0  0  0  0  0  0  0  0  0  0  0
  146.1782  140.7766  151.8486 H   0  0  0  0  0  0  0  0  0  0  0  0
  146.4691  142.3629  153.6776 H   0  0  0  0  0  0  0  0  0  0  0  0
  152.3737  140.3983  159.1937 H   0  0  0  0  0  0  0  0  0  0  0  0
  151.1646  141.4980  159.8113 H   0  0  0  0  0  0  0  0  0  0  0  0
  1  2  1  0  0  0  0
  1 21  1  0  0  0  0
  1 22  1  0  0  0  0
  1 23  1  0  0  0  0
  2 19  1  0  0  0  0
  2  3  1  0  0  0  0
  2 24  1  0  0  0  0
  3  4  1  0  0  0  0
  3 25  1  0  0  0  0
  3 26  1  0  0  0  0
  4  5  1  0  0  0  0
  4 27  1  0  0  0  0
  4 28  1  0  0  0  0
  5  6  1  0  0  0  0
  5 29  1  0  0  0  0
  5 30  1  0  0  0  0
  6  7  1  0  0  0  0
  6 19  1  0  0  0  0
  6 31  1  0  0  0  0
  7  8  1  0  0  0  0
  7 32  1  0  0  0  0
  8  9  2  0  0  0  0
  8 10  1  0  0  0  0
 10 33  1  0  0  0  0
 10 34  1  0  0  0  0
 10 11  1  0  0  0  0
 11 12  1  0  0  0  0
 11 17  1  0  0  0  0
 12 13  2  0  0  0  0
 13 14  1  0  0  0  0
 13 15  1  0  0  0  0
 14 20  1  0  0  0  0
 15 35  1  0  0  0  0
 15 16  2  0  0  0  0
 16 36  1  0  0  0  0
 16 17  1  0  0  0  0
 17 18  2  0  0  0  0
 19 37  1  0  0  0  0
 19 38  1  0  0  0  0
M  END
> <s_m_source_file>
AV-unprocessed.smi

> <i_m_source_file_index>
1484

> <i_lp_mmshare_version>
43012

> <i_f3d_flags>
0

> <s_epik_input>
W0NIM11bQ0BASF0xW0NIMl1bQ0gyXVtDSDJdW0NASF0oW0NIMl0xKVtOSF1DKD1PKVtDSDJdbjJbbkhdYyg9TylbY0hdW2NIXWMyPU8=

> <s_epik_cmdline>
J2VwaWtfcHl0aG9uJywgJy1waCcsICc3LjAnLCAnLXRuJywgJzgnLCAnLW1hJywgJzIwMCcsICctbWV0YWxfYmluZGluZycsICctaW1hZScsICc8aW5maWxlLm1hZT4nLCAnLW9tYWUnLCAnPG91dGZpbGUubWFlPic=

> <r_lp_tautomer_probability>
0.9996

> <r_epik_Ionization_Penalty>
2.10343

> <r_epik_Ionization_Penalty_Charging>
3.97871e-08

> <r_epik_Ionization_Penalty_Neutral>
2.10343

> <r_epik_State_Penalty>
1.67966

> <r_epik_Charging_Adjusted_Penalty>
1.67966

> <i_epik_Tot_Q>
0

> <i_epik_Tot_abs_Q>
0

> <r_epik_Metal_State_Penalty>
1.67966

> <b_epik_Metal_Only>
0

> <s_lp_Force_Field>
OPLS_2005

> <r_lp_Energy>
18.4171

> <b_lp_Chiralities_Consistent>
1

> <s_lp_Variant>
AV-unprocessed.smi:1484-7

> <Gold.Version>
5.8.1

> <Gold.Id.Protein>
6NUR|6NUR_protein|mol2

> <Gold.PLP.Fitness>
44.2470

> <Gold.PLP.PLP>
-37.6035

> <Gold.PLP.part.hbond>
-4.0000

> <Gold.PLP.part.metal>
0.0000

> <Gold.PLP.part.buried>
-2.2891

> <Gold.PLP.part.nonpolar>
-33.3403

> <Gold.PLP.part.repulsive>
1.5175

> <Gold.PLP.ligand.clash>
0.0000

> <Gold.PLP.ligand.torsion>
0.1880

> <Gold.PLP.Chemscore.Hbond>
2.3380

> <Gold.PLP.Chemscore.CHOScore>
0.0000

> <Gold.PLP.Chemscore.Metal>
0.0000

> <Gold.Chemscore.Hbonds>
donor molecule, donor type, donor heavy atom, donor atom, acceptor molecule, acceptor atom, score
      L1  H    14    20       P1  7948  0.85
      P1  H  7954  7966       L1    14  0.43
      P1  H  7989  7998       L1     9  0.99

> <Gold.PLP.Chemscore.Internal.Correction>
0.0056

> <Gold.Rescore>
     Score         DG    S(hbond)    S(metal)    S(lipo)     H(rot)  DE(clash)    DE(int)     intcor
     15.69     -17.29       1.83        0.00      97.80       2.24       1.25       0.35       ----

> <Gold.Chemscore.Fitness>
15.6913

> <Gold.Chemscore.DG>
-17.2935

> <Gold.Chemscore.ZeroCoef>
-5.4800

> <Gold.Chemscore.Hbond>
1.8296

> <Gold.Chemscore.Metal>
0.0000

> <Gold.Chemscore.Lipo>
97.7992

> <Gold.Chemscore.Internal_Hbond>
0.0000

> <Gold.Chemscore.DEClash>
1.2514

> <Gold.Chemscore.DEInternal>
0.3508

> <Gold.Chemscore.Rot>
2.2421

> <Gold.Chemscore.Internal.Correction>
   9.000000E+99

> <Gold.Chemscore.Hbonds>
donor molecule, donor type, donor heavy atom, donor atom, acceptor molecule, acceptor atom, score
      L1  H    14    20       P1  7948  0.85
      P1  H  7954  7966       L1    14  0.02
      P1  H  7989  7998       L1     9  0.93

> <Gold.Chemscore.Hbond.Weighted>
-6.1108

> <Gold.Chemscore.Metal.Weighted>
-0.0000

> <Gold.Chemscore.Lipo.Weighted>
-11.4425

> <Gold.Chemscore.Internal_Hbond.Weighted>
0.0000

> <Gold.Chemscore.DEClash.Weighted>
1.2514

> <Gold.Chemscore.DEInternal.Weighted>
0.3508

> <Gold.Chemscore.Rot.Weighted>
5.7398

> <Gold.Chemscore.Internal.Correction.Weighted>
   9.000000E+99

> <Gold.Protein.RotatedTorsions>
[ 6907 6896 6895 6894 ] final   42.74 input  -60.11 | X-H torsion
[ 7974 7965 7964 7962 ] final   99.00 input  175.53 | X-H torsion
[ 8008 7997 7996 7995 ] final  -86.10 input   59.86 | X-H torsion
[ 10167 10162 10161 10158 ] final  -53.90 input  -65.29 | X-H torsion
[ 10718 10713 10712 10709 ] final   98.62 input   66.30 | X-H torsion
[ 10763 10752 10751 10750 ] final  -38.34 input  -60.55 | X-H torsion
[ 11005 11000 10999 10996 ] final  116.95 input  -57.11 | X-H torsion

> <Gold.Protein.ActiveResidues>
 VAL166  LYS551  ARG553  GLY616  TRP617  ASP618  TYR619  PRO620  LYS621  CYS622 
 ASP623  PHE694  ASN695  SER759  ASP760  ASP761  ALA762  ILE779  LEU786  VAL792 
 PHE793  MET794  SER795  GLU796  ALA797  LYS798  CYS799  TRP800  GLU811  SER814 

> <Gold.Protein.RotatedAtoms>
  152.2116  134.8496  160.0496 H   0  0  0  0  0  0  0  0  0  0  0  0  # atno 6907 bound_to 6896
  151.9313  133.3607  159.3940 H   0  0  0  0  0  0  0  0  0  0  0  0  # atno 6908 bound_to 6896
  150.6977  134.4459  159.5358 H   0  0  0  0  0  0  0  0  0  0  0  0  # atno 6909 bound_to 6896
  145.4047  139.2342  143.3281 H   0  0  0  0  0  0  0  0  0  0  0  0  # atno 7974 bound_to 7965
  154.6481  140.0583  156.9924 H   0  0  0  0  0  0  0  0  0  0  0  0  # atno 8008 bound_to 7997
  155.1413  140.3265  155.4433 H   0  0  0  0  0  0  0  0  0  0  0  0  # atno 8009 bound_to 7997
  156.2563  140.1963  156.6528 H   0  0  0  0  0  0  0  0  0  0  0  0  # atno 8010 bound_to 7997
  140.6460  143.2535  151.4859 H   0  0  0  0  0  0  0  0  0  0  0  0  # atno 10167 bound_to 10162
  157.6892  131.0645  150.4824 H   0  0  0  0  0  0  0  0  0  0  0  0  # atno 10718 bound_to 10713
  153.9111  135.6792  153.4751 H   0  0  0  0  0  0  0  0  0  0  0  0  # atno 10763 bound_to 10752
  153.1078  135.4797  154.8979 H   0  0  0  0  0  0  0  0  0  0  0  0  # atno 10764 bound_to 10752
  154.7526  135.3189  154.8484 H   0  0  0  0  0  0  0  0  0  0  0  0  # atno 10765 bound_to 10752
  139.9058  134.9604  156.7276 H   0  0  0  0  0  0  0  0  0  0  0  0  # atno 11005 bound_to 11000
  146.2735  140.4749  142.8805 LP  0  0  0  0  0  0  0  0  0  0  0  0  # atno 17320 bound_to 7965
  144.8350  140.6767  143.6266 LP  0  0  0  0  0  0  0  0  0  0  0  0  # atno 17321 bound_to 7965
  139.5670  144.2018  152.1780 LP  0  0  0  0  0  0  0  0  0  0  0  0  # atno 17342 bound_to 10162
  140.1303  144.5295  150.6807 LP  0  0  0  0  0  0  0  0  0  0  0  0  # atno 17343 bound_to 10162
  156.5155  130.4149  149.6278 LP  0  0  0  0  0  0  0  0  0  0  0  0  # atno 17370 bound_to 10713
  156.3202  130.7276  151.2186 LP  0  0  0  0  0  0  0  0  0  0  0  0  # atno 17371 bound_to 10713
  140.6950  133.9356  155.7989 LP  0  0  0  0  0  0  0  0  0  0  0  0  # atno 17394 bound_to 11000
  141.0413  134.0617  157.3898 LP  0  0  0  0  0  0  0  0  0  0  0  0  # atno 17395 bound_to 11000

$$$$
