#       Name:                AV-unprocessed.smi:2145
#       Creating user name   scv26
#       Creation time:       Fri Mar 27 11:50:51 2020


#       File generated by GOLD software.
#

@<TRIPOS>MOLECULE
AV-unprocessed.smi:2145
    51    53     1
SMALL
NO_CHARGES


@<TRIPOS>ATOM
      1 ****        -7.7831   1.0040   0.0397 C.3            1 S1                 0.0000
      2 ****        -6.8312   2.1364   0.4209 C.2            1 S1                 0.0000
      3 ****        -7.3058   3.2302   0.7254 O.2            1 S1                 0.0000
      4 ****        -5.3681   1.8514   0.4016 C.ar           1 S1                 0.0000
      5 ****        -4.4565   2.8759   0.7406 C.ar           1 S1                 0.0000
      6 ****        -3.0700   2.6331   0.7299 C.ar           1 S1                 0.0000
      7 ****        -2.5603   1.3675   0.3801 C.ar           1 S1                 0.0000
      8 ****        -1.1902   1.2192   0.3939 O.3            1 S1                 0.0000
      9 ****        -0.6422  -0.0314  -0.0012 C.3            1 S1                 0.0000
     10 ****         0.8894   0.0608   0.0754 C.3            1 S1                 0.0000
     11 ****         1.3536   0.7362  -1.0767 O.3            1 S1                 0.0000
     12 ****         1.5494  -1.3308   0.1472 C.3            1 S1                 0.0000
     13 ****         3.0124  -1.2611   0.2952 N.pl3          1 S1                 0.0000
     14 ****         3.7694  -1.1197   1.4204 C.2            1 S1                 0.0000
     15 ****         3.2695  -1.0002   2.8208 C.3            1 S1                 0.0000
     16 ****         5.0753  -1.1082   1.0314 N.pl3          1 S1                 1.0000
     17 ****         5.1557  -1.2420  -0.3555 C.ar           1 S1                 0.0000
     18 ****         6.2585  -1.2814  -1.2033 C.ar           1 S1                 0.0000
     19 ****         5.9925  -1.4243  -2.5809 C.ar           1 S1                 0.0000
     20 ****         4.6727  -1.5211  -3.0674 C.ar           1 S1                 0.0000
     21 ****         3.5628  -1.4805  -2.1979 C.ar           1 S1                 0.0000
     22 ****         3.8336  -1.3404  -0.8366 C.ar           1 S1                 0.0000
     23 ****        -3.4720   0.3377   0.0415 C.ar           1 S1                 0.0000
     24 ****        -4.8600   0.5783   0.0528 C.ar           1 S1                 0.0000
     25 ****        -7.6687   0.1620   0.7226 H              1 S1                 0.0000
     26 ****        -7.5838   0.6632  -0.9765 H              1 S1                 0.0000
     27 ****        -8.8181   1.3434   0.0879 H              1 S1                 0.0000
     28 ****        -4.8099   3.8602   1.0128 H              1 S1                 0.0000
     29 ****        -2.3892   3.4298   0.9921 H              1 S1                 0.0000
     30 ****        -0.9933  -0.7960   0.6939 H              1 S1                 0.0000
     31 ****        -0.9646  -0.3169  -1.0044 H              1 S1                 0.0000
     32 ****         1.1743   0.6338   0.9588 H              1 S1                 0.0000
     33 ****         0.9507   1.5911  -1.1033 H              1 S1                 0.0000
     34 ****         1.1682  -1.8775   1.0104 H              1 S1                 0.0000
     35 ****         1.3002  -1.9352  -0.7253 H              1 S1                 0.0000
     36 ****         4.0981  -0.8487   3.5130 H              1 S1                 0.0000
     37 ****         2.7385  -1.9077   3.1083 H              1 S1                 0.0000
     38 ****         2.5873  -0.1544   2.9069 H              1 S1                 0.0000
     39 ****         7.2702  -1.2049  -0.8329 H              1 S1                 0.0000
     40 ****         6.8169  -1.4584  -3.2785 H              1 S1                 0.0000
     41 ****         4.5074  -1.6267  -4.1298 H              1 S1                 0.0000
     42 ****         2.5564  -1.5483  -2.5833 H              1 S1                 0.0000
     43 ****        -3.1322  -0.6501  -0.2302 H              1 S1                 0.0000
     44 ****        -5.5194  -0.2348  -0.2113 H              1 S1                 0.0000
     45 ****         5.8539  -1.0141   1.6707 H              1 S1                 0.0000
     46 ****        -8.2967   3.3642   0.7201 LP             1 S1                 0.0000
     47 ****        -6.7005   3.9850   0.9782 LP             1 S1                 0.0000
     48 ****        -0.8831   1.3944   1.3294 LP             1 S1                 0.0000
     49 ****        -0.8113   1.9144  -0.2169 LP             1 S1                 0.0000
     50 ****         1.1035   0.2192  -1.8953 LP             1 S1                 0.0000
     51 ****         2.3481   0.8325  -1.0342 LP             1 S1                 0.0000
@<TRIPOS>BOND
    1    1    2 1     
    2    1   25 1     
    3    1   26 1     
    4    1   27 1     
    5    2    3 2     
    6    2    4 1     
    7    4   24 ar    
    8    4    5 ar    
    9    5    6 ar    
   10    5   28 1     
   11    6    7 ar    
   12    6   29 1     
   13    7    8 1     
   14    7   23 ar    
   15    8    9 1     
   16    9   10 1     
   17    9   30 1     
   18    9   31 1     
   19   10   11 1     
   20   10   12 1     
   21   10   32 1     
   22   11   33 1     
   23   12   13 1     
   24   12   34 1     
   25   12   35 1     
   26   13   22 1     
   27   13   14 1     
   28   14   15 1     
   29   14   16 2     
   30   15   36 1     
   31   15   37 1     
   32   15   38 1     
   33   16   17 1     
   34   16   45 1     
   35   17   22 ar    
   36   17   18 ar    
   37   18   19 ar    
   38   18   39 1     
   39   19   20 ar    
   40   19   40 1     
   41   20   21 ar    
   42   20   41 1     
   43   21   22 ar    
   44   21   42 1     
   45   23   24 ar    
   46   23   43 1     
   47   24   44 1     
   48    3   46 1     
   49    3   47 1     
   50    8   48 1     
   51    8   49 1     
   52   11   50 1     
   53   11   51 1     
@<TRIPOS>SUBSTRUCTURE
      1 S1             1
@<TRIPOS>SET
LONE_PAIRS      STATIC     ATOMS    <user>   **** ""
6 46 47 48 49 50 51
DONOR_HYDROGENS      STATIC     ATOMS    <user>   **** ""
2 33 45
ATOM$BLUE        STATIC     ATOMS    COLORGROUP SYSTEM
6 46 47 48 49 50 51
ATOM$RED        STATIC     ATOMS    COLORGROUP SYSTEM
2 33 45
