#       Name:                AV-unprocessed.smi:3011
#       Creating user name   scv26
#       Creation time:       Fri Mar 27 16:39:32 2020


#       File generated by GOLD software.
#

@<TRIPOS>MOLECULE
AV-unprocessed.smi:3011
    53    55     1
SMALL
NO_CHARGES


@<TRIPOS>ATOM
      1 ****        -0.8639  -2.1969   4.9880 C.3            1 S1                 0.0000
      2 ****        -0.7898  -0.7819   4.8985 O.3            1 S1                 0.0000
      3 ****        -1.8379  -0.0389   5.4031 C.ar           1 S1                 0.0000
      4 ****        -2.9857  -0.6087   6.0105 C.ar           1 S1                 0.0000
      5 ****        -4.0143   0.2139   6.5041 C.ar           1 S1                 0.0000
      6 ****        -3.9096   1.6112   6.3978 C.ar           1 S1                 0.0000
      7 ****        -2.7758   2.1874   5.7972 C.ar           1 S1                 0.0000
      8 ****        -1.7341   1.3670   5.2965 C.ar           1 S1                 0.0000
      9 ****        -0.5966   1.8579   4.6938 O.3            1 S1                 0.0000
     10 ****        -0.4176   3.2640   4.6014 C.3            1 S1                 0.0000
     11 ****         0.9288   3.5388   3.9166 C.3            1 S1                 0.0000
     12 ****         2.0436   2.8631   4.5972 N.pl3          1 S1                 0.0000
     13 ****         2.6150   1.6445   4.3645 C.2            1 S1                 0.0000
     14 ****         2.2424   0.6709   3.2805 C.3            1 S1                 0.0000
     15 ****         2.6072  -0.7807   3.6438 C.3            1 S1                 0.0000
     16 ****         2.7843   1.0504   1.9777 N.am           1 S1                 0.0000
     17 ****         4.0842   1.1996   1.6876 C.2            1 S1                 0.0000
     18 ****         4.9803   1.0284   2.5096 O.2            1 S1                 0.0000
     19 ****         3.6214   1.4970   5.2743 N.pl3          1 S1                 1.0000
     20 ****         3.6783   2.6146   6.1065 C.ar           1 S1                 0.0000
     21 ****         4.5205   2.9149   7.1726 C.ar           1 S1                 0.0000
     22 ****         4.3081   4.1513   7.8173 C.ar           1 S1                 0.0000
     23 ****         3.2907   5.0329   7.3979 C.ar           1 S1                 0.0000
     24 ****         2.4443   4.7176   6.3145 C.ar           1 S1                 0.0000
     25 ****         2.6633   3.4948   5.6807 C.ar           1 S1                 0.0000
     26 ****         0.0314  -2.6323   4.5449 H              1 S1                 0.0000
     27 ****        -1.7239  -2.5865   4.4420 H              1 S1                 0.0000
     28 ****        -0.9125  -2.5288   6.0259 H              1 S1                 0.0000
     29 ****        -3.1019  -1.6771   6.1105 H              1 S1                 0.0000
     30 ****        -4.8851  -0.2285   6.9652 H              1 S1                 0.0000
     31 ****        -4.7001   2.2420   6.7769 H              1 S1                 0.0000
     32 ****        -2.7296   3.2635   5.7309 H              1 S1                 0.0000
     33 ****        -1.2224   3.7151   4.0194 H              1 S1                 0.0000
     34 ****        -0.4255   3.7109   5.5967 H              1 S1                 0.0000
     35 ****         0.9035   3.1815   2.8869 H              1 S1                 0.0000
     36 ****         1.1348   4.6081   3.8641 H              1 S1                 0.0000
     37 ****         1.1587   0.7056   3.1708 H              1 S1                 0.0000
     38 ****         2.1261  -1.0813   4.5751 H              1 S1                 0.0000
     39 ****         3.6823  -0.9149   3.7682 H              1 S1                 0.0000
     40 ****         2.2754  -1.4715   2.8683 H              1 S1                 0.0000
     41 ****         2.1156   1.2202   1.2399 H              1 S1                 0.0000
     42 ****         4.2415   1.4903   0.6370 H              1 S1                 0.0000
     43 ****         5.2995   2.2403   7.4962 H              1 S1                 0.0000
     44 ****         4.9375   4.4282   8.6507 H              1 S1                 0.0000
     45 ****         3.1569   5.9709   7.9170 H              1 S1                 0.0000
     46 ****         1.6677   5.3996   6.0018 H              1 S1                 0.0000
     47 ****         4.2225   0.6842   5.3209 H              1 S1                 0.0000
     48 ****        -0.7024  -0.5506   3.9295 LP             1 S1                 0.0000
     49 ****         0.0362  -0.4972   5.3850 LP             1 S1                 0.0000
     50 ****        -0.5812   1.4987   3.7607 LP             1 S1                 0.0000
     51 ****         0.1842   1.4961   5.2032 LP             1 S1                 0.0000
     52 ****         4.7548   0.7645   3.4475 LP             1 S1                 0.0000
     53 ****         5.9355   1.1528   2.2412 LP             1 S1                 0.0000
@<TRIPOS>BOND
    1    1    2 1     
    2    1   26 1     
    3    1   27 1     
    4    1   28 1     
    5    2    3 1     
    6    3    8 ar    
    7    3    4 ar    
    8    4    5 ar    
    9    4   29 1     
   10    5    6 ar    
   11    5   30 1     
   12    6    7 ar    
   13    6   31 1     
   14    7    8 ar    
   15    7   32 1     
   16    8    9 1     
   17    9   10 1     
   18   10   11 1     
   19   10   33 1     
   20   10   34 1     
   21   11   12 1     
   22   11   35 1     
   23   11   36 1     
   24   12   25 1     
   25   12   13 1     
   26   13   14 1     
   27   13   19 2     
   28   14   15 1     
   29   14   16 1     
   30   14   37 1     
   31   15   38 1     
   32   15   39 1     
   33   15   40 1     
   34   16   17 am    
   35   16   41 1     
   36   17   18 2     
   37   17   42 1     
   38   19   20 1     
   39   19   47 1     
   40   20   25 ar    
   41   20   21 ar    
   42   21   22 ar    
   43   21   43 1     
   44   22   23 ar    
   45   22   44 1     
   46   23   24 ar    
   47   23   45 1     
   48   24   25 ar    
   49   24   46 1     
   50    2   48 1     
   51    2   49 1     
   52    9   50 1     
   53    9   51 1     
   54   18   52 1     
   55   18   53 1     
@<TRIPOS>SUBSTRUCTURE
      1 S1             1
@<TRIPOS>SET
LONE_PAIRS      STATIC     ATOMS    <user>   **** ""
6 48 49 50 51 52 53
DONOR_HYDROGENS      STATIC     ATOMS    <user>   **** ""
2 41 47
ATOM$BLUE        STATIC     ATOMS    COLORGROUP SYSTEM
6 48 49 50 51 52 53
ATOM$RED        STATIC     ATOMS    COLORGROUP SYSTEM
2 41 47
