AV-unprocessed.smi:2325|AV-procd|sdf|9296|dock8
  -GOLD-   2272012513D 1   1.00000     0.00000
 Structure written by MMmdl.
 40 41  0  0  0  0  0  0  0  0  1 V2000
  151.3685  137.9736  154.3212 C   0  0  0  0  0  0  0  0  0  0  0  0
  150.4177  139.0305  154.6074 N   0  0  0  0  0  0  0  0  0  0  0  0
  150.8119  140.1804  155.2031 N   0  0  0  0  0  0  0  0  0  0  0  0
  149.6745  140.8706  155.2906 C   0  0  0  0  0  0  0  0  0  0  0  0
  148.5608  140.2551  154.7941 N   0  0  0  0  0  0  0  0  0  0  0  0
  149.1026  139.1117  154.3858 C   0  0  0  0  0  0  0  0  0  0  0  0
  148.4153  138.0324  153.7689 N   0  0  0  0  0  0  0  0  0  0  0  0
  147.1929  137.5593  154.0635 C   0  0  0  0  0  0  0  0  0  0  0  0
  146.4449  138.0142  154.9290 O   0  0  0  0  0  0  0  0  0  0  0  0
  146.8809  136.5105  153.2898 N   0  0  0  0  0  0  0  0  0  0  0  0
  145.6394  135.7436  153.3715 C   0  0  1  0  0  0  0  0  0  0  0  0
  144.7858  135.9361  152.1338 C   0  0  0  0  0  0  0  0  0  0  0  0
  143.9107  134.6775  152.1150 C   0  0  0  0  0  0  0  0  0  0  0  0
  142.6027  134.8732  152.9009 C   0  0  0  0  0  0  0  0  0  0  0  0
  143.6261  134.1879  150.6869 C   0  0  0  0  0  0  0  0  0  0  0  0
  144.6696  133.6779  152.7933 O   0  0  0  0  0  0  0  0  0  0  0  0
  145.8469  134.2128  153.3971 C   0  0  0  0  0  0  0  0  0  0  0  0
  147.0365  133.7181  152.5479 C   0  0  0  0  0  0  0  0  0  0  0  0
  145.9324  133.6577  154.8277 C   0  0  0  0  0  0  0  0  0  0  0  0
  151.3368  137.7286  153.2592 H   0  0  0  0  0  0  0  0  0  0  0  0
  151.1131  137.0857  154.8996 H   0  0  0  0  0  0  0  0  0  0  0  0
  152.3809  138.2868  154.5804 H   0  0  0  0  0  0  0  0  0  0  0  0
  149.6462  141.8568  155.7299 H   0  0  0  0  0  0  0  0  0  0  0  0
  148.9152  137.5642  153.0278 H   0  0  0  0  0  0  0  0  0  0  0  0
  147.5564  136.2061  152.6043 H   0  0  0  0  0  0  0  0  0  0  0  0
  145.0548  136.0593  154.2380 H   0  0  0  0  0  0  0  0  0  0  0  0
  144.2079  136.8607  152.1565 H   0  0  0  0  0  0  0  0  0  0  0  0
  145.4195  135.9686  151.2459 H   0  0  0  0  0  0  0  0  0  0  0  0
  141.9784  135.6412  152.4432 H   0  0  0  0  0  0  0  0  0  0  0  0
  142.7955  135.1735  153.9312 H   0  0  0  0  0  0  0  0  0  0  0  0
  142.0223  133.9508  152.9336 H   0  0  0  0  0  0  0  0  0  0  0  0
  143.0692  134.9333  150.1183 H   0  0  0  0  0  0  0  0  0  0  0  0
  143.0397  133.2687  150.6952 H   0  0  0  0  0  0  0  0  0  0  0  0
  144.5515  133.9804  150.1487 H   0  0  0  0  0  0  0  0  0  0  0  0
  147.9905  134.0422  152.9645 H   0  0  0  0  0  0  0  0  0  0  0  0
  146.9784  134.0831  151.5224 H   0  0  0  0  0  0  0  0  0  0  0  0
  147.0561  132.6288  152.5040 H   0  0  0  0  0  0  0  0  0  0  0  0
  146.8186  134.0267  155.3439 H   0  0  0  0  0  0  0  0  0  0  0  0
  145.9819  132.5685  154.8249 H   0  0  0  0  0  0  0  0  0  0  0  0
  145.0606  133.9445  155.4163 H   0  0  0  0  0  0  0  0  0  0  0  0
  1  2  1  0  0  0  0
  1 20  1  0  0  0  0
  1 21  1  0  0  0  0
  1 22  1  0  0  0  0
  2  6  1  0  0  0  0
  2  3  1  0  0  0  0
  3  4  2  0  0  0  0
  4  5  1  0  0  0  0
  4 23  1  0  0  0  0
  5  6  2  0  0  0  0
  6  7  1  0  0  0  0
  7  8  1  0  0  0  0
  7 24  1  0  0  0  0
  8  9  2  0  0  0  0
  8 10  1  0  0  0  0
 10 11  1  0  0  0  0
 10 25  1  0  0  0  0
 11 17  1  0  0  0  0
 11 12  1  0  0  0  0
 11 26  1  0  0  0  0
 12 13  1  0  0  0  0
 12 27  1  0  0  0  0
 12 28  1  0  0  0  0
 13 14  1  0  0  0  0
 13 15  1  0  0  0  0
 13 16  1  0  0  0  0
 14 29  1  0  0  0  0
 14 30  1  0  0  0  0
 14 31  1  0  0  0  0
 15 32  1  0  0  0  0
 15 33  1  0  0  0  0
 15 34  1  0  0  0  0
 16 17  1  0  0  0  0
 17 18  1  0  0  0  0
 17 19  1  0  0  0  0
 18 35  1  0  0  0  0
 18 36  1  0  0  0  0
 18 37  1  0  0  0  0
 19 38  1  0  0  0  0
 19 39  1  0  0  0  0
 19 40  1  0  0  0  0
M  END
> <s_m_source_file>
AV-unprocessed.smi

> <i_m_source_file_index>
2325

> <i_lp_mmshare_version>
43012

> <i_f3d_flags>
0

> <s_epik_input>
W0NIM11uMW5bY0hdbmMxW05IXUMoPU8pW05IXVtDQEBIXShDKE8yKShbQ0gzXSlbQ0gzXSlbQ0gyXUMyKFtDSDNdKVtDSDNd

> <s_epik_cmdline>
J2VwaWtfcHl0aG9uJywgJy1waCcsICc3LjAnLCAnLXRuJywgJzgnLCAnLW1hJywgJzIwMCcsICctbWV0YWxfYmluZGluZycsICctaW1hZScsICc8aW5maWxlLm1hZT4nLCAnLW9tYWUnLCAnPG91dGZpbGUubWFlPic=

> <r_lp_tautomer_probability>
1

> <r_epik_Ionization_Penalty>
1.97832e-05

> <r_epik_Ionization_Penalty_Charging>
0

> <r_epik_Ionization_Penalty_Neutral>
1.97832e-05

> <r_epik_State_Penalty>
-0

> <r_epik_Charging_Adjusted_Penalty>
0

> <i_epik_Tot_Q>
0

> <i_epik_Tot_abs_Q>
0

> <r_epik_Metal_State_Penalty>
-0

> <b_epik_Metal_Only>
0

> <s_lp_Force_Field>
OPLS_2005

> <r_lp_Energy>
17.1515

> <b_lp_Chiralities_Consistent>
1

> <s_lp_Variant>
AV-unprocessed.smi:2325-2

> <Gold.Version>
5.8.1

> <Gold.Id.Protein>
6NUR|6NUR_protein|mol2

> <Gold.PLP.Fitness>
35.4166

> <Gold.PLP.PLP>
-25.2177

> <Gold.PLP.part.hbond>
-3.0000

> <Gold.PLP.part.metal>
0.0000

> <Gold.PLP.part.buried>
-1.8016

> <Gold.PLP.part.nonpolar>
-20.3400

> <Gold.PLP.part.repulsive>
0.4168

> <Gold.PLP.ligand.clash>
0.0000

> <Gold.PLP.ligand.torsion>
0.3872

> <Gold.PLP.Chemscore.Hbond>
2.7200

> <Gold.PLP.Chemscore.CHOScore>
0.9340

> <Gold.PLP.Chemscore.Metal>
0.0000

> <Gold.Chemscore.Hbonds>
donor molecule, donor type, donor heavy atom, donor atom, acceptor molecule, acceptor atom, score
      L1  H     7    24       P1  7948  0.98
      L1  H    10    25       P1  7948  1.00
      P1  H  7989  7998       L1     3  0.60

> <Gold.PLP.Chemscore.Internal.Correction>
0.0112

> <Gold.Rescore>
     Score         DG    S(hbond)    S(metal)    S(lipo)     H(rot)  DE(clash)    DE(int)     intcor
     13.81     -14.28       2.04        0.00      38.98       1.00       0.13       0.34       ----

> <Gold.Chemscore.Fitness>
13.8057

> <Gold.Chemscore.DG>
-14.2793

> <Gold.Chemscore.ZeroCoef>
-5.4800

> <Gold.Chemscore.Hbond>
2.0355

> <Gold.Chemscore.Metal>
0.0000

> <Gold.Chemscore.Lipo>
38.9798

> <Gold.Chemscore.Internal_Hbond>
0.0000

> <Gold.Chemscore.DEClash>
0.1325

> <Gold.Chemscore.DEInternal>
0.3411

> <Gold.Chemscore.Rot>
1.0000

> <Gold.Chemscore.Internal.Correction>
   9.000000E+99

> <Gold.Chemscore.Hbonds>
donor molecule, donor type, donor heavy atom, donor atom, acceptor molecule, acceptor atom, score
      L1  H     7    24       P1  7948  0.93
      L1  H    10    25       P1  7948  0.96
      P1  H  7989  7998       L1     3  0.02

> <Gold.Chemscore.Hbond.Weighted>
-6.7986

> <Gold.Chemscore.Metal.Weighted>
-0.0000

> <Gold.Chemscore.Lipo.Weighted>
-4.5606

> <Gold.Chemscore.Internal_Hbond.Weighted>
0.0000

> <Gold.Chemscore.DEClash.Weighted>
0.1325

> <Gold.Chemscore.DEInternal.Weighted>
0.3411

> <Gold.Chemscore.Rot.Weighted>
2.5600

> <Gold.Chemscore.Internal.Correction.Weighted>
   9.000000E+99

> <Gold.Protein.RotatedTorsions>
[ 6907 6896 6895 6894 ] final  -50.96 input  -60.11 | X-H torsion
[ 7974 7965 7964 7962 ] final    4.65 input  175.53 | X-H torsion
[ 8008 7997 7996 7995 ] final   48.26 input   59.86 | X-H torsion
[ 10167 10162 10161 10158 ] final  168.08 input  -65.29 | X-H torsion
[ 10718 10713 10712 10709 ] final   22.50 input   66.30 | X-H torsion
[ 10763 10752 10751 10750 ] final   11.82 input  -60.55 | X-H torsion
[ 11005 11000 10999 10996 ] final  -50.11 input  -57.11 | X-H torsion

> <Gold.Protein.ActiveResidues>
 VAL166  LYS551  ARG553  GLY616  TRP617  ASP618  TYR619  PRO620  LYS621  CYS622 
 ASP623  PHE694  ASN695  SER759  ASP760  ASP761  ALA762  ILE779  LEU786  VAL792 
 PHE793  MET794  SER795  GLU796  ALA797  LYS798  CYS799  TRP800  GLU811  SER814 

> <Gold.Protein.RotatedAtoms>
  150.8657  134.8020  159.7116 H   0  0  0  0  0  0  0  0  0  0  0  0  # atno 6907 bound_to 6896
  152.4679  134.5027  159.9739 H   0  0  0  0  0  0  0  0  0  0  0  0  # atno 6908 bound_to 6896
  151.5124  133.3444  159.2923 H   0  0  0  0  0  0  0  0  0  0  0  0  # atno 6909 bound_to 6896
  146.2443  140.0502  142.8375 H   0  0  0  0  0  0  0  0  0  0  0  0  # atno 7974 bound_to 7965
  155.3827  140.3429  155.4247 H   0  0  0  0  0  0  0  0  0  0  0  0  # atno 8008 bound_to 7997
  156.1602  140.1598  156.8659 H   0  0  0  0  0  0  0  0  0  0  0  0  # atno 8009 bound_to 7997
  154.5132  140.0785  156.8012 H   0  0  0  0  0  0  0  0  0  0  0  0  # atno 8010 bound_to 7997
  139.4959  144.3853  151.9577 H   0  0  0  0  0  0  0  0  0  0  0  0  # atno 10167 bound_to 10162
  157.1531  130.6683  149.6018 H   0  0  0  0  0  0  0  0  0  0  0  0  # atno 10718 bound_to 10713
  153.1886  135.6839  153.8383 H   0  0  0  0  0  0  0  0  0  0  0  0  # atno 10763 bound_to 10752
  153.7690  135.3199  155.3350 H   0  0  0  0  0  0  0  0  0  0  0  0  # atno 10764 bound_to 10752
  154.8103  135.4721  154.0597 H   0  0  0  0  0  0  0  0  0  0  0  0  # atno 10765 bound_to 10752
  141.0797  133.6656  156.3684 H   0  0  0  0  0  0  0  0  0  0  0  0  # atno 11005 bound_to 11000
  145.0991  140.9334  143.4723 LP  0  0  0  0  0  0  0  0  0  0  0  0  # atno 17320 bound_to 7965
  145.0691  139.3045  143.5841 LP  0  0  0  0  0  0  0  0  0  0  0  0  # atno 17321 bound_to 7965
  140.3290  144.3339  150.5991 LP  0  0  0  0  0  0  0  0  0  0  0  0  # atno 17342 bound_to 10162
  140.5660  143.2186  151.7682 LP  0  0  0  0  0  0  0  0  0  0  0  0  # atno 17343 bound_to 10162
  155.9767  130.4737  150.6544 LP  0  0  0  0  0  0  0  0  0  0  0  0  # atno 17370 bound_to 10713
  157.4202  131.0835  151.1138 LP  0  0  0  0  0  0  0  0  0  0  0  0  # atno 17371 bound_to 10713
  140.5494  134.6042  157.5403 LP  0  0  0  0  0  0  0  0  0  0  0  0  # atno 17394 bound_to 11000
  139.9611  134.7451  156.0236 LP  0  0  0  0  0  0  0  0  0  0  0  0  # atno 17395 bound_to 11000

$$$$
