AV-unprocessed.smi:1088|AV-procd|sdf|4731|dock4
  -GOLD-   22720 3263D 1   1.00000     0.00000
 Structure written by MMmdl.
 48 49  0  0  0  0  0  0  0  0  2 V2000
  147.9837  127.5998  150.8366 C   0  0  0  0  0  0  0  0  0  0  0  0
  147.2650  127.9885  151.9942 O   0  0  0  0  0  0  0  0  0  0  0  0
  146.4764  129.1473  151.7809 C   0  0  0  0  0  0  0  0  0  0  0  0
  146.8910  130.2242  152.7939 C   0  0  0  0  0  0  0  0  0  0  0  0
  146.9836  131.5700  152.1773 N   0  3  1  0  0  0  0  0  0  0  0  0
  145.7543  132.0328  151.4992 C   0  0  0  0  0  0  0  0  0  0  0  0
  145.8657  133.5515  151.4746 C   0  0  0  0  0  0  0  0  0  0  0  0
  146.5282  133.8643  152.8109 C   0  0  0  0  0  0  0  0  0  0  0  0
  147.4173  132.6402  153.1104 C   0  0  2  0  0  0  0  0  0  0  0  0
  148.9271  132.9136  152.9413 C   0  0  0  0  0  0  0  0  0  0  0  0
  149.5392  133.4139  154.1670 N   0  0  0  0  0  0  0  0  0  0  0  0
  149.1929  134.5512  154.7879 C   0  0  0  0  0  0  0  0  0  0  0  0
  148.2759  135.2776  154.4026 O   0  0  0  0  0  0  0  0  0  0  0  0
  150.0016  134.9156  156.0391 C   0  0  0  0  0  0  0  0  0  0  0  0
  150.6958  136.2020  155.9019 N   0  0  0  0  0  0  0  0  0  0  0  0
  150.5369  136.9500  154.7495 C   0  0  0  0  0  0  0  0  0  0  0  0
  151.1429  138.1399  154.5446 C   0  0  0  0  0  0  0  0  0  0  0  0
  152.0246  138.7152  155.5534 C   0  0  0  0  0  0  0  0  0  0  0  0
  152.5799  139.8057  155.4155 O   0  0  0  0  0  0  0  0  0  0  0  0
  152.1823  137.9221  156.7154 N   0  0  0  0  0  0  0  0  0  0  0  0
  153.0283  138.4154  157.7826 C   0  0  0  0  0  0  0  0  0  0  0  0
  151.5329  136.6864  156.9306 C   0  0  0  0  0  0  0  0  0  0  0  0
  151.6806  136.0449  157.9743 O   0  0  0  0  0  0  0  0  0  0  0  0
  148.5691  126.7060  151.0524 H   0  0  0  0  0  0  0  0  0  0  0  0
  148.6719  128.3840  150.5185 H   0  0  0  0  0  0  0  0  0  0  0  0
  147.3092  127.3690  150.0112 H   0  0  0  0  0  0  0  0  0  0  0  0
  146.5853  129.5074  150.7570 H   0  0  0  0  0  0  0  0  0  0  0  0
  145.4232  128.9012  151.9248 H   0  0  0  0  0  0  0  0  0  0  0  0
  146.1858  130.2513  153.6258 H   0  0  0  0  0  0  0  0  0  0  0  0
  147.8605  129.9552  153.2166 H   0  0  0  0  0  0  0  0  0  0  0  0
  145.6601  131.6090  150.4989 H   0  0  0  0  0  0  0  0  0  0  0  0
  144.8761  131.7398  152.0771 H   0  0  0  0  0  0  0  0  0  0  0  0
  146.5155  133.8634  150.6559 H   0  0  0  0  0  0  0  0  0  0  0  0
  144.9024  134.0470  151.3504 H   0  0  0  0  0  0  0  0  0  0  0  0
  147.0715  134.8095  152.7880 H   0  0  0  0  0  0  0  0  0  0  0  0
  145.7621  133.9522  153.5826 H   0  0  0  0  0  0  0  0  0  0  0  0
  147.2199  132.3245  154.1368 H   0  0  0  0  0  0  0  0  0  0  0  0
  149.4453  132.0080  152.6209 H   0  0  0  0  0  0  0  0  0  0  0  0
  149.0869  133.6533  152.1560 H   0  0  0  0  0  0  0  0  0  0  0  0
  150.2970  132.8714  154.5565 H   0  0  0  0  0  0  0  0  0  0  0  0
  149.3180  134.9452  156.8886 H   0  0  0  0  0  0  0  0  0  0  0  0
  150.7226  134.1279  156.2665 H   0  0  0  0  0  0  0  0  0  0  0  0
  149.8957  136.5657  153.9696 H   0  0  0  0  0  0  0  0  0  0  0  0
  150.9725  138.6745  153.6215 H   0  0  0  0  0  0  0  0  0  0  0  0
  153.6143  137.5820  158.1737 H   0  0  0  0  0  0  0  0  0  0  0  0
  152.3668  138.8311  158.5440 H   0  0  0  0  0  0  0  0  0  0  0  0
  153.7189  139.1703  157.4071 H   0  0  0  0  0  0  0  0  0  0  0  0
  147.6988  131.5227  151.4655 H   0  0  0  0  0  0  0  0  0  0  0  0
  1  2  1  0  0  0  0
  1 24  1  0  0  0  0
  1 25  1  0  0  0  0
  1 26  1  0  0  0  0
  2  3  1  0  0  0  0
  3  4  1  0  0  0  0
  3 27  1  0  0  0  0
  3 28  1  0  0  0  0
  4  5  1  0  0  0  0
  4 29  1  0  0  0  0
  4 30  1  0  0  0  0
  5  9  1  0  0  0  0
  5  6  1  0  0  0  0
  5 48  1  0  0  0  0
  6  7  1  0  0  0  0
  6 31  1  0  0  0  0
  6 32  1  0  0  0  0
  7  8  1  0  0  0  0
  7 33  1  0  0  0  0
  7 34  1  0  0  0  0
  8  9  1  0  0  0  0
  8 35  1  0  0  0  0
  8 36  1  0  0  0  0
  9 10  1  0  0  0  0
  9 37  1  0  0  0  0
 10 11  1  0  0  0  0
 10 38  1  0  0  0  0
 10 39  1  0  0  0  0
 11 12  1  0  0  0  0
 11 40  1  0  0  0  0
 12 13  2  0  0  0  0
 12 14  1  0  0  0  0
 14 15  1  0  0  0  0
 14 41  1  0  0  0  0
 14 42  1  0  0  0  0
 15 22  1  0  0  0  0
 15 16  1  0  0  0  0
 16 17  2  0  0  0  0
 16 43  1  0  0  0  0
 17 18  1  0  0  0  0
 17 44  1  0  0  0  0
 18 19  2  0  0  0  0
 18 20  1  0  0  0  0
 20 21  1  0  0  0  0
 20 22  1  0  0  0  0
 21 45  1  0  0  0  0
 21 46  1  0  0  0  0
 21 47  1  0  0  0  0
 22 23  2  0  0  0  0
M  CHG  1   5   1
M  END
> <s_m_source_file>
AV-unprocessed.smi

> <i_m_source_file_index>
1088

> <i_lp_mmshare_version>
43012

> <i_f3d_flags>
0

> <s_epik_input>
W0NIM11PW0NIMl1bQ0gyXU4xW0NIMl1bQ0gyXVtDSDJdW0NASF0xW0NIMl1bTkhdQyg9TylbQ0gyXW4yW2NIXVtjSF1jKD1PKW4oW0NIM10pYzI9Tw==

> <s_epik_cmdline>
J2VwaWtfcHl0aG9uJywgJy1waCcsICc3LjAnLCAnLXRuJywgJzgnLCAnLW1hJywgJzIwMCcsICctbWV0YWxfYmluZGluZycsICctaW1hZScsICc8aW5maWxlLm1hZT4nLCAnLW9tYWUnLCAnPG91dGZpbGUubWFlPic=

> <r_lp_tautomer_probability>
1

> <r_epik_Ionization_Penalty>
0.0127388

> <r_epik_Ionization_Penalty_Charging>
0.0127387

> <r_epik_Ionization_Penalty_Neutral>
8.26414e-08

> <r_epik_State_Penalty>
0.00987716

> <r_epik_Charging_Adjusted_Penalty>
0.0226159

> <i_epik_Tot_Q>
1

> <i_epik_Tot_abs_Q>
1

> <r_epik_Metal_State_Penalty>
0.00987836

> <b_epik_Metal_Only>
0

> <s_lp_Force_Field>
OPLS_2005

> <r_lp_Energy>
36.9775

> <b_lp_Chiralities_Consistent>
1

> <s_lp_Variant>
AV-unprocessed.smi:1088-4

> <Gold.Version>
5.8.1

> <Gold.Id.Protein>
6NUR|6NUR_protein|mol2

> <Gold.PLP.Fitness>
47.1314

> <Gold.PLP.PLP>
-38.5961

> <Gold.PLP.part.hbond>
-4.0000

> <Gold.PLP.part.metal>
0.0000

> <Gold.PLP.part.buried>
-6.5509

> <Gold.PLP.part.nonpolar>
-30.4585

> <Gold.PLP.part.repulsive>
2.7815

> <Gold.PLP.ligand.clash>
0.0025

> <Gold.PLP.ligand.torsion>
1.0269

> <Gold.PLP.Chemscore.Hbond>
2.5120

> <Gold.PLP.Chemscore.CHOScore>
1.0000

> <Gold.PLP.Chemscore.Metal>
0.0000

> <Gold.Chemscore.Hbonds>
donor molecule, donor type, donor heavy atom, donor atom, acceptor molecule, acceptor atom, score
      L1  H     5    48       P1 10747  1.00
      P1  H  6896  6908       L1    23  0.21
      P1  H  7989  7998       L1    19  0.10
      P1  H  7997  8010       L1    19  1.00
      L1  C    16    43       P1  7948  1.00

> <Gold.PLP.Chemscore.Internal.Correction>
0.0555

> <Gold.Rescore>
     Score         DG    S(hbond)    S(metal)    S(lipo)     H(rot)  DE(clash)    DE(int)     intcor
     12.04     -17.30       2.60        0.00      83.10       2.57       1.50       3.76       ----

> <Gold.Chemscore.Fitness>
12.0400

> <Gold.Chemscore.DG>
-17.3027

> <Gold.Chemscore.ZeroCoef>
-5.4800

> <Gold.Chemscore.Hbond>
2.5981

> <Gold.Chemscore.Metal>
0.0000

> <Gold.Chemscore.Lipo>
83.0970

> <Gold.Chemscore.Internal_Hbond>
0.0000

> <Gold.Chemscore.DEClash>
1.4988

> <Gold.Chemscore.DEInternal>
3.7638

> <Gold.Chemscore.Rot>
2.5692

> <Gold.Chemscore.Internal.Correction>
   9.000000E+99

> <Gold.Chemscore.Hbonds>
donor molecule, donor type, donor heavy atom, donor atom, acceptor molecule, acceptor atom, score
      L1  H     5    48       P1 10747  1.00
      P1  H  6896  6908       L1    23  0.20
      P1  H  7989  7998       L1    19  0.08
      P1  H  7997  8010       L1    19  0.98

> <Gold.Chemscore.Hbond.Weighted>
-8.6775

> <Gold.Chemscore.Metal.Weighted>
-0.0000

> <Gold.Chemscore.Lipo.Weighted>
-9.7224

> <Gold.Chemscore.Internal_Hbond.Weighted>
0.0000

> <Gold.Chemscore.DEClash.Weighted>
1.4988

> <Gold.Chemscore.DEInternal.Weighted>
3.7638

> <Gold.Chemscore.Rot.Weighted>
6.5772

> <Gold.Chemscore.Internal.Correction.Weighted>
   9.000000E+99

> <Gold.Protein.RotatedTorsions>
[ 6907 6896 6895 6894 ] final -147.54 input  -60.11 | X-H torsion
[ 7974 7965 7964 7962 ] final  -96.63 input  175.53 | X-H torsion
[ 8008 7997 7996 7995 ] final   91.58 input   59.86 | X-H torsion
[ 10167 10162 10161 10158 ] final    2.37 input  -65.29 | X-H torsion
[ 10718 10713 10712 10709 ] final  150.19 input   66.30 | X-H torsion
[ 10763 10752 10751 10750 ] final   83.59 input  -60.55 | X-H torsion
[ 11005 11000 10999 10996 ] final -169.64 input  -57.11 | X-H torsion

> <Gold.Protein.ActiveResidues>
 VAL166  LYS551  ARG553  GLY616  TRP617  ASP618  TYR619  PRO620  LYS621  CYS622 
 ASP623  PHE694  ASN695  SER759  ASP760  ASP761  ALA762  ILE779  LEU786  VAL792 
 PHE793  MET794  SER795  GLU796  ALA797  LYS798  CYS799  TRP800  GLU811  SER814 

> <Gold.Protein.RotatedAtoms>
  151.1570  133.4869  159.2594 H   0  0  0  0  0  0  0  0  0  0  0  0  # atno 6907 bound_to 6896
  151.1493  135.0219  159.8671 H   0  0  0  0  0  0  0  0  0  0  0  0  # atno 6908 bound_to 6896
  152.5463  134.1456  159.8550 H   0  0  0  0  0  0  0  0  0  0  0  0  # atno 6909 bound_to 6896
  145.3443  140.9465  143.2590 H   0  0  0  0  0  0  0  0  0  0  0  0  # atno 7974 bound_to 7965
  156.0254  140.3336  155.7082 H   0  0  0  0  0  0  0  0  0  0  0  0  # atno 8008 bound_to 7997
  155.5962  140.0651  157.2763 H   0  0  0  0  0  0  0  0  0  0  0  0  # atno 8009 bound_to 7997
  154.4332  140.1818  156.1114 H   0  0  0  0  0  0  0  0  0  0  0  0  # atno 8010 bound_to 7997
  140.6638  143.7234  150.7788 H   0  0  0  0  0  0  0  0  0  0  0  0  # atno 10167 bound_to 10162
  157.2866  131.0845  151.1493 H   0  0  0  0  0  0  0  0  0  0  0  0  # atno 10718 bound_to 10713
  153.1305  135.4685  154.9340 H   0  0  0  0  0  0  0  0  0  0  0  0  # atno 10763 bound_to 10752
  154.7659  135.3145  154.8289 H   0  0  0  0  0  0  0  0  0  0  0  0  # atno 10764 bound_to 10752
  153.8832  135.6892  153.4819 H   0  0  0  0  0  0  0  0  0  0  0  0  # atno 10765 bound_to 10752
  140.5285  134.5640  157.5068 H   0  0  0  0  0  0  0  0  0  0  0  0  # atno 11005 bound_to 11000
  144.8766  139.4963  143.6743 LP  0  0  0  0  0  0  0  0  0  0  0  0  # atno 17320 bound_to 7965
  146.2994  139.7379  142.9102 LP  0  0  0  0  0  0  0  0  0  0  0  0  # atno 17321 bound_to 7965
  140.0907  143.4880  152.2480 LP  0  0  0  0  0  0  0  0  0  0  0  0  # atno 17342 bound_to 10162
  139.5880  144.7539  151.3472 LP  0  0  0  0  0  0  0  0  0  0  0  0  # atno 17343 bound_to 10162
  157.2906  130.6794  149.6112 LP  0  0  0  0  0  0  0  0  0  0  0  0  # atno 17370 bound_to 10713
  155.9666  130.4422  150.5371 LP  0  0  0  0  0  0  0  0  0  0  0  0  # atno 17371 bound_to 10713
  139.9567  134.7522  156.0326 LP  0  0  0  0  0  0  0  0  0  0  0  0  # atno 17394 bound_to 11000
  141.1295  133.6590  156.3425 LP  0  0  0  0  0  0  0  0  0  0  0  0  # atno 17395 bound_to 11000

$$$$
