AV-unprocessed.smi:2427|AV-procd|sdf|9578|dock10
  -GOLD-   2272013213D 1   1.00000     0.00000
 Structure written by MMmdl.
 35 36  0  0  0  0  0  0  0  0  3 V2000
  151.5645  141.2539  157.9246 O   0  0  0  0  0  0  0  0  0  0  0  0
  150.8757  141.8778  157.1160 C   0  0  0  0  0  0  0  0  0  0  0  0
  149.9651  141.1355  156.1282 C   0  0  0  0  0  0  0  0  0  0  0  0
  150.1509  139.6752  156.1642 N   0  0  0  0  0  0  0  0  0  0  0  0
  149.7675  139.0079  157.3443 C   0  0  0  0  0  0  0  0  0  0  0  0
  149.8999  137.6747  157.4883 C   0  0  0  0  0  0  0  0  0  0  0  0
  149.5078  137.0068  158.7100 N   0  3  0  0  0  0  0  0  0  0  0  0
  148.9762  137.6670  159.5966 O   0  0  0  0  0  0  0  0  0  0  0  0
  149.7180  135.8030  158.8251 O   0  5  0  0  0  0  0  0  0  0  0  0
  150.4548  136.9285  156.3755 C   0  0  0  0  0  0  0  0  0  0  0  0
  150.8278  137.5614  155.2459 C   0  0  0  0  0  0  0  0  0  0  0  0
  150.6891  139.0133  155.0942 C   0  0  0  0  0  0  0  0  0  0  0  0
  151.0357  139.5990  154.0680 O   0  0  0  0  0  0  0  0  0  0  0  0
  150.8567  143.2172  157.0426 N   0  0  0  0  0  0  0  0  0  0  0  0
  151.6594  144.1215  157.8592 C   0  0  0  0  0  0  0  0  0  0  0  0
  151.4667  143.8544  159.3622 C   0  0  2  0  0  0  0  0  0  0  0  0
  151.8535  145.0108  160.2850 C   0  0  0  0  0  0  0  0  0  0  0  0
  152.1184  144.2842  161.5833 C   0  0  0  0  0  0  0  0  0  0  0  0
  152.7859  143.0005  161.0958 C   0  0  0  0  0  0  0  0  0  0  0  0
  152.2902  142.7692  159.7786 O   0  0  0  0  0  0  0  0  0  0  0  0
  148.9314  141.3994  156.3557 H   0  0  0  0  0  0  0  0  0  0  0  0
  150.1385  141.5086  155.1168 H   0  0  0  0  0  0  0  0  0  0  0  0
  149.3729  139.6529  158.1163 H   0  0  0  0  0  0  0  0  0  0  0  0
  150.5761  135.8570  156.4403 H   0  0  0  0  0  0  0  0  0  0  0  0
  151.2397  136.9859  154.4297 H   0  0  0  0  0  0  0  0  0  0  0  0
  150.2547  143.6440  156.3534 H   0  0  0  0  0  0  0  0  0  0  0  0
  152.7051  143.9632  157.5952 H   0  0  0  0  0  0  0  0  0  0  0  0
  151.4409  145.1643  157.6234 H   0  0  0  0  0  0  0  0  0  0  0  0
  150.4315  143.5704  159.5593 H   0  0  0  0  0  0  0  0  0  0  0  0
  152.7673  145.4938  159.9360 H   0  0  0  0  0  0  0  0  0  0  0  0
  151.0747  145.7694  160.3696 H   0  0  0  0  0  0  0  0  0  0  0  0
  152.7402  144.8521  162.2758 H   0  0  0  0  0  0  0  0  0  0  0  0
  151.1753  144.0527  162.0803 H   0  0  0  0  0  0  0  0  0  0  0  0
  153.8674  143.1295  161.0394 H   0  0  0  0  0  0  0  0  0  0  0  0
  152.5802  142.1543  161.7516 H   0  0  0  0  0  0  0  0  0  0  0  0
  1  2  2  0  0  0  0
  2  3  1  0  0  0  0
  2 14  1  0  0  0  0
  3  4  1  0  0  0  0
  3 21  1  0  0  0  0
  3 22  1  0  0  0  0
  4 12  1  0  0  0  0
  4  5  1  0  0  0  0
  5  6  2  0  0  0  0
  5 23  1  0  0  0  0
  6  7  1  0  0  0  0
  6 10  1  0  0  0  0
  7  8  2  0  0  0  0
  7  9  1  0  0  0  0
 10 11  2  0  0  0  0
 10 24  1  0  0  0  0
 11 12  1  0  0  0  0
 11 25  1  0  0  0  0
 12 13  2  0  0  0  0
 14 15  1  0  0  0  0
 14 26  1  0  0  0  0
 15 16  1  0  0  0  0
 15 27  1  0  0  0  0
 15 28  1  0  0  0  0
 16 20  1  0  0  0  0
 16 17  1  0  0  0  0
 16 29  1  0  0  0  0
 17 18  1  0  0  0  0
 17 30  1  0  0  0  0
 17 31  1  0  0  0  0
 18 19  1  0  0  0  0
 18 32  1  0  0  0  0
 18 33  1  0  0  0  0
 19 20  1  0  0  0  0
 19 34  1  0  0  0  0
 19 35  1  0  0  0  0
M  CHG  1   7   1
M  CHG  1   9  -1
M  END
> <s_m_source_file>
AV-unprocessed.smi

> <i_m_source_file_index>
2427

> <i_lp_mmshare_version>
43012

> <i_f3d_flags>
0

> <s_epik_input>
TzFbQ0gyXVtDSDJdW0NIMl1bQ0BIXTFbQ0gyXVtOSF1DKD1PKVtDSDJdbjJbY0hdYyhbTitdKD1PKVtPLV0pW2NIXVtjSF1jMj1P

> <s_epik_cmdline>
J2VwaWtfcHl0aG9uJywgJy1waCcsICc3LjAnLCAnLXRuJywgJzgnLCAnLW1hJywgJzIwMCcsICctbWV0YWxfYmluZGluZycsICctaW1hZScsICc8aW5maWxlLm1hZT4nLCAnLW9tYWUnLCAnPG91dGZpbGUubWFlPic=

> <r_lp_tautomer_probability>
1

> <r_epik_Ionization_Penalty>
2.69366e-08

> <r_epik_Ionization_Penalty_Charging>
7.76344e-11

> <r_epik_Ionization_Penalty_Neutral>
2.6859e-08

> <r_epik_State_Penalty>
-0

> <r_epik_Charging_Adjusted_Penalty>
7.76344e-11

> <i_epik_Tot_Q>
0

> <i_epik_Tot_abs_Q>
2

> <r_epik_Metal_State_Penalty>
-0

> <b_epik_Metal_Only>
0

> <s_lp_Force_Field>
OPLS_2005

> <r_lp_Energy>
28.4558

> <b_lp_Chiralities_Consistent>
1

> <s_lp_Variant>
AV-unprocessed.smi:2427-1

> <Gold.Version>
5.8.1

> <Gold.Id.Protein>
6NUR|6NUR_protein|mol2

> <Gold.PLP.Fitness>
45.0796

> <Gold.PLP.PLP>
-36.5358

> <Gold.PLP.part.hbond>
-4.9446

> <Gold.PLP.part.metal>
0.0000

> <Gold.PLP.part.buried>
-3.5418

> <Gold.PLP.part.nonpolar>
-28.2218

> <Gold.PLP.part.repulsive>
0.1902

> <Gold.PLP.ligand.clash>
0.0000

> <Gold.PLP.ligand.torsion>
0.3226

> <Gold.PLP.Chemscore.Hbond>
3.0530

> <Gold.PLP.Chemscore.CHOScore>
0.0000

> <Gold.PLP.Chemscore.Metal>
0.0000

> <Gold.Chemscore.Hbonds>
donor molecule, donor type, donor heavy atom, donor atom, acceptor molecule, acceptor atom, score
      L1  H    14    26       P1  8028  1.00
      P1  H  6896  6908       L1     9  1.00
      P1  H  6931  6943       L1     8  0.04
      P1  H  7989  7998       L1    13  0.94

> <Gold.PLP.Chemscore.Internal.Correction>
0.0299

> <Gold.Rescore>
     Score         DG    S(hbond)    S(metal)    S(lipo)     H(rot)  DE(clash)    DE(int)     intcor
     16.10     -20.65       3.38        0.00      74.75       1.90       0.02       4.52       ----

> <Gold.Chemscore.Fitness>
16.1040

> <Gold.Chemscore.DG>
-20.6512

> <Gold.Chemscore.ZeroCoef>
-5.4800

> <Gold.Chemscore.Hbond>
3.3835

> <Gold.Chemscore.Metal>
0.0000

> <Gold.Chemscore.Lipo>
74.7482

> <Gold.Chemscore.Internal_Hbond>
0.0000

> <Gold.Chemscore.DEClash>
0.0232

> <Gold.Chemscore.DEInternal>
4.5239

> <Gold.Chemscore.Rot>
1.9044

> <Gold.Chemscore.Internal.Correction>
   9.000000E+99

> <Gold.Chemscore.Hbonds>
donor molecule, donor type, donor heavy atom, donor atom, acceptor molecule, acceptor atom, score
      L1  H    14    26       P1  8028  0.99
      P1  H  6896  6908       L1     9  1.00
      P1  H  6931  6943       L1     8  0.04
      P1  H  7989  7998       L1    13  0.90

> <Gold.Chemscore.Hbond.Weighted>
-11.3009

> <Gold.Chemscore.Metal.Weighted>
-0.0000

> <Gold.Chemscore.Lipo.Weighted>
-8.7455

> <Gold.Chemscore.Internal_Hbond.Weighted>
0.0000

> <Gold.Chemscore.DEClash.Weighted>
0.0232

> <Gold.Chemscore.DEInternal.Weighted>
4.5239

> <Gold.Chemscore.Rot.Weighted>
4.8753

> <Gold.Chemscore.Internal.Correction.Weighted>
   9.000000E+99

> <Gold.Protein.RotatedTorsions>
[ 6907 6896 6895 6894 ] final  178.87 input  -60.11 | X-H torsion
[ 7974 7965 7964 7962 ] final  133.61 input  175.53 | X-H torsion
[ 8008 7997 7996 7995 ] final  109.95 input   59.86 | X-H torsion
[ 10167 10162 10161 10158 ] final   91.88 input  -65.29 | X-H torsion
[ 10718 10713 10712 10709 ] final  132.14 input   66.30 | X-H torsion
[ 10763 10752 10751 10750 ] final  178.71 input  -60.55 | X-H torsion
[ 11005 11000 10999 10996 ] final  118.04 input  -57.11 | X-H torsion

> <Gold.Protein.ActiveResidues>
 VAL166  LYS551  ARG553  GLY616  TRP617  ASP618  TYR619  PRO620  LYS621  CYS622 
 ASP623  PHE694  ASN695  SER759  ASP760  ASP761  ALA762  ILE779  LEU786  VAL792 
 PHE793  MET794  SER795  GLU796  ALA797  LYS798  CYS799  TRP800  GLU811  SER814 

> <Gold.Protein.RotatedAtoms>
  151.6808  133.3312  159.3218 H   0  0  0  0  0  0  0  0  0  0  0  0  # atno 6907 bound_to 6896
  150.7823  134.6782  159.6438 H   0  0  0  0  0  0  0  0  0  0  0  0  # atno 6908 bound_to 6896
  152.3884  134.6483  160.0169 H   0  0  0  0  0  0  0  0  0  0  0  0  # atno 6909 bound_to 6896
  144.9848  139.4467  143.5368 H   0  0  0  0  0  0  0  0  0  0  0  0  # atno 7974 bound_to 7965
  156.2017  140.3048  155.9540 H   0  0  0  0  0  0  0  0  0  0  0  0  # atno 8008 bound_to 7997
  155.2938  140.0443  157.3042 H   0  0  0  0  0  0  0  0  0  0  0  0  # atno 8009 bound_to 7997
  154.5579  140.2311  155.8390 H   0  0  0  0  0  0  0  0  0  0  0  0  # atno 8010 bound_to 7997
  139.8331  144.6677  150.9375 H   0  0  0  0  0  0  0  0  0  0  0  0  # atno 10167 bound_to 10162
  157.4900  131.1090  150.9569 H   0  0  0  0  0  0  0  0  0  0  0  0  # atno 10718 bound_to 10713
  154.5112  135.2788  155.1341 H   0  0  0  0  0  0  0  0  0  0  0  0  # atno 10763 bound_to 10752
  154.2936  135.6262  153.5399 H   0  0  0  0  0  0  0  0  0  0  0  0  # atno 10764 bound_to 10752
  152.9919  135.5680  154.5578 H   0  0  0  0  0  0  0  0  0  0  0  0  # atno 10765 bound_to 10752
  139.9095  134.9616  156.7443 H   0  0  0  0  0  0  0  0  0  0  0  0  # atno 11005 bound_to 11000
  146.3417  139.9143  142.8776 LP  0  0  0  0  0  0  0  0  0  0  0  0  # atno 17320 bound_to 7965
  145.2370  140.9995  143.3958 LP  0  0  0  0  0  0  0  0  0  0  0  0  # atno 17321 bound_to 7965
  140.7805  143.3982  151.1194 LP  0  0  0  0  0  0  0  0  0  0  0  0  # atno 17342 bound_to 10162
  139.7634  143.8601  152.3105 LP  0  0  0  0  0  0  0  0  0  0  0  0  # atno 17343 bound_to 10162
  157.0274  130.5698  149.5339 LP  0  0  0  0  0  0  0  0  0  0  0  0  # atno 17370 bound_to 10713
  156.0168  130.5262  150.8158 LP  0  0  0  0  0  0  0  0  0  0  0  0  # atno 17371 bound_to 10713
  140.6824  133.9462  155.7918 LP  0  0  0  0  0  0  0  0  0  0  0  0  # atno 17394 bound_to 11000
  141.0500  134.0498  157.3795 LP  0  0  0  0  0  0  0  0  0  0  0  0  # atno 17395 bound_to 11000

$$$$
