#       Name:                AV-unprocessed.smi:2671
#       Creating user name   scv26
#       Creation time:       Fri Mar 27 14:37:35 2020


#       File generated by GOLD software.
#

@<TRIPOS>MOLECULE
AV-unprocessed.smi:2671
    34    35     1
SMALL
NO_CHARGES


@<TRIPOS>ATOM
      1 ****        -4.1314  -1.3646  -3.8118 O.2            1 S1                 0.0000
      2 ****        -3.4348  -0.8865  -2.9192 C.2            1 S1                 0.0000
      3 ****        -3.8239   0.3560  -2.2418 C.2            1 S1                 0.0000
      4 ****        -3.0444   0.8531  -1.2609 C.2            1 S1                 0.0000
      5 ****        -3.3602   2.1425  -0.5199 C.3            1 S1                 0.0000
      6 ****        -3.5738   3.1334  -1.3852 F              1 S1                 0.0000
      7 ****        -4.4608   1.9895   0.2156 F              1 S1                 0.0000
      8 ****        -2.3630   2.5028   0.2907 F              1 S1                 0.0000
      9 ****        -1.8753   0.2042  -0.9019 N.pl3          1 S1                 0.0000
     10 ****        -1.5243  -0.9713  -1.5581 C.2            1 S1                 0.0000
     11 ****         0.0438  -1.6803  -0.9414 S.3            1 S1                 0.0000
     12 ****         0.5720  -0.5347   0.3710 C.3            1 S1                 0.0000
     13 ****         1.8901  -0.9847   1.0142 C.3            1 S1                 0.0000
     14 ****         2.3418  -0.1028   2.1767 C.3            1 S1                 0.0000
     15 ****         3.8302  -0.3640   2.1929 C.3            1 S1                 0.0000
     16 ****         4.1464  -0.4468   0.7023 C.3            1 S1                 0.0000
     17 ****         2.9601  -0.9270   0.0738 O.3            1 S1                 0.0000
     18 ****        -2.2411  -1.5015  -2.5072 N.2            1 S1                 0.0000
     19 ****        -1.3123   0.6187  -0.1733 H              1 S1                 0.0000
     20 ****        -4.7305   0.8676  -2.5302 H              1 S1                 0.0000
     21 ****        -0.2065  -0.4896   1.1332 H              1 S1                 0.0000
     22 ****         0.6866   0.4669  -0.0449 H              1 S1                 0.0000
     23 ****         1.8055  -2.0151   1.3633 H              1 S1                 0.0000
     24 ****         2.1512   0.9494   1.9606 H              1 S1                 0.0000
     25 ****         1.8518  -0.3539   3.1178 H              1 S1                 0.0000
     26 ****         4.3984   0.4112   2.7076 H              1 S1                 0.0000
     27 ****         4.0377  -1.3199   2.6760 H              1 S1                 0.0000
     28 ****         4.3700   0.5439   0.3050 H              1 S1                 0.0000
     29 ****         4.9977  -1.0952   0.4943 H              1 S1                 0.0000
     30 ****        -3.8527  -2.2119  -4.2639 LP             1 S1                 0.0000
     31 ****        -4.9769  -0.9063  -4.0859 LP             1 S1                 0.0000
     32 ****         2.7099  -0.3109  -0.6730 LP             1 S1                 0.0000
     33 ****         3.1278  -1.8427  -0.2915 LP             1 S1                 0.0000
     34 ****        -1.9407  -2.3494  -2.9442 LP             1 S1                 0.0000
@<TRIPOS>BOND
    1    1    2 2     
    2    2   18 1     
    3    2    3 1     
    4    3   20 1     
    5    3    4 2     
    6    4    5 1     
    7    4    9 1     
    8    5    6 1     
    9    5    7 1     
   10    5    8 1     
   11    9   10 1     
   12    9   19 1     
   13   10   11 1     
   14   10   18 2     
   15   11   12 1     
   16   12   13 1     
   17   12   21 1     
   18   12   22 1     
   19   13   17 1     
   20   13   14 1     
   21   13   23 1     
   22   14   15 1     
   23   14   24 1     
   24   14   25 1     
   25   15   16 1     
   26   15   26 1     
   27   15   27 1     
   28   16   17 1     
   29   16   28 1     
   30   16   29 1     
   31    1   30 1     
   32    1   31 1     
   33   17   32 1     
   34   17   33 1     
   35   18   34 1     
@<TRIPOS>SUBSTRUCTURE
      1 S1             1
@<TRIPOS>SET
LONE_PAIRS      STATIC     ATOMS    <user>   **** ""
5 30 31 32 33 34
DONOR_HYDROGENS      STATIC     ATOMS    <user>   **** ""
1 19
ATOM$BLUE        STATIC     ATOMS    COLORGROUP SYSTEM
5 30 31 32 33 34
ATOM$RED        STATIC     ATOMS    COLORGROUP SYSTEM
1 19
