AV-unprocessed.smi:1570|AV-procd|sdf|6321|dock4
  -GOLD-   22720 6533D 1   1.00000     0.00000
 Structure written by MMmdl.
 52 54  0  0  0  0  0  0  0  0  2 V2000
  152.3504  145.0097  158.2887 C   0  0  0  0  0  0  0  0  0  0  0  0
  151.5550  144.1735  159.2994 C   0  0  0  0  0  0  0  0  0  0  0  0
  151.8027  142.7459  159.1145 N   0  0  0  0  0  0  0  0  0  0  0  0
  151.2854  141.9568  158.1444 C   0  0  0  0  0  0  0  0  0  0  0  0
  150.5026  142.3102  157.2623 O   0  0  0  0  0  0  0  0  0  0  0  0
  151.7937  140.7110  158.2985 N   0  0  0  0  0  0  0  0  0  0  0  0
  151.5046  139.5485  157.4599 C   0  0  0  0  0  0  0  0  0  0  0  0
  151.4051  139.9285  155.9685 C   0  0  1  0  0  0  0  0  0  0  0  0
  152.7061  139.8934  155.4147 O   0  0  0  0  0  0  0  0  0  0  0  0
  150.5347  138.9288  155.1812 C   0  0  0  0  0  0  0  0  0  0  0  0
  149.1973  139.4857  154.8567 N   0  3  1  0  0  0  0  0  0  0  0  0
  149.2445  140.9259  154.5127 C   0  0  0  0  0  0  0  0  0  0  0  0
  147.8292  141.4821  154.2591 C   0  0  2  0  0  0  0  0  0  0  0  0
  147.0015  141.6632  155.5441 C   0  0  0  0  0  0  0  0  0  0  0  0
  147.1517  140.6846  153.2878 O   0  0  0  0  0  0  0  0  0  0  0  0
  147.0653  139.2971  153.6038 C   0  0  1  0  0  0  0  0  0  0  0  0
  146.3215  138.5975  152.4605 C   0  0  0  0  0  0  0  0  0  0  0  0
  148.4816  138.7292  153.8013 C   0  0  0  0  0  0  0  0  0  0  0  0
  152.6725  140.7060  159.3918 C   0  0  0  0  0  0  0  0  0  0  0  0
  153.4567  139.6796  159.9473 C   0  0  0  0  0  0  0  0  0  0  0  0
  154.2570  140.0104  161.0660 C   0  0  0  0  0  0  0  0  0  0  0  0
  154.2605  141.3275  161.5941 C   0  0  0  0  0  0  0  0  0  0  0  0
  153.4645  142.3425  161.0139 C   0  0  0  0  0  0  0  0  0  0  0  0
  152.6774  141.9868  159.9048 C   0  0  0  0  0  0  0  0  0  0  0  0
  152.1599  146.0737  158.4305 H   0  0  0  0  0  0  0  0  0  0  0  0
  152.0761  144.7568  157.2642 H   0  0  0  0  0  0  0  0  0  0  0  0
  153.4230  144.8472  158.3989 H   0  0  0  0  0  0  0  0  0  0  0  0
  151.8213  144.4625  160.3165 H   0  0  0  0  0  0  0  0  0  0  0  0
  150.4892  144.3826  159.1953 H   0  0  0  0  0  0  0  0  0  0  0  0
  152.2324  138.7522  157.6181 H   0  0  0  0  0  0  0  0  0  0  0  0
  150.5502  139.1409  157.7976 H   0  0  0  0  0  0  0  0  0  0  0  0
  151.0030  140.9358  155.8661 H   0  0  0  0  0  0  0  0  0  0  0  0
  152.7320  139.2294  154.7421 H   0  0  0  0  0  0  0  0  0  0  0  0
  151.0600  138.6510  154.2657 H   0  0  0  0  0  0  0  0  0  0  0  0
  150.4035  138.0037  155.7448 H   0  0  0  0  0  0  0  0  0  0  0  0
  149.7263  141.4896  155.3128 H   0  0  0  0  0  0  0  0  0  0  0  0
  149.8576  141.0577  153.6197 H   0  0  0  0  0  0  0  0  0  0  0  0
  147.9375  142.4716  153.8135 H   0  0  0  0  0  0  0  0  0  0  0  0
  147.4759  142.3844  156.2102 H   0  0  0  0  0  0  0  0  0  0  0  0
  146.8906  140.7333  156.1013 H   0  0  0  0  0  0  0  0  0  0  0  0
  146.0036  142.0368  155.3136 H   0  0  0  0  0  0  0  0  0  0  0  0
  146.4849  139.1616  154.5168 H   0  0  0  0  0  0  0  0  0  0  0  0
  146.2148  137.5302  152.6559 H   0  0  0  0  0  0  0  0  0  0  0  0
  146.8518  138.7132  151.5146 H   0  0  0  0  0  0  0  0  0  0  0  0
  145.3216  139.0134  152.3342 H   0  0  0  0  0  0  0  0  0  0  0  0
  149.0440  138.7857  152.8675 H   0  0  0  0  0  0  0  0  0  0  0  0
  148.4141  137.6745  154.0661 H   0  0  0  0  0  0  0  0  0  0  0  0
  153.4561  138.6793  159.5412 H   0  0  0  0  0  0  0  0  0  0  0  0
  154.8747  139.2514  161.5230 H   0  0  0  0  0  0  0  0  0  0  0  0
  154.8800  141.5584  162.4481 H   0  0  0  0  0  0  0  0  0  0  0  0
  153.4661  143.3478  161.4088 H   0  0  0  0  0  0  0  0  0  0  0  0
  148.6478  139.4138  155.7018 H   0  0  0  0  0  0  0  0  0  0  0  0
  1  2  1  0  0  0  0
  1 25  1  0  0  0  0
  1 26  1  0  0  0  0
  1 27  1  0  0  0  0
  2  3  1  0  0  0  0
  2 28  1  0  0  0  0
  2 29  1  0  0  0  0
  3 24  1  0  0  0  0
  3  4  1  0  0  0  0
  4  5  2  0  0  0  0
  4  6  1  0  0  0  0
  6  7  1  0  0  0  0
  6 19  1  0  0  0  0
  7  8  1  0  0  0  0
  7 30  1  0  0  0  0
  7 31  1  0  0  0  0
  8  9  1  0  0  0  0
  8 10  1  0  0  0  0
  8 32  1  0  0  0  0
  9 33  1  0  0  0  0
 10 11  1  0  0  0  0
 10 34  1  0  0  0  0
 10 35  1  0  0  0  0
 11 18  1  0  0  0  0
 11 12  1  0  0  0  0
 11 52  1  0  0  0  0
 12 13  1  0  0  0  0
 12 36  1  0  0  0  0
 12 37  1  0  0  0  0
 13 14  1  0  0  0  0
 13 15  1  0  0  0  0
 13 38  1  0  0  0  0
 14 39  1  0  0  0  0
 14 40  1  0  0  0  0
 14 41  1  0  0  0  0
 15 16  1  0  0  0  0
 16 17  1  0  0  0  0
 16 18  1  0  0  0  0
 16 42  1  0  0  0  0
 17 43  1  0  0  0  0
 17 44  1  0  0  0  0
 17 45  1  0  0  0  0
 18 46  1  0  0  0  0
 18 47  1  0  0  0  0
 19 24  2  0  0  0  0
 19 20  1  0  0  0  0
 20 21  2  0  0  0  0
 20 48  1  0  0  0  0
 21 22  1  0  0  0  0
 21 49  1  0  0  0  0
 22 23  2  0  0  0  0
 22 50  1  0  0  0  0
 23 24  1  0  0  0  0
 23 51  1  0  0  0  0
M  CHG  1  11   1
M  END
> <s_m_source_file>
AV-unprocessed.smi

> <i_m_source_file_index>
1570

> <i_lp_mmshare_version>
43012

> <i_f3d_flags>
0

> <s_epik_input>
W2NIXTFbY0hdW2NIXVtjSF1jKGMxMiluKFtDSDJdW0NIM10pYyg9TyluMltDSDJdW0NASF0oW09IXSlbQ0gyXU4zW0NIMl1bQ0BASF0oW0NIM10pT1tDQEBIXShbQ0gzXSlbQ0gyXTM=

> <s_epik_cmdline>
J2VwaWtfcHl0aG9uJywgJy1waCcsICc3LjAnLCAnLXRuJywgJzgnLCAnLW1hJywgJzIwMCcsICctbWV0YWxfYmluZGluZycsICctaW1hZScsICc8aW5maWxlLm1hZT4nLCAnLW9tYWUnLCAnPG91dGZpbGUubWFlPic=

> <r_epik_Ionization_Penalty>
0.706332

> <r_epik_Ionization_Penalty_Charging>
0.706318

> <r_epik_Ionization_Penalty_Neutral>
1.42224e-05

> <r_epik_State_Penalty>
0.729493

> <r_epik_Charging_Adjusted_Penalty>
1.43581

> <i_epik_Tot_Q>
1

> <i_epik_Tot_abs_Q>
1

> <r_epik_Metal_State_Penalty>
0.729493

> <b_epik_Metal_Only>
0

> <s_lp_Force_Field>
OPLS_2005

> <r_lp_Energy>
54.8336

> <b_lp_Chiralities_Consistent>
1

> <s_lp_Variant>
AV-unprocessed.smi:1570-10

> <Gold.Version>
5.8.1

> <Gold.Id.Protein>
6NUR|6NUR_protein|mol2

> <Gold.PLP.Fitness>
51.5594

> <Gold.PLP.PLP>
-51.7113

> <Gold.PLP.part.hbond>
-1.6660

> <Gold.PLP.part.metal>
0.0000

> <Gold.PLP.part.buried>
-0.9677

> <Gold.PLP.part.nonpolar>
-49.2614

> <Gold.PLP.part.repulsive>
0.7138

> <Gold.PLP.ligand.clash>
0.0000

> <Gold.PLP.ligand.torsion>
1.6335

> <Gold.PLP.Chemscore.Hbond>
1.0000

> <Gold.PLP.Chemscore.CHOScore>
0.0000

> <Gold.PLP.Chemscore.Metal>
0.0000

> <Gold.Chemscore.Hbonds>
donor molecule, donor type, donor heavy atom, donor atom, acceptor molecule, acceptor atom, score
      P1  H  7997  8009       L1     9  1.00

> <Gold.PLP.Chemscore.Internal.Correction>
0.1152

> <Gold.Rescore>
     Score         DG    S(hbond)    S(metal)    S(lipo)     H(rot)  DE(clash)    DE(int)     intcor
     16.02     -19.01       0.99        0.00     133.94       2.13       0.11       2.89       ----

> <Gold.Chemscore.Fitness>
16.0200

> <Gold.Chemscore.DG>
-19.0115

> <Gold.Chemscore.ZeroCoef>
-5.4800

> <Gold.Chemscore.Hbond>
0.9922

> <Gold.Chemscore.Metal>
0.0000

> <Gold.Chemscore.Lipo>
133.9415

> <Gold.Chemscore.Internal_Hbond>
0.0000

> <Gold.Chemscore.DEClash>
0.1053

> <Gold.Chemscore.DEInternal>
2.8863

> <Gold.Chemscore.Rot>
2.1303

> <Gold.Chemscore.Internal.Correction>
   9.000000E+99

> <Gold.Chemscore.Hbonds>
donor molecule, donor type, donor heavy atom, donor atom, acceptor molecule, acceptor atom, score
      P1  H  7997  8009       L1     9  0.55

> <Gold.Chemscore.Hbond.Weighted>
-3.3139

> <Gold.Chemscore.Metal.Weighted>
-0.0000

> <Gold.Chemscore.Lipo.Weighted>
-15.6712

> <Gold.Chemscore.Internal_Hbond.Weighted>
0.0000

> <Gold.Chemscore.DEClash.Weighted>
0.1053

> <Gold.Chemscore.DEInternal.Weighted>
2.8863

> <Gold.Chemscore.Rot.Weighted>
5.4535

> <Gold.Chemscore.Internal.Correction.Weighted>
   9.000000E+99

> <Gold.Protein.RotatedTorsions>
[ 6907 6896 6895 6894 ] final -128.62 input  -60.11 | X-H torsion
[ 7974 7965 7964 7962 ] final   -0.84 input  175.53 | X-H torsion
[ 8008 7997 7996 7995 ] final -135.66 input   59.86 | X-H torsion
[ 10167 10162 10161 10158 ] final   85.70 input  -65.29 | X-H torsion
[ 10718 10713 10712 10709 ] final   34.77 input   66.30 | X-H torsion
[ 10763 10752 10751 10750 ] final  -99.35 input  -60.55 | X-H torsion
[ 11005 11000 10999 10996 ] final   33.69 input  -57.11 | X-H torsion

> <Gold.Protein.ActiveResidues>
 VAL166  LYS551  ARG553  GLY616  TRP617  ASP618  TYR619  PRO620  LYS621  CYS622 
 ASP623  PHE694  ASN695  SER759  ASP760  ASP761  ALA762  ILE779  LEU786  VAL792 
 PHE793  MET794  SER795  GLU796  ALA797  LYS798  CYS799  TRP800  GLU811  SER814 

> <Gold.Protein.RotatedAtoms>
  150.9198  133.6894  159.2834 H   0  0  0  0  0  0  0  0  0  0  0  0  # atno 6907 bound_to 6896
  151.4352  135.1013  159.9664 H   0  0  0  0  0  0  0  0  0  0  0  0  # atno 6908 bound_to 6896
  152.4974  133.8619  159.7309 H   0  0  0  0  0  0  0  0  0  0  0  0  # atno 6909 bound_to 6896
  146.2423  140.1330  142.8337 H   0  0  0  0  0  0  0  0  0  0  0  0  # atno 7974 bound_to 7965
  155.3823  140.0495  157.3043 H   0  0  0  0  0  0  0  0  0  0  0  0  # atno 8008 bound_to 7997
  154.5076  140.2180  155.9181 H   0  0  0  0  0  0  0  0  0  0  0  0  # atno 8009 bound_to 7997
  156.1544  140.3129  155.8708 H   0  0  0  0  0  0  0  0  0  0  0  0  # atno 8010 bound_to 7997
  139.8951  144.6363  150.8697 H   0  0  0  0  0  0  0  0  0  0  0  0  # atno 10167 bound_to 10162
  157.3144  130.7416  149.6745 H   0  0  0  0  0  0  0  0  0  0  0  0  # atno 10718 bound_to 10713
  154.7491  135.4975  153.9256 H   0  0  0  0  0  0  0  0  0  0  0  0  # atno 10763 bound_to 10752
  153.1124  135.6712  153.9486 H   0  0  0  0  0  0  0  0  0  0  0  0  # atno 10764 bound_to 10752
  153.9241  135.3085  155.3426 H   0  0  0  0  0  0  0  0  0  0  0  0  # atno 10765 bound_to 10752
  140.2605  134.3197  155.7859 H   0  0  0  0  0  0  0  0  0  0  0  0  # atno 11005 bound_to 11000
  145.0310  140.8871  143.5109 LP  0  0  0  0  0  0  0  0  0  0  0  0  # atno 17320 bound_to 7965
  145.1394  139.2582  143.5498 LP  0  0  0  0  0  0  0  0  0  0  0  0  # atno 17321 bound_to 7965
  140.7718  143.3480  151.2072 LP  0  0  0  0  0  0  0  0  0  0  0  0  # atno 17342 bound_to 10162
  139.7075  143.9431  152.2933 LP  0  0  0  0  0  0  0  0  0  0  0  0  # atno 17343 bound_to 10162
  155.9680  130.4242  150.4596 LP  0  0  0  0  0  0  0  0  0  0  0  0  # atno 17370 bound_to 10713
  157.2600  131.0565  151.2326 LP  0  0  0  0  0  0  0  0  0  0  0  0  # atno 17371 bound_to 10713
  141.2191  133.7407  156.9180 LP  0  0  0  0  0  0  0  0  0  0  0  0  # atno 17394 bound_to 11000
  140.1469  134.9256  157.2541 LP  0  0  0  0  0  0  0  0  0  0  0  0  # atno 17395 bound_to 11000

$$$$
