#       Name:                AV-unprocessed.smi:1829
#       Creating user name   scv26
#       Creation time:       Fri Mar 27 09:11:03 2020


#       File generated by GOLD software.
#

@<TRIPOS>MOLECULE
AV-unprocessed.smi:1829
    50    52     1
SMALL
NO_CHARGES


@<TRIPOS>ATOM
      1 ****        -5.7589   0.4009  -0.6245 C.3            1 S1                 0.0000
      2 ****        -5.1935  -0.2422   0.6518 C.3            1 S1                 0.0000
      3 ****        -5.7614   0.4168   1.9183 C.3            1 S1                 0.0000
      4 ****        -3.6697  -0.2413   0.6590 C.ar           1 S1                 0.0000
      5 ****        -2.9623  -1.4612   0.7127 C.ar           1 S1                 0.0000
      6 ****        -1.5541  -1.4670   0.7312 C.ar           1 S1                 0.0000
      7 ****        -0.8352  -0.2539   0.6970 C.ar           1 S1                 0.0000
      8 ****         0.6856  -0.2763   0.7115 C.3            1 S1                 0.0000
      9 ****         1.2338   0.7570   1.5076 O.3            1 S1                 0.0000
     10 ****         1.2564  -0.2046  -0.7195 C.3            1 S1                 0.0000
     11 ****         2.7098  -0.3015  -0.7570 N.pl3          1 S1                 0.0000
     12 ****         3.4745  -1.4219  -0.7916 C.2            1 S1                 0.0000
     13 ****         2.8807  -2.7975  -0.8017 C.3            1 S1                 0.0000
     14 ****         2.4040  -3.1758  -2.0751 O.3            1 S1                 0.0000
     15 ****         4.7929  -1.2240  -0.8237 N.2            1 S1                 0.0000
     16 ****         4.8936   0.1535  -0.8118 C.ar           1 S1                 0.0000
     17 ****         6.0320   0.9909  -0.8340 C.ar           1 S1                 0.0000
     18 ****         5.8870   2.3936  -0.8142 C.ar           1 S1                 0.0000
     19 ****         4.6047   2.9783  -0.7721 C.ar           1 S1                 0.0000
     20 ****         3.4574   2.1620  -0.7503 C.ar           1 S1                 0.0000
     21 ****         3.6074   0.7622  -0.7706 C.ar           1 S1                 0.0000
     22 ****        -1.5417   0.9667   0.6337 C.ar           1 S1                 0.0000
     23 ****        -2.9496   0.9725   0.6178 C.ar           1 S1                 0.0000
     24 ****        -5.3918  -0.1096  -1.5153 H              1 S1                 0.0000
     25 ****        -5.4810   1.4521  -0.7038 H              1 S1                 0.0000
     26 ****        -6.8479   0.3473  -0.6404 H              1 S1                 0.0000
     27 ****        -5.5242  -1.2818   0.6569 H              1 S1                 0.0000
     28 ****        -5.3963  -0.0824   2.8163 H              1 S1                 0.0000
     29 ****        -6.8501   0.3642   1.9331 H              1 S1                 0.0000
     30 ****        -5.4814   1.4683   1.9847 H              1 S1                 0.0000
     31 ****        -3.4959  -2.4000   0.7419 H              1 S1                 0.0000
     32 ****        -1.0270  -2.4091   0.7714 H              1 S1                 0.0000
     33 ****         1.0005  -1.2122   1.1731 H              1 S1                 0.0000
     34 ****         0.9481   0.6310   2.3995 H              1 S1                 0.0000
     35 ****         0.8365  -1.0017  -1.3336 H              1 S1                 0.0000
     36 ****         0.9588   0.7293  -1.1979 H              1 S1                 0.0000
     37 ****         3.6361  -3.5176  -0.4849 H              1 S1                 0.0000
     38 ****         2.0685  -2.8591  -0.0783 H              1 S1                 0.0000
     39 ****         2.0751  -4.0600  -2.0220 H              1 S1                 0.0000
     40 ****         7.0184   0.5527  -0.8662 H              1 S1                 0.0000
     41 ****         6.7641   3.0239  -0.8309 H              1 S1                 0.0000
     42 ****         4.5019   4.0535  -0.7552 H              1 S1                 0.0000
     43 ****         2.4735   2.6056  -0.7141 H              1 S1                 0.0000
     44 ****        -1.0073   1.9047   0.5970 H              1 S1                 0.0000
     45 ****        -3.4742   1.9155   0.5747 H              1 S1                 0.0000
     46 ****         0.9166   1.6446   1.1738 LP             1 S1                 0.0000
     47 ****         2.2323   0.7223   1.4649 LP             1 S1                 0.0000
     48 ****         3.1492  -3.1326  -2.7406 LP             1 S1                 0.0000
     49 ****         1.6691  -2.5590  -2.3570 LP             1 S1                 0.0000
     50 ****         5.5261  -1.9036  -0.8499 LP             1 S1                 0.0000
@<TRIPOS>BOND
    1    1    2 1     
    2    1   24 1     
    3    1   25 1     
    4    1   26 1     
    5    2    3 1     
    6    2    4 1     
    7    2   27 1     
    8    3   28 1     
    9    3   29 1     
   10    3   30 1     
   11    4   23 ar    
   12    4    5 ar    
   13    5    6 ar    
   14    5   31 1     
   15    6    7 ar    
   16    6   32 1     
   17    7    8 1     
   18    7   22 ar    
   19    8    9 1     
   20    8   10 1     
   21    8   33 1     
   22    9   34 1     
   23   10   11 1     
   24   10   35 1     
   25   10   36 1     
   26   11   21 1     
   27   11   12 1     
   28   12   13 1     
   29   12   15 2     
   30   13   14 1     
   31   13   37 1     
   32   13   38 1     
   33   14   39 1     
   34   15   16 1     
   35   16   21 ar    
   36   16   17 ar    
   37   17   18 ar    
   38   17   40 1     
   39   18   19 ar    
   40   18   41 1     
   41   19   20 ar    
   42   19   42 1     
   43   20   21 ar    
   44   20   43 1     
   45   22   23 ar    
   46   22   44 1     
   47   23   45 1     
   48    9   46 1     
   49    9   47 1     
   50   14   48 1     
   51   14   49 1     
   52   15   50 1     
@<TRIPOS>SUBSTRUCTURE
      1 S1             1
@<TRIPOS>SET
LONE_PAIRS      STATIC     ATOMS    <user>   **** ""
5 46 47 48 49 50
DONOR_HYDROGENS      STATIC     ATOMS    <user>   **** ""
2 34 39
ATOM$BLUE        STATIC     ATOMS    COLORGROUP SYSTEM
5 46 47 48 49 50
ATOM$RED        STATIC     ATOMS    COLORGROUP SYSTEM
2 34 39
