AV-unprocessed.smi:290|AV-procd|sdf|2215|dock3
  -GOLD-   2262022 53D 1   1.00000     0.00000
 Structure written by MMmdl.
 59 62  0  0  0  0  0  0  0  0  2 V2000
  151.8660  139.9758  157.1774 C   0  0  0  0  0  0  0  0  0  0  0  0
  151.9867  139.2926  155.8070 C   0  0  2  0  0  0  0  0  0  0  0  0
  150.9776  139.7618  154.9166 O   0  0  0  0  0  0  0  0  0  0  0  0
  150.5710  138.7156  154.0384 C   0  0  0  0  0  0  0  0  0  0  0  0
  151.5139  137.5491  154.3191 C   0  0  0  0  0  0  0  0  0  0  0  0
  151.8716  137.7568  155.7860 C   0  0  1  0  0  0  0  0  0  0  0  0
  153.1323  137.1653  156.0415 O   0  0  0  0  0  0  0  0  0  0  0  0
  150.8209  137.1862  156.7771 C   0  0  0  0  0  0  0  0  0  0  0  0
  150.1912  135.9571  156.3211 N   0  0  0  0  0  0  0  0  0  0  0  0
  148.9562  135.8327  155.7253 C   0  0  0  0  0  0  0  0  0  0  0  0
  148.6131  134.6151  155.4039 N   0  0  0  0  0  0  0  0  0  0  0  0
  149.6954  133.8417  155.8061 C   0  0  0  0  0  0  0  0  0  0  0  0
  149.9962  132.4510  155.7651 C   0  0  0  0  0  0  0  0  0  0  0  0
  149.1805  131.4991  155.2642 N   0  0  0  0  0  0  0  0  0  0  0  0
  149.8710  130.3754  154.6348 C   0  0  0  0  0  0  0  0  0  0  0  0
  148.9644  129.8979  153.4981 C   0  0  0  0  0  0  0  0  0  0  0  0
  148.2950  131.2104  153.0833 C   0  0  1  0  0  0  0  0  0  0  0  0
  147.1198  131.1393  152.1599 N   0  3  1  0  0  0  0  0  0  0  0  0
  146.1480  130.1050  152.5946 C   0  0  0  0  0  0  0  0  0  0  0  0
  146.4647  132.4419  151.8517 C   0  0  0  0  0  0  0  0  0  0  0  0
  145.4913  132.3606  150.6619 C   0  0  0  0  0  0  0  0  0  0  0  0
  145.1764  133.6567  150.1997 O   0  0  0  0  0  0  0  0  0  0  0  0
  148.0751  131.9500  154.4184 C   0  0  1  0  0  0  0  0  0  0  0  0
  146.7428  131.6829  155.1377 C   0  0  0  0  0  0  0  0  0  0  0  0
  151.1944  132.0429  156.2483 N   0  0  0  0  0  0  0  0  0  0  0  0
  152.0482  132.9369  156.7567 C   0  0  0  0  0  0  0  0  0  0  0  0
  151.9032  134.2591  156.8706 N   0  0  0  0  0  0  0  0  0  0  0  0
  150.7008  134.6717  156.3758 C   0  0  0  0  0  0  0  0  0  0  0  0
  149.0672  131.7884  152.5723 H   0  0  0  0  0  0  0  0  0  0  0  0
  148.1329  133.0241  154.2358 H   0  0  0  0  0  0  0  0  0  0  0  0
  152.6155  139.5961  157.8722 H   0  0  0  0  0  0  0  0  0  0  0  0
  150.8827  139.8216  157.6217 H   0  0  0  0  0  0  0  0  0  0  0  0
  152.0155  141.0517  157.0848 H   0  0  0  0  0  0  0  0  0  0  0  0
  152.9407  139.5794  155.3602 H   0  0  0  0  0  0  0  0  0  0  0  0
  149.5412  138.4432  154.2723 H   0  0  0  0  0  0  0  0  0  0  0  0
  150.6076  139.0342  152.9965 H   0  0  0  0  0  0  0  0  0  0  0  0
  151.0779  136.5784  154.0857 H   0  0  0  0  0  0  0  0  0  0  0  0
  152.4031  137.6592  153.6958 H   0  0  0  0  0  0  0  0  0  0  0  0
  153.3193  137.2461  156.9642 H   0  0  0  0  0  0  0  0  0  0  0  0
  151.2804  136.9858  157.7458 H   0  0  0  0  0  0  0  0  0  0  0  0
  150.0360  137.9206  156.9613 H   0  0  0  0  0  0  0  0  0  0  0  0
  148.3121  136.6798  155.5392 H   0  0  0  0  0  0  0  0  0  0  0  0
  150.8353  130.6945  154.2357 H   0  0  0  0  0  0  0  0  0  0  0  0
  150.0572  129.5805  155.3575 H   0  0  0  0  0  0  0  0  0  0  0  0
  149.5183  129.4233  152.6877 H   0  0  0  0  0  0  0  0  0  0  0  0
  148.2524  129.1751  153.8949 H   0  0  0  0  0  0  0  0  0  0  0  0
  145.6980  130.3734  153.5513 H   0  0  0  0  0  0  0  0  0  0  0  0
  146.6362  129.1363  152.7080 H   0  0  0  0  0  0  0  0  0  0  0  0
  145.3483  129.9654  151.8694 H   0  0  0  0  0  0  0  0  0  0  0  0
  145.9403  132.8011  152.7383 H   0  0  0  0  0  0  0  0  0  0  0  0
  147.2074  133.2001  151.6117 H   0  0  0  0  0  0  0  0  0  0  0  0
  145.8827  131.7611  149.8412 H   0  0  0  0  0  0  0  0  0  0  0  0
  144.5653  131.8813  150.9807 H   0  0  0  0  0  0  0  0  0  0  0  0
  145.6001  133.7910  149.3651 H   0  0  0  0  0  0  0  0  0  0  0  0
  145.8916  131.9933  154.5332 H   0  0  0  0  0  0  0  0  0  0  0  0
  146.6937  132.2451  156.0708 H   0  0  0  0  0  0  0  0  0  0  0  0
  146.6223  130.6297  155.3905 H   0  0  0  0  0  0  0  0  0  0  0  0
  152.9805  132.5355  157.1261 H   0  0  0  0  0  0  0  0  0  0  0  0
  147.4947  130.8063  151.2826 H   0  0  0  0  0  0  0  0  0  0  0  0
  1  2  1  0  0  0  0
  1 31  1  0  0  0  0
  1 32  1  0  0  0  0
  1 33  1  0  0  0  0
  2  6  1  0  0  0  0
  2  3  1  0  0  0  0
  2 34  1  0  0  0  0
  3  4  1  0  0  0  0
  4  5  1  0  0  0  0
  4 35  1  0  0  0  0
  4 36  1  0  0  0  0
  5  6  1  0  0  0  0
  5 37  1  0  0  0  0
  5 38  1  0  0  0  0
  6  7  1  0  0  0  0
  6  8  1  0  0  0  0
  7 39  1  0  0  0  0
  8  9  1  0  0  0  0
  8 40  1  0  0  0  0
  8 41  1  0  0  0  0
  9 28  1  0  0  0  0
  9 10  1  0  0  0  0
 10 11  2  0  0  0  0
 10 42  1  0  0  0  0
 11 12  1  0  0  0  0
 12 28  2  0  0  0  0
 12 13  1  0  0  0  0
 13 14  1  0  0  0  0
 13 25  2  0  0  0  0
 14 23  1  0  0  0  0
 14 15  1  0  0  0  0
 15 16  1  0  0  0  0
 15 43  1  0  0  0  0
 15 44  1  0  0  0  0
 16 17  1  0  0  0  0
 16 45  1  0  0  0  0
 16 46  1  0  0  0  0
 17 29  1  0  0  0  0
 17 18  1  0  0  0  0
 17 23  1  0  0  0  0
 18 19  1  0  0  0  0
 18 20  1  0  0  0  0
 18 59  1  0  0  0  0
 19 47  1  0  0  0  0
 19 48  1  0  0  0  0
 19 49  1  0  0  0  0
 20 21  1  0  0  0  0
 20 50  1  0  0  0  0
 20 51  1  0  0  0  0
 21 22  1  0  0  0  0
 21 52  1  0  0  0  0
 21 53  1  0  0  0  0
 22 54  1  0  0  0  0
 23 30  1  0  0  0  0
 23 24  1  0  0  0  0
 24 55  1  0  0  0  0
 24 56  1  0  0  0  0
 24 57  1  0  0  0  0
 25 26  1  0  0  0  0
 26 27  2  0  0  0  0
 26 58  1  0  0  0  0
 27 28  1  0  0  0  0
M  CHG  1  18   1
M  END
> <s_m_source_file>
AV-unprocessed.smi

> <i_m_source_file_index>
290

> <i_lp_mmshare_version>
43012

> <i_f3d_flags>
0

> <s_epik_input>
W0NIMl0xW0NIMl1PW0NAQEhdKFtDSDNdKVtDQEBdMShbT0hdKVtDSDJdbihbY0hdbjIpYyhjMjMpbltjSF1uYzNONFtDSDJdW0NIMl1bQ0BIXShbQ0BIXTRbQ0gzXSlOKFtDSDNdKVtDSDJdW0NIMl1bT0hd

> <s_epik_cmdline>
J2VwaWtfcHl0aG9uJywgJy1waCcsICc3LjAnLCAnLXRuJywgJzgnLCAnLW1hJywgJzIwMCcsICctbWV0YWxfYmluZGluZycsICctaW1hZScsICc8aW5maWxlLm1hZT4nLCAnLW9tYWUnLCAnPG91dGZpbGUubWFlPic=

> <r_lp_tautomer_probability>
1

> <r_epik_Ionization_Penalty>
0.0036983

> <r_epik_Ionization_Penalty_Charging>
0.0032725

> <r_epik_Ionization_Penalty_Neutral>
0.000425798

> <r_epik_State_Penalty>
-0

> <r_epik_Charging_Adjusted_Penalty>
0.0032725

> <i_epik_Tot_Q>
1

> <i_epik_Tot_abs_Q>
1

> <r_epik_Metal_State_Penalty>
-0

> <b_epik_Metal_Only>
0

> <s_lp_Force_Field>
OPLS_2005

> <r_lp_Energy>
65.3188

> <b_lp_Chiralities_Consistent>
1

> <s_lp_Variant>
AV-unprocessed.smi:290-1

> <Gold.Version>
5.8.1

> <Gold.Id.Protein>
6NUR|6NUR_protein|mol2

> <Gold.PLP.Fitness>
44.9320

> <Gold.PLP.PLP>
-37.6537

> <Gold.PLP.part.hbond>
-4.9293

> <Gold.PLP.part.metal>
0.0000

> <Gold.PLP.part.buried>
-2.5240

> <Gold.PLP.part.nonpolar>
-30.3687

> <Gold.PLP.part.repulsive>
0.1609

> <Gold.PLP.ligand.clash>
0.0000

> <Gold.PLP.ligand.torsion>
1.5909

> <Gold.PLP.Chemscore.Hbond>
3.3680

> <Gold.PLP.Chemscore.CHOScore>
0.0000

> <Gold.PLP.Chemscore.Metal>
0.0000

> <Gold.Chemscore.Hbonds>
donor molecule, donor type, donor heavy atom, donor atom, acceptor molecule, acceptor atom, score
      L1  H    18    59       P1 10747  0.85
      L1  H    22    54       P1  7921  0.89
      P1  H  7989  7998       L1     3  0.70
      P1  H 10752 10764       L1     7  0.54

> <Gold.PLP.Chemscore.Internal.Correction>
0.3562

> <Gold.Rescore>
     Score         DG    S(hbond)    S(metal)    S(lipo)     H(rot)  DE(clash)    DE(int)     intcor
     10.68     -14.13       2.46        0.00      84.04       3.67       0.86       2.58       ----

> <Gold.Chemscore.Fitness>
10.6840

> <Gold.Chemscore.DG>
-14.1287

> <Gold.Chemscore.ZeroCoef>
-5.4800

> <Gold.Chemscore.Hbond>
2.4551

> <Gold.Chemscore.Metal>
0.0000

> <Gold.Chemscore.Lipo>
84.0424

> <Gold.Chemscore.Internal_Hbond>
0.0000

> <Gold.Chemscore.DEClash>
0.8619

> <Gold.Chemscore.DEInternal>
2.5828

> <Gold.Chemscore.Rot>
3.6658

> <Gold.Chemscore.Internal.Correction>
   9.000000E+99

> <Gold.Chemscore.Hbonds>
donor molecule, donor type, donor heavy atom, donor atom, acceptor molecule, acceptor atom, score
      L1  H    18    59       P1 10747  0.83
      L1  H    22    54       P1  7921  0.38
      P1  H  7989  7998       L1     3  0.06
      P1  H 10752 10764       L1     7  0.32

> <Gold.Chemscore.Hbond.Weighted>
-8.2001

> <Gold.Chemscore.Metal.Weighted>
-0.0000

> <Gold.Chemscore.Lipo.Weighted>
-9.8330

> <Gold.Chemscore.Internal_Hbond.Weighted>
0.0000

> <Gold.Chemscore.DEClash.Weighted>
0.8619

> <Gold.Chemscore.DEInternal.Weighted>
2.5828

> <Gold.Chemscore.Rot.Weighted>
9.3844

> <Gold.Chemscore.Internal.Correction.Weighted>
   9.000000E+99

> <Gold.Protein.RotatedTorsions>
[ 6907 6896 6895 6894 ] final  -88.83 input  -60.11 | X-H torsion
[ 7974 7965 7964 7962 ] final   82.28 input  175.53 | X-H torsion
[ 8008 7997 7996 7995 ] final -125.83 input   59.86 | X-H torsion
[ 10167 10162 10161 10158 ] final  178.39 input  -65.29 | X-H torsion
[ 10718 10713 10712 10709 ] final   72.12 input   66.30 | X-H torsion
[ 10763 10752 10751 10750 ] final  -29.48 input  -60.55 | X-H torsion
[ 11005 11000 10999 10996 ] final -169.91 input  -57.11 | X-H torsion

> <Gold.Protein.ActiveResidues>
 VAL166  LYS551  ARG553  GLY616  TRP617  ASP618  TYR619  PRO620  LYS621  CYS622 
 ASP623  PHE694  ASN695  SER759  ASP760  ASP761  ALA762  ILE779  LEU786  VAL792 
 PHE793  MET794  SER795  GLU796  ALA797  LYS798  CYS799  TRP800  GLU811  SER814 

> <Gold.Protein.RotatedAtoms>
  150.6870  134.2681  159.4576 H   0  0  0  0  0  0  0  0  0  0  0  0  # atno 6907 bound_to 6896
  152.0606  134.9594  160.0584 H   0  0  0  0  0  0  0  0  0  0  0  0  # atno 6908 bound_to 6896
  152.1023  133.4221  159.4629 H   0  0  0  0  0  0  0  0  0  0  0  0  # atno 6909 bound_to 6896
  145.6271  139.2397  143.2105 H   0  0  0  0  0  0  0  0  0  0  0  0  # atno 7974 bound_to 7965
  155.2196  140.0421  157.2946 H   0  0  0  0  0  0  0  0  0  0  0  0  # atno 8008 bound_to 7997
  154.5958  140.2439  155.7830 H   0  0  0  0  0  0  0  0  0  0  0  0  # atno 8009 bound_to 7997
  156.2289  140.2945  156.0146 H   0  0  0  0  0  0  0  0  0  0  0  0  # atno 8010 bound_to 7997
  139.5292  144.2685  152.0648 H   0  0  0  0  0  0  0  0  0  0  0  0  # atno 10167 bound_to 10162
  157.6485  130.9563  150.0885 H   0  0  0  0  0  0  0  0  0  0  0  0  # atno 10718 bound_to 10713
  153.7654  135.6916  153.4917 H   0  0  0  0  0  0  0  0  0  0  0  0  # atno 10763 bound_to 10752
  153.1910  135.4471  155.0148 H   0  0  0  0  0  0  0  0  0  0  0  0  # atno 10764 bound_to 10752
  154.8137  135.3389  154.7167 H   0  0  0  0  0  0  0  0  0  0  0  0  # atno 10765 bound_to 10752
  140.5255  134.5668  157.5060 H   0  0  0  0  0  0  0  0  0  0  0  0  # atno 11005 bound_to 11000
  146.1386  140.7089  142.9378 LP  0  0  0  0  0  0  0  0  0  0  0  0  # atno 17320 bound_to 7965
  144.7208  140.4366  143.7009 LP  0  0  0  0  0  0  0  0  0  0  0  0  # atno 17321 bound_to 7965
  140.2146  144.4528  150.6370 LP  0  0  0  0  0  0  0  0  0  0  0  0  # atno 17342 bound_to 10162
  140.6458  143.2213  151.6188 LP  0  0  0  0  0  0  0  0  0  0  0  0  # atno 17343 bound_to 10162
  156.1841  130.3651  149.8997 LP  0  0  0  0  0  0  0  0  0  0  0  0  # atno 17370 bound_to 10713
  156.6942  130.8907  151.3592 LP  0  0  0  0  0  0  0  0  0  0  0  0  # atno 17371 bound_to 10713
  139.9582  134.7497  156.0294 LP  0  0  0  0  0  0  0  0  0  0  0  0  # atno 17394 bound_to 11000
  141.1311  133.6586  156.3466 LP  0  0  0  0  0  0  0  0  0  0  0  0  # atno 17395 bound_to 11000

$$$$
