#       Name:                AV-unprocessed.smi:1527
#       Creating user name   scv26
#       Creation time:       Fri Mar 27 06:29:39 2020


#       File generated by GOLD software.
#

@<TRIPOS>MOLECULE
AV-unprocessed.smi:1527
    37    37     1
SMALL
NO_CHARGES


@<TRIPOS>ATOM
      1 ****        -2.4923  -1.0965  -2.3566 C.3            1 S1                 0.0000
      2 ****        -2.8606  -1.8202  -1.0532 C.3            1 S1                 0.0000
      3 ****        -2.3094  -1.1363   0.2125 C.3            1 S1                 0.0000
      4 ****        -2.7814  -1.8418   1.4916 C.3            1 S1                 0.0000
      5 ****        -0.8480  -1.1144   0.1842 N.am           1 S1                 0.0000
      6 ****        -0.0710  -0.0238   0.2790 C.2            1 S1                 0.0000
      7 ****        -0.5188   1.1172   0.4045 O.2            1 S1                 0.0000
      8 ****         1.4421  -0.2873   0.2167 C.3            1 S1                 0.0000
      9 ****         2.2718   0.9221   0.3201 N.am           1 S1                 0.0000
     10 ****         2.7921   1.3901  -0.9616 N.pl3          1 S1                -1.0000
     11 ****         3.5550   2.5147  -0.9960 C.2            1 S1                 0.0000
     12 ****         4.0133   2.9772  -2.0381 O.2            1 S1                 0.0000
     13 ****         3.8377   3.1887   0.2605 C.2            1 S1                 0.0000
     14 ****         3.3643   2.7203   1.4321 C.2            1 S1                 0.0000
     15 ****         2.5398   1.5208   1.5160 C.2            1 S1                 0.0000
     16 ****         2.1123   1.0812   2.5837 O.2            1 S1                 0.0000
     17 ****        -2.9478  -1.5899  -3.2152 H              1 S1                 0.0000
     18 ****        -1.4141  -1.0845  -2.5185 H              1 S1                 0.0000
     19 ****        -2.8401  -0.0632  -2.3438 H              1 S1                 0.0000
     20 ****        -3.9475  -1.8758  -0.9835 H              1 S1                 0.0000
     21 ****        -2.5069  -2.8509  -1.1010 H              1 S1                 0.0000
     22 ****        -2.7019  -0.1183   0.2361 H              1 S1                 0.0000
     23 ****        -3.8699  -1.8533   1.5541 H              1 S1                 0.0000
     24 ****        -2.4067  -1.3336   2.3808 H              1 S1                 0.0000
     25 ****        -2.4350  -2.8754   1.5271 H              1 S1                 0.0000
     26 ****        -0.3860  -2.0056   0.0773 H              1 S1                 0.0000
     27 ****         1.7095  -0.9859   1.0114 H              1 S1                 0.0000
     28 ****         1.6579  -0.8117  -0.7161 H              1 S1                 0.0000
     29 ****         4.4427   4.0835   0.2542 H              1 S1                 0.0000
     30 ****         3.6003   3.2527   2.3413 H              1 S1                 0.0000
     31 ****        -1.5072   1.2653   0.4402 LP             1 S1                 0.0000
     32 ****         0.1060   1.8951   0.4707 LP             1 S1                 0.0000
     33 ****         2.5897   0.8896  -1.8033 LP             1 S1                 0.0000
     34 ****         3.8297   2.5231  -2.9099 LP             1 S1                 0.0000
     35 ****         4.5697   3.8077  -2.0143 LP             1 S1                 0.0000
     36 ****         1.5466   0.2566   2.5943 LP             1 S1                 0.0000
     37 ****         2.3307   1.5487   3.4403 LP             1 S1                 0.0000
@<TRIPOS>BOND
    1    1    2 1     
    2    1   17 1     
    3    1   18 1     
    4    1   19 1     
    5    2    3 1     
    6    2   20 1     
    7    2   21 1     
    8    3    4 1     
    9    3    5 1     
   10    3   22 1     
   11    4   23 1     
   12    4   24 1     
   13    4   25 1     
   14    5    6 am    
   15    5   26 1     
   16    6    7 2     
   17    6    8 1     
   18    8   27 1     
   19    8   28 1     
   20    8    9 1     
   21    9   10 1     
   22    9   15 am    
   23   10   11 1     
   24   11   12 2     
   25   11   13 1     
   26   13   29 1     
   27   13   14 2     
   28   14   30 1     
   29   14   15 1     
   30   15   16 2     
   31    7   31 1     
   32    7   32 1     
   33   10   33 1     
   34   12   34 1     
   35   12   35 1     
   36   16   36 1     
   37   16   37 1     
@<TRIPOS>SUBSTRUCTURE
      1 S1             1
@<TRIPOS>SET
LONE_PAIRS      STATIC     ATOMS    <user>   **** ""
7 31 32 33 34 35 36 37
DONOR_HYDROGENS      STATIC     ATOMS    <user>   **** ""
1 26
ATOM$BLUE        STATIC     ATOMS    COLORGROUP SYSTEM
7 31 32 33 34 35 36 37
ATOM$RED        STATIC     ATOMS    COLORGROUP SYSTEM
1 26
