AV-unprocessed.smi:618|AV-procd|sdf|3082|dock3
  -GOLD-   22720 0 03D 1   1.00000     0.00000
 Structure written by MMmdl.
 40 42  0  0  0  0  0  0  0  0  1 V2000
  149.7038  135.4557  156.3502 O   0  0  0  0  0  0  0  0  0  0  0  0
  149.4744  135.6056  155.1503 C   0  0  0  0  0  0  0  0  0  0  0  0
  148.8929  134.6714  154.3848 N   0  0  0  0  0  0  0  0  0  0  0  0
  148.4800  133.3481  154.8404 C   0  0  0  0  0  0  0  0  0  0  0  0
  147.9034  132.5084  153.6882 C   0  0  2  0  0  0  0  0  0  0  0  0
  147.1698  133.3869  152.6487 C   0  0  0  0  0  0  0  0  0  0  0  0
  146.5513  132.5466  151.6415 N   0  0  0  0  0  0  0  0  0  0  0  0
  145.7597  133.2096  150.6318 C   0  0  0  0  0  0  0  0  0  0  0  0
  144.9289  132.0792  149.9992 C   0  0  0  0  0  0  0  0  0  0  0  0
  144.9461  130.9507  151.0543 C   0  0  0  0  0  0  0  0  0  0  0  0
  145.6393  131.6135  152.2460 C   0  0  1  0  0  0  0  0  0  0  0  0
  146.3731  130.7048  153.2422 C   0  0  0  0  0  0  0  0  0  0  0  0
  146.9914  131.5403  154.2233 O   0  0  0  0  0  0  0  0  0  0  0  0
  149.7850  136.6967  154.4298 N   0  0  0  0  0  0  0  0  0  0  0  0
  150.4176  137.8921  154.8656 C   0  0  0  0  0  0  0  0  0  0  0  0
  151.2496  137.8239  156.0021 C   0  0  0  0  0  0  0  0  0  0  0  0
  151.9028  138.9893  156.4456 C   0  0  0  0  0  0  0  0  0  0  0  0
  151.7039  140.1831  155.7258 C   0  0  0  0  0  0  0  0  0  0  0  0
  150.9236  140.2636  154.6276 N   0  0  0  0  0  0  0  0  0  0  0  0
  150.2988  139.1419  154.2081 C   0  0  0  0  0  0  0  0  0  0  0  0
  148.7456  134.8812  153.4086 H   0  0  0  0  0  0  0  0  0  0  0  0
  149.3057  132.8232  155.3241 H   0  0  0  0  0  0  0  0  0  0  0  0
  147.7165  133.4902  155.6057 H   0  0  0  0  0  0  0  0  0  0  0  0
  148.7187  131.9788  153.1917 H   0  0  0  0  0  0  0  0  0  0  0  0
  146.4104  133.9929  153.1454 H   0  0  0  0  0  0  0  0  0  0  0  0
  147.8694  134.0775  152.1768 H   0  0  0  0  0  0  0  0  0  0  0  0
  145.0973  133.9434  151.0939 H   0  0  0  0  0  0  0  0  0  0  0  0
  146.3855  133.7288  149.9054 H   0  0  0  0  0  0  0  0  0  0  0  0
  143.9161  132.4150  149.7751 H   0  0  0  0  0  0  0  0  0  0  0  0
  145.3822  131.7355  149.0688 H   0  0  0  0  0  0  0  0  0  0  0  0
  143.9471  130.5939  151.3062 H   0  0  0  0  0  0  0  0  0  0  0  0
  145.5288  130.1037  150.6896 H   0  0  0  0  0  0  0  0  0  0  0  0
  144.8807  132.1717  152.7993 H   0  0  0  0  0  0  0  0  0  0  0  0
  145.6760  130.0257  153.7331 H   0  0  0  0  0  0  0  0  0  0  0  0
  147.1276  130.0954  152.7425 H   0  0  0  0  0  0  0  0  0  0  0  0
  149.6065  136.6381  153.4381 H   0  0  0  0  0  0  0  0  0  0  0  0
  151.3843  136.8925  156.5328 H   0  0  0  0  0  0  0  0  0  0  0  0
  152.5411  138.9687  157.3164 H   0  0  0  0  0  0  0  0  0  0  0  0
  152.1890  141.0962  156.0373 H   0  0  0  0  0  0  0  0  0  0  0  0
  149.7118  139.2633  153.3114 H   0  0  0  0  0  0  0  0  0  0  0  0
  1  2  2  0  0  0  0
  2  3  1  0  0  0  0
  2 14  1  0  0  0  0
  3  4  1  0  0  0  0
  3 21  1  0  0  0  0
  4  5  1  0  0  0  0
  4 22  1  0  0  0  0
  4 23  1  0  0  0  0
  5 13  1  0  0  0  0
  5  6  1  0  0  0  0
  5 24  1  0  0  0  0
  6  7  1  0  0  0  0
  6 25  1  0  0  0  0
  6 26  1  0  0  0  0
  7 11  1  0  0  0  0
  7  8  1  0  0  0  0
  8  9  1  0  0  0  0
  8 27  1  0  0  0  0
  8 28  1  0  0  0  0
  9 10  1  0  0  0  0
  9 29  1  0  0  0  0
  9 30  1  0  0  0  0
 10 11  1  0  0  0  0
 10 31  1  0  0  0  0
 10 32  1  0  0  0  0
 11 12  1  0  0  0  0
 11 33  1  0  0  0  0
 12 13  1  0  0  0  0
 12 34  1  0  0  0  0
 12 35  1  0  0  0  0
 14 15  1  0  0  0  0
 14 36  1  0  0  0  0
 15 20  1  0  0  0  0
 15 16  2  0  0  0  0
 16 17  1  0  0  0  0
 16 37  1  0  0  0  0
 17 18  2  0  0  0  0
 17 38  1  0  0  0  0
 18 19  1  0  0  0  0
 18 39  1  0  0  0  0
 19 20  2  0  0  0  0
 20 40  1  0  0  0  0
M  END
> <s_m_source_file>
AV-unprocessed.smi

> <i_m_source_file_index>
618

> <i_lp_mmshare_version>
43012

> <i_f3d_flags>
0

> <s_epik_input>
W2NIXTFuW2NIXVtjSF1bY0hdYzFbTkhdQyg9TylbTkhdW0NIMl1bQ0BIXShbQ0gyXTIpT1tDSDJdW0NAQEhdKE4yMylbQ0gyXVtDSDJdW0NIMl0z

> <s_epik_cmdline>
J2VwaWtfcHl0aG9uJywgJy1waCcsICc3LjAnLCAnLXRuJywgJzgnLCAnLW1hJywgJzIwMCcsICctbWV0YWxfYmluZGluZycsICctaW1hZScsICc8aW5maWxlLm1hZT4nLCAnLW9tYWUnLCAnPG91dGZpbGUubWFlPic=

> <r_epik_Ionization_Penalty>
1.07277

> <r_epik_Ionization_Penalty_Charging>
0

> <r_epik_Ionization_Penalty_Neutral>
1.07277

> <r_epik_State_Penalty>
1.13623

> <r_epik_Charging_Adjusted_Penalty>
1.13623

> <i_epik_Tot_Q>
0

> <i_epik_Tot_abs_Q>
0

> <r_epik_Metal_State_Penalty>
1.13277

> <b_epik_Metal_Only>
0

> <s_lp_Force_Field>
OPLS_2005

> <r_lp_Energy>
50.2081

> <b_lp_Chiralities_Consistent>
1

> <s_lp_Variant>
AV-unprocessed.smi:618-9

> <Gold.Version>
5.8.1

> <Gold.Id.Protein>
6NUR|6NUR_protein|mol2

> <Gold.PLP.Fitness>
48.1373

> <Gold.PLP.PLP>
-37.5521

> <Gold.PLP.part.hbond>
-4.0000

> <Gold.PLP.part.metal>
0.0000

> <Gold.PLP.part.buried>
-3.9630

> <Gold.PLP.part.nonpolar>
-29.9227

> <Gold.PLP.part.repulsive>
0.4108

> <Gold.PLP.ligand.clash>
0.0000

> <Gold.PLP.ligand.torsion>
0.4408

> <Gold.PLP.Chemscore.Hbond>
2.8352

> <Gold.PLP.Chemscore.CHOScore>
0.9862

> <Gold.PLP.Chemscore.Metal>
0.0000

> <Gold.Chemscore.Hbonds>
donor molecule, donor type, donor heavy atom, donor atom, acceptor molecule, acceptor atom, score
      L1  H     3    21       P1  7948  0.98
      L1  H    14    36       P1  7948  1.00
      P1  H  7989  7998       L1    19  0.83
      L1  C    20    40       P1  7957  1.00

> <Gold.PLP.Chemscore.Internal.Correction>
0.0026

> <Gold.Rescore>
     Score         DG    S(hbond)    S(metal)    S(lipo)     H(rot)  DE(clash)    DE(int)     intcor
     15.06     -17.02       1.46        0.00      84.12       1.25       0.02       1.94       ----

> <Gold.Chemscore.Fitness>
15.0594

> <Gold.Chemscore.DG>
-17.0245

> <Gold.Chemscore.ZeroCoef>
-5.4800

> <Gold.Chemscore.Hbond>
1.4648

> <Gold.Chemscore.Metal>
0.0000

> <Gold.Chemscore.Lipo>
84.1220

> <Gold.Chemscore.Internal_Hbond>
0.0000

> <Gold.Chemscore.DEClash>
0.0240

> <Gold.Chemscore.DEInternal>
1.9411

> <Gold.Chemscore.Rot>
1.2461

> <Gold.Chemscore.Internal.Correction>
   9.000000E+99

> <Gold.Chemscore.Hbonds>
donor molecule, donor type, donor heavy atom, donor atom, acceptor molecule, acceptor atom, score
      L1  H     3    21       P1  7948  0.43
      L1  H    14    36       P1  7948  0.60
      P1  H  7989  7998       L1    19  0.47

> <Gold.Chemscore.Hbond.Weighted>
-4.8923

> <Gold.Chemscore.Metal.Weighted>
-0.0000

> <Gold.Chemscore.Lipo.Weighted>
-9.8423

> <Gold.Chemscore.Internal_Hbond.Weighted>
0.0000

> <Gold.Chemscore.DEClash.Weighted>
0.0240

> <Gold.Chemscore.DEInternal.Weighted>
1.9411

> <Gold.Chemscore.Rot.Weighted>
3.1901

> <Gold.Chemscore.Internal.Correction.Weighted>
   9.000000E+99

> <Gold.Protein.RotatedTorsions>
[ 6907 6896 6895 6894 ] final  102.98 input  -60.11 | X-H torsion
[ 7974 7965 7964 7962 ] final  -35.82 input  175.53 | X-H torsion
[ 8008 7997 7996 7995 ] final -145.14 input   59.86 | X-H torsion
[ 10167 10162 10161 10158 ] final  128.25 input  -65.29 | X-H torsion
[ 10718 10713 10712 10709 ] final  147.79 input   66.30 | X-H torsion
[ 10763 10752 10751 10750 ] final  125.14 input  -60.55 | X-H torsion
[ 11005 11000 10999 10996 ] final  114.53 input  -57.11 | X-H torsion

> <Gold.Protein.ActiveResidues>
 VAL166  LYS551  ARG553  GLY616  TRP617  ASP618  TYR619  PRO620  LYS621  CYS622 
 ASP623  PHE694  ASN695  SER759  ASP760  ASP761  ALA762  ILE779  LEU786  VAL792 
 PHE793  MET794  SER795  GLU796  ALA797  LYS798  CYS799  TRP800  GLU811  SER814 

> <Gold.Protein.RotatedAtoms>
  152.5308  133.9894  159.7843 H   0  0  0  0  0  0  0  0  0  0  0  0  # atno 6907 bound_to 6896
  151.0133  133.5937  159.2687 H   0  0  0  0  0  0  0  0  0  0  0  0  # atno 6908 bound_to 6896
  151.3003  135.0773  159.9289 H   0  0  0  0  0  0  0  0  0  0  0  0  # atno 6909 bound_to 6896
  146.0714  140.6205  142.8951 H   0  0  0  0  0  0  0  0  0  0  0  0  # atno 7974 bound_to 7965
  155.5383  140.0606  157.2875 H   0  0  0  0  0  0  0  0  0  0  0  0  # atno 8008 bound_to 7997
  154.4461  140.1924  156.0608 H   0  0  0  0  0  0  0  0  0  0  0  0  # atno 8009 bound_to 7997
  156.0603  140.3273  155.7458 H   0  0  0  0  0  0  0  0  0  0  0  0  # atno 8010 bound_to 7997
  139.5537  144.6832  151.4248 H   0  0  0  0  0  0  0  0  0  0  0  0  # atno 10167 bound_to 10162
  157.3166  131.0897  151.1274 H   0  0  0  0  0  0  0  0  0  0  0  0  # atno 10718 bound_to 10713
  153.6726  135.3328  155.3157 H   0  0  0  0  0  0  0  0  0  0  0  0  # atno 10763 bound_to 10752
  154.8487  135.4390  154.1689 H   0  0  0  0  0  0  0  0  0  0  0  0  # atno 10764 bound_to 10752
  153.2684  135.6998  153.7582 H   0  0  0  0  0  0  0  0  0  0  0  0  # atno 10765 bound_to 10752
  139.8983  134.9569  156.6906 H   0  0  0  0  0  0  0  0  0  0  0  0  # atno 11005 bound_to 11000
  144.7234  140.4446  143.6991 LP  0  0  0  0  0  0  0  0  0  0  0  0  # atno 17320 bound_to 7965
  145.6385  139.1546  143.2929 LP  0  0  0  0  0  0  0  0  0  0  0  0  # atno 17321 bound_to 7965
  140.6805  143.8093  150.7115 LP  0  0  0  0  0  0  0  0  0  0  0  0  # atno 17342 bound_to 10162
  140.1545  143.4329  152.2109 LP  0  0  0  0  0  0  0  0  0  0  0  0  # atno 17343 bound_to 10162
  157.2576  130.6643  149.5959 LP  0  0  0  0  0  0  0  0  0  0  0  0  # atno 17370 bound_to 10713
  155.9682  130.4519  150.5752 LP  0  0  0  0  0  0  0  0  0  0  0  0  # atno 17371 bound_to 10713
  140.7228  133.9126  155.8158 LP  0  0  0  0  0  0  0  0  0  0  0  0  # atno 17394 bound_to 11000
  141.0214  134.0883  157.4116 LP  0  0  0  0  0  0  0  0  0  0  0  0  # atno 17395 bound_to 11000

$$$$
