AV-unprocessed.smi:263|AV-procd|sdf|2004|dock1
  -GOLD-   2262021203D 1   1.00000     0.00000
 Structure written by MMmdl.
 57 61  0  0  0  0  0  0  0  0  1 V2000
  144.4773  135.2870  149.8978 O   0  0  0  0  0  0  0  0  0  0  0  0
  144.5019  134.4677  151.0536 C   0  0  0  0  0  0  0  0  0  0  0  0
  143.9906  135.3119  152.2477 C   0  0  0  0  0  0  0  0  0  0  0  0
  144.9968  136.1849  152.8321 N   0  0  0  0  0  0  0  0  0  0  0  0
  145.0670  137.5548  152.7133 C   0  0  0  0  0  0  0  0  0  0  0  0
  146.0685  138.1163  153.3331 N   0  0  0  0  0  0  0  0  0  0  0  0
  146.7503  137.0519  153.9114 C   0  0  0  0  0  0  0  0  0  0  0  0
  147.9194  136.9440  154.7163 C   0  0  0  0  0  0  0  0  0  0  0  0
  148.6643  138.0208  155.0734 N   0  0  0  0  0  0  0  0  0  0  0  0
  148.8908  138.9846  153.9986 C   0  0  0  0  0  0  0  0  0  0  0  0
  149.3540  140.3390  154.5621 C   0  0  0  0  0  0  0  0  0  0  0  0
  150.5756  140.1946  155.5009 C   0  0  1  0  0  0  0  0  0  0  0  0
  151.6758  139.7892  154.7059 O   0  0  0  0  0  0  0  0  0  0  0  0
  150.9905  141.5386  156.1446 C   0  0  0  0  0  0  0  0  0  0  0  0
  150.0162  142.0067  157.2379 C   0  0  0  0  0  0  0  0  0  0  0  0
  149.8300  140.9231  158.3082 C   0  0  0  0  0  0  0  0  0  0  0  0
  149.3523  139.6052  157.6820 C   0  0  0  0  0  0  0  0  0  0  0  0
  150.3172  139.1080  156.5823 C   0  0  1  0  0  0  0  0  0  0  0  0
  149.8131  137.7918  155.9517 C   0  0  0  0  0  0  0  0  0  0  0  0
  148.2843  135.6989  155.1246 N   0  0  0  0  0  0  0  0  0  0  0  0
  147.5669  134.6316  154.7616 C   0  0  0  0  0  0  0  0  0  0  0  0
  146.4663  134.5827  154.0088 N   0  0  0  0  0  0  0  0  0  0  0  0
  146.0868  135.8295  153.6072 C   0  0  0  0  0  0  0  0  0  0  0  0
  143.5725  133.2605  150.8161 C   0  0  0  0  0  0  0  0  0  0  0  0
  144.1297  132.2987  149.7518 C   0  0  0  0  0  0  0  0  0  0  0  0
  145.4383  131.8781  150.1168 O   0  0  0  0  0  0  0  0  0  0  0  0
  146.3650  132.9558  150.1683 C   0  0  0  0  0  0  0  0  0  0  0  0
  145.9473  133.9626  151.2552 C   0  0  0  0  0  0  0  0  0  0  0  0
  144.9256  134.8357  149.1988 H   0  0  0  0  0  0  0  0  0  0  0  0
  143.1396  135.9236  151.9448 H   0  0  0  0  0  0  0  0  0  0  0  0
  143.6228  134.6541  153.0362 H   0  0  0  0  0  0  0  0  0  0  0  0
  144.3429  138.1292  152.1538 H   0  0  0  0  0  0  0  0  0  0  0  0
  149.6469  138.5821  153.3232 H   0  0  0  0  0  0  0  0  0  0  0  0
  147.9930  139.1349  153.4002 H   0  0  0  0  0  0  0  0  0  0  0  0
  149.5827  141.0204  153.7416 H   0  0  0  0  0  0  0  0  0  0  0  0
  148.5190  140.7879  155.0990 H   0  0  0  0  0  0  0  0  0  0  0  0
  152.4043  139.5986  155.2768 H   0  0  0  0  0  0  0  0  0  0  0  0
  151.9791  141.4348  156.5947 H   0  0  0  0  0  0  0  0  0  0  0  0
  151.0879  142.3109  155.3805 H   0  0  0  0  0  0  0  0  0  0  0  0
  150.3927  142.9199  157.6995 H   0  0  0  0  0  0  0  0  0  0  0  0
  149.0517  142.2631  156.7995 H   0  0  0  0  0  0  0  0  0  0  0  0
  150.7728  140.7593  158.8320 H   0  0  0  0  0  0  0  0  0  0  0  0
  149.1131  141.2599  159.0573 H   0  0  0  0  0  0  0  0  0  0  0  0
  149.2585  138.8476  158.4606 H   0  0  0  0  0  0  0  0  0  0  0  0
  148.3506  139.7430  157.2735 H   0  0  0  0  0  0  0  0  0  0  0  0
  151.2646  138.8900  157.0784 H   0  0  0  0  0  0  0  0  0  0  0  0
  149.5504  137.0861  156.7410 H   0  0  0  0  0  0  0  0  0  0  0  0
  150.6128  137.3312  155.3699 H   0  0  0  0  0  0  0  0  0  0  0  0
  147.9283  133.6805  155.1238 H   0  0  0  0  0  0  0  0  0  0  0  0
  143.4559  132.7075  151.7492 H   0  0  0  0  0  0  0  0  0  0  0  0
  142.5737  133.5949  150.5326 H   0  0  0  0  0  0  0  0  0  0  0  0
  143.4895  131.4200  149.6731 H   0  0  0  0  0  0  0  0  0  0  0  0
  144.1451  132.7665  148.7662 H   0  0  0  0  0  0  0  0  0  0  0  0
  147.3543  132.5571  150.3921 H   0  0  0  0  0  0  0  0  0  0  0  0
  146.4340  133.4370  149.1915 H   0  0  0  0  0  0  0  0  0  0  0  0
  146.6521  134.7949  151.2700 H   0  0  0  0  0  0  0  0  0  0  0  0
  146.0259  133.4764  152.2281 H   0  0  0  0  0  0  0  0  0  0  0  0
  1  2  1  0  0  0  0
  1 29  1  0  0  0  0
  2 28  1  0  0  0  0
  2  3  1  0  0  0  0
  2 24  1  0  0  0  0
  3  4  1  0  0  0  0
  3 30  1  0  0  0  0
  3 31  1  0  0  0  0
  4 23  1  0  0  0  0
  4  5  1  0  0  0  0
  5  6  2  0  0  0  0
  5 32  1  0  0  0  0
  6  7  1  0  0  0  0
  7 23  2  0  0  0  0
  7  8  1  0  0  0  0
  8  9  1  0  0  0  0
  8 20  2  0  0  0  0
  9 19  1  0  0  0  0
  9 10  1  0  0  0  0
 10 11  1  0  0  0  0
 10 33  1  0  0  0  0
 10 34  1  0  0  0  0
 11 12  1  0  0  0  0
 11 35  1  0  0  0  0
 11 36  1  0  0  0  0
 12 18  1  0  0  0  0
 12 13  1  0  0  0  0
 12 14  1  0  0  0  0
 13 37  1  0  0  0  0
 14 15  1  0  0  0  0
 14 38  1  0  0  0  0
 14 39  1  0  0  0  0
 15 16  1  0  0  0  0
 15 40  1  0  0  0  0
 15 41  1  0  0  0  0
 16 17  1  0  0  0  0
 16 42  1  0  0  0  0
 16 43  1  0  0  0  0
 17 18  1  0  0  0  0
 17 44  1  0  0  0  0
 17 45  1  0  0  0  0
 18 19  1  0  0  0  0
 18 46  1  0  0  0  0
 19 47  1  0  0  0  0
 19 48  1  0  0  0  0
 20 21  1  0  0  0  0
 21 22  2  0  0  0  0
 21 49  1  0  0  0  0
 22 23  1  0  0  0  0
 24 25  1  0  0  0  0
 24 50  1  0  0  0  0
 24 51  1  0  0  0  0
 25 26  1  0  0  0  0
 25 52  1  0  0  0  0
 25 53  1  0  0  0  0
 26 27  1  0  0  0  0
 27 28  1  0  0  0  0
 27 54  1  0  0  0  0
 27 55  1  0  0  0  0
 28 56  1  0  0  0  0
 28 57  1  0  0  0  0
M  END
> <s_m_source_file>
AV-unprocessed.smi

> <i_m_source_file_index>
263

> <i_lp_mmshare_version>
43012

> <i_f3d_flags>
0

> <s_epik_input>
W0NIMl0xW0NIMl1PW0NIMl1bQ0gyXUMxKFtPSF0pW0NIMl1uKFtjSF1uMiljKGMyMyluW2NIXW5jM04oW0NIMl1bQ0gyXTQpW0NIMl1bQ0BASF0oW0NAXTQ1W09IXSlbQ0gyXVtDSDJdW0NIMl1bQ0gyXTU=

> <s_epik_cmdline>
J2VwaWtfcHl0aG9uJywgJy1waCcsICc3LjAnLCAnLXRuJywgJzgnLCAnLW1hJywgJzIwMCcsICctbWV0YWxfYmluZGluZycsICctaW1hZScsICc8aW5maWxlLm1hZT4nLCAnLW9tYWUnLCAnPG91dGZpbGUubWFlPic=

> <r_lp_tautomer_probability>
1

> <r_epik_Ionization_Penalty>
0.00747493

> <r_epik_Ionization_Penalty_Charging>
0

> <r_epik_Ionization_Penalty_Neutral>
0.00747493

> <r_epik_State_Penalty>
0.00549307

> <r_epik_Charging_Adjusted_Penalty>
0.00549307

> <i_epik_Tot_Q>
0

> <i_epik_Tot_abs_Q>
0

> <r_epik_Metal_State_Penalty>
-0

> <b_epik_Metal_Only>
0

> <s_lp_Force_Field>
OPLS_2005

> <r_lp_Energy>
40.0531

> <b_lp_Chiralities_Consistent>
1

> <s_lp_Variant>
AV-unprocessed.smi:263-2

> <Gold.Version>
5.8.1

> <Gold.Id.Protein>
6NUR|6NUR_protein|mol2

> <Gold.PLP.Fitness>
45.5905

> <Gold.PLP.PLP>
-34.5525

> <Gold.PLP.part.hbond>
-1.9789

> <Gold.PLP.part.metal>
0.0000

> <Gold.PLP.part.buried>
-2.2684

> <Gold.PLP.part.nonpolar>
-29.6498

> <Gold.PLP.part.repulsive>
0.6215

> <Gold.PLP.ligand.clash>
0.0000

> <Gold.PLP.ligand.torsion>
0.6776

> <Gold.PLP.Chemscore.Hbond>
2.0000

> <Gold.PLP.Chemscore.CHOScore>
2.0000

> <Gold.PLP.Chemscore.Metal>
0.0000

> <Gold.Chemscore.Hbonds>
donor molecule, donor type, donor heavy atom, donor atom, acceptor molecule, acceptor atom, score
      L1  H     1    29       P1  7921  1.00
      P1  H  7989  7998       L1    13  1.00
      L1  C     5    32       P1 10171  1.00
      L1  C     5    32       P1 10175  0.99

> <Gold.PLP.Chemscore.Internal.Correction>
0.3932

> <Gold.Rescore>
     Score         DG    S(hbond)    S(metal)    S(lipo)     H(rot)  DE(clash)    DE(int)     intcor
     11.46     -15.23       1.91        0.00      86.16       2.62       0.11       3.66       ----

> <Gold.Chemscore.Fitness>
11.4572

> <Gold.Chemscore.DG>
-15.2280

> <Gold.Chemscore.ZeroCoef>
-5.4800

> <Gold.Chemscore.Hbond>
1.9110

> <Gold.Chemscore.Metal>
0.0000

> <Gold.Chemscore.Lipo>
86.1613

> <Gold.Chemscore.Internal_Hbond>
0.0000

> <Gold.Chemscore.DEClash>
0.1077

> <Gold.Chemscore.DEInternal>
3.6632

> <Gold.Chemscore.Rot>
2.6232

> <Gold.Chemscore.Internal.Correction>
   9.000000E+99

> <Gold.Chemscore.Hbonds>
donor molecule, donor type, donor heavy atom, donor atom, acceptor molecule, acceptor atom, score
      L1  H     1    29       P1  7921  0.93
      P1  H  7989  7998       L1    13  0.38

> <Gold.Chemscore.Hbond.Weighted>
-6.3826

> <Gold.Chemscore.Metal.Weighted>
-0.0000

> <Gold.Chemscore.Lipo.Weighted>
-10.0809

> <Gold.Chemscore.Internal_Hbond.Weighted>
0.0000

> <Gold.Chemscore.DEClash.Weighted>
0.1077

> <Gold.Chemscore.DEInternal.Weighted>
3.6632

> <Gold.Chemscore.Rot.Weighted>
6.7155

> <Gold.Chemscore.Internal.Correction.Weighted>
   9.000000E+99

> <Gold.Protein.RotatedTorsions>
[ 6907 6896 6895 6894 ] final   94.36 input  -60.11 | X-H torsion
[ 7974 7965 7964 7962 ] final  171.43 input  175.53 | X-H torsion
[ 8008 7997 7996 7995 ] final  177.69 input   59.86 | X-H torsion
[ 10167 10162 10161 10158 ] final   53.06 input  -65.29 | X-H torsion
[ 10718 10713 10712 10709 ] final  172.52 input   66.30 | X-H torsion
[ 10763 10752 10751 10750 ] final  107.29 input  -60.55 | X-H torsion
[ 11005 11000 10999 10996 ] final   83.42 input  -57.11 | X-H torsion

> <Gold.Protein.ActiveResidues>
 VAL166  LYS551  ARG553  GLY616  TRP617  ASP618  TYR619  PRO620  LYS621  CYS622 
 ASP623  PHE694  ASN695  SER759  ASP760  ASP761  ALA762  ILE779  LEU786  VAL792 
 PHE793  MET794  SER795  GLU796  ALA797  LYS798  CYS799  TRP800  GLU811  SER814 

> <Gold.Protein.RotatedAtoms>
  152.5450  134.1206  159.8396 H   0  0  0  0  0  0  0  0  0  0  0  0  # atno 6907 bound_to 6896
  151.1262  133.5062  159.2608 H   0  0  0  0  0  0  0  0  0  0  0  0  # atno 6908 bound_to 6896
  151.1725  135.0334  159.8812 H   0  0  0  0  0  0  0  0  0  0  0  0  # atno 6909 bound_to 6896
  144.7295  139.9348  143.6426 H   0  0  0  0  0  0  0  0  0  0  0  0  # atno 7974 bound_to 7965
  156.0629  140.1352  156.9920 H   0  0  0  0  0  0  0  0  0  0  0  0  # atno 8008 bound_to 7997
  154.4491  140.0987  156.6615 H   0  0  0  0  0  0  0  0  0  0  0  0  # atno 8009 bound_to 7997
  155.5349  140.3459  155.4436 H   0  0  0  0  0  0  0  0  0  0  0  0  # atno 8010 bound_to 7997
  140.2448  144.3544  150.6368 H   0  0  0  0  0  0  0  0  0  0  0  0  # atno 10167 bound_to 10162
  156.9777  131.0109  151.2889 H   0  0  0  0  0  0  0  0  0  0  0  0  # atno 10718 bound_to 10713
  153.4047  135.3849  155.2011 H   0  0  0  0  0  0  0  0  0  0  0  0  # atno 10763 bound_to 10752
  154.8732  135.3780  154.4575 H   0  0  0  0  0  0  0  0  0  0  0  0  # atno 10764 bound_to 10752
  153.5076  135.7087  153.5860 H   0  0  0  0  0  0  0  0  0  0  0  0  # atno 10765 bound_to 10752
  139.9032  134.8143  156.2306 H   0  0  0  0  0  0  0  0  0  0  0  0  # atno 11005 bound_to 11000
  146.0830  139.3818  143.0453 LP  0  0  0  0  0  0  0  0  0  0  0  0  # atno 17320 bound_to 7965
  145.7815  140.9854  143.1096 LP  0  0  0  0  0  0  0  0  0  0  0  0  # atno 17321 bound_to 7965
  140.6086  143.2168  151.6931 LP  0  0  0  0  0  0  0  0  0  0  0  0  # atno 17342 bound_to 10162
  139.5065  144.3678  152.0500 LP  0  0  0  0  0  0  0  0  0  0  0  0  # atno 17343 bound_to 10162
  157.5548  130.8206  149.8190 LP  0  0  0  0  0  0  0  0  0  0  0  0  # atno 17370 bound_to 10713
  156.0257  130.3780  150.1831 LP  0  0  0  0  0  0  0  0  0  0  0  0  # atno 17371 bound_to 10713
  141.0347  133.6969  156.1492 LP  0  0  0  0  0  0  0  0  0  0  0  0  # atno 17394 bound_to 11000
  140.7044  134.4529  157.5585 LP  0  0  0  0  0  0  0  0  0  0  0  0  # atno 17395 bound_to 11000

$$$$
