AV-unprocessed.smi:3025|AV-procd|sdf|11505|dock6
  -GOLD-   2272016443D 1   1.00000     0.00000
 Structure written by MMmdl.
 42 43  0  0  0  0  0  0  0  0  2 V2000
  151.7735  143.3729  158.5081 C   0  0  0  0  0  0  0  0  0  0  0  0
  150.7074  142.6662  157.6640 C   0  0  0  0  0  0  0  0  0  0  0  0
  151.1254  141.2420  157.2604 C   0  0  0  0  0  0  0  0  0  0  0  0
  150.5287  140.7658  155.9196 C   0  0  2  0  0  0  0  0  0  0  0  0
  149.0269  141.0975  155.7852 C   0  0  0  0  0  0  0  0  0  0  0  0
  148.4475  140.6002  154.4505 C   0  0  0  0  0  0  0  0  0  0  0  0
  148.6763  139.0867  154.2586 C   0  0  1  0  0  0  0  0  0  0  0  0
  148.1756  138.6231  152.9454 N   0  3  0  0  0  0  0  0  0  0  0  0
  146.7224  138.7861  152.7310 C   0  0  0  0  0  0  0  0  0  0  0  0
  145.9395  137.6272  153.3623 C   0  0  0  0  0  0  0  0  0  0  0  0
  145.7193  136.5006  152.4066 C   0  0  0  0  0  0  0  0  0  0  0  0
  145.1597  136.6773  151.2081 N   0  0  0  0  0  0  0  0  0  0  0  0
  145.0736  135.4875  150.5773 N   0  0  0  0  0  0  0  0  0  0  0  0
  145.6043  134.6572  151.4731 C   0  0  0  0  0  0  0  0  0  0  0  0
  146.0243  135.2292  152.6418 N   0  0  0  0  0  0  0  0  0  0  0  0
  150.1745  138.7592  154.3898 C   0  0  0  0  0  0  0  0  0  0  0  0
  150.7447  139.2511  155.7295 C   0  0  0  0  0  0  0  0  0  0  0  0
  144.8389  137.5427  150.7973 H   0  0  0  0  0  0  0  0  0  0  0  0
  151.4502  144.3780  158.7800 H   0  0  0  0  0  0  0  0  0  0  0  0
  152.7130  143.4628  157.9624 H   0  0  0  0  0  0  0  0  0  0  0  0
  151.9714  142.8267  159.4307 H   0  0  0  0  0  0  0  0  0  0  0  0
  149.7760  142.6402  158.2290 H   0  0  0  0  0  0  0  0  0  0  0  0
  150.5109  143.2583  156.7696 H   0  0  0  0  0  0  0  0  0  0  0  0
  152.2136  141.2161  157.1882 H   0  0  0  0  0  0  0  0  0  0  0  0
  150.8606  140.5410  158.0531 H   0  0  0  0  0  0  0  0  0  0  0  0
  151.0634  141.2771  155.1174 H   0  0  0  0  0  0  0  0  0  0  0  0
  148.4744  140.6479  156.6115 H   0  0  0  0  0  0  0  0  0  0  0  0
  148.8655  142.1728  155.8566 H   0  0  0  0  0  0  0  0  0  0  0  0
  147.3840  140.8358  154.4208 H   0  0  0  0  0  0  0  0  0  0  0  0
  148.9082  141.1512  153.6291 H   0  0  0  0  0  0  0  0  0  0  0  0
  148.1434  138.5418  155.0398 H   0  0  0  0  0  0  0  0  0  0  0  0
  148.6783  139.1083  152.2159 H   0  0  0  0  0  0  0  0  0  0  0  0
  146.3997  139.7325  153.1674 H   0  0  0  0  0  0  0  0  0  0  0  0
  146.5067  138.8319  151.6636 H   0  0  0  0  0  0  0  0  0  0  0  0
  146.4696  137.2491  154.2378 H   0  0  0  0  0  0  0  0  0  0  0  0
  144.9679  137.9771  153.7135 H   0  0  0  0  0  0  0  0  0  0  0  0
  145.6897  133.5979  151.2797 H   0  0  0  0  0  0  0  0  0  0  0  0
  150.3309  137.6834  154.3018 H   0  0  0  0  0  0  0  0  0  0  0  0
  150.7293  139.2196  153.5708 H   0  0  0  0  0  0  0  0  0  0  0  0
  151.8091  139.0171  155.7755 H   0  0  0  0  0  0  0  0  0  0  0  0
  150.2743  138.7049  156.5485 H   0  0  0  0  0  0  0  0  0  0  0  0
  148.3800  137.6366  152.8722 H   0  0  0  0  0  0  0  0  0  0  0  0
  1  2  1  0  0  0  0
  1 19  1  0  0  0  0
  1 20  1  0  0  0  0
  1 21  1  0  0  0  0
  2  3  1  0  0  0  0
  2 22  1  0  0  0  0
  2 23  1  0  0  0  0
  3  4  1  0  0  0  0
  3 24  1  0  0  0  0
  3 25  1  0  0  0  0
  4 17  1  0  0  0  0
  4  5  1  0  0  0  0
  4 26  1  0  0  0  0
  5  6  1  0  0  0  0
  5 27  1  0  0  0  0
  5 28  1  0  0  0  0
  6  7  1  0  0  0  0
  6 29  1  0  0  0  0
  6 30  1  0  0  0  0
  7  8  1  0  0  0  0
  7 16  1  0  0  0  0
  7 31  1  0  0  0  0
  8  9  1  0  0  0  0
  8 32  1  0  0  0  0
  8 42  1  0  0  0  0
  9 10  1  0  0  0  0
  9 33  1  0  0  0  0
  9 34  1  0  0  0  0
 10 35  1  0  0  0  0
 10 36  1  0  0  0  0
 10 11  1  0  0  0  0
 11 15  2  0  0  0  0
 11 12  1  0  0  0  0
 12 18  1  0  0  0  0
 12 13  1  0  0  0  0
 13 14  2  0  0  0  0
 14 15  1  0  0  0  0
 14 37  1  0  0  0  0
 16 17  1  0  0  0  0
 16 38  1  0  0  0  0
 16 39  1  0  0  0  0
 17 40  1  0  0  0  0
 17 41  1  0  0  0  0
M  CHG  1   8   1
M  END
> <s_m_source_file>
AV-unprocessed.smi

> <i_m_source_file_index>
3025

> <i_lp_mmshare_version>
43012

> <i_f3d_flags>
0

> <s_epik_input>
W0NIM11bQ0gyXVtDSDJdW0NAQEhdMVtDSDJdW0NIMl1bQ0BIXShbQ0gyXVtDSDJdMSlbTkhdW0NIMl1bQ0gyXWMybm5bY0hdW25IXTI=

> <s_epik_cmdline>
J2VwaWtfcHl0aG9uJywgJy1waCcsICc3LjAnLCAnLXRuJywgJzgnLCAnLW1hJywgJzIwMCcsICctbWV0YWxfYmluZGluZycsICctaW1hZScsICc8aW5maWxlLm1hZT4nLCAnLW9tYWUnLCAnPG91dGZpbGUubWFlPic=

> <r_lp_tautomer_probability>
0.948284

> <r_epik_Ionization_Penalty>
0.0093758

> <r_epik_Ionization_Penalty_Charging>
0.000546397

> <r_epik_Ionization_Penalty_Neutral>
0.00882941

> <r_epik_State_Penalty>
0.401098

> <r_epik_Charging_Adjusted_Penalty>
0.401645

> <i_epik_Tot_Q>
1

> <i_epik_Tot_abs_Q>
1

> <r_epik_Metal_State_Penalty>
0.634803

> <b_epik_Metal_Only>
0

> <s_lp_Force_Field>
OPLS_2005

> <r_lp_Energy>
13.6193

> <b_lp_Chiralities_Consistent>
1

> <s_lp_Variant>
AV-unprocessed.smi:3025-1

> <Gold.Version>
5.8.1

> <Gold.Id.Protein>
6NUR|6NUR_protein|mol2

> <Gold.PLP.Fitness>
44.8279

> <Gold.PLP.PLP>
-34.2891

> <Gold.PLP.part.hbond>
-2.7174

> <Gold.PLP.part.metal>
0.0000

> <Gold.PLP.part.buried>
-5.7717

> <Gold.PLP.part.nonpolar>
-27.9882

> <Gold.PLP.part.repulsive>
0.5214

> <Gold.PLP.ligand.clash>
0.0000

> <Gold.PLP.ligand.torsion>
0.6427

> <Gold.PLP.Chemscore.Hbond>
3.9103

> <Gold.PLP.Chemscore.CHOScore>
0.0000

> <Gold.PLP.Chemscore.Metal>
0.0000

> <Gold.Chemscore.Hbonds>
donor molecule, donor type, donor heavy atom, donor atom, acceptor molecule, acceptor atom, score
      L1  H     8    32       P1  7957  1.00
      L1  H     8    42       P1  7948  1.92
      L1  H    12    18       P1 10171  1.00

> <Gold.PLP.Chemscore.Internal.Correction>
0.0934

> <Gold.Rescore>
     Score         DG    S(hbond)    S(metal)    S(lipo)     H(rot)  DE(clash)    DE(int)     intcor
     17.15     -17.97       2.90        0.00      79.98       2.56       0.15       0.68       ----

> <Gold.Chemscore.Fitness>
17.1452

> <Gold.Chemscore.DG>
-17.9671

> <Gold.Chemscore.ZeroCoef>
-5.4800

> <Gold.Chemscore.Hbond>
2.8991

> <Gold.Chemscore.Metal>
0.0000

> <Gold.Chemscore.Lipo>
79.9847

> <Gold.Chemscore.Internal_Hbond>
0.0000

> <Gold.Chemscore.DEClash>
0.1458

> <Gold.Chemscore.DEInternal>
0.6761

> <Gold.Chemscore.Rot>
2.5602

> <Gold.Chemscore.Internal.Correction>
   9.000000E+99

> <Gold.Chemscore.Hbonds>
donor molecule, donor type, donor heavy atom, donor atom, acceptor molecule, acceptor atom, score
      L1  H     8    32       P1  7957  0.99
      L1  H     8    42       P1  7948  0.92
      L1  H    12    18       P1 10171  0.99

> <Gold.Chemscore.Hbond.Weighted>
-9.6831

> <Gold.Chemscore.Metal.Weighted>
-0.0000

> <Gold.Chemscore.Lipo.Weighted>
-9.3582

> <Gold.Chemscore.Internal_Hbond.Weighted>
0.0000

> <Gold.Chemscore.DEClash.Weighted>
0.1458

> <Gold.Chemscore.DEInternal.Weighted>
0.6761

> <Gold.Chemscore.Rot.Weighted>
6.5542

> <Gold.Chemscore.Internal.Correction.Weighted>
   9.000000E+99

> <Gold.Protein.RotatedTorsions>
[ 6907 6896 6895 6894 ] final   61.61 input  -60.11 | X-H torsion
[ 7974 7965 7964 7962 ] final  109.40 input  175.53 | X-H torsion
[ 8008 7997 7996 7995 ] final  -14.90 input   59.86 | X-H torsion
[ 10167 10162 10161 10158 ] final  -51.49 input  -65.29 | X-H torsion
[ 10718 10713 10712 10709 ] final -127.73 input   66.30 | X-H torsion
[ 10763 10752 10751 10750 ] final   42.10 input  -60.55 | X-H torsion
[ 11005 11000 10999 10996 ] final   -4.04 input  -57.11 | X-H torsion

> <Gold.Protein.ActiveResidues>
 VAL166  LYS551  ARG553  GLY616  TRP617  ASP618  TYR619  PRO620  LYS621  CYS622 
 ASP623  PHE694  ASN695  SER759  ASP760  ASP761  ALA762  ILE779  LEU786  VAL792 
 PHE793  MET794  SER795  GLU796  ALA797  LYS798  CYS799  TRP800  GLU811  SER814 

> <Gold.Protein.RotatedAtoms>
  152.4103  134.6136  160.0031 H   0  0  0  0  0  0  0  0  0  0  0  0  # atno 6907 bound_to 6896
  151.6315  133.3326  159.3118 H   0  0  0  0  0  0  0  0  0  0  0  0  # atno 6908 bound_to 6896
  150.7994  134.7118  159.6653 H   0  0  0  0  0  0  0  0  0  0  0  0  # atno 6909 bound_to 6896
  145.2682  139.2676  143.3980 H   0  0  0  0  0  0  0  0  0  0  0  0  # atno 7974 bound_to 7965
  154.5173  140.2211  155.9041 H   0  0  0  0  0  0  0  0  0  0  0  0  # atno 8008 bound_to 7997
  156.1622  140.3139  155.8793 H   0  0  0  0  0  0  0  0  0  0  0  0  # atno 8009 bound_to 7997
  155.3728  140.0467  157.3036 H   0  0  0  0  0  0  0  0  0  0  0  0  # atno 8010 bound_to 7997
  140.6586  143.2618  151.4511 H   0  0  0  0  0  0  0  0  0  0  0  0  # atno 10167 bound_to 10162
  156.1884  130.6779  151.0394 H   0  0  0  0  0  0  0  0  0  0  0  0  # atno 10718 bound_to 10713
  152.9891  135.6142  154.2894 H   0  0  0  0  0  0  0  0  0  0  0  0  # atno 10763 bound_to 10752
  154.2620  135.2782  155.2776 H   0  0  0  0  0  0  0  0  0  0  0  0  # atno 10764 bound_to 10752
  154.5197  135.5818  153.6728 H   0  0  0  0  0  0  0  0  0  0  0  0  # atno 10765 bound_to 10752
  140.6759  133.9195  155.8524 H   0  0  0  0  0  0  0  0  0  0  0  0  # atno 11005 bound_to 11000
  146.3254  140.3118  142.8627 LP  0  0  0  0  0  0  0  0  0  0  0  0  # atno 17320 bound_to 7965
  144.9358  140.8025  143.5661 LP  0  0  0  0  0  0  0  0  0  0  0  0  # atno 17321 bound_to 7965
  139.5814  144.1702  152.1972 LP  0  0  0  0  0  0  0  0  0  0  0  0  # atno 17342 bound_to 10162
  140.1028  144.5524  150.6977 LP  0  0  0  0  0  0  0  0  0  0  0  0  # atno 17343 bound_to 10162
  157.6914  131.0809  150.7097 LP  0  0  0  0  0  0  0  0  0  0  0  0  # atno 17370 bound_to 10713
  156.7154  130.4664  149.5536 LP  0  0  0  0  0  0  0  0  0  0  0  0  # atno 17371 bound_to 10713
  141.0355  134.0695  157.3964 LP  0  0  0  0  0  0  0  0  0  0  0  0  # atno 17394 bound_to 11000
  139.8967  135.0147  156.7063 LP  0  0  0  0  0  0  0  0  0  0  0  0  # atno 17395 bound_to 11000

$$$$
