AV-unprocessed.smi:1672|AV-procd|sdf|6706|dock10
  -GOLD-   22720 7453D 1   1.00000     0.00000
 Structure written by MMmdl.
 49 51  0  0  0  0  0  0  0  0  3 V2000
  148.5818  133.3730  155.8011 C   0  0  0  0  0  0  0  0  0  0  0  0
  149.3007  134.7294  155.7830 C   0  0  2  0  0  0  0  0  0  0  0  0
  148.3285  135.8853  155.4934 C   0  0  0  0  0  0  0  0  0  0  0  0
  149.0634  137.2354  155.4425 C   0  0  0  0  0  0  0  0  0  0  0  0
  150.1551  137.2136  154.4354 N   0  3  1  0  0  0  0  0  0  0  0  0
  150.7869  138.5465  154.2571 C   0  0  0  0  0  0  0  0  0  0  0  0
  151.8562  138.8439  155.3270 C   0  0  1  0  0  0  0  0  0  0  0  0
  152.7016  139.8695  154.8457 O   0  0  0  0  0  0  0  0  0  0  0  0
  151.2210  139.2919  156.6586 C   0  0  0  0  0  0  0  0  0  0  0  0
  151.0488  140.7514  156.7540 N   0  0  0  0  0  0  0  0  0  0  0  0
  150.3806  141.6270  155.9456 C   0  0  0  0  0  0  0  0  0  0  0  0
  149.6257  141.3130  154.6954 C   0  0  0  0  0  0  0  0  0  0  0  0
  149.0163  142.4548  154.1358 O   0  0  0  0  0  0  0  0  0  0  0  0
  150.5346  142.8698  156.4836 N   0  3  0  0  0  0  0  0  0  0  0  0
  151.2976  142.7910  157.6487 C   0  0  0  0  0  0  0  0  0  0  0  0
  151.7120  143.7799  158.5354 C   0  0  0  0  0  0  0  0  0  0  0  0
  152.4845  143.3581  159.6374 C   0  0  0  0  0  0  0  0  0  0  0  0
  152.8169  142.0005  159.8246 C   0  0  0  0  0  0  0  0  0  0  0  0
  152.3918  141.0070  158.9178 C   0  0  0  0  0  0  0  0  0  0  0  0
  151.6287  141.4327  157.8307 C   0  0  0  0  0  0  0  0  0  0  0  0
  151.1332  136.1293  154.7175 C   0  0  0  0  0  0  0  0  0  0  0  0
  150.4415  134.7562  154.7515 C   0  0  0  0  0  0  0  0  0  0  0  0
  148.1239  133.1520  154.8363 H   0  0  0  0  0  0  0  0  0  0  0  0
  147.7934  133.3571  156.5543 H   0  0  0  0  0  0  0  0  0  0  0  0
  149.2748  132.5636  156.0331 H   0  0  0  0  0  0  0  0  0  0  0  0
  149.7330  134.8889  156.7721 H   0  0  0  0  0  0  0  0  0  0  0  0
  147.8192  135.7128  154.5439 H   0  0  0  0  0  0  0  0  0  0  0  0
  147.5512  135.9203  156.2579 H   0  0  0  0  0  0  0  0  0  0  0  0
  148.3472  138.0197  155.1940 H   0  0  0  0  0  0  0  0  0  0  0  0
  149.4748  137.4800  156.4233 H   0  0  0  0  0  0  0  0  0  0  0  0
  151.2606  138.6020  153.2754 H   0  0  0  0  0  0  0  0  0  0  0  0
  150.0128  139.3154  154.2633 H   0  0  0  0  0  0  0  0  0  0  0  0
  152.4673  137.9612  155.5100 H   0  0  0  0  0  0  0  0  0  0  0  0
  153.1948  140.2209  155.5720 H   0  0  0  0  0  0  0  0  0  0  0  0
  150.2432  138.8273  156.7871 H   0  0  0  0  0  0  0  0  0  0  0  0
  151.8250  138.9643  157.5056 H   0  0  0  0  0  0  0  0  0  0  0  0
  150.2934  140.8629  153.9612 H   0  0  0  0  0  0  0  0  0  0  0  0
  148.8542  140.5748  154.9163 H   0  0  0  0  0  0  0  0  0  0  0  0
  149.2428  143.2061  154.6631 H   0  0  0  0  0  0  0  0  0  0  0  0
  151.4577  144.8204  158.3951 H   0  0  0  0  0  0  0  0  0  0  0  0
  152.8276  144.0904  160.3540 H   0  0  0  0  0  0  0  0  0  0  0  0
  153.4100  141.7155  160.6818 H   0  0  0  0  0  0  0  0  0  0  0  0
  152.6513  139.9703  159.0720 H   0  0  0  0  0  0  0  0  0  0  0  0
  151.9128  136.1109  153.9571 H   0  0  0  0  0  0  0  0  0  0  0  0
  151.6285  136.3228  155.6703 H   0  0  0  0  0  0  0  0  0  0  0  0
  151.1740  133.9828  154.9852 H   0  0  0  0  0  0  0  0  0  0  0  0
  150.0511  134.5216  153.7599 H   0  0  0  0  0  0  0  0  0  0  0  0
  149.7147  136.9939  153.5527 H   0  0  0  0  0  0  0  0  0  0  0  0
  150.1431  143.7111  156.0790 H   0  0  0  0  0  0  0  0  0  0  0  0
  1  2  1  0  0  0  0
  1 23  1  0  0  0  0
  1 24  1  0  0  0  0
  1 25  1  0  0  0  0
  2 22  1  0  0  0  0
  2  3  1  0  0  0  0
  2 26  1  0  0  0  0
  3  4  1  0  0  0  0
  3 27  1  0  0  0  0
  3 28  1  0  0  0  0
  4  5  1  0  0  0  0
  4 29  1  0  0  0  0
  4 30  1  0  0  0  0
  5  6  1  0  0  0  0
  5 21  1  0  0  0  0
  5 48  1  0  0  0  0
  6  7  1  0  0  0  0
  6 31  1  0  0  0  0
  6 32  1  0  0  0  0
  7  8  1  0  0  0  0
  7  9  1  0  0  0  0
  7 33  1  0  0  0  0
  8 34  1  0  0  0  0
  9 10  1  0  0  0  0
  9 35  1  0  0  0  0
  9 36  1  0  0  0  0
 10 20  1  0  0  0  0
 10 11  1  0  0  0  0
 11 12  1  0  0  0  0
 11 14  2  0  0  0  0
 12 13  1  0  0  0  0
 12 37  1  0  0  0  0
 12 38  1  0  0  0  0
 13 39  1  0  0  0  0
 14 15  1  0  0  0  0
 14 49  1  0  0  0  0
 15 20  2  0  0  0  0
 15 16  1  0  0  0  0
 16 17  2  0  0  0  0
 16 40  1  0  0  0  0
 17 18  1  0  0  0  0
 17 41  1  0  0  0  0
 18 19  2  0  0  0  0
 18 42  1  0  0  0  0
 19 20  1  0  0  0  0
 19 43  1  0  0  0  0
 21 22  1  0  0  0  0
 21 44  1  0  0  0  0
 21 45  1  0  0  0  0
 22 46  1  0  0  0  0
 22 47  1  0  0  0  0
M  CHG  1   5   1
M  CHG  1  14   1
M  END
> <s_m_source_file>
AV-unprocessed.smi

> <i_m_source_file_index>
1672

> <i_lp_mmshare_version>
43012

> <i_f3d_flags>
0

> <s_epik_input>
W0NIM11bQ0hdMVtDSDJdW0NIMl1OKFtDSDJdW0NIMl0xKVtDSDJdW0NASF0oW09IXSlbQ0gyXW4oYyhuMilbQ0gyXVtPSF0pYyhjMjMpW2NIXVtjSF1bY0hdW2NIXTM=

> <s_epik_cmdline>
J2VwaWtfcHl0aG9uJywgJy1waCcsICc3LjAnLCAnLXRuJywgJzgnLCAnLW1hJywgJzIwMCcsICctbWV0YWxfYmluZGluZycsICctaW1hZScsICc8aW5maWxlLm1hZT4nLCAnLW9tYWUnLCAnPG91dGZpbGUubWFlPic=

> <r_epik_Ionization_Penalty>
1.51642

> <r_epik_Ionization_Penalty_Charging>
1.51557

> <r_epik_Ionization_Penalty_Neutral>
0.000856474

> <r_epik_State_Penalty>
1.6048

> <r_epik_Charging_Adjusted_Penalty>
3.12037

> <i_epik_Tot_Q>
2

> <i_epik_Tot_abs_Q>
2

> <r_epik_Metal_State_Penalty>
5.65673

> <b_epik_Metal_Only>
0

> <s_lp_Force_Field>
OPLS_2005

> <r_lp_Energy>
28.534

> <b_lp_Chiralities_Consistent>
1

> <s_lp_Variant>
AV-unprocessed.smi:1672-6

> <Gold.Version>
5.8.1

> <Gold.Id.Protein>
6NUR|6NUR_protein|mol2

> <Gold.PLP.Fitness>
59.8002

> <Gold.PLP.PLP>
-44.3238

> <Gold.PLP.part.hbond>
-4.9868

> <Gold.PLP.part.metal>
0.0000

> <Gold.PLP.part.buried>
-4.3928

> <Gold.PLP.part.nonpolar>
-35.0244

> <Gold.PLP.part.repulsive>
0.0963

> <Gold.PLP.ligand.clash>
0.0000

> <Gold.PLP.ligand.torsion>
0.7556

> <Gold.PLP.Chemscore.Hbond>
5.6513

> <Gold.PLP.Chemscore.CHOScore>
0.0000

> <Gold.PLP.Chemscore.Metal>
0.0000

> <Gold.Chemscore.Hbonds>
donor molecule, donor type, donor heavy atom, donor atom, acceptor molecule, acceptor atom, score
      L1  H     5    48       P1  7948  2.00
      L1  H    13    39       P1  8028  1.00
      L1  H    14    49       P1  8028  2.00
      P1  H  7989  7998       L1     8  0.48
      P1  H  8011  8017       L1    13  0.14

> <Gold.PLP.Chemscore.Internal.Correction>
0.0336

> <Gold.Rescore>
     Score         DG    S(hbond)    S(metal)    S(lipo)     H(rot)  DE(clash)    DE(int)     intcor
     20.70     -22.85       3.62        0.00     109.77       2.96       0.18       1.98       ----

> <Gold.Chemscore.Fitness>
20.6986

> <Gold.Chemscore.DG>
-22.8522

> <Gold.Chemscore.ZeroCoef>
-5.4800

> <Gold.Chemscore.Hbond>
3.6214

> <Gold.Chemscore.Metal>
0.0000

> <Gold.Chemscore.Lipo>
109.7666

> <Gold.Chemscore.Internal_Hbond>
0.0000

> <Gold.Chemscore.DEClash>
0.1775

> <Gold.Chemscore.DEInternal>
1.9761

> <Gold.Chemscore.Rot>
2.9555

> <Gold.Chemscore.Internal.Correction>
   9.000000E+99

> <Gold.Chemscore.Hbonds>
donor molecule, donor type, donor heavy atom, donor atom, acceptor molecule, acceptor atom, score
      L1  H     5    48       P1  7948  0.64
      L1  H    13    39       P1  8028  0.98
      L1  H    14    49       P1  8028  0.98
      P1  H  7989  7998       L1     8  0.29
      P1  H  8011  8017       L1    13  0.04

> <Gold.Chemscore.Hbond.Weighted>
-12.0955

> <Gold.Chemscore.Metal.Weighted>
-0.0000

> <Gold.Chemscore.Lipo.Weighted>
-12.8427

> <Gold.Chemscore.Internal_Hbond.Weighted>
0.0000

> <Gold.Chemscore.DEClash.Weighted>
0.1775

> <Gold.Chemscore.DEInternal.Weighted>
1.9761

> <Gold.Chemscore.Rot.Weighted>
7.5660

> <Gold.Chemscore.Internal.Correction.Weighted>
   9.000000E+99

> <Gold.Protein.RotatedTorsions>
[ 6907 6896 6895 6894 ] final  127.27 input  -60.11 | X-H torsion
[ 7974 7965 7964 7962 ] final   49.79 input  175.53 | X-H torsion
[ 8008 7997 7996 7995 ] final  -64.35 input   59.86 | X-H torsion
[ 10167 10162 10161 10158 ] final  -85.79 input  -65.29 | X-H torsion
[ 10718 10713 10712 10709 ] final  133.95 input   66.30 | X-H torsion
[ 10763 10752 10751 10750 ] final  -45.22 input  -60.55 | X-H torsion
[ 11005 11000 10999 10996 ] final  -90.11 input  -57.11 | X-H torsion

> <Gold.Protein.ActiveResidues>
 VAL166  LYS551  ARG553  GLY616  TRP617  ASP618  TYR619  PRO620  LYS621  CYS622 
 ASP623  PHE694  ASN695  SER759  ASP760  ASP761  ALA762  ILE779  LEU786  VAL792 
 PHE793  MET794  SER795  GLU796  ALA797  LYS798  CYS799  TRP800  GLU811  SER814 

> <Gold.Protein.RotatedAtoms>
  152.3828  133.6570  159.6174 H   0  0  0  0  0  0  0  0  0  0  0  0  # atno 6907 bound_to 6896
  150.7755  133.9085  159.3371 H   0  0  0  0  0  0  0  0  0  0  0  0  # atno 6908 bound_to 6896
  151.6887  135.0951  160.0281 H   0  0  0  0  0  0  0  0  0  0  0  0  # atno 6909 bound_to 6896
  146.0075  139.4506  142.9977 H   0  0  0  0  0  0  0  0  0  0  0  0  # atno 7974 bound_to 7965
  154.4606  140.0956  156.6883 H   0  0  0  0  0  0  0  0  0  0  0  0  # atno 8008 bound_to 7997
  155.5005  140.3473  155.4352 H   0  0  0  0  0  0  0  0  0  0  0  0  # atno 8009 bound_to 7997
  156.0863  140.1386  156.9637 H   0  0  0  0  0  0  0  0  0  0  0  0  # atno 8010 bound_to 7997
  140.4004  143.2665  151.9150 H   0  0  0  0  0  0  0  0  0  0  0  0  # atno 10167 bound_to 10162
  157.4722  131.1081  150.9789 H   0  0  0  0  0  0  0  0  0  0  0  0  # atno 10718 bound_to 10713
  154.0249  135.6664  153.4775 H   0  0  0  0  0  0  0  0  0  0  0  0  # atno 10763 bound_to 10752
  153.0564  135.5053  154.7988 H   0  0  0  0  0  0  0  0  0  0  0  0  # atno 10764 bound_to 10752
  154.6914  135.3062  154.9438 H   0  0  0  0  0  0  0  0  0  0  0  0  # atno 10765 bound_to 10752
  141.1572  133.7672  156.9691 H   0  0  0  0  0  0  0  0  0  0  0  0  # atno 11005 bound_to 11000
  145.7393  141.0014  143.1309 LP  0  0  0  0  0  0  0  0  0  0  0  0  # atno 17320 bound_to 7965
  144.6941  139.9080  143.7462 LP  0  0  0  0  0  0  0  0  0  0  0  0  # atno 17321 bound_to 7965
  139.4785  144.5639  151.8195 LP  0  0  0  0  0  0  0  0  0  0  0  0  # atno 17342 bound_to 10162
  140.4746  144.1537  150.5923 LP  0  0  0  0  0  0  0  0  0  0  0  0  # atno 17343 bound_to 10162
  157.0550  130.5802  149.5376 LP  0  0  0  0  0  0  0  0  0  0  0  0  # atno 17370 bound_to 10713
  156.0079  130.5167  150.7891 LP  0  0  0  0  0  0  0  0  0  0  0  0  # atno 17371 bound_to 10713
  140.1141  134.9458  157.2109 LP  0  0  0  0  0  0  0  0  0  0  0  0  # atno 17394 bound_to 11000
  140.3155  134.2975  155.7257 LP  0  0  0  0  0  0  0  0  0  0  0  0  # atno 17395 bound_to 11000

$$$$
