AV-unprocessed.smi:1191|AV-procd|sdf|4985|dock1
  -GOLD-   22720 3583D 1   1.00000     0.00000
 Structure written by MMmdl.
 47 48  0  0  0  0  0  0  0  0  2 V2000
  153.4462  141.7363  161.7385 C   0  0  0  0  0  0  0  0  0  0  0  0
  152.8505  142.2217  160.4496 C   0  0  0  0  0  0  0  0  0  0  0  0
  152.8524  143.5419  159.9188 C   0  0  0  0  0  0  0  0  0  0  0  0
  152.1792  143.4316  158.7347 C   0  0  0  0  0  0  0  0  0  0  0  0
  151.8496  144.4697  157.7127 C   0  0  0  0  0  0  0  0  0  0  0  0
  151.8131  142.1034  158.6040 N   0  0  0  0  0  0  0  0  0  0  0  0
  151.0840  141.4534  157.5251 C   0  0  0  0  0  0  0  0  0  0  0  0
  151.8133  140.2037  157.0277 C   0  0  0  0  0  0  0  0  0  0  0  0
  152.8398  139.8242  157.5907 O   0  0  0  0  0  0  0  0  0  0  0  0
  151.2769  139.5740  155.9706 N   0  0  0  0  0  0  0  0  0  0  0  0
  151.8155  138.3702  155.3508 C   0  0  0  0  0  0  0  0  0  0  0  0
  151.0246  137.9825  154.0862 C   0  0  0  0  0  0  0  0  0  0  0  0
  149.9863  136.9586  154.3627 N   0  3  2  0  0  0  0  0  0  0  0  0
  148.8097  137.5263  155.0704 C   0  0  0  0  0  0  0  0  0  0  0  0
  147.6848  136.4865  155.1970 C   0  0  0  0  0  0  0  0  0  0  0  0
  148.1855  135.2122  155.8920 C   0  0  0  0  0  0  0  0  0  0  0  0
  149.4450  134.6566  155.2016 C   0  0  1  0  0  0  0  0  0  0  0  0
  149.1373  133.9764  153.8559 C   0  0  0  0  0  0  0  0  0  0  0  0
  150.5168  135.7580  155.0649 C   0  0  0  0  0  0  0  0  0  0  0  0
  152.2300  141.3645  159.6558 N   0  0  0  0  0  0  0  0  0  0  0  0
  153.8259  142.5666  162.3344 H   0  0  0  0  0  0  0  0  0  0  0  0
  154.2755  141.0530  161.5549 H   0  0  0  0  0  0  0  0  0  0  0  0
  152.7058  141.2091  162.3409 H   0  0  0  0  0  0  0  0  0  0  0  0
  153.2820  144.4365  160.3449 H   0  0  0  0  0  0  0  0  0  0  0  0
  152.2451  145.4427  158.0046 H   0  0  0  0  0  0  0  0  0  0  0  0
  150.7707  144.5693  157.5934 H   0  0  0  0  0  0  0  0  0  0  0  0
  152.2766  144.2122  156.7431 H   0  0  0  0  0  0  0  0  0  0  0  0
  150.0855  141.1819  157.8714 H   0  0  0  0  0  0  0  0  0  0  0  0
  150.9529  142.1633  156.7075 H   0  0  0  0  0  0  0  0  0  0  0  0
  150.4311  139.9576  155.5725 H   0  0  0  0  0  0  0  0  0  0  0  0
  152.8574  138.5610  155.0922 H   0  0  0  0  0  0  0  0  0  0  0  0
  151.8208  137.5658  156.0863 H   0  0  0  0  0  0  0  0  0  0  0  0
  150.5612  138.8557  153.6247 H   0  0  0  0  0  0  0  0  0  0  0  0
  151.7335  137.5896  153.3556 H   0  0  0  0  0  0  0  0  0  0  0  0
  149.1127  137.8787  156.0579 H   0  0  0  0  0  0  0  0  0  0  0  0
  148.4318  138.3928  154.5263 H   0  0  0  0  0  0  0  0  0  0  0  0
  146.8502  136.9094  155.7570 H   0  0  0  0  0  0  0  0  0  0  0  0
  147.2957  136.2431  154.2079 H   0  0  0  0  0  0  0  0  0  0  0  0
  148.4193  135.4435  156.9323 H   0  0  0  0  0  0  0  0  0  0  0  0
  147.3974  134.4589  155.9172 H   0  0  0  0  0  0  0  0  0  0  0  0
  149.8536  133.8808  155.8505 H   0  0  0  0  0  0  0  0  0  0  0  0
  148.7493  134.6820  153.1211 H   0  0  0  0  0  0  0  0  0  0  0  0
  148.3983  133.1839  153.9768 H   0  0  0  0  0  0  0  0  0  0  0  0
  150.0347  133.5236  153.4337 H   0  0  0  0  0  0  0  0  0  0  0  0
  151.3806  135.3525  154.5399 H   0  0  0  0  0  0  0  0  0  0  0  0
  150.8702  136.0529  156.0544 H   0  0  0  0  0  0  0  0  0  0  0  0
  149.6477  136.6478  153.4633 H   0  0  0  0  0  0  0  0  0  0  0  0
  1  2  1  0  0  0  0
  1 21  1  0  0  0  0
  1 22  1  0  0  0  0
  1 23  1  0  0  0  0
  2 20  2  0  0  0  0
  2  3  1  0  0  0  0
  3  4  2  0  0  0  0
  3 24  1  0  0  0  0
  4  5  1  0  0  0  0
  4  6  1  0  0  0  0
  5 25  1  0  0  0  0
  5 26  1  0  0  0  0
  5 27  1  0  0  0  0
  6  7  1  0  0  0  0
  6 20  1  0  0  0  0
  7  8  1  0  0  0  0
  7 28  1  0  0  0  0
  7 29  1  0  0  0  0
  8  9  2  0  0  0  0
  8 10  1  0  0  0  0
 10 11  1  0  0  0  0
 10 30  1  0  0  0  0
 11 12  1  0  0  0  0
 11 31  1  0  0  0  0
 11 32  1  0  0  0  0
 12 13  1  0  0  0  0
 12 33  1  0  0  0  0
 12 34  1  0  0  0  0
 13 19  1  0  0  0  0
 13 14  1  0  0  0  0
 13 47  1  0  0  0  0
 14 15  1  0  0  0  0
 14 35  1  0  0  0  0
 14 36  1  0  0  0  0
 15 16  1  0  0  0  0
 15 37  1  0  0  0  0
 15 38  1  0  0  0  0
 16 17  1  0  0  0  0
 16 39  1  0  0  0  0
 16 40  1  0  0  0  0
 17 18  1  0  0  0  0
 17 19  1  0  0  0  0
 17 41  1  0  0  0  0
 18 42  1  0  0  0  0
 18 43  1  0  0  0  0
 18 44  1  0  0  0  0
 19 45  1  0  0  0  0
 19 46  1  0  0  0  0
M  CHG  1  13   1
M  END
> <s_m_source_file>
AV-unprocessed.smi

> <i_m_source_file_index>
1191

> <i_lp_mmshare_version>
43012

> <i_f3d_flags>
0

> <s_epik_input>
W0NIM11jMVtjSF1jKFtDSDNdKW4objEpW0NIMl1DKD1PKVtOSF1bQ0gyXVtDSDJdTjJbQ0gyXVtDSDJdW0NIMl1bQ0BASF0oW0NIM10pW0NIMl0y

> <s_epik_cmdline>
J2VwaWtfcHl0aG9uJywgJy1waCcsICc3LjAnLCAnLXRuJywgJzgnLCAnLW1hJywgJzIwMCcsICctbWV0YWxfYmluZGluZycsICctaW1hZScsICc8aW5maWxlLm1hZT4nLCAnLW9tYWUnLCAnPG91dGZpbGUubWFlPic=

> <r_lp_tautomer_probability>
1

> <r_epik_Ionization_Penalty>
0.00249932

> <r_epik_Ionization_Penalty_Charging>
0.00230623

> <r_epik_Ionization_Penalty_Neutral>
0.000193092

> <r_epik_State_Penalty>
-0

> <r_epik_Charging_Adjusted_Penalty>
0.00230623

> <i_epik_Tot_Q>
1

> <i_epik_Tot_abs_Q>
1

> <r_epik_Metal_State_Penalty>
-0

> <b_epik_Metal_Only>
0

> <s_lp_Force_Field>
OPLS_2005

> <r_lp_Energy>
16.5378

> <b_lp_Chiralities_Consistent>
1

> <s_lp_Variant>
AV-unprocessed.smi:1191-2

> <Gold.Version>
5.8.1

> <Gold.Id.Protein>
6NUR|6NUR_protein|mol2

> <Gold.PLP.Fitness>
49.5362

> <Gold.PLP.PLP>
-41.3325

> <Gold.PLP.part.hbond>
-2.3749

> <Gold.PLP.part.metal>
0.0000

> <Gold.PLP.part.buried>
-4.6050

> <Gold.PLP.part.nonpolar>
-35.0564

> <Gold.PLP.part.repulsive>
0.1654

> <Gold.PLP.ligand.clash>
0.0000

> <Gold.PLP.ligand.torsion>
0.4332

> <Gold.PLP.Chemscore.Hbond>
3.0000

> <Gold.PLP.Chemscore.CHOScore>
0.0000

> <Gold.PLP.Chemscore.Metal>
0.0000

> <Gold.Chemscore.Hbonds>
donor molecule, donor type, donor heavy atom, donor atom, acceptor molecule, acceptor atom, score
      L1  H    13    47       P1  7948  2.00
      P1  H  7997  8009       L1     9  1.00

> <Gold.PLP.Chemscore.Internal.Correction>
0.0702

> <Gold.Rescore>
     Score         DG    S(hbond)    S(metal)    S(lipo)     H(rot)  DE(clash)    DE(int)     intcor
     17.17     -19.11       1.94        0.00      97.60       1.67       0.05       1.89       ----

> <Gold.Chemscore.Fitness>
17.1718

> <Gold.Chemscore.DG>
-19.1109

> <Gold.Chemscore.ZeroCoef>
-5.4800

> <Gold.Chemscore.Hbond>
1.9388

> <Gold.Chemscore.Metal>
0.0000

> <Gold.Chemscore.Lipo>
97.6008

> <Gold.Chemscore.Internal_Hbond>
0.0000

> <Gold.Chemscore.DEClash>
0.0484

> <Gold.Chemscore.DEInternal>
1.8907

> <Gold.Chemscore.Rot>
1.6657

> <Gold.Chemscore.Internal.Correction>
   9.000000E+99

> <Gold.Chemscore.Hbonds>
donor molecule, donor type, donor heavy atom, donor atom, acceptor molecule, acceptor atom, score
      L1  H    13    47       P1  7948  0.55
      P1  H  7997  8009       L1     9  0.97

> <Gold.Chemscore.Hbond.Weighted>
-6.4756

> <Gold.Chemscore.Metal.Weighted>
-0.0000

> <Gold.Chemscore.Lipo.Weighted>
-11.4193

> <Gold.Chemscore.Internal_Hbond.Weighted>
0.0000

> <Gold.Chemscore.DEClash.Weighted>
0.0484

> <Gold.Chemscore.DEInternal.Weighted>
1.8907

> <Gold.Chemscore.Rot.Weighted>
4.2641

> <Gold.Chemscore.Internal.Correction.Weighted>
   9.000000E+99

> <Gold.Protein.RotatedTorsions>
[ 6907 6896 6895 6894 ] final   21.03 input  -60.11 | X-H torsion
[ 7974 7965 7964 7962 ] final -124.63 input  175.53 | X-H torsion
[ 8008 7997 7996 7995 ] final  156.54 input   59.86 | X-H torsion
[ 10167 10162 10161 10158 ] final -139.66 input  -65.29 | X-H torsion
[ 10718 10713 10712 10709 ] final    7.03 input   66.30 | X-H torsion
[ 10763 10752 10751 10750 ] final   57.18 input  -60.55 | X-H torsion
[ 11005 11000 10999 10996 ] final   42.50 input  -57.11 | X-H torsion

> <Gold.Protein.ActiveResidues>
 VAL166  LYS551  ARG553  GLY616  TRP617  ASP618  TYR619  PRO620  LYS621  CYS622 
 ASP623  PHE694  ASN695  SER759  ASP760  ASP761  ALA762  ILE779  LEU786  VAL792 
 PHE793  MET794  SER795  GLU796  ALA797  LYS798  CYS799  TRP800  GLU811  SER814 

> <Gold.Protein.RotatedAtoms>
  151.9055  135.0360  160.0509 H   0  0  0  0  0  0  0  0  0  0  0  0  # atno 6907 bound_to 6896
  152.2322  133.5063  159.5231 H   0  0  0  0  0  0  0  0  0  0  0  0  # atno 6908 bound_to 6896
  150.7029  134.1117  159.4045 H   0  0  0  0  0  0  0  0  0  0  0  0  # atno 6909 bound_to 6896
  145.0060  140.7863  143.4467 H   0  0  0  0  0  0  0  0  0  0  0  0  # atno 7974 bound_to 7965
  156.2416  140.1910  156.6971 H   0  0  0  0  0  0  0  0  0  0  0  0  # atno 8008 bound_to 7997
  154.6209  140.0608  156.9640 H   0  0  0  0  0  0  0  0  0  0  0  0  # atno 8009 bound_to 7997
  155.1863  140.3280  155.4369 H   0  0  0  0  0  0  0  0  0  0  0  0  # atno 8010 bound_to 7997
  139.8358  143.7387  152.2665 H   0  0  0  0  0  0  0  0  0  0  0  0  # atno 10167 bound_to 10162
  156.9309  130.5825  149.5649 H   0  0  0  0  0  0  0  0  0  0  0  0  # atno 10718 bound_to 10713
  152.9845  135.5650  154.5350 H   0  0  0  0  0  0  0  0  0  0  0  0  # atno 10763 bound_to 10752
  154.4814  135.2789  155.1569 H   0  0  0  0  0  0  0  0  0  0  0  0  # atno 10764 bound_to 10752
  154.3076  135.6295  153.5505 H   0  0  0  0  0  0  0  0  0  0  0  0  # atno 10765 bound_to 10752
  140.1733  134.4195  155.8244 H   0  0  0  0  0  0  0  0  0  0  0  0  # atno 11005 bound_to 11000
  145.2088  139.2215  143.5154 LP  0  0  0  0  0  0  0  0  0  0  0  0  # atno 17320 bound_to 7965
  146.3461  140.1921  142.8589 LP  0  0  0  0  0  0  0  0  0  0  0  0  # atno 17321 bound_to 7965
  139.7609  144.7507  151.0366 LP  0  0  0  0  0  0  0  0  0  0  0  0  # atno 17342 bound_to 10162
  140.7803  143.4752  151.0092 LP  0  0  0  0  0  0  0  0  0  0  0  0  # atno 17343 bound_to 10162
  156.0448  130.5526  150.8854 LP  0  0  0  0  0  0  0  0  0  0  0  0  # atno 17370 bound_to 10713
  157.5848  131.0946  150.9214 LP  0  0  0  0  0  0  0  0  0  0  0  0  # atno 17371 bound_to 10713
  141.2219  133.6966  156.7802 LP  0  0  0  0  0  0  0  0  0  0  0  0  # atno 17394 bound_to 11000
  140.2352  134.8656  157.3517 LP  0  0  0  0  0  0  0  0  0  0  0  0  # atno 17395 bound_to 11000

$$$$
