AV-unprocessed.smi:224|AV-procd|sdf|1719|dock3
  -GOLD-   2262020193D 1   1.00000     0.00000
 Structure written by MMmdl.
 56 59  0  0  0  0  0  0  0  0  2 V2000
  144.1029  132.9683  149.4645 C   0  0  0  0  0  0  0  0  0  0  0  0
  143.6386  132.6930  150.9005 C   0  0  2  0  0  0  0  0  0  0  0  0
  142.2253  132.6889  150.9132 O   0  0  0  0  0  0  0  0  0  0  0  0
  144.1543  133.7591  151.8885 C   0  0  0  0  0  0  0  0  0  0  0  0
  144.7474  133.1900  153.1307 N   0  3  2  0  0  0  0  0  0  0  0  0
  145.1249  134.2496  154.1034 C   0  0  0  0  0  0  0  0  0  0  0  0
  145.5899  133.6458  155.4403 C   0  0  0  0  0  0  0  0  0  0  0  0
  146.6462  132.6581  155.2342 N   0  0  0  0  0  0  0  0  0  0  0  0
  147.9484  133.0510  155.2670 C   0  0  0  0  0  0  0  0  0  0  0  0
  148.9299  132.1468  155.0042 N   0  0  0  0  0  0  0  0  0  0  0  0
  150.2156  132.5053  155.0536 C   0  0  0  0  0  0  0  0  0  0  0  0
  150.7371  133.6995  155.3361 N   0  0  0  0  0  0  0  0  0  0  0  0
  149.7608  134.6185  155.5836 C   0  0  0  0  0  0  0  0  0  0  0  0
  148.3562  134.3828  155.5695 C   0  0  0  0  0  0  0  0  0  0  0  0
  147.6804  135.5635  155.8565 N   0  0  0  0  0  0  0  0  0  0  0  0
  148.6289  136.4404  156.0423 C   0  0  0  0  0  0  0  0  0  0  0  0
  149.9094  135.9596  155.8912 N   0  0  0  0  0  0  0  0  0  0  0  0
  151.1470  136.7094  156.0430 C   0  0  0  0  0  0  0  0  0  0  0  0
  151.5150  137.5812  154.8156 C   0  0  2  0  0  0  0  0  0  0  0  0
  151.7329  136.7394  153.6981 O   0  0  0  0  0  0  0  0  0  0  0  0
  152.7423  138.4690  155.0225 C   0  0  0  0  0  0  0  0  0  0  0  0
  152.1270  139.7868  155.4669 C   0  0  0  0  0  0  0  0  0  0  0  0
  150.9962  139.8931  154.6198 O   0  0  0  0  0  0  0  0  0  0  0  0
  150.4045  138.6039  154.4975 C   0  0  0  0  0  0  0  0  0  0  0  0
  146.2907  131.5970  154.2947 C   0  0  0  0  0  0  0  0  0  0  0  0
  145.8172  132.1607  152.9356 C   0  0  2  0  0  0  0  0  0  0  0  0
  146.9953  132.6509  152.0670 C   0  0  0  0  0  0  0  0  0  0  0  0
  145.1912  132.9645  149.3981 H   0  0  0  0  0  0  0  0  0  0  0  0
  143.7520  133.9382  149.1097 H   0  0  0  0  0  0  0  0  0  0  0  0
  143.7302  132.2072  148.7779 H   0  0  0  0  0  0  0  0  0  0  0  0
  143.9925  131.7016  151.1807 H   0  0  0  0  0  0  0  0  0  0  0  0
  141.9159  133.5225  150.5921 H   0  0  0  0  0  0  0  0  0  0  0  0
  144.8770  134.4133  151.4001 H   0  0  0  0  0  0  0  0  0  0  0  0
  143.3171  134.4027  152.1646 H   0  0  0  0  0  0  0  0  0  0  0  0
  145.9061  134.8782  153.6754 H   0  0  0  0  0  0  0  0  0  0  0  0
  144.2699  134.9008  154.2883 H   0  0  0  0  0  0  0  0  0  0  0  0
  145.9076  134.4288  156.1302 H   0  0  0  0  0  0  0  0  0  0  0  0
  144.7514  133.1440  155.9246 H   0  0  0  0  0  0  0  0  0  0  0  0
  150.9285  131.7232  154.8374 H   0  0  0  0  0  0  0  0  0  0  0  0
  148.4195  137.4709  156.2913 H   0  0  0  0  0  0  0  0  0  0  0  0
  151.0560  137.3345  156.9325 H   0  0  0  0  0  0  0  0  0  0  0  0
  151.9493  136.0012  156.2530 H   0  0  0  0  0  0  0  0  0  0  0  0
  151.0322  136.8774  153.0789 H   0  0  0  0  0  0  0  0  0  0  0  0
  153.4721  138.0815  155.7314 H   0  0  0  0  0  0  0  0  0  0  0  0
  153.2644  138.6305  154.0778 H   0  0  0  0  0  0  0  0  0  0  0  0
  151.8097  139.7421  156.5100 H   0  0  0  0  0  0  0  0  0  0  0  0
  152.8040  140.6323  155.3448 H   0  0  0  0  0  0  0  0  0  0  0  0
  149.9891  138.4855  153.4958 H   0  0  0  0  0  0  0  0  0  0  0  0
  149.5757  138.5267  155.2026 H   0  0  0  0  0  0  0  0  0  0  0  0
  147.1037  130.8904  154.1367 H   0  0  0  0  0  0  0  0  0  0  0  0
  145.4828  131.0198  154.7461 H   0  0  0  0  0  0  0  0  0  0  0  0
  145.3731  131.3144  152.4132 H   0  0  0  0  0  0  0  0  0  0  0  0
  147.7755  131.8912  152.0121 H   0  0  0  0  0  0  0  0  0  0  0  0
  147.4521  133.5570  152.4632 H   0  0  0  0  0  0  0  0  0  0  0  0
  146.6849  132.8553  151.0427 H   0  0  0  0  0  0  0  0  0  0  0  0
  143.9892  132.6920  153.5752 H   0  0  0  0  0  0  0  0  0  0  0  0
  1  2  1  0  0  0  0
  1 28  1  0  0  0  0
  1 29  1  0  0  0  0
  1 30  1  0  0  0  0
  2  3  1  0  0  0  0
  2  4  1  0  0  0  0
  2 31  1  0  0  0  0
  3 32  1  0  0  0  0
  4  5  1  0  0  0  0
  4 33  1  0  0  0  0
  4 34  1  0  0  0  0
  5 26  1  0  0  0  0
  5  6  1  0  0  0  0
  5 56  1  0  0  0  0
  6  7  1  0  0  0  0
  6 35  1  0  0  0  0
  6 36  1  0  0  0  0
  7  8  1  0  0  0  0
  7 37  1  0  0  0  0
  7 38  1  0  0  0  0
  8  9  1  0  0  0  0
  8 25  1  0  0  0  0
  9 14  1  0  0  0  0
  9 10  2  0  0  0  0
 10 11  1  0  0  0  0
 11 12  2  0  0  0  0
 11 39  1  0  0  0  0
 12 13  1  0  0  0  0
 13 17  1  0  0  0  0
 13 14  2  0  0  0  0
 14 15  1  0  0  0  0
 15 16  2  0  0  0  0
 16 17  1  0  0  0  0
 16 40  1  0  0  0  0
 17 18  1  0  0  0  0
 18 19  1  0  0  0  0
 18 41  1  0  0  0  0
 18 42  1  0  0  0  0
 19 24  1  0  0  0  0
 19 20  1  0  0  0  0
 19 21  1  0  0  0  0
 20 43  1  0  0  0  0
 21 22  1  0  0  0  0
 21 44  1  0  0  0  0
 21 45  1  0  0  0  0
 22 23  1  0  0  0  0
 22 46  1  0  0  0  0
 22 47  1  0  0  0  0
 23 24  1  0  0  0  0
 24 48  1  0  0  0  0
 24 49  1  0  0  0  0
 25 26  1  0  0  0  0
 25 50  1  0  0  0  0
 25 51  1  0  0  0  0
 26 27  1  0  0  0  0
 26 52  1  0  0  0  0
 27 53  1  0  0  0  0
 27 54  1  0  0  0  0
 27 55  1  0  0  0  0
M  CHG  1   5   1
M  END
> <s_m_source_file>
AV-unprocessed.smi

> <i_m_source_file_index>
224

> <i_lp_mmshare_version>
43012

> <i_f3d_flags>
0

> <s_epik_input>
W0NIM11bQ0BIXShbT0hdKVtDSDJdTjFbQ0gyXVtDSDJdTihbQ0gyXVtDQEhdMVtDSDNdKWMobltjSF1uMiljKGMyMyluW2NIXW4zW0NIMl1bQ0BAXTQoW09IXSlbQ0gyXVtDSDJdT1tDSDJdNA==

> <s_epik_cmdline>
J2VwaWtfcHl0aG9uJywgJy1waCcsICc3LjAnLCAnLXRuJywgJzgnLCAnLW1hJywgJzIwMCcsICctbWV0YWxfYmluZGluZycsICctaW1hZScsICc8aW5maWxlLm1hZT4nLCAnLW9tYWUnLCAnPG91dGZpbGUubWFlPic=

> <r_lp_tautomer_probability>
1

> <r_epik_Ionization_Penalty>
0.00516958

> <r_epik_Ionization_Penalty_Charging>
0.00509693

> <r_epik_Ionization_Penalty_Neutral>
7.26542e-05

> <r_epik_State_Penalty>
-0

> <r_epik_Charging_Adjusted_Penalty>
0.00509693

> <i_epik_Tot_Q>
1

> <i_epik_Tot_abs_Q>
1

> <r_epik_Metal_State_Penalty>
-0

> <b_epik_Metal_Only>
0

> <s_lp_Force_Field>
OPLS_2005

> <r_lp_Energy>
49.9792

> <b_lp_Chiralities_Consistent>
1

> <s_lp_Variant>
AV-unprocessed.smi:224-13

> <Gold.Version>
5.8.1

> <Gold.Id.Protein>
6NUR|6NUR_protein|mol2

> <Gold.PLP.Fitness>
53.5833

> <Gold.PLP.PLP>
-39.4699

> <Gold.PLP.part.hbond>
-5.8074

> <Gold.PLP.part.metal>
0.0000

> <Gold.PLP.part.buried>
-7.0303

> <Gold.PLP.part.nonpolar>
-28.3319

> <Gold.PLP.part.repulsive>
0.1433

> <Gold.PLP.ligand.clash>
0.0000

> <Gold.PLP.ligand.torsion>
1.1725

> <Gold.PLP.Chemscore.Hbond>
5.3500

> <Gold.PLP.Chemscore.CHOScore>
0.0000

> <Gold.PLP.Chemscore.Metal>
0.0000

> <Gold.Chemscore.Hbonds>
donor molecule, donor type, donor heavy atom, donor atom, acceptor molecule, acceptor atom, score
      L1  H     3    32       P1 10186  1.00
      L1  H     5    56       P1 10957  2.00
      L1  H    20    43       P1  7949  0.34
      P1  H  7989  7998       L1    23  0.90
      P1  H 10752 10763       L1    20  1.00

> <Gold.PLP.Chemscore.Internal.Correction>
0.4085

> <Gold.Rescore>
     Score         DG    S(hbond)    S(metal)    S(lipo)     H(rot)  DE(clash)    DE(int)     intcor
     15.18     -17.59       3.29        0.00      75.80       3.02       0.07       2.33       ----

> <Gold.Chemscore.Fitness>
15.1844

> <Gold.Chemscore.DG>
-17.5886

> <Gold.Chemscore.ZeroCoef>
-5.4800

> <Gold.Chemscore.Hbond>
3.2871

> <Gold.Chemscore.Metal>
0.0000

> <Gold.Chemscore.Lipo>
75.8030

> <Gold.Chemscore.Internal_Hbond>
0.0000

> <Gold.Chemscore.DEClash>
0.0737

> <Gold.Chemscore.DEInternal>
2.3305

> <Gold.Chemscore.Rot>
3.0231

> <Gold.Chemscore.Internal.Correction>
   9.000000E+99

> <Gold.Chemscore.Hbonds>
donor molecule, donor type, donor heavy atom, donor atom, acceptor molecule, acceptor atom, score
      L1  H     3    32       P1 10186  0.86
      L1  H     5    56       P1 10957  0.53
      L1  H    20    43       P1  7949  0.10
      P1  H  7989  7998       L1    23  0.18
      P1  H 10752 10763       L1    20  0.50

> <Gold.Chemscore.Hbond.Weighted>
-10.9788

> <Gold.Chemscore.Metal.Weighted>
-0.0000

> <Gold.Chemscore.Lipo.Weighted>
-8.8690

> <Gold.Chemscore.Internal_Hbond.Weighted>
0.0000

> <Gold.Chemscore.DEClash.Weighted>
0.0737

> <Gold.Chemscore.DEInternal.Weighted>
2.3305

> <Gold.Chemscore.Rot.Weighted>
7.7391

> <Gold.Chemscore.Internal.Correction.Weighted>
   9.000000E+99

> <Gold.Protein.RotatedTorsions>
[ 6907 6896 6895 6894 ] final  -72.16 input  -60.11 | X-H torsion
[ 7974 7965 7964 7962 ] final   46.83 input  175.53 | X-H torsion
[ 8008 7997 7996 7995 ] final  111.30 input   59.86 | X-H torsion
[ 10167 10162 10161 10158 ] final   78.63 input  -65.29 | X-H torsion
[ 10718 10713 10712 10709 ] final   29.19 input   66.30 | X-H torsion
[ 10763 10752 10751 10750 ] final   37.82 input  -60.55 | X-H torsion
[ 11005 11000 10999 10996 ] final -106.89 input  -57.11 | X-H torsion

> <Gold.Protein.ActiveResidues>
 VAL166  LYS551  ARG553  GLY616  TRP617  ASP618  TYR619  PRO620  LYS621  CYS622 
 ASP623  PHE694  ASN695  SER759  ASP760  ASP761  ALA762  ILE779  LEU786  VAL792 
 PHE793  MET794  SER795  GLU796  ALA797  LYS798  CYS799  TRP800  GLU811  SER814 

> <Gold.Protein.RotatedAtoms>
  150.7181  134.5203  159.5650 H   0  0  0  0  0  0  0  0  0  0  0  0  # atno 6907 bound_to 6896
  152.2760  134.7878  160.0414 H   0  0  0  0  0  0  0  0  0  0  0  0  # atno 6908 bound_to 6896
  151.8541  133.3410  159.3719 H   0  0  0  0  0  0  0  0  0  0  0  0  # atno 6909 bound_to 6896
  146.0354  139.4814  142.9812 H   0  0  0  0  0  0  0  0  0  0  0  0  # atno 7974 bound_to 7965
  156.2114  140.3022  155.9741 H   0  0  0  0  0  0  0  0  0  0  0  0  # atno 8008 bound_to 7997
  155.2714  140.0434  157.3024 H   0  0  0  0  0  0  0  0  0  0  0  0  # atno 8009 bound_to 7997
  154.5705  140.2347  155.8207 H   0  0  0  0  0  0  0  0  0  0  0  0  # atno 8010 bound_to 7997
  139.9689  144.5908  150.8003 H   0  0  0  0  0  0  0  0  0  0  0  0  # atno 10167 bound_to 10162
  157.2433  130.7079  149.6369 H   0  0  0  0  0  0  0  0  0  0  0  0  # atno 10718 bound_to 10713
  153.0023  135.6267  154.2206 H   0  0  0  0  0  0  0  0  0  0  0  0  # atno 10763 bound_to 10752
  154.1949  135.2807  155.3011 H   0  0  0  0  0  0  0  0  0  0  0  0  # atno 10764 bound_to 10752
  154.5730  135.5671  153.7172 H   0  0  0  0  0  0  0  0  0  0  0  0  # atno 10765 bound_to 10752
  141.0982  133.8933  157.1910 H   0  0  0  0  0  0  0  0  0  0  0  0  # atno 11005 bound_to 11000
  145.6973  141.0146  143.1523 LP  0  0  0  0  0  0  0  0  0  0  0  0  # atno 17320 bound_to 7965
  144.7049  139.8603  143.7433 LP  0  0  0  0  0  0  0  0  0  0  0  0  # atno 17321 bound_to 7965
  140.7528  143.2998  151.3111 LP  0  0  0  0  0  0  0  0  0  0  0  0  # atno 17342 bound_to 10162
  139.6496  144.0387  152.2616 LP  0  0  0  0  0  0  0  0  0  0  0  0  # atno 17343 bound_to 10162
  155.9669  130.4451  150.5488 LP  0  0  0  0  0  0  0  0  0  0  0  0  # atno 17370 bound_to 10713
  157.3356  131.0707  151.1827 LP  0  0  0  0  0  0  0  0  0  0  0  0  # atno 17371 bound_to 10713
  139.9825  135.0093  156.9783 LP  0  0  0  0  0  0  0  0  0  0  0  0  # atno 17394 bound_to 11000
  140.5088  134.1023  155.7266 LP  0  0  0  0  0  0  0  0  0  0  0  0  # atno 17395 bound_to 11000

$$$$
