#       Name:                AV-unprocessed.smi:1262
#       Creating user name   scv26
#       Creation time:       Fri Mar 27 04:43:30 2020


#       File generated by GOLD software.
#

@<TRIPOS>MOLECULE
AV-unprocessed.smi:1262
    37    38     1
SMALL
NO_CHARGES


@<TRIPOS>ATOM
      1 ****        -5.5633  -0.5285  -0.6290 C.3            1 S1                 0.0000
      2 ****        -4.2144   0.1092  -0.7855 C.2            1 S1                 0.0000
      3 ****        -2.9338  -0.4958  -0.6263 C.2            1 S1                 0.0000
      4 ****        -2.0774   0.5390  -0.8865 C.2            1 S1                 0.0000
      5 ****        -0.7178   0.5464  -0.8823 N.am           1 S1                 0.0000
      6 ****         0.1277  -0.4680  -0.6291 C.2            1 S1                 0.0000
      7 ****        -0.2025  -1.6198  -0.3455 O.2            1 S1                 0.0000
      8 ****         1.4039  -0.0681  -0.7224 N.am           1 S1                 0.0000
      9 ****         2.5670  -0.9188  -0.4985 C.3            1 S1                 0.0000
     10 ****         2.8670  -1.0743   0.9904 C.3            1 S1                 0.0000
     11 ****         3.3167   0.1432   1.8127 C.3            1 S1                 0.0000
     12 ****         4.2166  -0.7941   2.6225 C.3            1 S1                 0.0000
     13 ****         4.1684  -1.7583   1.4340 C.3            1 S1                 0.0000
     14 ****        -2.8154   1.6651  -1.1762 N.pl3          1 S1                 0.0000
     15 ****        -2.3636   3.0009  -1.5131 C.3            1 S1                 0.0000
     16 ****        -4.1371   1.3943  -1.1125 N.2            1 S1                 0.0000
     17 ****        -5.4735  -1.5655  -0.3052 H              1 S1                 0.0000
     18 ****        -6.1117  -0.5216  -1.5712 H              1 S1                 0.0000
     19 ****        -6.1643  -0.0012   0.1121 H              1 S1                 0.0000
     20 ****        -2.7057  -1.5181  -0.3647 H              1 S1                 0.0000
     21 ****        -0.2924   1.4352  -1.1008 H              1 S1                 0.0000
     22 ****         1.5859   0.8960  -0.9598 H              1 S1                 0.0000
     23 ****         2.4132  -1.8931  -0.9650 H              1 S1                 0.0000
     24 ****         3.4163  -0.4673  -1.0117 H              1 S1                 0.0000
     25 ****         2.0336  -1.5561   1.5066 H              1 S1                 0.0000
     26 ****         3.8835   0.8669   1.2244 H              1 S1                 0.0000
     27 ****         2.5230   0.6242   2.3851 H              1 S1                 0.0000
     28 ****         5.2061  -0.3962   2.8493 H              1 S1                 0.0000
     29 ****         3.7235  -1.1917   3.5111 H              1 S1                 0.0000
     30 ****         4.0620  -2.8099   1.7023 H              1 S1                 0.0000
     31 ****         4.9907  -1.6033   0.7334 H              1 S1                 0.0000
     32 ****        -1.7072   2.9571  -2.3825 H              1 S1                 0.0000
     33 ****        -1.8148   3.4238  -0.6714 H              1 S1                 0.0000
     34 ****        -3.2114   3.6474  -1.7435 H              1 S1                 0.0000
     35 ****        -1.1709  -1.8626  -0.2885 LP             1 S1                 0.0000
     36 ****         0.4977  -2.3124  -0.1723 LP             1 S1                 0.0000
     37 ****        -4.8949   2.0259  -1.2764 LP             1 S1                 0.0000
@<TRIPOS>BOND
    1    1    2 1     
    2    1   17 1     
    3    1   18 1     
    4    1   19 1     
    5    2   16 2     
    6    2    3 1     
    7    3    4 2     
    8    3   20 1     
    9    4    5 1     
   10    4   14 1     
   11    5    6 am    
   12    5   21 1     
   13    6    7 2     
   14    6    8 am    
   15    8    9 1     
   16    8   22 1     
   17    9   10 1     
   18    9   23 1     
   19    9   24 1     
   20   10   13 1     
   21   10   11 1     
   22   10   25 1     
   23   11   12 1     
   24   11   26 1     
   25   11   27 1     
   26   12   13 1     
   27   12   28 1     
   28   12   29 1     
   29   13   30 1     
   30   13   31 1     
   31   14   15 1     
   32   14   16 1     
   33   15   32 1     
   34   15   33 1     
   35   15   34 1     
   36    7   35 1     
   37    7   36 1     
   38   16   37 1     
@<TRIPOS>SUBSTRUCTURE
      1 S1             1
@<TRIPOS>SET
LONE_PAIRS      STATIC     ATOMS    <user>   **** ""
3 35 36 37
DONOR_HYDROGENS      STATIC     ATOMS    <user>   **** ""
2 21 22
ATOM$BLUE        STATIC     ATOMS    COLORGROUP SYSTEM
3 35 36 37
ATOM$RED        STATIC     ATOMS    COLORGROUP SYSTEM
2 21 22
