AV-unprocessed.smi:174|AV-procd|sdf|1426|dock3
  -GOLD-   2262019203D 1   1.00000     0.00000
 Structure written by MMmdl.
 51 54  0  0  0  0  0  0  0  0  1 V2000
  147.8649  131.5567  152.3247 N   0  0  0  0  0  0  0  0  0  0  0  0
  148.3141  131.3048  153.5562 C   0  0  0  0  0  0  0  0  0  0  0  0
  149.1096  130.3950  153.7870 O   0  0  0  0  0  0  0  0  0  0  0  0
  147.7700  132.1981  154.6805 C   0  0  0  0  0  0  0  0  0  0  0  0
  148.4906  133.4746  154.8160 N   0  0  0  0  0  0  0  0  0  0  0  0
  149.9556  133.4093  154.7962 C   0  0  0  0  0  0  0  0  0  0  0  0
  150.5910  134.4992  155.6647 C   0  0  0  0  0  0  0  0  0  0  0  0
  150.0753  135.8087  155.2859 N   0  0  0  0  0  0  0  0  0  0  0  0
  150.7762  136.9336  155.6015 C   0  0  0  0  0  0  0  0  0  0  0  0
  152.1213  136.8132  155.7605 N   0  0  0  0  0  0  0  0  0  0  0  0
  152.8707  137.8713  156.0795 C   0  0  0  0  0  0  0  0  0  0  0  0
  152.4884  139.1322  156.2809 N   0  0  0  0  0  0  0  0  0  0  0  0
  151.1427  139.2708  156.1139 C   0  0  0  0  0  0  0  0  0  0  0  0
  150.2184  138.2381  155.7777 C   0  0  0  0  0  0  0  0  0  0  0  0
  148.9391  138.7798  155.6847 N   0  0  0  0  0  0  0  0  0  0  0  0
  149.0961  140.0449  155.9615 C   0  0  0  0  0  0  0  0  0  0  0  0
  150.3888  140.4250  156.2325 N   0  0  0  0  0  0  0  0  0  0  0  0
  150.8469  141.7616  156.5699 C   0  0  0  0  0  0  0  0  0  0  0  0
  151.2893  141.8803  158.0418 C   0  0  1  0  0  0  0  0  0  0  0  0
  152.4229  141.0618  158.2603 O   0  0  0  0  0  0  0  0  0  0  0  0
  151.6425  143.3290  158.4254 C   0  0  2  0  0  0  0  0  0  0  0  0
  152.1574  143.5014  159.8544 C   0  0  0  0  0  0  0  0  0  0  0  0
  151.8713  144.9632  160.1533 C   0  0  0  0  0  0  0  0  0  0  0  0
  150.8002  145.3474  159.1279 C   0  0  0  0  0  0  0  0  0  0  0  0
  150.4802  144.1430  158.4431 O   0  0  0  0  0  0  0  0  0  0  0  0
  148.6327  135.9648  155.0379 C   0  0  0  0  0  0  0  0  0  0  0  0
  147.8318  134.6575  154.8847 C   0  0  0  0  0  0  0  0  0  0  0  0
  146.6036  134.7352  154.8435 O   0  0  0  0  0  0  0  0  0  0  0  0
  148.1959  131.0027  151.5479 H   0  0  0  0  0  0  0  0  0  0  0  0
  147.2020  132.3026  152.1715 H   0  0  0  0  0  0  0  0  0  0  0  0
  146.7078  132.3844  154.5102 H   0  0  0  0  0  0  0  0  0  0  0  0
  147.8156  131.6350  155.6129 H   0  0  0  0  0  0  0  0  0  0  0  0
  150.3103  132.4350  155.1331 H   0  0  0  0  0  0  0  0  0  0  0  0
  150.2872  133.5190  153.7626 H   0  0  0  0  0  0  0  0  0  0  0  0
  150.3778  134.3151  156.7185 H   0  0  0  0  0  0  0  0  0  0  0  0
  151.6725  134.4584  155.5310 H   0  0  0  0  0  0  0  0  0  0  0  0
  153.9279  137.6793  156.1891 H   0  0  0  0  0  0  0  0  0  0  0  0
  148.2688  140.7394  155.9763 H   0  0  0  0  0  0  0  0  0  0  0  0
  151.6664  142.0310  155.9024 H   0  0  0  0  0  0  0  0  0  0  0  0
  150.0359  142.4603  156.3615 H   0  0  0  0  0  0  0  0  0  0  0  0
  150.4878  141.5198  158.6879 H   0  0  0  0  0  0  0  0  0  0  0  0
  152.4667  140.8483  159.1800 H   0  0  0  0  0  0  0  0  0  0  0  0
  152.3584  143.7505  157.7167 H   0  0  0  0  0  0  0  0  0  0  0  0
  151.5880  142.8706  160.5384 H   0  0  0  0  0  0  0  0  0  0  0  0
  153.2121  143.2454  159.9591 H   0  0  0  0  0  0  0  0  0  0  0  0
  151.5274  145.0996  161.1789 H   0  0  0  0  0  0  0  0  0  0  0  0
  152.7648  145.5728  160.0143 H   0  0  0  0  0  0  0  0  0  0  0  0
  149.9114  145.7739  159.5931 H   0  0  0  0  0  0  0  0  0  0  0  0
  151.1938  146.0742  158.4161 H   0  0  0  0  0  0  0  0  0  0  0  0
  148.1905  136.5423  155.8515 H   0  0  0  0  0  0  0  0  0  0  0  0
  148.4841  136.5380  154.1218 H   0  0  0  0  0  0  0  0  0  0  0  0
  1  2  1  0  0  0  0
  1 29  1  0  0  0  0
  1 30  1  0  0  0  0
  2  3  2  0  0  0  0
  2  4  1  0  0  0  0
  4  5  1  0  0  0  0
  4 31  1  0  0  0  0
  4 32  1  0  0  0  0
  5 27  1  0  0  0  0
  5  6  1  0  0  0  0
  6  7  1  0  0  0  0
  6 33  1  0  0  0  0
  6 34  1  0  0  0  0
  7  8  1  0  0  0  0
  7 35  1  0  0  0  0
  7 36  1  0  0  0  0
  8  9  1  0  0  0  0
  8 26  1  0  0  0  0
  9 14  1  0  0  0  0
  9 10  2  0  0  0  0
 10 11  1  0  0  0  0
 11 12  2  0  0  0  0
 11 37  1  0  0  0  0
 12 13  1  0  0  0  0
 13 17  1  0  0  0  0
 13 14  2  0  0  0  0
 14 15  1  0  0  0  0
 15 16  2  0  0  0  0
 16 17  1  0  0  0  0
 16 38  1  0  0  0  0
 17 18  1  0  0  0  0
 18 19  1  0  0  0  0
 18 39  1  0  0  0  0
 18 40  1  0  0  0  0
 19 20  1  0  0  0  0
 19 21  1  0  0  0  0
 19 41  1  0  0  0  0
 20 42  1  0  0  0  0
 21 25  1  0  0  0  0
 21 22  1  0  0  0  0
 21 43  1  0  0  0  0
 22 23  1  0  0  0  0
 22 44  1  0  0  0  0
 22 45  1  0  0  0  0
 23 24  1  0  0  0  0
 23 46  1  0  0  0  0
 23 47  1  0  0  0  0
 24 25  1  0  0  0  0
 24 48  1  0  0  0  0
 24 49  1  0  0  0  0
 26 27  1  0  0  0  0
 26 50  1  0  0  0  0
 26 51  1  0  0  0  0
 27 28  2  0  0  0  0
M  END
> <s_m_source_file>
AV-unprocessed.smi

> <i_m_source_file_index>
174

> <i_lp_mmshare_version>
43012

> <i_f3d_flags>
0

> <s_epik_input>
W05IMl1DKD1PKVtDSDJdTjFbQ0gyXVtDSDJdTihbQ0gyXUMxPU8pYyhuW2NIXW4yKWMoYzIzKW5bY0hdbjNbQ0gyXVtDQEhdKFtPSF0pW0NAQEhdNFtDSDJdW0NIMl1bQ0gyXU80

> <s_epik_cmdline>
J2VwaWtfcHl0aG9uJywgJy1waCcsICc3LjAnLCAnLXRuJywgJzgnLCAnLW1hJywgJzIwMCcsICctbWV0YWxfYmluZGluZycsICctaW1hZScsICc8aW5maWxlLm1hZT4nLCAnLW9tYWUnLCAnPG91dGZpbGUubWFlPic=

> <r_lp_tautomer_probability>
1

> <r_epik_Ionization_Penalty>
0.000250477

> <r_epik_Ionization_Penalty_Charging>
0

> <r_epik_Ionization_Penalty_Neutral>
0.000250477

> <r_epik_State_Penalty>
-0

> <r_epik_Charging_Adjusted_Penalty>
0

> <i_epik_Tot_Q>
0

> <i_epik_Tot_abs_Q>
0

> <r_epik_Metal_State_Penalty>
-0

> <b_epik_Metal_Only>
0

> <s_lp_Force_Field>
OPLS_2005

> <r_lp_Energy>
35.93

> <b_lp_Chiralities_Consistent>
1

> <s_lp_Variant>
AV-unprocessed.smi:174-2

> <Gold.Version>
5.8.1

> <Gold.Id.Protein>
6NUR|6NUR_protein|mol2

> <Gold.PLP.Fitness>
47.5790

> <Gold.PLP.PLP>
-39.9036

> <Gold.PLP.part.hbond>
-3.2605

> <Gold.PLP.part.metal>
0.0000

> <Gold.PLP.part.buried>
-4.7117

> <Gold.PLP.part.nonpolar>
-33.1158

> <Gold.PLP.part.repulsive>
0.3939

> <Gold.PLP.ligand.clash>
0.0000

> <Gold.PLP.ligand.torsion>
0.7701

> <Gold.PLP.Chemscore.Hbond>
2.9920

> <Gold.PLP.Chemscore.CHOScore>
0.0000

> <Gold.PLP.Chemscore.Metal>
0.0000

> <Gold.Chemscore.Hbonds>
donor molecule, donor type, donor heavy atom, donor atom, acceptor molecule, acceptor atom, score
      L1  H     1    29       P1 10747  0.91
      P1  H  7997  8009       L1    12  0.84
      P1  H 10752 10764       L1    10  1.00

> <Gold.PLP.Chemscore.Internal.Correction>
0.2396

> <Gold.Rescore>
     Score         DG    S(hbond)    S(metal)    S(lipo)     H(rot)  DE(clash)    DE(int)     intcor
     12.46     -14.57       2.51        0.00      81.57       3.46       0.00       2.11       ----

> <Gold.Chemscore.Fitness>
12.4583

> <Gold.Chemscore.DG>
-14.5663

> <Gold.Chemscore.ZeroCoef>
-5.4800

> <Gold.Chemscore.Hbond>
2.5144

> <Gold.Chemscore.Metal>
0.0000

> <Gold.Chemscore.Lipo>
81.5678

> <Gold.Chemscore.Internal_Hbond>
0.0000

> <Gold.Chemscore.DEClash>
0.0015

> <Gold.Chemscore.DEInternal>
2.1065

> <Gold.Chemscore.Rot>
3.4591

> <Gold.Chemscore.Internal.Correction>
   9.000000E+99

> <Gold.Chemscore.Hbonds>
donor molecule, donor type, donor heavy atom, donor atom, acceptor molecule, acceptor atom, score
      L1  H     1    29       P1 10747  0.84
      P1  H  7997  8009       L1    12  0.25
      P1  H 10752 10764       L1    10  0.81

> <Gold.Chemscore.Hbond.Weighted>
-8.3982

> <Gold.Chemscore.Metal.Weighted>
-0.0000

> <Gold.Chemscore.Lipo.Weighted>
-9.5434

> <Gold.Chemscore.Internal_Hbond.Weighted>
0.0000

> <Gold.Chemscore.DEClash.Weighted>
0.0015

> <Gold.Chemscore.DEInternal.Weighted>
2.1065

> <Gold.Chemscore.Rot.Weighted>
8.8553

> <Gold.Chemscore.Internal.Correction.Weighted>
   9.000000E+99

> <Gold.Protein.RotatedTorsions>
[ 6907 6896 6895 6894 ] final    3.48 input  -60.11 | X-H torsion
[ 7974 7965 7964 7962 ] final -167.06 input  175.53 | X-H torsion
[ 8008 7997 7996 7995 ] final -166.13 input   59.86 | X-H torsion
[ 10167 10162 10161 10158 ] final -109.05 input  -65.29 | X-H torsion
[ 10718 10713 10712 10709 ] final  -95.90 input   66.30 | X-H torsion
[ 10763 10752 10751 10750 ] final  -48.72 input  -60.55 | X-H torsion
[ 11005 11000 10999 10996 ] final  -98.80 input  -57.11 | X-H torsion

> <Gold.Protein.ActiveResidues>
 VAL166  LYS551  ARG553  GLY616  TRP617  ASP618  TYR619  PRO620  LYS621  CYS622 
 ASP623  PHE694  ASN695  SER759  ASP760  ASP761  ALA762  ILE779  LEU786  VAL792 
 PHE793  MET794  SER795  GLU796  ALA797  LYS798  CYS799  TRP800  GLU811  SER814 

> <Gold.Protein.RotatedAtoms>
  151.6258  135.1028  160.0111 H   0  0  0  0  0  0  0  0  0  0  0  0  # atno 6907 bound_to 6896
  152.4133  133.6994  159.6425 H   0  0  0  0  0  0  0  0  0  0  0  0  # atno 6908 bound_to 6896
  150.8022  133.8502  159.3244 H   0  0  0  0  0  0  0  0  0  0  0  0  # atno 6909 bound_to 6896
  144.7231  140.2574  143.6270 H   0  0  0  0  0  0  0  0  0  0  0  0  # atno 7974 bound_to 7965
  155.8595  140.0976  157.1623 H   0  0  0  0  0  0  0  0  0  0  0  0  # atno 8008 bound_to 7997
  154.3989  140.1368  156.4005 H   0  0  0  0  0  0  0  0  0  0  0  0  # atno 8009 bound_to 7997
  155.7872  140.3457  155.5332 H   0  0  0  0  0  0  0  0  0  0  0  0  # atno 8010 bound_to 7997
  140.1595  143.4132  152.1436 H   0  0  0  0  0  0  0  0  0  0  0  0  # atno 10167 bound_to 10162
  156.0052  130.5128  150.6145 H   0  0  0  0  0  0  0  0  0  0  0  0  # atno 10718 bound_to 10713
  154.0823  135.6589  153.4840 H   0  0  0  0  0  0  0  0  0  0  0  0  # atno 10763 bound_to 10752
  153.0351  135.5183  154.7461 H   0  0  0  0  0  0  0  0  0  0  0  0  # atno 10764 bound_to 10752
  154.6560  135.3008  154.9895 H   0  0  0  0  0  0  0  0  0  0  0  0  # atno 10765 bound_to 10752
  141.1332  133.8273  157.0888 H   0  0  0  0  0  0  0  0  0  0  0  0  # atno 11005 bound_to 11000
  145.8169  139.2027  143.1960 LP  0  0  0  0  0  0  0  0  0  0  0  0  # atno 17320 bound_to 7965
  146.0547  140.8033  142.9764 LP  0  0  0  0  0  0  0  0  0  0  0  0  # atno 17321 bound_to 7965
  139.5388  144.7236  151.4803 LP  0  0  0  0  0  0  0  0  0  0  0  0  # atno 17342 bound_to 10162
  140.6652  143.8413  150.6933 LP  0  0  0  0  0  0  0  0  0  0  0  0  # atno 17343 bound_to 10162
  157.3972  131.0804  151.1341 LP  0  0  0  0  0  0  0  0  0  0  0  0  # atno 17370 bound_to 10713
  157.2014  130.6396  149.5740 LP  0  0  0  0  0  0  0  0  0  0  0  0  # atno 17371 bound_to 10713
  140.0405  134.9856  157.0953 LP  0  0  0  0  0  0  0  0  0  0  0  0  # atno 17394 bound_to 11000
  140.4142  134.1949  155.7163 LP  0  0  0  0  0  0  0  0  0  0  0  0  # atno 17395 bound_to 11000

$$$$
