AV-unprocessed.smi:2619|AV-procd|sdf|10222|dock3
  -GOLD-   2272014223D 1   1.00000     0.00000
 Structure written by MMmdl.
 25 26  0  0  0  0  0  0  0  0  1 V2000
  147.7226  142.2465  155.5439 O   0  0  0  0  0  0  0  0  0  0  0  0
  148.6812  141.3047  155.9790 C   0  0  0  0  0  0  0  0  0  0  0  0
  150.1070  141.7669  155.6353 C   0  0  0  0  0  0  0  0  0  0  0  0
  151.1045  141.2900  156.5863 N   0  0  0  0  0  0  0  0  0  0  0  0
  151.7617  140.1013  156.6049 C   0  0  0  0  0  0  0  0  0  0  0  0
  151.5630  139.0420  155.5636 C   0  0  0  0  0  0  0  0  0  0  0  0
  153.0824  138.7404  154.6827 Cl  0  0  0  0  0  0  0  0  0  0  0  0
  152.6283  139.9343  157.6047 N   0  0  0  0  0  0  0  0  0  0  0  0
  152.5253  141.1220  158.3006 C   0  0  0  0  0  0  0  0  0  0  0  0
  153.1914  141.5631  159.4664 C   0  0  0  0  0  0  0  0  0  0  0  0
  152.9213  142.8391  160.0028 C   0  0  0  0  0  0  0  0  0  0  0  0
  151.9837  143.6902  159.3825 C   0  0  0  0  0  0  0  0  0  0  0  0
  151.6631  145.2498  160.0466 Cl  0  0  0  0  0  0  0  0  0  0  0  0
  151.3085  143.2689  158.2207 C   0  0  0  0  0  0  0  0  0  0  0  0
  151.5807  141.9938  157.6894 C   0  0  0  0  0  0  0  0  0  0  0  0
  148.1496  143.0821  155.4340 H   0  0  0  0  0  0  0  0  0  0  0  0
  148.5799  141.1739  157.0565 H   0  0  0  0  0  0  0  0  0  0  0  0
  148.4635  140.3412  155.5203 H   0  0  0  0  0  0  0  0  0  0  0  0
  150.3785  141.4098  154.6413 H   0  0  0  0  0  0  0  0  0  0  0  0
  150.1530  142.8534  155.5766 H   0  0  0  0  0  0  0  0  0  0  0  0
  151.2612  138.1075  156.0370 H   0  0  0  0  0  0  0  0  0  0  0  0
  150.7938  139.3133  154.8429 H   0  0  0  0  0  0  0  0  0  0  0  0
  153.9124  140.9193  159.9480 H   0  0  0  0  0  0  0  0  0  0  0  0
  153.4377  143.1652  160.8937 H   0  0  0  0  0  0  0  0  0  0  0  0
  150.5928  143.9196  157.7406 H   0  0  0  0  0  0  0  0  0  0  0  0
  1  2  1  0  0  0  0
  1 16  1  0  0  0  0
  2  3  1  0  0  0  0
  2 17  1  0  0  0  0
  2 18  1  0  0  0  0
  3  4  1  0  0  0  0
  3 19  1  0  0  0  0
  3 20  1  0  0  0  0
  4 15  1  0  0  0  0
  4  5  1  0  0  0  0
  5  6  1  0  0  0  0
  5  8  2  0  0  0  0
  6  7  1  0  0  0  0
  6 21  1  0  0  0  0
  6 22  1  0  0  0  0
  8  9  1  0  0  0  0
  9 15  2  0  0  0  0
  9 10  1  0  0  0  0
 10 11  2  0  0  0  0
 10 23  1  0  0  0  0
 11 12  1  0  0  0  0
 11 24  1  0  0  0  0
 12 13  1  0  0  0  0
 12 14  2  0  0  0  0
 14 15  1  0  0  0  0
 14 25  1  0  0  0  0
M  END
> <s_m_source_file>
AV-unprocessed.smi

> <i_m_source_file_index>
2619

> <i_lp_mmshare_version>
43012

> <i_f3d_flags>
0

> <s_epik_input>
W09IXVtDSDJdW0NIMl1uKGMobjEpW0NIMl1DbCljKGMxMilbY0hdYyhDbClbY0hdW2NIXTI=

> <s_epik_cmdline>
J2VwaWtfcHl0aG9uJywgJy1waCcsICc3LjAnLCAnLXRuJywgJzgnLCAnLW1hJywgJzIwMCcsICctbWV0YWxfYmluZGluZycsICctaW1hZScsICc8aW5maWxlLm1hZT4nLCAnLW9tYWUnLCAnPG91dGZpbGUubWFlPic=

> <r_epik_Ionization_Penalty>
0.00756278

> <r_epik_Ionization_Penalty_Charging>
0

> <r_epik_Ionization_Penalty_Neutral>
0.00756278

> <r_epik_State_Penalty>
0.00565607

> <r_epik_Charging_Adjusted_Penalty>
0.00565607

> <i_epik_Tot_Q>
0

> <i_epik_Tot_abs_Q>
0

> <r_epik_Metal_State_Penalty>
-0

> <b_epik_Metal_Only>
0

> <s_lp_Force_Field>
OPLS_2005

> <r_lp_Energy>
6.1257

> <b_lp_Chiralities_Consistent>
1

> <s_lp_Variant>
AV-unprocessed.smi:2619-1

> <Gold.Version>
5.8.1

> <Gold.Id.Protein>
6NUR|6NUR_protein|mol2

> <Gold.PLP.Fitness>
42.3825

> <Gold.PLP.PLP>
-37.4682

> <Gold.PLP.part.hbond>
-2.0000

> <Gold.PLP.part.metal>
0.0000

> <Gold.PLP.part.buried>
-4.3126

> <Gold.PLP.part.nonpolar>
-30.7414

> <Gold.PLP.part.repulsive>
0.0000

> <Gold.PLP.ligand.clash>
0.0000

> <Gold.PLP.ligand.torsion>
0.5440

> <Gold.PLP.Chemscore.Hbond>
2.0000

> <Gold.PLP.Chemscore.CHOScore>
0.0000

> <Gold.PLP.Chemscore.Metal>
0.0000

> <Gold.Chemscore.Hbonds>
donor molecule, donor type, donor heavy atom, donor atom, acceptor molecule, acceptor atom, score
      L1  H     1    16       P1  8028  1.00
      P1  H  7997  8008       L1     8  1.00

> <Gold.PLP.Chemscore.Internal.Correction>
0.0024

> <Gold.Rescore>
     Score         DG    S(hbond)    S(metal)    S(lipo)     H(rot)  DE(clash)    DE(int)     intcor
     16.13     -16.77       1.21        0.00     103.18       1.88       0.07       0.57       ----

> <Gold.Chemscore.Fitness>
16.1299

> <Gold.Chemscore.DG>
-16.7697

> <Gold.Chemscore.ZeroCoef>
-5.4800

> <Gold.Chemscore.Hbond>
1.2064

> <Gold.Chemscore.Metal>
0.0000

> <Gold.Chemscore.Lipo>
103.1756

> <Gold.Chemscore.Internal_Hbond>
0.0000

> <Gold.Chemscore.DEClash>
0.0720

> <Gold.Chemscore.DEInternal>
0.5677

> <Gold.Chemscore.Rot>
1.8794

> <Gold.Chemscore.Internal.Correction>
   9.000000E+99

> <Gold.Chemscore.Hbonds>
donor molecule, donor type, donor heavy atom, donor atom, acceptor molecule, acceptor atom, score
      L1  H     1    16       P1  8028  0.91
      P1  H  7997  8008       L1     8  0.17

> <Gold.Chemscore.Hbond.Weighted>
-4.0293

> <Gold.Chemscore.Metal.Weighted>
-0.0000

> <Gold.Chemscore.Lipo.Weighted>
-12.0715

> <Gold.Chemscore.Internal_Hbond.Weighted>
0.0000

> <Gold.Chemscore.DEClash.Weighted>
0.0720

> <Gold.Chemscore.DEInternal.Weighted>
0.5677

> <Gold.Chemscore.Rot.Weighted>
4.8112

> <Gold.Chemscore.Internal.Correction.Weighted>
   9.000000E+99

> <Gold.Protein.RotatedTorsions>
[ 6907 6896 6895 6894 ] final -165.82 input  -60.11 | X-H torsion
[ 7974 7965 7964 7962 ] final  -34.09 input  175.53 | X-H torsion
[ 8008 7997 7996 7995 ] final  -65.86 input   59.86 | X-H torsion
[ 10167 10162 10161 10158 ] final   53.68 input  -65.29 | X-H torsion
[ 10718 10713 10712 10709 ] final   -0.69 input   66.30 | X-H torsion
[ 10763 10752 10751 10750 ] final   89.01 input  -60.55 | X-H torsion
[ 11005 11000 10999 10996 ] final -160.70 input  -57.11 | X-H torsion

> <Gold.Protein.ActiveResidues>
 VAL166  LYS551  ARG553  GLY616  TRP617  ASP618  TYR619  PRO620  LYS621  CYS622 
 ASP623  PHE694  ASN695  SER759  ASP760  ASP761  ALA762  ILE779  LEU786  VAL792 
 PHE793  MET794  SER795  GLU796  ALA797  LYS798  CYS799  TRP800  GLU811  SER814 

> <Gold.Protein.RotatedAtoms>
  151.4338  133.3663  159.2772 H   0  0  0  0  0  0  0  0  0  0  0  0  # atno 6907 bound_to 6896
  150.9206  134.8625  159.7497 H   0  0  0  0  0  0  0  0  0  0  0  0  # atno 6908 bound_to 6896
  152.4980  134.4275  159.9553 H   0  0  0  0  0  0  0  0  0  0  0  0  # atno 6909 bound_to 6896
  146.0857  140.5996  142.8887 H   0  0  0  0  0  0  0  0  0  0  0  0  # atno 7974 bound_to 7965
  154.4698  140.0924  156.7115 H   0  0  0  0  0  0  0  0  0  0  0  0  # atno 8008 bound_to 7997
  155.4756  140.3466  155.4314 H   0  0  0  0  0  0  0  0  0  0  0  0  # atno 8009 bound_to 7997
  156.1019  140.1424  156.9444 H   0  0  0  0  0  0  0  0  0  0  0  0  # atno 8010 bound_to 7997
  140.2382  144.3612  150.6389 H   0  0  0  0  0  0  0  0  0  0  0  0  # atno 10167 bound_to 10162
  156.8166  130.5442  149.5702 H   0  0  0  0  0  0  0  0  0  0  0  0  # atno 10718 bound_to 10713
  153.1827  135.4486  155.0048 H   0  0  0  0  0  0  0  0  0  0  0  0  # atno 10763 bound_to 10752
  154.8040  135.3267  154.7481 H   0  0  0  0  0  0  0  0  0  0  0  0  # atno 10764 bound_to 10752
  153.7943  135.6967  153.4921 H   0  0  0  0  0  0  0  0  0  0  0  0  # atno 10765 bound_to 10752
  140.6286  134.4675  157.5228 H   0  0  0  0  0  0  0  0  0  0  0  0  # atno 11005 bound_to 11000
  144.7324  140.4711  143.6928 LP  0  0  0  0  0  0  0  0  0  0  0  0  # atno 17320 bound_to 7965
  145.6133  139.1515  143.3063 LP  0  0  0  0  0  0  0  0  0  0  0  0  # atno 17321 bound_to 7965
  140.6133  143.2171  151.6841 LP  0  0  0  0  0  0  0  0  0  0  0  0  # atno 17342 bound_to 10162
  139.5086  144.3605  152.0567 LP  0  0  0  0  0  0  0  0  0  0  0  0  # atno 17343 bound_to 10162
  156.1013  130.5971  150.9898 LP  0  0  0  0  0  0  0  0  0  0  0  0  # atno 17370 bound_to 10713
  157.6478  131.0901  150.8115 LP  0  0  0  0  0  0  0  0  0  0  0  0  # atno 17371 bound_to 10713
  139.9125  134.8315  156.1479 LP  0  0  0  0  0  0  0  0  0  0  0  0  # atno 17394 bound_to 11000
  141.0692  133.6805  156.2105 LP  0  0  0  0  0  0  0  0  0  0  0  0  # atno 17395 bound_to 11000

$$$$
