AV-unprocessed.smi:1033|AV-procd|sdf|4495|dock6
  -GOLD-   22720 2483D 1   1.00000     0.00000
 Structure written by MMmdl.
 56 58  0  0  0  0  0  0  0  0  2 V2000
  153.9398  142.7256  163.3534 C   0  0  0  0  0  0  0  0  0  0  0  0
  153.3220  142.6666  161.9672 C   0  0  0  0  0  0  0  0  0  0  0  0
  152.4536  143.7034  161.5577 C   0  0  0  0  0  0  0  0  0  0  0  0
  151.8563  143.6849  160.2783 C   0  0  0  0  0  0  0  0  0  0  0  0
  150.9872  144.5801  159.6788 N   0  0  0  0  0  0  0  0  0  0  0  0
  150.7910  144.0106  158.4933 C   0  0  0  0  0  0  0  0  0  0  0  0
  151.4286  142.8480  158.2547 N   0  0  0  0  0  0  0  0  0  0  0  0
  151.3667  142.0468  157.0457 C   0  0  0  0  0  0  0  0  0  0  0  0
  149.9460  141.5163  156.7723 C   0  0  1  0  0  0  0  0  0  0  0  0
  149.3371  142.2461  155.7255 O   0  0  0  0  0  0  0  0  0  0  0  0
  149.8188  140.0045  156.4778 C   0  0  0  0  0  0  0  0  0  0  0  0
  149.4158  139.6325  155.1131 N   0  0  0  0  0  0  0  0  0  0  0  0
  150.5106  139.1704  154.2513 C   0  0  0  0  0  0  0  0  0  0  0  0
  151.0528  137.7740  154.6250 C   0  0  0  0  0  0  0  0  0  0  0  0
  149.9533  136.7731  154.6335 N   0  3  0  0  0  0  0  0  0  0  0  0
  150.4040  135.3924  154.9423 C   0  0  0  0  0  0  0  0  0  0  0  0
  149.2346  134.3973  155.0826 C   0  0  2  0  0  0  0  0  0  0  0  0
  149.6385  133.0840  155.7687 C   0  0  0  0  0  0  0  0  0  0  0  0
  148.7551  134.0894  153.7909 O   0  0  0  0  0  0  0  0  0  0  0  0
  148.8520  137.2222  155.5215 C   0  0  0  0  0  0  0  0  0  0  0  0
  148.3620  138.6179  155.0910 C   0  0  0  0  0  0  0  0  0  0  0  0
  152.1541  142.5919  159.4128 C   0  0  0  0  0  0  0  0  0  0  0  0
  153.0182  141.5556  159.8077 C   0  0  0  0  0  0  0  0  0  0  0  0
  153.6057  141.5891  161.0898 C   0  0  0  0  0  0  0  0  0  0  0  0
  154.5359  140.4643  161.5080 C   0  0  0  0  0  0  0  0  0  0  0  0
  153.6449  143.6325  163.8821 H   0  0  0  0  0  0  0  0  0  0  0  0
  155.0281  142.7161  163.2888 H   0  0  0  0  0  0  0  0  0  0  0  0
  153.6199  141.8711  163.9501 H   0  0  0  0  0  0  0  0  0  0  0  0
  152.2371  144.5243  162.2257 H   0  0  0  0  0  0  0  0  0  0  0  0
  150.1429  144.4623  157.7563 H   0  0  0  0  0  0  0  0  0  0  0  0
  151.7131  142.6648  156.2172 H   0  0  0  0  0  0  0  0  0  0  0  0
  152.0688  141.2187  157.1502 H   0  0  0  0  0  0  0  0  0  0  0  0
  149.3448  141.7082  157.6619 H   0  0  0  0  0  0  0  0  0  0  0  0
  149.1200  143.1080  156.0470 H   0  0  0  0  0  0  0  0  0  0  0  0
  150.7468  139.5037  156.7504 H   0  0  0  0  0  0  0  0  0  0  0  0
  149.0792  139.6199  157.1816 H   0  0  0  0  0  0  0  0  0  0  0  0
  150.1532  139.1384  153.2210 H   0  0  0  0  0  0  0  0  0  0  0  0
  151.3331  139.8801  154.2480 H   0  0  0  0  0  0  0  0  0  0  0  0
  151.8126  137.4907  153.8979 H   0  0  0  0  0  0  0  0  0  0  0  0
  151.5474  137.7930  155.5965 H   0  0  0  0  0  0  0  0  0  0  0  0
  151.0988  135.0618  154.1681 H   0  0  0  0  0  0  0  0  0  0  0  0
  150.9681  135.3960  155.8765 H   0  0  0  0  0  0  0  0  0  0  0  0
  148.4065  134.8515  155.6256 H   0  0  0  0  0  0  0  0  0  0  0  0
  149.9761  133.2585  156.7905 H   0  0  0  0  0  0  0  0  0  0  0  0
  150.4463  132.5850  155.2321 H   0  0  0  0  0  0  0  0  0  0  0  0
  148.7963  132.3929  155.8183 H   0  0  0  0  0  0  0  0  0  0  0  0
  148.5261  134.8935  153.3499 H   0  0  0  0  0  0  0  0  0  0  0  0
  148.0221  136.5170  155.4619 H   0  0  0  0  0  0  0  0  0  0  0  0
  149.1880  137.2301  156.5596 H   0  0  0  0  0  0  0  0  0  0  0  0
  147.5308  138.9317  155.7236 H   0  0  0  0  0  0  0  0  0  0  0  0
  147.9529  138.5527  154.0815 H   0  0  0  0  0  0  0  0  0  0  0  0
  153.2255  140.7410  159.1297 H   0  0  0  0  0  0  0  0  0  0  0  0
  154.6300  139.7135  160.7229 H   0  0  0  0  0  0  0  0  0  0  0  0
  154.1588  139.9676  162.4022 H   0  0  0  0  0  0  0  0  0  0  0  0
  155.5321  140.8525  161.7204 H   0  0  0  0  0  0  0  0  0  0  0  0
  149.5676  136.7495  153.7002 H   0  0  0  0  0  0  0  0  0  0  0  0
  1  2  1  0  0  0  0
  1 26  1  0  0  0  0
  1 27  1  0  0  0  0
  1 28  1  0  0  0  0
  2 24  1  0  0  0  0
  2  3  2  0  0  0  0
  3  4  1  0  0  0  0
  3 29  1  0  0  0  0
  4 22  2  0  0  0  0
  4  5  1  0  0  0  0
  5  6  2  0  0  0  0
  6  7  1  0  0  0  0
  6 30  1  0  0  0  0
  7  8  1  0  0  0  0
  7 22  1  0  0  0  0
  8  9  1  0  0  0  0
  8 31  1  0  0  0  0
  8 32  1  0  0  0  0
  9 10  1  0  0  0  0
  9 11  1  0  0  0  0
  9 33  1  0  0  0  0
 10 34  1  0  0  0  0
 11 12  1  0  0  0  0
 11 35  1  0  0  0  0
 11 36  1  0  0  0  0
 12 21  1  0  0  0  0
 12 13  1  0  0  0  0
 13 14  1  0  0  0  0
 13 37  1  0  0  0  0
 13 38  1  0  0  0  0
 14 15  1  0  0  0  0
 14 39  1  0  0  0  0
 14 40  1  0  0  0  0
 15 16  1  0  0  0  0
 15 20  1  0  0  0  0
 15 56  1  0  0  0  0
 16 17  1  0  0  0  0
 16 41  1  0  0  0  0
 16 42  1  0  0  0  0
 17 18  1  0  0  0  0
 17 19  1  0  0  0  0
 17 43  1  0  0  0  0
 18 44  1  0  0  0  0
 18 45  1  0  0  0  0
 18 46  1  0  0  0  0
 19 47  1  0  0  0  0
 20 21  1  0  0  0  0
 20 48  1  0  0  0  0
 20 49  1  0  0  0  0
 21 50  1  0  0  0  0
 21 51  1  0  0  0  0
 22 23  1  0  0  0  0
 23 24  2  0  0  0  0
 23 52  1  0  0  0  0
 24 25  1  0  0  0  0
 25 53  1  0  0  0  0
 25 54  1  0  0  0  0
 25 55  1  0  0  0  0
M  CHG  1  15   1
M  END
> <s_m_source_file>
AV-unprocessed.smi

> <i_m_source_file_index>
1033

> <i_lp_mmshare_version>
43012

> <i_f3d_flags>
0

> <s_epik_input>
W0NIM11jKFtjSF0xKWMoW0NIM10pW2NIXWMoYzEyKW4oW2NIXW4yKVtDSDJdW0NASF0oW09IXSlbQ0gyXU4zW0NIMl1bQ0gyXU4oW0NIMl1bQ0gyXTMpW0NIMl1bQ0BIXShbQ0gzXSlbT0hd

> <s_epik_cmdline>
J2VwaWtfcHl0aG9uJywgJy1waCcsICc3LjAnLCAnLXRuJywgJzgnLCAnLW1hJywgJzIwMCcsICctbWV0YWxfYmluZGluZycsICctaW1hZScsICc8aW5maWxlLm1hZT4nLCAnLW9tYWUnLCAnPG91dGZpbGUubWFlPic=

> <r_epik_Ionization_Penalty>
0.129152

> <r_epik_Ionization_Penalty_Charging>
0.00083231

> <r_epik_Ionization_Penalty_Neutral>
0.128319

> <r_epik_State_Penalty>
0.556973

> <r_epik_Charging_Adjusted_Penalty>
0.557805

> <i_epik_Tot_Q>
1

> <i_epik_Tot_abs_Q>
1

> <r_epik_Metal_State_Penalty>
0.490047

> <b_epik_Metal_Only>
0

> <s_lp_Force_Field>
OPLS_2005

> <r_lp_Energy>
40.305

> <b_lp_Chiralities_Consistent>
1

> <s_lp_Variant>
AV-unprocessed.smi:1033-6

> <Gold.Version>
5.8.1

> <Gold.Id.Protein>
6NUR|6NUR_protein|mol2

> <Gold.PLP.Fitness>
64.5856

> <Gold.PLP.PLP>
-53.4638

> <Gold.PLP.part.hbond>
-2.7935

> <Gold.PLP.part.metal>
0.0000

> <Gold.PLP.part.buried>
-6.8888

> <Gold.PLP.part.nonpolar>
-43.3011

> <Gold.PLP.part.repulsive>
0.2448

> <Gold.PLP.ligand.clash>
0.0000

> <Gold.PLP.ligand.torsion>
2.1587

> <Gold.PLP.Chemscore.Hbond>
4.0000

> <Gold.PLP.Chemscore.CHOScore>
1.0540

> <Gold.PLP.Chemscore.Metal>
0.0000

> <Gold.Chemscore.Hbonds>
donor molecule, donor type, donor heavy atom, donor atom, acceptor molecule, acceptor atom, score
      L1  H    10    34       P1  8028  0.93
      L1  H    15    56       P1  7948  2.00
      L1  H    19    47       P1  7948  0.93
      L1  C     6    30       P1  8028  0.95
      L1  C     6    30       P1  8029  0.14

> <Gold.PLP.Chemscore.Internal.Correction>
0.2771

> <Gold.Rescore>
     Score         DG    S(hbond)    S(metal)    S(lipo)     H(rot)  DE(clash)    DE(int)     intcor
     20.13     -22.81       2.79        0.00     135.59       3.07       0.39       2.29       ----

> <Gold.Chemscore.Fitness>
20.1285

> <Gold.Chemscore.DG>
-22.8093

> <Gold.Chemscore.ZeroCoef>
-5.4800

> <Gold.Chemscore.Hbond>
2.7881

> <Gold.Chemscore.Metal>
0.0000

> <Gold.Chemscore.Lipo>
135.5860

> <Gold.Chemscore.Internal_Hbond>
0.0000

> <Gold.Chemscore.DEClash>
0.3903

> <Gold.Chemscore.DEInternal>
2.2905

> <Gold.Chemscore.Rot>
3.0650

> <Gold.Chemscore.Internal.Correction>
   9.000000E+99

> <Gold.Chemscore.Hbonds>
donor molecule, donor type, donor heavy atom, donor atom, acceptor molecule, acceptor atom, score
      L1  H    10    34       P1  8028  0.89
      L1  H    15    56       P1  7948  0.77
      L1  H    19    47       P1  7948  0.59

> <Gold.Chemscore.Hbond.Weighted>
-9.3123

> <Gold.Chemscore.Metal.Weighted>
-0.0000

> <Gold.Chemscore.Lipo.Weighted>
-15.8636

> <Gold.Chemscore.Internal_Hbond.Weighted>
0.0000

> <Gold.Chemscore.DEClash.Weighted>
0.3903

> <Gold.Chemscore.DEInternal.Weighted>
2.2905

> <Gold.Chemscore.Rot.Weighted>
7.8465

> <Gold.Chemscore.Internal.Correction.Weighted>
   9.000000E+99

> <Gold.Protein.RotatedTorsions>
[ 6907 6896 6895 6894 ] final -127.56 input  -60.11 | X-H torsion
[ 7974 7965 7964 7962 ] final   43.84 input  175.53 | X-H torsion
[ 8008 7997 7996 7995 ] final  154.80 input   59.86 | X-H torsion
[ 10167 10162 10161 10158 ] final  -28.60 input  -65.29 | X-H torsion
[ 10718 10713 10712 10709 ] final   -4.34 input   66.30 | X-H torsion
[ 10763 10752 10751 10750 ] final -103.49 input  -60.55 | X-H torsion
[ 11005 11000 10999 10996 ] final  -25.92 input  -57.11 | X-H torsion

> <Gold.Protein.ActiveResidues>
 VAL166  LYS551  ARG553  GLY616  TRP617  ASP618  TYR619  PRO620  LYS621  CYS622 
 ASP623  PHE694  ASN695  SER759  ASP760  ASP761  ALA762  ILE779  LEU786  VAL792 
 PHE793  MET794  SER795  GLU796  ALA797  LYS798  CYS799  TRP800  GLU811  SER814 

> <Gold.Protein.RotatedAtoms>
  150.9086  133.7026  159.2860 H   0  0  0  0  0  0  0  0  0  0  0  0  # atno 6907 bound_to 6896
  151.4520  135.1029  159.9710 H   0  0  0  0  0  0  0  0  0  0  0  0  # atno 6908 bound_to 6896
  152.4917  133.8470  159.7237 H   0  0  0  0  0  0  0  0  0  0  0  0  # atno 6909 bound_to 6896
  146.0620  139.5141  142.9652 H   0  0  0  0  0  0  0  0  0  0  0  0  # atno 7974 bound_to 7965
  156.2512  140.1956  156.6703 H   0  0  0  0  0  0  0  0  0  0  0  0  # atno 8008 bound_to 7997
  154.6398  140.0585  156.9857 H   0  0  0  0  0  0  0  0  0  0  0  0  # atno 8009 bound_to 7997
  155.1581  140.3257  155.4420 H   0  0  0  0  0  0  0  0  0  0  0  0  # atno 8010 bound_to 7997
  140.7268  143.3997  151.1286 H   0  0  0  0  0  0  0  0  0  0  0  0  # atno 10167 bound_to 10162
  156.7628  130.5275  149.5782 H   0  0  0  0  0  0  0  0  0  0  0  0  # atno 10718 bound_to 10713
  154.7811  135.4821  153.9846 H   0  0  0  0  0  0  0  0  0  0  0  0  # atno 10763 bound_to 10752
  153.1495  135.6788  153.8911 H   0  0  0  0  0  0  0  0  0  0  0  0  # atno 10764 bound_to 10752
  153.8560  135.3161  155.3413 H   0  0  0  0  0  0  0  0  0  0  0  0  # atno 10765 bound_to 10752
  140.8982  133.7542  156.0509 H   0  0  0  0  0  0  0  0  0  0  0  0  # atno 11005 bound_to 11000
  145.6543  141.0256  143.1743 LP  0  0  0  0  0  0  0  0  0  0  0  0  # atno 17320 bound_to 7965
  144.7180  139.8127  143.7392 LP  0  0  0  0  0  0  0  0  0  0  0  0  # atno 17321 bound_to 7965
  139.7615  143.8629  152.3101 LP  0  0  0  0  0  0  0  0  0  0  0  0  # atno 17342 bound_to 10162
  139.8516  144.7161  150.9207 LP  0  0  0  0  0  0  0  0  0  0  0  0  # atno 17343 bound_to 10162
  156.1328  130.6190  151.0358 LP  0  0  0  0  0  0  0  0  0  0  0  0  # atno 17370 bound_to 10713
  157.6727  131.0857  150.7572 LP  0  0  0  0  0  0  0  0  0  0  0  0  # atno 17371 bound_to 10713
  140.8263  134.3230  157.5364 LP  0  0  0  0  0  0  0  0  0  0  0  0  # atno 17394 bound_to 11000
  139.8738  134.9338  156.3590 LP  0  0  0  0  0  0  0  0  0  0  0  0  # atno 17395 bound_to 11000

$$$$
