#       Name:                AV-unprocessed.smi:3202
#       Creating user name   scv26
#       Creation time:       Fri Mar 27 18:07:54 2020


#       File generated by GOLD software.
#

@<TRIPOS>MOLECULE
AV-unprocessed.smi:3202
    44    45     1
SMALL
NO_CHARGES


@<TRIPOS>ATOM
      1 ****        -5.9762  -2.3608   0.9243 C.3            1 S1                 0.0000
      2 ****        -4.6542  -1.6719   0.8989 C.2            1 S1                 0.0000
      3 ****        -3.3807  -2.1610   0.8213 C.2            1 S1                 0.0000
      4 ****        -2.5552  -0.9984   0.8412 C.2            1 S1                 0.0000
      5 ****        -1.0542  -0.9237   0.7865 C.3            1 S1                 0.0000
      6 ****        -0.5191  -0.4617  -0.5861 C.3            1 S1                 0.0000
      7 ****        -0.9252  -1.4170  -1.7205 C.3            1 S1                 0.0000
      8 ****         0.9572  -0.3478  -0.5537 N.4            1 S1                 1.0000
      9 ****         1.4977   1.0246  -0.4041 C.3            1 S1                 0.0000
     10 ****         1.2276   1.6573   0.9660 C.3            1 S1                 0.0000
     11 ****         2.2945   2.7475   1.1193 C.3            1 S1                 0.0000
     12 ****         3.3328   2.4970   0.0136 C.3            1 S1                 0.0000
     13 ****         3.0294   1.1064  -0.5771 C.3            1 S1                 0.0000
     14 ****         3.7842   0.0219   0.2269 C.3            1 S1                 0.0000
     15 ****         3.4428   1.0280  -2.0589 C.3            1 S1                 0.0000
     16 ****        -3.2596   0.1207   0.9262 N.2            1 S1                 0.0000
     17 ****        -4.5368  -0.3025   0.9597 N.pl3          1 S1                 0.0000
     18 ****        -5.3085   0.3460   1.0277 H              1 S1                 0.0000
     19 ****        -5.8530  -3.4430   0.8748 H              1 S1                 0.0000
     20 ****        -6.5905  -2.0527   0.0781 H              1 S1                 0.0000
     21 ****        -6.5182  -2.1261   1.8406 H              1 S1                 0.0000
     22 ****        -3.0818  -3.1971   0.7606 H              1 S1                 0.0000
     23 ****        -0.7056  -0.2528   1.5710 H              1 S1                 0.0000
     24 ****        -0.6329  -1.8999   1.0300 H              1 S1                 0.0000
     25 ****        -0.9430   0.5168  -0.8186 H              1 S1                 0.0000
     26 ****        -2.0084  -1.4683  -1.8337 H              1 S1                 0.0000
     27 ****        -0.5613  -2.4285  -1.5383 H              1 S1                 0.0000
     28 ****        -0.5187  -1.0846  -2.6762 H              1 S1                 0.0000
     29 ****         1.3222  -0.9391   0.1793 H              1 S1                 0.0000
     30 ****         1.0373   1.6563  -1.1664 H              1 S1                 0.0000
     31 ****         0.2157   2.0564   1.0458 H              1 S1                 0.0000
     32 ****         1.3530   0.9190   1.7588 H              1 S1                 0.0000
     33 ****         1.8585   3.7413   1.0119 H              1 S1                 0.0000
     34 ****         2.7511   2.6978   2.1084 H              1 S1                 0.0000
     35 ****         3.2118   3.2632  -0.7540 H              1 S1                 0.0000
     36 ****         4.3555   2.5843   0.3828 H              1 S1                 0.0000
     37 ****         4.8631   0.1626   0.1526 H              1 S1                 0.0000
     38 ****         3.5674  -0.9802  -0.1439 H              1 S1                 0.0000
     39 ****         3.5304   0.0434   1.2870 H              1 S1                 0.0000
     40 ****         4.5173   1.1749  -2.1759 H              1 S1                 0.0000
     41 ****         2.9417   1.7890  -2.6581 H              1 S1                 0.0000
     42 ****         3.1944   0.0570  -2.4885 H              1 S1                 0.0000
     43 ****         1.2987  -0.6948  -1.4385 H              1 S1                 0.0000
     44 ****        -2.9210   1.0611   0.9580 LP             1 S1                 0.0000
@<TRIPOS>BOND
    1    1    2 1     
    2    1   19 1     
    3    1   20 1     
    4    1   21 1     
    5    2   17 1     
    6    2    3 2     
    7    3    4 1     
    8    3   22 1     
    9    4    5 1     
   10    4   16 2     
   11    5    6 1     
   12    5   23 1     
   13    5   24 1     
   14    6    7 1     
   15    6    8 1     
   16    6   25 1     
   17    7   26 1     
   18    7   27 1     
   19    7   28 1     
   20    8    9 1     
   21    8   29 1     
   22    8   43 1     
   23    9   13 1     
   24    9   10 1     
   25    9   30 1     
   26   10   11 1     
   27   10   31 1     
   28   10   32 1     
   29   11   12 1     
   30   11   33 1     
   31   11   34 1     
   32   12   13 1     
   33   12   35 1     
   34   12   36 1     
   35   13   14 1     
   36   13   15 1     
   37   14   37 1     
   38   14   38 1     
   39   14   39 1     
   40   15   40 1     
   41   15   41 1     
   42   15   42 1     
   43   16   17 1     
   44   17   18 1     
   45   16   44 1     
@<TRIPOS>SUBSTRUCTURE
      1 S1             1
@<TRIPOS>SET
LONE_PAIRS      STATIC     ATOMS    <user>   **** ""
1 44
DONOR_HYDROGENS      STATIC     ATOMS    <user>   **** ""
3 29 43 18
ATOM$BLUE        STATIC     ATOMS    COLORGROUP SYSTEM
1 44
ATOM$RED        STATIC     ATOMS    COLORGROUP SYSTEM
3 29 43 18
