AV-unprocessed.smi:2203|AV-procd|sdf|8936|dock5
  -GOLD-   2272012153D 1   1.00000     0.00000
 Structure written by MMmdl.
 48 49  0  0  0  0  0  0  0  0  1 V2000
  152.1696  140.3833  156.7028 C   0  0  0  0  0  0  0  0  0  0  0  0
  152.6530  140.8702  158.0389 C   0  0  0  0  0  0  0  0  0  0  0  0
  152.3690  142.1045  158.4164 N   0  0  0  0  0  0  0  0  0  0  0  0
  152.9355  142.2357  159.6338 N   0  0  0  0  0  0  0  0  0  0  0  0
  152.8197  143.5064  160.3340 C   0  0  0  0  0  0  0  0  0  0  0  0
  152.2392  144.6354  159.4546 C   0  0  0  0  0  0  0  0  0  0  0  0
  150.7310  144.4383  159.2433 C   0  0  0  0  0  0  0  0  0  0  0  0
  152.9655  144.7814  158.1056 C   0  0  0  0  0  0  0  0  0  0  0  0
  153.5667  141.0708  160.0319 C   0  0  0  0  0  0  0  0  0  0  0  0
  154.2693  140.9405  161.3456 C   0  0  0  0  0  0  0  0  0  0  0  0
  153.4081  140.1620  159.0197 C   0  0  0  0  0  0  0  0  0  0  0  0
  153.9126  138.7423  158.9447 C   0  0  0  0  0  0  0  0  0  0  0  0
  152.7567  137.7580  159.1288 C   0  0  0  0  0  0  0  0  0  0  0  0
  152.6996  137.0577  160.1393 O   0  0  0  0  0  0  0  0  0  0  0  0
  151.8515  137.7038  158.1395 N   0  0  0  0  0  0  0  0  0  0  0  0
  150.7002  136.8107  158.0997 C   0  0  0  0  0  0  0  0  0  0  0  0
  150.8125  135.8034  156.9438 C   0  0  1  0  0  0  0  0  0  0  0  0
  151.4396  136.3795  155.6772 C   0  0  0  0  0  0  0  0  0  0  0  0
  151.9908  135.1512  154.9700 C   0  0  0  0  0  0  0  0  0  0  0  0
  152.0408  134.0803  156.0647 C   0  0  0  0  0  0  0  0  0  0  0  0
  151.7137  134.7575  157.2708 O   0  0  0  0  0  0  0  0  0  0  0  0
  151.2689  139.7791  156.8114 H   0  0  0  0  0  0  0  0  0  0  0  0
  152.9243  139.7703  156.2108 H   0  0  0  0  0  0  0  0  0  0  0  0
  151.9345  141.2120  156.0339 H   0  0  0  0  0  0  0  0  0  0  0  0
  152.1940  143.3639  161.2168 H   0  0  0  0  0  0  0  0  0  0  0  0
  153.8058  143.7848  160.7062 H   0  0  0  0  0  0  0  0  0  0  0  0
  152.3666  145.5756  159.9915 H   0  0  0  0  0  0  0  0  0  0  0  0
  150.5247  143.5156  158.6998 H   0  0  0  0  0  0  0  0  0  0  0  0
  150.3020  145.2633  158.6738 H   0  0  0  0  0  0  0  0  0  0  0  0
  150.2033  144.3886  160.1961 H   0  0  0  0  0  0  0  0  0  0  0  0
  152.9178  143.8569  157.5293 H   0  0  0  0  0  0  0  0  0  0  0  0
  154.0167  145.0369  158.2402 H   0  0  0  0  0  0  0  0  0  0  0  0
  152.5187  145.5723  157.5028 H   0  0  0  0  0  0  0  0  0  0  0  0
  154.4876  139.8971  161.5727 H   0  0  0  0  0  0  0  0  0  0  0  0
  153.6598  141.3316  162.1601 H   0  0  0  0  0  0  0  0  0  0  0  0
  155.2138  141.4844  161.3346 H   0  0  0  0  0  0  0  0  0  0  0  0
  154.3967  138.5389  157.9890 H   0  0  0  0  0  0  0  0  0  0  0  0
  154.6690  138.5509  159.7067 H   0  0  0  0  0  0  0  0  0  0  0  0
  151.9784  138.3171  157.3478 H   0  0  0  0  0  0  0  0  0  0  0  0
  150.6039  136.2862  159.0517 H   0  0  0  0  0  0  0  0  0  0  0  0
  149.7997  137.4150  157.9862 H   0  0  0  0  0  0  0  0  0  0  0  0
  149.8367  135.3743  156.7074 H   0  0  0  0  0  0  0  0  0  0  0  0
  150.7264  136.9367  155.0691 H   0  0  0  0  0  0  0  0  0  0  0  0
  152.2602  137.0507  155.9346 H   0  0  0  0  0  0  0  0  0  0  0  0
  151.3351  134.8351  154.1582 H   0  0  0  0  0  0  0  0  0  0  0  0
  152.9766  135.3490  154.5480 H   0  0  0  0  0  0  0  0  0  0  0  0
  151.2979  133.3042  155.8754 H   0  0  0  0  0  0  0  0  0  0  0  0
  153.0185  133.6037  156.1394 H   0  0  0  0  0  0  0  0  0  0  0  0
  1  2  1  0  0  0  0
  1 22  1  0  0  0  0
  1 23  1  0  0  0  0
  1 24  1  0  0  0  0
  2 11  1  0  0  0  0
  2  3  2  0  0  0  0
  3  4  1  0  0  0  0
  4  5  1  0  0  0  0
  4  9  1  0  0  0  0
  5  6  1  0  0  0  0
  5 25  1  0  0  0  0
  5 26  1  0  0  0  0
  6  7  1  0  0  0  0
  6  8  1  0  0  0  0
  6 27  1  0  0  0  0
  7 28  1  0  0  0  0
  7 29  1  0  0  0  0
  7 30  1  0  0  0  0
  8 31  1  0  0  0  0
  8 32  1  0  0  0  0
  8 33  1  0  0  0  0
  9 10  1  0  0  0  0
  9 11  2  0  0  0  0
 10 34  1  0  0  0  0
 10 35  1  0  0  0  0
 10 36  1  0  0  0  0
 11 12  1  0  0  0  0
 12 13  1  0  0  0  0
 12 37  1  0  0  0  0
 12 38  1  0  0  0  0
 13 14  2  0  0  0  0
 13 15  1  0  0  0  0
 15 16  1  0  0  0  0
 15 39  1  0  0  0  0
 16 17  1  0  0  0  0
 16 40  1  0  0  0  0
 16 41  1  0  0  0  0
 17 21  1  0  0  0  0
 17 18  1  0  0  0  0
 17 42  1  0  0  0  0
 18 19  1  0  0  0  0
 18 43  1  0  0  0  0
 18 44  1  0  0  0  0
 19 20  1  0  0  0  0
 19 45  1  0  0  0  0
 19 46  1  0  0  0  0
 20 21  1  0  0  0  0
 20 47  1  0  0  0  0
 20 48  1  0  0  0  0
M  END
> <s_m_source_file>
AV-unprocessed.smi

> <i_m_source_file_index>
2203

> <i_lp_mmshare_version>
43012

> <i_f3d_flags>
0

> <s_epik_input>
W0NIM11jMW5uKFtDSDJdW0NIXShbQ0gzXSlbQ0gzXSljKFtDSDNdKWMxW0NIMl1DKD1PKVtOSF1bQ0gyXVtDQEBIXTJbQ0gyXVtDSDJdW0NIMl1PMg==

> <s_epik_cmdline>
J2VwaWtfcHl0aG9uJywgJy1waCcsICc3LjAnLCAnLXRuJywgJzgnLCAnLW1hJywgJzIwMCcsICctbWV0YWxfYmluZGluZycsICctaW1hZScsICc8aW5maWxlLm1hZT4nLCAnLW9tYWUnLCAnPG91dGZpbGUubWFlPic=

> <r_lp_tautomer_probability>
1

> <r_epik_Ionization_Penalty>
0.00306713

> <r_epik_Ionization_Penalty_Charging>
0

> <r_epik_Ionization_Penalty_Neutral>
0.00306713

> <r_epik_State_Penalty>
0.00215672

> <r_epik_Charging_Adjusted_Penalty>
0.00215672

> <i_epik_Tot_Q>
0

> <i_epik_Tot_abs_Q>
0

> <r_epik_Metal_State_Penalty>
-0

> <b_epik_Metal_Only>
0

> <s_lp_Force_Field>
OPLS_2005

> <r_lp_Energy>
15.0648

> <b_lp_Chiralities_Consistent>
1

> <s_lp_Variant>
AV-unprocessed.smi:2203-2

> <Gold.Version>
5.8.1

> <Gold.Id.Protein>
6NUR|6NUR_protein|mol2

> <Gold.PLP.Fitness>
46.2555

> <Gold.PLP.PLP>
-42.8055

> <Gold.PLP.part.hbond>
-2.0000

> <Gold.PLP.part.metal>
0.0000

> <Gold.PLP.part.buried>
-6.4293

> <Gold.PLP.part.nonpolar>
-34.9600

> <Gold.PLP.part.repulsive>
0.0932

> <Gold.PLP.ligand.clash>
0.0000

> <Gold.PLP.ligand.torsion>
0.5872

> <Gold.PLP.Chemscore.Hbond>
1.5280

> <Gold.PLP.Chemscore.CHOScore>
0.0000

> <Gold.PLP.Chemscore.Metal>
0.0000

> <Gold.Chemscore.Hbonds>
donor molecule, donor type, donor heavy atom, donor atom, acceptor molecule, acceptor atom, score
      P1  H  6896  6907       L1    14  0.81

> <Gold.PLP.Chemscore.Internal.Correction>
0.0404

> <Gold.Rescore>
     Score         DG    S(hbond)    S(metal)    S(lipo)     H(rot)  DE(clash)    DE(int)     intcor
     16.78     -20.20       1.82        0.00     109.59       1.63       0.01       3.41       ----

> <Gold.Chemscore.Fitness>
16.7817

> <Gold.Chemscore.DG>
-20.2035

> <Gold.Chemscore.ZeroCoef>
-5.4800

> <Gold.Chemscore.Hbond>
1.8209

> <Gold.Chemscore.Metal>
0.0000

> <Gold.Chemscore.Lipo>
109.5900

> <Gold.Chemscore.Internal_Hbond>
0.0000

> <Gold.Chemscore.DEClash>
0.0075

> <Gold.Chemscore.DEInternal>
3.4144

> <Gold.Chemscore.Rot>
1.6329

> <Gold.Chemscore.Internal.Correction>
   9.000000E+99

> <Gold.Chemscore.Hbonds>
donor molecule, donor type, donor heavy atom, donor atom, acceptor molecule, acceptor atom, score
      P1  H  6896  6907       L1    14  0.79

> <Gold.Chemscore.Hbond.Weighted>
-6.0817

> <Gold.Chemscore.Metal.Weighted>
-0.0000

> <Gold.Chemscore.Lipo.Weighted>
-12.8220

> <Gold.Chemscore.Internal_Hbond.Weighted>
0.0000

> <Gold.Chemscore.DEClash.Weighted>
0.0075

> <Gold.Chemscore.DEInternal.Weighted>
3.4144

> <Gold.Chemscore.Rot.Weighted>
4.1803

> <Gold.Chemscore.Internal.Correction.Weighted>
   9.000000E+99

> <Gold.Protein.RotatedTorsions>
[ 6907 6896 6895 6894 ] final   24.97 input  -60.11 | X-H torsion
[ 7974 7965 7964 7962 ] final -125.31 input  175.53 | X-H torsion
[ 8008 7997 7996 7995 ] final  162.20 input   59.86 | X-H torsion
[ 10167 10162 10161 10158 ] final   45.81 input  -65.29 | X-H torsion
[ 10718 10713 10712 10709 ] final  -12.57 input   66.30 | X-H torsion
[ 10763 10752 10751 10750 ] final  175.07 input  -60.55 | X-H torsion
[ 11005 11000 10999 10996 ] final -106.47 input  -57.11 | X-H torsion

> <Gold.Protein.ActiveResidues>
 VAL166  LYS551  ARG553  GLY616  TRP617  ASP618  TYR619  PRO620  LYS621  CYS622 
 ASP623  PHE694  ASN695  SER759  ASP760  ASP761  ALA762  ILE779  LEU786  VAL792 
 PHE793  MET794  SER795  GLU796  ALA797  LYS798  CYS799  TRP800  GLU811  SER814 

> <Gold.Protein.RotatedAtoms>
  151.9655  135.0102  160.0549 H   0  0  0  0  0  0  0  0  0  0  0  0  # atno 6907 bound_to 6896
  152.1830  133.4715  159.4976 H   0  0  0  0  0  0  0  0  0  0  0  0  # atno 6908 bound_to 6896
  150.6921  134.1727  159.4261 H   0  0  0  0  0  0  0  0  0  0  0  0  # atno 6909 bound_to 6896
  144.9989  140.7802  143.4508 H   0  0  0  0  0  0  0  0  0  0  0  0  # atno 7974 bound_to 7965
  156.2048  140.1757  156.7822 H   0  0  0  0  0  0  0  0  0  0  0  0  # atno 8008 bound_to 7997
  154.5641  140.0694  156.8894 H   0  0  0  0  0  0  0  0  0  0  0  0  # atno 8009 bound_to 7997
  155.2794  140.3348  155.4262 H   0  0  0  0  0  0  0  0  0  0  0  0  # atno 8010 bound_to 7997
  140.3203  144.2713  150.6184 H   0  0  0  0  0  0  0  0  0  0  0  0  # atno 10167 bound_to 10162
  156.6428  130.4932  149.6089 H   0  0  0  0  0  0  0  0  0  0  0  0  # atno 10718 bound_to 10713
  154.4626  135.2768  155.1702 H   0  0  0  0  0  0  0  0  0  0  0  0  # atno 10763 bound_to 10752
  154.3483  135.6155  153.5634 H   0  0  0  0  0  0  0  0  0  0  0  0  # atno 10764 bound_to 10752
  152.9856  135.5805  154.4991 H   0  0  0  0  0  0  0  0  0  0  0  0  # atno 10765 bound_to 10752
  141.1003  133.8897  157.1860 H   0  0  0  0  0  0  0  0  0  0  0  0  # atno 11005 bound_to 11000
  145.2181  139.2172  143.5107 LP  0  0  0  0  0  0  0  0  0  0  0  0  # atno 17320 bound_to 7965
  146.3448  140.2033  142.8589 LP  0  0  0  0  0  0  0  0  0  0  0  0  # atno 17321 bound_to 7965
  140.5490  143.2210  151.7959 LP  0  0  0  0  0  0  0  0  0  0  0  0  # atno 17342 bound_to 10162
  139.4875  144.4502  151.9663 LP  0  0  0  0  0  0  0  0  0  0  0  0  # atno 17343 bound_to 10162
  156.2146  130.6700  151.1305 LP  0  0  0  0  0  0  0  0  0  0  0  0  # atno 17370 bound_to 10713
  157.7166  131.0706  150.6304 LP  0  0  0  0  0  0  0  0  0  0  0  0  # atno 17371 bound_to 10713
  139.9852  135.0084  156.9845 LP  0  0  0  0  0  0  0  0  0  0  0  0  # atno 17394 bound_to 11000
  140.5039  134.1069  155.7256 LP  0  0  0  0  0  0  0  0  0  0  0  0  # atno 17395 bound_to 11000

$$$$
