AV-unprocessed.smi:2731|AV-procd|sdf|10530|dock3
  -GOLD-   2272014573D 1   1.00000     0.00000
 Structure written by MMmdl.
 45 46  0  0  0  0  0  0  0  0  1 V2000
  153.4996  142.5192  163.4350 C   0  0  0  0  0  0  0  0  0  0  0  0
  153.0010  142.9711  162.0928 C   0  0  0  0  0  0  0  0  0  0  0  0
  152.2476  144.0554  162.0203 N   0  0  0  0  0  0  0  0  0  0  0  0
  151.9527  144.1838  160.7116 N   0  0  0  0  0  0  0  0  0  0  0  0
  151.1331  145.2976  160.2749 C   0  0  0  0  0  0  0  0  0  0  0  0
  152.5178  143.1750  159.9556 C   0  0  0  0  0  0  0  0  0  0  0  0
  152.3266  143.0863  158.4754 C   0  0  0  0  0  0  0  0  0  0  0  0
  153.2139  142.3692  160.8174 C   0  0  0  0  0  0  0  0  0  0  0  0
  154.0057  141.1201  160.5089 C   0  0  0  0  0  0  0  0  0  0  0  0
  153.6204  140.4705  159.1650 C   0  0  0  0  0  0  0  0  0  0  0  0
  153.6250  139.0111  159.2384 N   0  0  0  0  0  0  0  0  0  0  0  0
  154.6507  138.2209  158.8844 C   0  0  0  0  0  0  0  0  0  0  0  0
  155.6898  138.6496  158.3803 O   0  0  0  0  0  0  0  0  0  0  0  0
  154.4700  136.7218  159.1550 C   0  0  0  0  0  0  0  0  0  0  0  0
  154.5532  136.3984  160.5853 N   0  0  0  0  0  0  0  0  0  0  0  0
  153.5443  136.9998  161.4662 C   0  0  0  0  0  0  0  0  0  0  0  0
  154.2114  137.6494  162.6901 C   0  0  0  0  0  0  0  0  0  0  0  0
  155.1579  136.6794  163.4259 C   0  0  0  0  0  0  0  0  0  0  0  0
  155.5221  135.4105  162.6222 C   0  0  0  0  0  0  0  0  0  0  0  0
  155.5477  135.6428  161.1058 C   0  0  0  0  0  0  0  0  0  0  0  0
  156.4428  135.1346  160.4307 O   0  0  0  0  0  0  0  0  0  0  0  0
  152.7192  141.9871  163.9793 H   0  0  0  0  0  0  0  0  0  0  0  0
  153.8167  143.3648  164.0461 H   0  0  0  0  0  0  0  0  0  0  0  0
  154.3518  141.8471  163.3371 H   0  0  0  0  0  0  0  0  0  0  0  0
  150.2795  144.9283  159.7061 H   0  0  0  0  0  0  0  0  0  0  0  0
  151.7244  145.9593  159.6414 H   0  0  0  0  0  0  0  0  0  0  0  0
  150.7639  145.8639  161.1316 H   0  0  0  0  0  0  0  0  0  0  0  0
  152.5885  142.0970  158.1011 H   0  0  0  0  0  0  0  0  0  0  0  0
  152.9502  143.8181  157.9620 H   0  0  0  0  0  0  0  0  0  0  0  0
  151.2883  143.2729  158.2011 H   0  0  0  0  0  0  0  0  0  0  0  0
  155.0735  141.3377  160.4961 H   0  0  0  0  0  0  0  0  0  0  0  0
  153.8787  140.3835  161.3025 H   0  0  0  0  0  0  0  0  0  0  0  0
  152.6236  140.7994  158.8703 H   0  0  0  0  0  0  0  0  0  0  0  0
  154.2944  140.8174  158.3801 H   0  0  0  0  0  0  0  0  0  0  0  0
  152.8060  138.5735  159.6346 H   0  0  0  0  0  0  0  0  0  0  0  0
  153.4999  136.3989  158.7734 H   0  0  0  0  0  0  0  0  0  0  0  0
  155.2128  136.1680  158.5787 H   0  0  0  0  0  0  0  0  0  0  0  0
  152.9589  137.7487  160.9319 H   0  0  0  0  0  0  0  0  0  0  0  0
  152.8435  136.2260  161.7828 H   0  0  0  0  0  0  0  0  0  0  0  0
  154.7847  138.5134  162.3506 H   0  0  0  0  0  0  0  0  0  0  0  0
  153.4584  138.0384  163.3756 H   0  0  0  0  0  0  0  0  0  0  0  0
  156.0677  137.2114  163.7067 H   0  0  0  0  0  0  0  0  0  0  0  0
  154.6959  136.3714  164.3644 H   0  0  0  0  0  0  0  0  0  0  0  0
  156.4793  135.0117  162.9601 H   0  0  0  0  0  0  0  0  0  0  0  0
  154.7805  134.6346  162.8152 H   0  0  0  0  0  0  0  0  0  0  0  0
  1  2  1  0  0  0  0
  1 22  1  0  0  0  0
  1 23  1  0  0  0  0
  1 24  1  0  0  0  0
  2  8  1  0  0  0  0
  2  3  2  0  0  0  0
  3  4  1  0  0  0  0
  4  5  1  0  0  0  0
  4  6  1  0  0  0  0
  5 25  1  0  0  0  0
  5 26  1  0  0  0  0
  5 27  1  0  0  0  0
  6  7  1  0  0  0  0
  6  8  2  0  0  0  0
  7 28  1  0  0  0  0
  7 29  1  0  0  0  0
  7 30  1  0  0  0  0
  8  9  1  0  0  0  0
  9 10  1  0  0  0  0
  9 31  1  0  0  0  0
  9 32  1  0  0  0  0
 10 11  1  0  0  0  0
 10 33  1  0  0  0  0
 10 34  1  0  0  0  0
 11 12  1  0  0  0  0
 11 35  1  0  0  0  0
 12 13  2  0  0  0  0
 12 14  1  0  0  0  0
 14 15  1  0  0  0  0
 14 36  1  0  0  0  0
 14 37  1  0  0  0  0
 15 20  1  0  0  0  0
 15 16  1  0  0  0  0
 16 17  1  0  0  0  0
 16 38  1  0  0  0  0
 16 39  1  0  0  0  0
 17 18  1  0  0  0  0
 17 40  1  0  0  0  0
 17 41  1  0  0  0  0
 18 19  1  0  0  0  0
 18 42  1  0  0  0  0
 18 43  1  0  0  0  0
 19 20  1  0  0  0  0
 19 44  1  0  0  0  0
 19 45  1  0  0  0  0
 20 21  2  0  0  0  0
M  END
> <s_m_source_file>
AV-unprocessed.smi

> <i_m_source_file_index>
2731

> <i_lp_mmshare_version>
43012

> <i_f3d_flags>
0

> <s_epik_input>
W0NIM11jMW5uKFtDSDNdKWMoW0NIM10pYzFbQ0gyXVtDSDJdW05IXUMoPU8pW0NIMl1OMltDSDJdW0NIMl1bQ0gyXVtDSDJdQzI9Tw==

> <s_epik_cmdline>
J2VwaWtfcHl0aG9uJywgJy1waCcsICc3LjAnLCAnLXRuJywgJzgnLCAnLW1hJywgJzIwMCcsICctbWV0YWxfYmluZGluZycsICctaW1hZScsICc8aW5maWxlLm1hZT4nLCAnLW9tYWUnLCAnPG91dGZpbGUubWFlPic=

> <r_lp_tautomer_probability>
1

> <r_epik_Ionization_Penalty>
0.0111965

> <r_epik_Ionization_Penalty_Charging>
0

> <r_epik_Ionization_Penalty_Neutral>
0.0111965

> <r_epik_State_Penalty>
0.00860379

> <r_epik_Charging_Adjusted_Penalty>
0.00860379

> <i_epik_Tot_Q>
0

> <i_epik_Tot_abs_Q>
0

> <r_epik_Metal_State_Penalty>
0.00844338

> <b_epik_Metal_Only>
0

> <s_lp_Force_Field>
OPLS_2005

> <r_lp_Energy>
7.02137

> <b_lp_Chiralities_Consistent>
1

> <s_lp_Variant>
AV-unprocessed.smi:2731-1

> <Gold.Version>
5.8.1

> <Gold.Id.Protein>
6NUR|6NUR_protein|mol2

> <Gold.PLP.Fitness>
45.0712

> <Gold.PLP.PLP>
-43.8191

> <Gold.PLP.part.hbond>
-1.0000

> <Gold.PLP.part.metal>
0.0000

> <Gold.PLP.part.buried>
-5.4126

> <Gold.PLP.part.nonpolar>
-38.2879

> <Gold.PLP.part.repulsive>
0.2789

> <Gold.PLP.ligand.clash>
0.0453

> <Gold.PLP.ligand.torsion>
0.8910

> <Gold.PLP.Chemscore.Hbond>
1.0000

> <Gold.PLP.Chemscore.CHOScore>
0.0000

> <Gold.PLP.Chemscore.Metal>
0.0000

> <Gold.Chemscore.Hbonds>
donor molecule, donor type, donor heavy atom, donor atom, acceptor molecule, acceptor atom, score
      P1  H  7997  8010       L1    13  1.00

> <Gold.PLP.Chemscore.Internal.Correction>
0.0794

> <Gold.Rescore>
     Score         DG    S(hbond)    S(metal)    S(lipo)     H(rot)  DE(clash)    DE(int)     intcor
     16.14     -18.08       0.96        0.00     119.10       1.78       0.15       1.79       ----

> <Gold.Chemscore.Fitness>
16.1374

> <Gold.Chemscore.DG>
-18.0824

> <Gold.Chemscore.ZeroCoef>
-5.4800

> <Gold.Chemscore.Hbond>
0.9628

> <Gold.Chemscore.Metal>
0.0000

> <Gold.Chemscore.Lipo>
119.1016

> <Gold.Chemscore.Internal_Hbond>
0.0000

> <Gold.Chemscore.DEClash>
0.1509

> <Gold.Chemscore.DEInternal>
1.7941

> <Gold.Chemscore.Rot>
1.7767

> <Gold.Chemscore.Internal.Correction>
   9.000000E+99

> <Gold.Chemscore.Hbonds>
donor molecule, donor type, donor heavy atom, donor atom, acceptor molecule, acceptor atom, score
      P1  H  7997  8010       L1    13  0.72

> <Gold.Chemscore.Hbond.Weighted>
-3.2158

> <Gold.Chemscore.Metal.Weighted>
-0.0000

> <Gold.Chemscore.Lipo.Weighted>
-13.9349

> <Gold.Chemscore.Internal_Hbond.Weighted>
0.0000

> <Gold.Chemscore.DEClash.Weighted>
0.1509

> <Gold.Chemscore.DEInternal.Weighted>
1.7941

> <Gold.Chemscore.Rot.Weighted>
4.5483

> <Gold.Chemscore.Internal.Correction.Weighted>
   9.000000E+99

> <Gold.Protein.RotatedTorsions>
[ 6907 6896 6895 6894 ] final  -82.27 input  -60.11 | X-H torsion
[ 7974 7965 7964 7962 ] final  101.57 input  175.53 | X-H torsion
[ 8008 7997 7996 7995 ] final  -12.08 input   59.86 | X-H torsion
[ 10167 10162 10161 10158 ] final -108.61 input  -65.29 | X-H torsion
[ 10718 10713 10712 10709 ] final -107.71 input   66.30 | X-H torsion
[ 10763 10752 10751 10750 ] final -142.39 input  -60.55 | X-H torsion
[ 11005 11000 10999 10996 ] final -139.82 input  -57.11 | X-H torsion

> <Gold.Protein.ActiveResidues>
 VAL166  LYS551  ARG553  GLY616  TRP617  ASP618  TYR619  PRO620  LYS621  CYS622 
 ASP623  PHE694  ASN695  SER759  ASP760  ASP761  ALA762  ILE779  LEU786  VAL792 
 PHE793  MET794  SER795  GLU796  ALA797  LYS798  CYS799  TRP800  GLU811  SER814 

> <Gold.Protein.RotatedAtoms>
  150.6900  134.3691  159.4983 H   0  0  0  0  0  0  0  0  0  0  0  0  # atno 6907 bound_to 6896
  152.1509  134.8986  160.0557 H   0  0  0  0  0  0  0  0  0  0  0  0  # atno 6908 bound_to 6896
  152.0084  133.3817  159.4246 H   0  0  0  0  0  0  0  0  0  0  0  0  # atno 6909 bound_to 6896
  145.3706  139.2399  143.3457 H   0  0  0  0  0  0  0  0  0  0  0  0  # atno 7974 bound_to 7965
  154.5408  140.2285  155.8644 H   0  0  0  0  0  0  0  0  0  0  0  0  # atno 8008 bound_to 7997
  156.1857  140.3089  155.9196 H   0  0  0  0  0  0  0  0  0  0  0  0  # atno 8009 bound_to 7997
  155.3261  140.0443  157.3031 H   0  0  0  0  0  0  0  0  0  0  0  0  # atno 8010 bound_to 7997
  140.1643  143.4094  152.1402 H   0  0  0  0  0  0  0  0  0  0  0  0  # atno 10167 bound_to 10162
  156.0450  130.5676  150.7859 H   0  0  0  0  0  0  0  0  0  0  0  0  # atno 10718 bound_to 10713
  154.8510  135.3497  154.6020 H   0  0  0  0  0  0  0  0  0  0  0  0  # atno 10763 bound_to 10752
  153.6629  135.6989  153.5176 H   0  0  0  0  0  0  0  0  0  0  0  0  # atno 10764 bound_to 10752
  153.2803  135.4265  155.1029 H   0  0  0  0  0  0  0  0  0  0  0  0  # atno 10765 bound_to 10752
  140.8482  134.2318  157.4774 H   0  0  0  0  0  0  0  0  0  0  0  0  # atno 11005 bound_to 11000
  146.2887  140.4357  142.8748 LP  0  0  0  0  0  0  0  0  0  0  0  0  # atno 17320 bound_to 7965
  144.8579  140.7097  143.6126 LP  0  0  0  0  0  0  0  0  0  0  0  0  # atno 17321 bound_to 7965
  139.5367  144.7216  151.4871 LP  0  0  0  0  0  0  0  0  0  0  0  0  # atno 17342 bound_to 10162
  140.6623  143.8472  150.6902 LP  0  0  0  0  0  0  0  0  0  0  0  0  # atno 17343 bound_to 10162
  157.5314  131.0937  150.9950 LP  0  0  0  0  0  0  0  0  0  0  0  0  # atno 17370 bound_to 10713
  157.0256  130.5691  149.5336 LP  0  0  0  0  0  0  0  0  0  0  0  0  # atno 17371 bound_to 10713
  139.8704  134.9670  156.4582 LP  0  0  0  0  0  0  0  0  0  0  0  0  # atno 17394 bound_to 11000
  140.8819  133.7911  155.9476 LP  0  0  0  0  0  0  0  0  0  0  0  0  # atno 17395 bound_to 11000

$$$$
