AV-unprocessed.smi:2776|AV-procd|sdf|10706|dock6
  -GOLD-   2272015143D 1   1.00000     0.00000
 Structure written by MMmdl.
 26 27  0  0  0  0  0  0  0  0  2 V2000
  153.4315  138.8889  156.0797 O   0  0  0  0  0  0  0  0  0  0  0  0
  152.1339  139.3737  155.7907 C   0  0  2  0  0  0  0  0  0  0  0  0
  151.3626  139.6288  157.1024 C   0  0  0  0  0  0  0  0  0  0  0  0
  150.9888  141.0397  157.2795 N   0  0  0  0  0  0  0  0  0  0  0  0
  150.2235  141.8406  156.4891 C   0  0  0  0  0  0  0  0  0  0  0  0
  150.1689  143.0680  157.0765 N   0  3  0  0  0  0  0  0  0  0  0  0
  150.9114  143.0524  158.2592 C   0  0  0  0  0  0  0  0  0  0  0  0
  151.1547  144.0524  159.1953 C   0  0  0  0  0  0  0  0  0  0  0  0
  151.9635  143.7074  160.2980 C   0  0  0  0  0  0  0  0  0  0  0  0
  152.2324  144.6436  161.2385 F   0  0  0  0  0  0  0  0  0  0  0  0
  152.4973  142.4087  160.4386 C   0  0  0  0  0  0  0  0  0  0  0  0
  153.2712  142.1196  161.5113 F   0  0  0  0  0  0  0  0  0  0  0  0
  152.2422  141.4028  159.4833 C   0  0  0  0  0  0  0  0  0  0  0  0
  151.4412  141.7522  158.3967 C   0  0  0  0  0  0  0  0  0  0  0  0
  151.4189  138.3760  154.8594 C   0  0  0  0  0  0  0  0  0  0  0  0
  151.1703  137.2407  155.5124 F   0  0  0  0  0  0  0  0  0  0  0  0
  150.2762  138.8871  154.3998 F   0  0  0  0  0  0  0  0  0  0  0  0
  152.2076  138.0920  153.8232 F   0  0  0  0  0  0  0  0  0  0  0  0
  153.3516  138.0154  156.4324 H   0  0  0  0  0  0  0  0  0  0  0  0
  152.2521  140.3207  155.2622 H   0  0  0  0  0  0  0  0  0  0  0  0
  150.4378  139.0510  157.1080 H   0  0  0  0  0  0  0  0  0  0  0  0
  151.9330  139.2966  157.9700 H   0  0  0  0  0  0  0  0  0  0  0  0
  149.7462  141.5542  155.5629 H   0  0  0  0  0  0  0  0  0  0  0  0
  150.7495  145.0481  159.0909 H   0  0  0  0  0  0  0  0  0  0  0  0
  152.6611  140.4143  159.5991 H   0  0  0  0  0  0  0  0  0  0  0  0
  149.6621  143.8567  156.6948 H   0  0  0  0  0  0  0  0  0  0  0  0
  1  2  1  0  0  0  0
  1 19  1  0  0  0  0
  2  3  1  0  0  0  0
  2 15  1  0  0  0  0
  2 20  1  0  0  0  0
  3  4  1  0  0  0  0
  3 21  1  0  0  0  0
  3 22  1  0  0  0  0
  4 14  1  0  0  0  0
  4  5  1  0  0  0  0
  5  6  2  0  0  0  0
  5 23  1  0  0  0  0
  6  7  1  0  0  0  0
  6 26  1  0  0  0  0
  7 14  2  0  0  0  0
  7  8  1  0  0  0  0
  8  9  2  0  0  0  0
  8 24  1  0  0  0  0
  9 10  1  0  0  0  0
  9 11  1  0  0  0  0
 11 12  1  0  0  0  0
 11 13  2  0  0  0  0
 13 14  1  0  0  0  0
 13 25  1  0  0  0  0
 15 16  1  0  0  0  0
 15 17  1  0  0  0  0
 15 18  1  0  0  0  0
M  CHG  1   6   1
M  END
> <s_m_source_file>
AV-unprocessed.smi

> <i_m_source_file_index>
2776

> <i_lp_mmshare_version>
43012

> <i_f3d_flags>
0

> <s_epik_input>
RkMoRikoRilbQ0BIXShbT0hdKVtDSDJdbihbY0hdbjEpYyhjMTIpW2NIXWMoRiljKEYpW2NIXTI=

> <s_epik_cmdline>
J2VwaWtfcHl0aG9uJywgJy1waCcsICc3LjAnLCAnLXRuJywgJzgnLCAnLW1hJywgJzIwMCcsICctbWV0YWxfYmluZGluZycsICctaW1hZScsICc8aW5maWxlLm1hZT4nLCAnLW9tYWUnLCAnPG91dGZpbGUubWFlPic=

> <r_epik_Ionization_Penalty>
2.38424

> <r_epik_Ionization_Penalty_Charging>
2.37244

> <r_epik_Ionization_Penalty_Neutral>
0.0117937

> <r_epik_State_Penalty>
2.52832

> <r_epik_Charging_Adjusted_Penalty>
4.90076

> <i_epik_Tot_Q>
1

> <i_epik_Tot_abs_Q>
1

> <r_epik_Metal_State_Penalty>
6.61271

> <b_epik_Metal_Only>
0

> <s_lp_Force_Field>
OPLS_2005

> <r_lp_Energy>
13.8942

> <b_lp_Chiralities_Consistent>
1

> <s_lp_Variant>
AV-unprocessed.smi:2776-3

> <Gold.Version>
5.8.1

> <Gold.Id.Protein>
6NUR|6NUR_protein|mol2

> <Gold.PLP.Fitness>
47.6259

> <Gold.PLP.PLP>
-40.3197

> <Gold.PLP.part.hbond>
-1.7340

> <Gold.PLP.part.metal>
0.0000

> <Gold.PLP.part.buried>
-6.1147

> <Gold.PLP.part.nonpolar>
-33.0822

> <Gold.PLP.part.repulsive>
0.0050

> <Gold.PLP.ligand.clash>
0.0000

> <Gold.PLP.ligand.torsion>
0.8410

> <Gold.PLP.Chemscore.Hbond>
2.9920

> <Gold.PLP.Chemscore.CHOScore>
0.0000

> <Gold.PLP.Chemscore.Metal>
0.0000

> <Gold.Chemscore.Hbonds>
donor molecule, donor type, donor heavy atom, donor atom, acceptor molecule, acceptor atom, score
      L1  H     6    26       P1  8028  2.00
      P1  H  7997  8010       L1     1  0.99

> <Gold.PLP.Chemscore.Internal.Correction>
0.0122

> <Gold.Rescore>
     Score         DG    S(hbond)    S(metal)    S(lipo)     H(rot)  DE(clash)    DE(int)     intcor
     14.26     -15.25       1.91        0.00      75.28       2.12       0.10       0.89       ----

> <Gold.Chemscore.Fitness>
14.2585

> <Gold.Chemscore.DG>
-15.2531

> <Gold.Chemscore.ZeroCoef>
-5.4800

> <Gold.Chemscore.Hbond>
1.9120

> <Gold.Chemscore.Metal>
0.0000

> <Gold.Chemscore.Lipo>
75.2760

> <Gold.Chemscore.Internal_Hbond>
0.0000

> <Gold.Chemscore.DEClash>
0.1018

> <Gold.Chemscore.DEInternal>
0.8928

> <Gold.Chemscore.Rot>
2.1173

> <Gold.Chemscore.Internal.Correction>
   9.000000E+99

> <Gold.Chemscore.Hbonds>
donor molecule, donor type, donor heavy atom, donor atom, acceptor molecule, acceptor atom, score
      L1  H     6    26       P1  8028  0.93
      P1  H  7997  8010       L1     1  0.58

> <Gold.Chemscore.Hbond.Weighted>
-6.3859

> <Gold.Chemscore.Metal.Weighted>
-0.0000

> <Gold.Chemscore.Lipo.Weighted>
-8.8073

> <Gold.Chemscore.Internal_Hbond.Weighted>
0.0000

> <Gold.Chemscore.DEClash.Weighted>
0.1018

> <Gold.Chemscore.DEInternal.Weighted>
0.8928

> <Gold.Chemscore.Rot.Weighted>
5.4202

> <Gold.Chemscore.Internal.Correction.Weighted>
   9.000000E+99

> <Gold.Protein.RotatedTorsions>
[ 6907 6896 6895 6894 ] final   70.79 input  -60.11 | X-H torsion
[ 7974 7965 7964 7962 ] final  174.92 input  175.53 | X-H torsion
[ 8008 7997 7996 7995 ] final   82.86 input   59.86 | X-H torsion
[ 10167 10162 10161 10158 ] final   52.39 input  -65.29 | X-H torsion
[ 10718 10713 10712 10709 ] final -152.94 input   66.30 | X-H torsion
[ 10763 10752 10751 10750 ] final -153.72 input  -60.55 | X-H torsion
[ 11005 11000 10999 10996 ] final  137.63 input  -57.11 | X-H torsion

> <Gold.Protein.ActiveResidues>
 VAL166  LYS551  ARG553  GLY616  TRP617  ASP618  TYR619  PRO620  LYS621  CYS622 
 ASP623  PHE694  ASN695  SER759  ASP760  ASP761  ALA762  ILE779  LEU786  VAL792 
 PHE793  MET794  SER795  GLU796  ALA797  LYS798  CYS799  TRP800  GLU811  SER814 

> <Gold.Protein.RotatedAtoms>
  152.4771  134.4817  159.9667 H   0  0  0  0  0  0  0  0  0  0  0  0  # atno 6907 bound_to 6896
  151.4830  133.3536  159.2849 H   0  0  0  0  0  0  0  0  0  0  0  0  # atno 6908 bound_to 6896
  150.8817  134.8235  159.7290 H   0  0  0  0  0  0  0  0  0  0  0  0  # atno 6909 bound_to 6896
  144.7212  139.9869  143.6439 H   0  0  0  0  0  0  0  0  0  0  0  0  # atno 7974 bound_to 7965
  155.9162  140.3424  155.6137 H   0  0  0  0  0  0  0  0  0  0  0  0  # atno 8008 bound_to 7997
  155.7328  140.0797  157.2300 H   0  0  0  0  0  0  0  0  0  0  0  0  # atno 8009 bound_to 7997
  154.4063  140.1585  156.2515 H   0  0  0  0  0  0  0  0  0  0  0  0  # atno 8010 bound_to 7997
  140.2519  144.3470  150.6345 H   0  0  0  0  0  0  0  0  0  0  0  0  # atno 10167 bound_to 10162
  156.4792  130.8295  151.2522 H   0  0  0  0  0  0  0  0  0  0  0  0  # atno 10718 bound_to 10713
  154.7908  135.3206  154.7781 H   0  0  0  0  0  0  0  0  0  0  0  0  # atno 10763 bound_to 10752
  153.8471  135.6865  153.4800 H   0  0  0  0  0  0  0  0  0  0  0  0  # atno 10764 bound_to 10752
  153.1577  135.4673  154.9669 H   0  0  0  0  0  0  0  0  0  0  0  0  # atno 10765 bound_to 10752
  140.0127  134.9432  157.0312 H   0  0  0  0  0  0  0  0  0  0  0  0  # atno 11005 bound_to 11000
  146.0443  139.3451  143.0678 LP  0  0  0  0  0  0  0  0  0  0  0  0  # atno 17320 bound_to 7965
  145.8295  140.9638  143.0856 LP  0  0  0  0  0  0  0  0  0  0  0  0  # atno 17321 bound_to 7965
  140.6034  143.2167  151.7028 LP  0  0  0  0  0  0  0  0  0  0  0  0  # atno 17342 bound_to 10162
  139.5043  144.3757  152.0426 LP  0  0  0  0  0  0  0  0  0  0  0  0  # atno 17343 bound_to 10162
  157.7485  131.0050  150.3099 LP  0  0  0  0  0  0  0  0  0  0  0  0  # atno 17370 bound_to 10713
  156.3539  130.3835  149.7306 LP  0  0  0  0  0  0  0  0  0  0  0  0  # atno 17371 bound_to 10713
  140.4525  134.1567  155.7183 LP  0  0  0  0  0  0  0  0  0  0  0  0  # atno 17394 bound_to 11000
  141.1722  133.8586  157.1535 LP  0  0  0  0  0  0  0  0  0  0  0  0  # atno 17395 bound_to 11000

$$$$
