AV-unprocessed.smi:1489|AV-procd|sdf|6028|dock4
  -GOLD-   22720 6133D 1   1.00000     0.00000
 Structure written by MMmdl.
 47 49  0  0  0  0  0  0  0  0  2 V2000
  146.3889  138.9358  154.3169 O   0  0  0  0  0  0  0  0  0  0  0  0
  147.1558  138.3477  153.5552 C   0  0  0  0  0  0  0  0  0  0  0  0
  148.4922  138.4917  153.5453 N   0  0  0  0  0  0  0  0  0  0  0  0
  149.2907  139.3483  154.3500 C   0  0  0  0  0  0  0  0  0  0  0  0
  148.7593  140.6075  154.7021 C   0  0  0  0  0  0  0  0  0  0  0  0
  149.5110  141.4825  155.5128 C   0  0  0  0  0  0  0  0  0  0  0  0
  150.7863  141.0789  155.9727 C   0  0  0  0  0  0  0  0  0  0  0  0
  151.6082  141.8694  156.7885 N   0  0  0  0  0  0  0  0  0  0  0  0
  151.0976  143.1997  157.0743 C   0  0  0  0  0  0  0  0  0  0  0  0
  151.9088  143.6996  158.2713 C   0  0  0  0  0  0  0  0  0  0  0  0
  152.4267  142.4281  158.9536 C   0  0  0  0  0  0  0  0  0  0  0  0
  151.9286  141.2758  158.0762 C   0  0  0  0  0  0  0  0  0  0  0  0
  151.2532  139.8594  155.6268 N   0  3  0  0  0  0  0  0  0  0  0  0
  150.5677  138.9934  154.8492 C   0  0  0  0  0  0  0  0  0  0  0  0
  146.7598  137.4538  152.6345 N   0  0  0  0  0  0  0  0  0  0  0  0
  145.3942  137.0004  152.3618 C   0  0  2  0  0  0  0  0  0  0  0  0
  144.6317  136.5954  153.6410 C   0  0  0  0  0  0  0  0  0  0  0  0
  143.1768  136.2096  153.3180 C   0  0  0  0  0  0  0  0  0  0  0  0
  143.0873  135.1193  152.2314 C   0  0  2  0  0  0  0  0  0  0  0  0
  143.5510  133.8853  152.7426 O   0  0  0  0  0  0  0  0  0  0  0  0
  143.8893  135.4995  150.9712 C   0  0  0  0  0  0  0  0  0  0  0  0
  145.3430  135.8816  151.3004 C   0  0  0  0  0  0  0  0  0  0  0  0
  148.9999  137.8782  152.9250 H   0  0  0  0  0  0  0  0  0  0  0  0
  147.7829  140.9072  154.3504 H   0  0  0  0  0  0  0  0  0  0  0  0
  149.1055  142.4481  155.7779 H   0  0  0  0  0  0  0  0  0  0  0  0
  151.2119  143.8572  156.2118 H   0  0  0  0  0  0  0  0  0  0  0  0
  150.0382  143.1619  157.3303 H   0  0  0  0  0  0  0  0  0  0  0  0
  152.7496  144.3049  157.9304 H   0  0  0  0  0  0  0  0  0  0  0  0
  151.3056  144.3155  158.9390 H   0  0  0  0  0  0  0  0  0  0  0  0
  153.5169  142.4401  158.9869 H   0  0  0  0  0  0  0  0  0  0  0  0
  152.0650  142.3326  159.9779 H   0  0  0  0  0  0  0  0  0  0  0  0
  151.0423  140.8212  158.5214 H   0  0  0  0  0  0  0  0  0  0  0  0
  152.6865  140.4990  157.9704 H   0  0  0  0  0  0  0  0  0  0  0  0
  151.0651  138.0516  154.6723 H   0  0  0  0  0  0  0  0  0  0  0  0
  147.4792  137.0327  152.0652 H   0  0  0  0  0  0  0  0  0  0  0  0
  144.8872  137.8705  151.9425 H   0  0  0  0  0  0  0  0  0  0  0  0
  145.1230  135.7546  154.1308 H   0  0  0  0  0  0  0  0  0  0  0  0
  144.6410  137.4173  154.3577 H   0  0  0  0  0  0  0  0  0  0  0  0
  142.6660  135.8828  154.2245 H   0  0  0  0  0  0  0  0  0  0  0  0
  142.6441  137.0970  152.9739 H   0  0  0  0  0  0  0  0  0  0  0  0
  142.0417  134.9754  151.9569 H   0  0  0  0  0  0  0  0  0  0  0  0
  142.9381  133.5796  153.3935 H   0  0  0  0  0  0  0  0  0  0  0  0
  143.8709  134.6814  150.2500 H   0  0  0  0  0  0  0  0  0  0  0  0
  143.4034  136.3448  150.4824 H   0  0  0  0  0  0  0  0  0  0  0  0
  145.8505  136.2047  150.3910 H   0  0  0  0  0  0  0  0  0  0  0  0
  145.8749  134.9965  151.6504 H   0  0  0  0  0  0  0  0  0  0  0  0
  152.1704  139.5755  155.9723 H   0  0  0  0  0  0  0  0  0  0  0  0
  1  2  2  0  0  0  0
  2  3  1  0  0  0  0
  2 15  1  0  0  0  0
  3  4  1  0  0  0  0
  3 23  1  0  0  0  0
  4 14  1  0  0  0  0
  4  5  2  0  0  0  0
  5  6  1  0  0  0  0
  5 24  1  0  0  0  0
  6  7  2  0  0  0  0
  6 25  1  0  0  0  0
  7  8  1  0  0  0  0
  7 13  1  0  0  0  0
  8 12  1  0  0  0  0
  8  9  1  0  0  0  0
  9 10  1  0  0  0  0
  9 26  1  0  0  0  0
  9 27  1  0  0  0  0
 10 11  1  0  0  0  0
 10 28  1  0  0  0  0
 10 29  1  0  0  0  0
 11 12  1  0  0  0  0
 11 30  1  0  0  0  0
 11 31  1  0  0  0  0
 12 32  1  0  0  0  0
 12 33  1  0  0  0  0
 13 14  2  0  0  0  0
 13 47  1  0  0  0  0
 14 34  1  0  0  0  0
 15 16  1  0  0  0  0
 15 35  1  0  0  0  0
 16 22  1  0  0  0  0
 16 17  1  0  0  0  0
 16 36  1  0  0  0  0
 17 18  1  0  0  0  0
 17 37  1  0  0  0  0
 17 38  1  0  0  0  0
 18 19  1  0  0  0  0
 18 39  1  0  0  0  0
 18 40  1  0  0  0  0
 19 20  1  0  0  0  0
 19 21  1  0  0  0  0
 19 41  1  0  0  0  0
 20 42  1  0  0  0  0
 21 22  1  0  0  0  0
 21 43  1  0  0  0  0
 21 44  1  0  0  0  0
 22 45  1  0  0  0  0
 22 46  1  0  0  0  0
M  CHG  1  13   1
M  END
> <s_m_source_file>
AV-unprocessed.smi

> <i_m_source_file_index>
1489

> <i_lp_mmshare_version>
43012

> <i_f3d_flags>
0

> <s_epik_input>
W0NIMl0xW0NIMl1bQ0BIXShbT0hdKVtDSDJdW0NIMl1bQ0BIXTFbTkhdQyg9TylbTkhdYzJbY0hdW2NIXWMobltjSF0yKU4zW0NIMl1bQ0gyXVtDSDJdW0NIMl0z

> <s_epik_cmdline>
J2VwaWtfcHl0aG9uJywgJy1waCcsICc3LjAnLCAnLXRuJywgJzgnLCAnLW1hJywgJzIwMCcsICctbWV0YWxfYmluZGluZycsICctaW1hZScsICc8aW5maWxlLm1hZT4nLCAnLW9tYWUnLCAnPG91dGZpbGUubWFlPic=

> <r_lp_tautomer_probability>
0.999994

> <r_epik_Ionization_Penalty>
1.08454

> <r_epik_Ionization_Penalty_Charging>
1.08452

> <r_epik_Ionization_Penalty_Neutral>
2.18252e-05

> <r_epik_State_Penalty>
1.14025

> <r_epik_Charging_Adjusted_Penalty>
2.22477

> <i_epik_Tot_Q>
1

> <i_epik_Tot_abs_Q>
1

> <r_epik_Metal_State_Penalty>
1.22975

> <b_epik_Metal_Only>
0

> <s_lp_Force_Field>
OPLS_2005

> <r_lp_Energy>
45.8336

> <b_lp_Chiralities_Consistent>
1

> <s_lp_Variant>
AV-unprocessed.smi:1489-4

> <Gold.Version>
5.8.1

> <Gold.Id.Protein>
6NUR|6NUR_protein|mol2

> <Gold.PLP.Fitness>
43.1152

> <Gold.PLP.PLP>
-35.0189

> <Gold.PLP.part.hbond>
-3.7830

> <Gold.PLP.part.metal>
0.0000

> <Gold.PLP.part.buried>
-3.3574

> <Gold.PLP.part.nonpolar>
-31.0195

> <Gold.PLP.part.repulsive>
0.3575

> <Gold.PLP.ligand.clash>
0.0000

> <Gold.PLP.ligand.torsion>
0.3389

> <Gold.PLP.Chemscore.Hbond>
2.9120

> <Gold.PLP.Chemscore.CHOScore>
0.0000

> <Gold.PLP.Chemscore.Metal>
0.0000

> <Gold.Chemscore.Hbonds>
donor molecule, donor type, donor heavy atom, donor atom, acceptor molecule, acceptor atom, score
      L1  H     3    23       P1  7948  0.96
      L1  H    15    35       P1  7948  1.00
      L1  H    20    42       P1 10957  0.26

> <Gold.PLP.Chemscore.Internal.Correction>
0.0381

> <Gold.Rescore>
     Score         DG    S(hbond)    S(metal)    S(lipo)     H(rot)  DE(clash)    DE(int)     intcor
     18.78     -21.53       2.88        0.00      91.96       1.69       1.26       1.49       ----

> <Gold.Chemscore.Fitness>
18.7797

> <Gold.Chemscore.DG>
-21.5347

> <Gold.Chemscore.ZeroCoef>
-5.4800

> <Gold.Chemscore.Hbond>
2.8830

> <Gold.Chemscore.Metal>
0.0000

> <Gold.Chemscore.Lipo>
91.9602

> <Gold.Chemscore.Internal_Hbond>
0.0000

> <Gold.Chemscore.DEClash>
1.2615

> <Gold.Chemscore.DEInternal>
1.4936

> <Gold.Chemscore.Rot>
1.6929

> <Gold.Chemscore.Internal.Correction>
   9.000000E+99

> <Gold.Chemscore.Hbonds>
donor molecule, donor type, donor heavy atom, donor atom, acceptor molecule, acceptor atom, score
      L1  H     3    23       P1  7948  0.91
      L1  H    15    35       P1  7948  0.97
      L1  H    20    42       P1 10957  0.25

> <Gold.Chemscore.Hbond.Weighted>
-9.6291

> <Gold.Chemscore.Metal.Weighted>
-0.0000

> <Gold.Chemscore.Lipo.Weighted>
-10.7593

> <Gold.Chemscore.Internal_Hbond.Weighted>
0.0000

> <Gold.Chemscore.DEClash.Weighted>
1.2615

> <Gold.Chemscore.DEInternal.Weighted>
1.4936

> <Gold.Chemscore.Rot.Weighted>
4.3338

> <Gold.Chemscore.Internal.Correction.Weighted>
   9.000000E+99

> <Gold.Protein.RotatedTorsions>
[ 6907 6896 6895 6894 ] final   57.20 input  -60.11 | X-H torsion
[ 7974 7965 7964 7962 ] final -175.08 input  175.53 | X-H torsion
[ 8008 7997 7996 7995 ] final   93.50 input   59.86 | X-H torsion
[ 10167 10162 10161 10158 ] final -119.97 input  -65.29 | X-H torsion
[ 10718 10713 10712 10709 ] final   85.81 input   66.30 | X-H torsion
[ 10763 10752 10751 10750 ] final -134.35 input  -60.55 | X-H torsion
[ 11005 11000 10999 10996 ] final   73.01 input  -57.11 | X-H torsion

> <Gold.Protein.ActiveResidues>
 VAL166  LYS551  ARG553  GLY616  TRP617  ASP618  TYR619  PRO620  LYS621  CYS622 
 ASP623  PHE694  ASN695  SER759  ASP760  ASP761  ALA762  ILE779  LEU786  VAL792 
 PHE793  MET794  SER795  GLU796  ALA797  LYS798  CYS799  TRP800  GLU811  SER814 

> <Gold.Protein.RotatedAtoms>
  152.3709  134.6735  160.0176 H   0  0  0  0  0  0  0  0  0  0  0  0  # atno 6907 bound_to 6896
  151.7029  133.3306  159.3279 H   0  0  0  0  0  0  0  0  0  0  0  0  # atno 6908 bound_to 6896
  150.7673  134.6535  159.6345 H   0  0  0  0  0  0  0  0  0  0  0  0  # atno 6909 bound_to 6896
  144.7129  140.1375  143.6394 H   0  0  0  0  0  0  0  0  0  0  0  0  # atno 7974 bound_to 7965
  156.0475  140.3312  155.7313 H   0  0  0  0  0  0  0  0  0  0  0  0  # atno 8008 bound_to 7997
  155.5652  140.0622  157.2837 H   0  0  0  0  0  0  0  0  0  0  0  0  # atno 8009 bound_to 7997
  154.4420  140.1870  156.0811 H   0  0  0  0  0  0  0  0  0  0  0  0  # atno 8010 bound_to 7997
  140.0409  143.5155  152.2130 H   0  0  0  0  0  0  0  0  0  0  0  0  # atno 10167 bound_to 10162
  157.6920  131.0190  150.2878 H   0  0  0  0  0  0  0  0  0  0  0  0  # atno 10718 bound_to 10713
  154.8720  135.3737  154.4722 H   0  0  0  0  0  0  0  0  0  0  0  0  # atno 10763 bound_to 10752
  153.5381  135.7027  153.5655 H   0  0  0  0  0  0  0  0  0  0  0  0  # atno 10764 bound_to 10752
  153.3829  135.3992  155.1834 H   0  0  0  0  0  0  0  0  0  0  0  0  # atno 10765 bound_to 10752
  139.9462  134.7309  156.0974 H   0  0  0  0  0  0  0  0  0  0  0  0  # atno 11005 bound_to 11000
  145.9231  139.2558  143.1369 LP  0  0  0  0  0  0  0  0  0  0  0  0  # atno 17320 bound_to 7965
  145.9600  140.8843  143.0216 LP  0  0  0  0  0  0  0  0  0  0  0  0  # atno 17321 bound_to 7965
  139.6015  144.7584  151.3162 LP  0  0  0  0  0  0  0  0  0  0  0  0  # atno 17342 bound_to 10162
  140.7261  143.7001  150.7852 LP  0  0  0  0  0  0  0  0  0  0  0  0  # atno 17343 bound_to 10162
  156.3414  130.3816  149.7405 LP  0  0  0  0  0  0  0  0  0  0  0  0  # atno 17370 bound_to 10713
  156.4913  130.8086  151.3096 LP  0  0  0  0  0  0  0  0  0  0  0  0  # atno 17371 bound_to 10713
  141.1113  133.6642  156.2984 LP  0  0  0  0  0  0  0  0  0  0  0  0  # atno 17394 bound_to 11000
  140.5830  134.5727  157.5483 LP  0  0  0  0  0  0  0  0  0  0  0  0  # atno 17395 bound_to 11000

$$$$
