#       Name:                AV-unprocessed.smi:2001
#       Creating user name   scv26
#       Creation time:       Fri Mar 27 10:33:11 2020


#       File generated by GOLD software.
#

@<TRIPOS>MOLECULE
AV-unprocessed.smi:2001
    60    61     1
SMALL
NO_CHARGES


@<TRIPOS>ATOM
      1 ****        -6.5801  -1.8824  -1.6612 C.3            1 S1                 0.0000
      2 ****        -6.0550  -1.6280  -0.3700 O.3            1 S1                 0.0000
      3 ****        -5.5340  -0.3158  -0.2443 C.3            1 S1                 0.0000
      4 ****        -5.0025  -0.1281   1.1847 C.3            1 S1                 0.0000
      5 ****        -4.4070   1.1991   1.3692 N.am           1 S1                 0.0000
      6 ****        -3.0295   1.2250   1.2263 N.2            1 S1                 0.0000
      7 ****        -2.3819   2.3363   1.3688 C.2            1 S1                 0.0000
      8 ****        -0.9002   2.4047   1.2310 C.2            1 S1                 0.0000
      9 ****        -0.2768   3.4537   1.4015 O.2            1 S1                 0.0000
     10 ****        -0.2963   1.2463   0.9134 N.am           1 S1                 0.0000
     11 ****         1.1416   1.0805   0.7518 C.3            1 S1                 0.0000
     12 ****         1.4595  -0.3010   0.1566 C.3            1 S1                 0.0000
     13 ****         2.9177  -0.5576   0.0458 N.4            1 S1                 1.0000
     14 ****         3.2205  -2.0002  -0.1103 C.3            1 S1                 0.0000
     15 ****         4.7420  -2.2355  -0.1598 C.3            1 S1                 0.0000
     16 ****         5.0904  -3.7075  -0.4060 C.3            1 S1                 0.0000
     17 ****         5.2963  -1.4660  -1.2208 O.3            1 S1                 0.0000
     18 ****         5.0972  -0.0678  -1.0451 C.3            1 S1                 0.0000
     19 ****         5.8137   0.6635  -2.1859 C.3            1 S1                 0.0000
     20 ****         3.5849   0.2263  -1.0233 C.3            1 S1                 0.0000
     21 ****        -3.0827   3.5720   1.6745 C.2            1 S1                 0.0000
     22 ****        -4.4269   3.5321   1.8043 C.2            1 S1                 0.0000
     23 ****        -5.1839   2.2892   1.6477 C.2            1 S1                 0.0000
     24 ****        -6.4083   2.2289   1.7538 O.2            1 S1                 0.0000
     25 ****        -6.9639  -2.9015  -1.7060 H              1 S1                 0.0000
     26 ****        -5.8114  -1.7782  -2.4278 H              1 S1                 0.0000
     27 ****        -7.4011  -1.2031  -1.8941 H              1 S1                 0.0000
     28 ****        -4.7297  -0.1653  -0.9666 H              1 S1                 0.0000
     29 ****        -6.3138   0.4164  -0.4602 H              1 S1                 0.0000
     30 ****        -5.8050  -0.2896   1.9067 H              1 S1                 0.0000
     31 ****        -4.2615  -0.9005   1.3991 H              1 S1                 0.0000
     32 ****        -0.8752   0.4278   0.7887 H              1 S1                 0.0000
     33 ****         1.5176   1.8757   0.1075 H              1 S1                 0.0000
     34 ****         1.6239   1.1942   1.7237 H              1 S1                 0.0000
     35 ****         1.0166  -1.0594   0.8041 H              1 S1                 0.0000
     36 ****         0.9899  -0.4171  -0.8216 H              1 S1                 0.0000
     37 ****         2.7908  -2.5586   0.7225 H              1 S1                 0.0000
     38 ****         2.7510  -2.3730  -1.0223 H              1 S1                 0.0000
     39 ****         5.1942  -1.9251   0.7838 H              1 S1                 0.0000
     40 ****         4.6890  -4.3434   0.3833 H              1 S1                 0.0000
     41 ****         6.1707  -3.8529  -0.4327 H              1 S1                 0.0000
     42 ****         4.6844  -4.0562  -1.3561 H              1 S1                 0.0000
     43 ****         5.5457   0.2429  -0.0997 H              1 S1                 0.0000
     44 ****         5.6986   1.7438  -2.0942 H              1 S1                 0.0000
     45 ****         5.4176   0.3657  -3.1572 H              1 S1                 0.0000
     46 ****         6.8812   0.4424  -2.1805 H              1 S1                 0.0000
     47 ****         3.1391  -0.0206  -1.9884 H              1 S1                 0.0000
     48 ****         3.4324   1.2931  -0.8642 H              1 S1                 0.0000
     49 ****        -2.5499   4.5041   1.7950 H              1 S1                 0.0000
     50 ****        -4.9607   4.4435   2.0304 H              1 S1                 0.0000
     51 ****         3.3309  -0.2739   0.9229 H              1 S1                 0.0000
     52 ****        -5.3218  -2.2829  -0.1873 LP             1 S1                 0.0000
     53 ****        -6.7851  -1.7489   0.3026 LP             1 S1                 0.0000
     54 ****        -2.5343   0.3830   1.0125 LP             1 S1                 0.0000
     55 ****        -0.7657   4.2928   1.6400 LP             1 S1                 0.0000
     56 ****         0.7181   3.4660   1.3015 LP             1 S1                 0.0000
     57 ****         4.8649  -1.7456  -2.0785 LP             1 S1                 0.0000
     58 ****         6.2788  -1.6461  -1.2677 LP             1 S1                 0.0000
     59 ****        -6.8780   1.3541   1.6351 LP             1 S1                 0.0000
     60 ****        -6.9337   3.0547   1.9587 LP             1 S1                 0.0000
@<TRIPOS>BOND
    1    1    2 1     
    2    1   25 1     
    3    1   26 1     
    4    1   27 1     
    5    2    3 1     
    6    3    4 1     
    7    3   28 1     
    8    3   29 1     
    9    4    5 1     
   10    4   30 1     
   11    4   31 1     
   12    5   23 am    
   13    5    6 1     
   14    6    7 2     
   15    7    8 1     
   16    7   21 1     
   17    8    9 2     
   18    8   10 am    
   19   10   11 1     
   20   10   32 1     
   21   11   12 1     
   22   11   33 1     
   23   11   34 1     
   24   12   13 1     
   25   12   35 1     
   26   12   36 1     
   27   13   20 1     
   28   13   14 1     
   29   13   51 1     
   30   14   15 1     
   31   14   37 1     
   32   14   38 1     
   33   15   16 1     
   34   15   17 1     
   35   15   39 1     
   36   16   40 1     
   37   16   41 1     
   38   16   42 1     
   39   17   18 1     
   40   18   19 1     
   41   18   20 1     
   42   18   43 1     
   43   19   44 1     
   44   19   45 1     
   45   19   46 1     
   46   20   47 1     
   47   20   48 1     
   48   21   22 2     
   49   21   49 1     
   50   22   23 1     
   51   22   50 1     
   52   23   24 2     
   53    2   52 1     
   54    2   53 1     
   55    6   54 1     
   56    9   55 1     
   57    9   56 1     
   58   17   57 1     
   59   17   58 1     
   60   24   59 1     
   61   24   60 1     
@<TRIPOS>SUBSTRUCTURE
      1 S1             1
@<TRIPOS>SET
LONE_PAIRS      STATIC     ATOMS    <user>   **** ""
9 52 53 54 55 56 57 58 59 60
DONOR_HYDROGENS      STATIC     ATOMS    <user>   **** ""
2 32 51
ATOM$BLUE        STATIC     ATOMS    COLORGROUP SYSTEM
9 52 53 54 55 56 57 58 59 60
ATOM$RED        STATIC     ATOMS    COLORGROUP SYSTEM
2 32 51
