AV-unprocessed.smi:933|AV-procd|sdf|4203|dock9
  -GOLD-   22720 2113D 1   1.00000     0.00000
 Structure written by MMmdl.
 42 43  0  0  0  0  0  0  0  0  1 V2000
  144.8068  150.1119  161.3019 C   0  0  0  0  0  0  0  0  0  0  0  0
  144.6823  150.3986  159.8017 C   0  0  0  0  0  0  0  0  0  0  0  0
  144.7749  149.1603  158.9747 C   0  0  0  0  0  0  0  0  0  0  0  0
  144.6734  147.9285  159.4804 N   0  0  0  0  0  0  0  0  0  0  0  0
  144.7447  146.9339  158.4993 C   0  0  0  0  0  0  0  0  0  0  0  0
  144.6351  145.4857  158.8818 C   0  0  0  0  0  0  0  0  0  0  0  0
  145.6336  145.0620  159.9732 C   0  0  0  0  0  0  0  0  0  0  0  0
  147.0039  145.0110  159.4654 N   0  0  0  0  0  0  0  0  0  0  0  0
  148.0730  144.4553  160.0595 C   0  0  0  0  0  0  0  0  0  0  0  0
  147.9957  143.9034  161.1554 O   0  0  0  0  0  0  0  0  0  0  0  0
  149.2142  144.5578  159.3582 N   0  0  0  0  0  0  0  0  0  0  0  0
  150.5156  144.0431  159.7809 C   0  0  2  0  0  0  0  0  0  0  0  0
  151.4620  145.1972  160.1774 C   0  0  0  0  0  0  0  0  0  0  0  0
  152.7043  145.0701  159.2900 C   0  0  0  0  0  0  0  0  0  0  0  0
  152.2371  144.2786  158.0716 C   0  0  0  0  0  0  0  0  0  0  0  0
  151.2366  143.2758  158.6486 C   0  0  2  0  0  0  0  0  0  0  0  0
  150.3430  142.6085  157.5880 C   0  0  0  0  0  0  0  0  0  0  0  0
  144.9011  147.4369  157.2316 C   0  0  0  0  0  0  0  0  0  0  0  0
  144.9541  149.1783  157.2244 S   0  0  0  0  0  0  0  0  0  0  0  0
  144.7346  151.0327  161.8811 H   0  0  0  0  0  0  0  0  0  0  0  0
  145.7648  149.6456  161.5349 H   0  0  0  0  0  0  0  0  0  0  0  0
  144.0167  149.4413  161.6412 H   0  0  0  0  0  0  0  0  0  0  0  0
  143.7300  150.8869  159.5937 H   0  0  0  0  0  0  0  0  0  0  0  0
  145.4640  151.0917  159.4887 H   0  0  0  0  0  0  0  0  0  0  0  0
  143.6232  145.2718  159.2276 H   0  0  0  0  0  0  0  0  0  0  0  0
  144.7802  144.8585  158.0011 H   0  0  0  0  0  0  0  0  0  0  0  0
  145.5817  145.7647  160.8066 H   0  0  0  0  0  0  0  0  0  0  0  0
  145.3554  144.0811  160.3612 H   0  0  0  0  0  0  0  0  0  0  0  0
  147.1579  145.4480  158.5676 H   0  0  0  0  0  0  0  0  0  0  0  0
  149.1801  145.0277  158.4655 H   0  0  0  0  0  0  0  0  0  0  0  0
  150.3723  143.3653  160.6245 H   0  0  0  0  0  0  0  0  0  0  0  0
  150.9912  146.1663  160.0046 H   0  0  0  0  0  0  0  0  0  0  0  0
  151.7250  145.1574  161.2347 H   0  0  0  0  0  0  0  0  0  0  0  0
  153.1287  146.0383  159.0227 H   0  0  0  0  0  0  0  0  0  0  0  0
  153.4742  144.5055  159.8173 H   0  0  0  0  0  0  0  0  0  0  0  0
  151.7383  144.9457  157.3670 H   0  0  0  0  0  0  0  0  0  0  0  0
  153.0619  143.7945  157.5475 H   0  0  0  0  0  0  0  0  0  0  0  0
  151.8194  142.4853  159.1245 H   0  0  0  0  0  0  0  0  0  0  0  0
  149.7777  143.3418  157.0122 H   0  0  0  0  0  0  0  0  0  0  0  0
  149.6322  141.9234  158.0508 H   0  0  0  0  0  0  0  0  0  0  0  0
  150.9441  142.0333  156.8833 H   0  0  0  0  0  0  0  0  0  0  0  0
  144.9793  146.8908  156.3034 H   0  0  0  0  0  0  0  0  0  0  0  0
  1  2  1  0  0  0  0
  1 20  1  0  0  0  0
  1 21  1  0  0  0  0
  1 22  1  0  0  0  0
  2  3  1  0  0  0  0
  2 23  1  0  0  0  0
  2 24  1  0  0  0  0
  3 19  1  0  0  0  0
  3  4  2  0  0  0  0
  4  5  1  0  0  0  0
  5  6  1  0  0  0  0
  5 18  2  0  0  0  0
  6  7  1  0  0  0  0
  6 25  1  0  0  0  0
  6 26  1  0  0  0  0
  7  8  1  0  0  0  0
  7 27  1  0  0  0  0
  7 28  1  0  0  0  0
  8  9  1  0  0  0  0
  8 29  1  0  0  0  0
  9 10  2  0  0  0  0
  9 11  1  0  0  0  0
 11 12  1  0  0  0  0
 11 30  1  0  0  0  0
 12 16  1  0  0  0  0
 12 13  1  0  0  0  0
 12 31  1  0  0  0  0
 13 14  1  0  0  0  0
 13 32  1  0  0  0  0
 13 33  1  0  0  0  0
 14 15  1  0  0  0  0
 14 34  1  0  0  0  0
 14 35  1  0  0  0  0
 15 16  1  0  0  0  0
 15 36  1  0  0  0  0
 15 37  1  0  0  0  0
 16 17  1  0  0  0  0
 16 38  1  0  0  0  0
 17 39  1  0  0  0  0
 17 40  1  0  0  0  0
 17 41  1  0  0  0  0
 18 19  1  0  0  0  0
 18 42  1  0  0  0  0
M  END
> <s_m_source_file>
AV-unprocessed.smi

> <i_m_source_file_index>
933

> <i_lp_mmshare_version>
43012

> <i_f3d_flags>
0

> <s_epik_input>
W0NIM11bQ0gyXWMxbmMoW2NIXXMxKVtDSDJdW0NIMl1bTkhdQyg9TylbTkhdW0NAQEhdMltDSDJdW0NIMl1bQ0gyXVtDQEhdMltDSDNd

> <s_epik_cmdline>
J2VwaWtfcHl0aG9uJywgJy1waCcsICc3LjAnLCAnLXRuJywgJzgnLCAnLW1hJywgJzIwMCcsICctbWV0YWxfYmluZGluZycsICctaW1hZScsICc8aW5maWxlLm1hZT4nLCAnLW9tYWUnLCAnPG91dGZpbGUubWFlPic=

> <r_epik_Ionization_Penalty>
0.00203408

> <r_epik_Ionization_Penalty_Charging>
0

> <r_epik_Ionization_Penalty_Neutral>
0.00203408

> <r_epik_State_Penalty>
0.0013452

> <r_epik_Charging_Adjusted_Penalty>
0.0013452

> <i_epik_Tot_Q>
0

> <i_epik_Tot_abs_Q>
0

> <r_epik_Metal_State_Penalty>
-0

> <b_epik_Metal_Only>
0

> <s_lp_Force_Field>
OPLS_2005

> <r_lp_Energy>
20.7198

> <b_lp_Chiralities_Consistent>
1

> <s_lp_Variant>
AV-unprocessed.smi:933-3

> <Gold.Version>
5.8.1

> <Gold.Id.Protein>
6NUR|6NUR_protein|mol2

> <Gold.PLP.Fitness>
54.2487

> <Gold.PLP.PLP>
-46.7646

> <Gold.PLP.part.hbond>
-2.8731

> <Gold.PLP.part.metal>
0.0000

> <Gold.PLP.part.buried>
-8.9392

> <Gold.PLP.part.nonpolar>
-36.8802

> <Gold.PLP.part.repulsive>
0.5536

> <Gold.PLP.ligand.clash>
0.0000

> <Gold.PLP.ligand.torsion>
0.4430

> <Gold.PLP.Chemscore.Hbond>
2.7760

> <Gold.PLP.Chemscore.CHOScore>
0.0000

> <Gold.PLP.Chemscore.Metal>
0.0000

> <Gold.Chemscore.Hbonds>
donor molecule, donor type, donor heavy atom, donor atom, acceptor molecule, acceptor atom, score
      L1  H     8    29       P1  8029  1.00
      L1  H    11    30       P1  8029  0.82
      P1  H  6933  6944       L1    10  1.00

> <Gold.PLP.Chemscore.Internal.Correction>
0.0421

> <Gold.Rescore>
     Score         DG    S(hbond)    S(metal)    S(lipo)     H(rot)  DE(clash)    DE(int)     intcor
     22.08     -24.49       2.29        0.00     130.93       1.55       1.98       0.43       ----

> <Gold.Chemscore.Fitness>
22.0834

> <Gold.Chemscore.DG>
-24.4893

> <Gold.Chemscore.ZeroCoef>
-5.4800

> <Gold.Chemscore.Hbond>
2.2916

> <Gold.Chemscore.Metal>
0.0000

> <Gold.Chemscore.Lipo>
130.9297

> <Gold.Chemscore.Internal_Hbond>
0.0000

> <Gold.Chemscore.DEClash>
1.9786

> <Gold.Chemscore.DEInternal>
0.4274

> <Gold.Chemscore.Rot>
1.5482

> <Gold.Chemscore.Internal.Correction>
   9.000000E+99

> <Gold.Chemscore.Hbonds>
donor molecule, donor type, donor heavy atom, donor atom, acceptor molecule, acceptor atom, score
      L1  H     8    29       P1  8029  0.94
      L1  H    11    30       P1  8029  0.62
      P1  H  6933  6944       L1    10  0.99

> <Gold.Chemscore.Hbond.Weighted>
-7.6540

> <Gold.Chemscore.Metal.Weighted>
-0.0000

> <Gold.Chemscore.Lipo.Weighted>
-15.3188

> <Gold.Chemscore.Internal_Hbond.Weighted>
0.0000

> <Gold.Chemscore.DEClash.Weighted>
1.9786

> <Gold.Chemscore.DEInternal.Weighted>
0.4274

> <Gold.Chemscore.Rot.Weighted>
3.9635

> <Gold.Chemscore.Internal.Correction.Weighted>
   9.000000E+99

> <Gold.Protein.RotatedTorsions>
[ 6907 6896 6895 6894 ] final  -57.34 input  -60.11 | X-H torsion
[ 7974 7965 7964 7962 ] final  -18.39 input  175.53 | X-H torsion
[ 8008 7997 7996 7995 ] final  -88.72 input   59.86 | X-H torsion
[ 10167 10162 10161 10158 ] final   -9.74 input  -65.29 | X-H torsion
[ 10718 10713 10712 10709 ] final -108.90 input   66.30 | X-H torsion
[ 10763 10752 10751 10750 ] final   -3.58 input  -60.55 | X-H torsion
[ 11005 11000 10999 10996 ] final  177.65 input  -57.11 | X-H torsion

> <Gold.Protein.ActiveResidues>
 VAL166  LYS551  ARG553  GLY616  TRP617  ASP618  TYR619  PRO620  LYS621  CYS622 
 ASP623  PHE694  ASN695  SER759  ASP760  ASP761  ALA762  ILE779  LEU786  VAL792 
 PHE793  MET794  SER795  GLU796  ALA797  LYS798  CYS799  TRP800  GLU811  SER814 

> <Gold.Protein.RotatedAtoms>
  150.8094  134.7239  159.6673 H   0  0  0  0  0  0  0  0  0  0  0  0  # atno 6907 bound_to 6896
  152.4213  134.5946  159.9993 H   0  0  0  0  0  0  0  0  0  0  0  0  # atno 6908 bound_to 6896
  151.6160  133.3306  159.3114 H   0  0  0  0  0  0  0  0  0  0  0  0  # atno 6909 bound_to 6896
  146.1894  140.3915  142.8464 H   0  0  0  0  0  0  0  0  0  0  0  0  # atno 7974 bound_to 7965
  154.6781  140.0550  157.0237 H   0  0  0  0  0  0  0  0  0  0  0  0  # atno 8008 bound_to 7997
  155.0991  140.3227  155.4533 H   0  0  0  0  0  0  0  0  0  0  0  0  # atno 8009 bound_to 7997
  156.2683  140.2034  156.6118 H   0  0  0  0  0  0  0  0  0  0  0  0  # atno 8010 bound_to 7997
  140.7095  143.5825  150.8977 H   0  0  0  0  0  0  0  0  0  0  0  0  # atno 10167 bound_to 10162
  156.0509  130.5736  150.8026 H   0  0  0  0  0  0  0  0  0  0  0  0  # atno 10718 bound_to 10713
  153.3733  135.6995  153.6621 H   0  0  0  0  0  0  0  0  0  0  0  0  # atno 10763 bound_to 10752
  153.5262  135.3601  155.2655 H   0  0  0  0  0  0  0  0  0  0  0  0  # atno 10764 bound_to 10752
  154.8684  135.4170  154.3015 H   0  0  0  0  0  0  0  0  0  0  0  0  # atno 10765 bound_to 10752
  140.3865  134.6900  157.4482 H   0  0  0  0  0  0  0  0  0  0  0  0  # atno 11005 bound_to 11000
  144.8458  140.6927  143.6200 LP  0  0  0  0  0  0  0  0  0  0  0  0  # atno 17320 bound_to 7965
  145.3839  139.1631  143.4266 LP  0  0  0  0  0  0  0  0  0  0  0  0  # atno 17321 bound_to 7965
  139.9551  143.6228  152.3018 LP  0  0  0  0  0  0  0  0  0  0  0  0  # atno 17342 bound_to 10162
  139.6760  144.7658  151.1695 LP  0  0  0  0  0  0  0  0  0  0  0  0  # atno 17343 bound_to 10162
  157.5434  131.0941  150.9796 LP  0  0  0  0  0  0  0  0  0  0  0  0  # atno 17370 bound_to 10713
  157.0073  130.5623  149.5317 LP  0  0  0  0  0  0  0  0  0  0  0  0  # atno 17371 bound_to 10713
  140.0439  134.6227  155.8946 LP  0  0  0  0  0  0  0  0  0  0  0  0  # atno 17394 bound_to 11000
  141.1906  133.6569  156.5418 LP  0  0  0  0  0  0  0  0  0  0  0  0  # atno 17395 bound_to 11000

$$$$
