AV-unprocessed.smi:609|AV-procd|sdf|3046|dock3
  -GOLD-   2262023563D 1   1.00000     0.00000
 Structure written by MMmdl.
 43 45  0  0  0  0  0  0  0  0  2 V2000
  153.3650  143.1804  163.3321 C   0  0  0  0  0  0  0  0  0  0  0  0
  152.9838  142.7438  161.9285 C   0  0  0  0  0  0  0  0  0  0  0  0
  152.1142  143.5581  161.1684 C   0  0  0  0  0  0  0  0  0  0  0  0
  151.7364  143.1894  159.8588 C   0  0  0  0  0  0  0  0  0  0  0  0
  150.9057  143.8227  158.9504 N   0  0  0  0  0  0  0  0  0  0  0  0
  150.9490  142.9859  157.9176 C   0  0  0  0  0  0  0  0  0  0  0  0
  151.7077  141.8813  158.0513 N   0  0  0  0  0  0  0  0  0  0  0  0
  151.8967  140.8284  157.0697 C   0  0  0  0  0  0  0  0  0  0  0  0
  150.5962  140.4667  156.3246 C   0  0  1  0  0  0  0  0  0  0  0  0
  150.9320  140.1888  154.9806 O   0  0  0  0  0  0  0  0  0  0  0  0
  149.8555  139.2564  156.9249 C   0  0  0  0  0  0  0  0  0  0  0  0
  148.7616  138.4428  155.7273 S   0  0  0  0  0  0  0  0  0  0  0  0
  149.3348  136.7741  155.6324 C   0  0  0  0  0  0  0  0  0  0  0  0
  149.5854  136.0958  154.5081 N   0  3  0  0  0  0  0  0  0  0  0  0
  150.0163  134.8327  154.8139 C   0  0  0  0  0  0  0  0  0  0  0  0
  150.0262  134.7440  156.1837 C   0  0  0  0  0  0  0  0  0  0  0  0
  149.6012  135.9579  156.6615 N   0  0  0  0  0  0  0  0  0  0  0  0
  149.4469  136.3502  158.0631 C   0  0  0  0  0  0  0  0  0  0  0  0
  152.2571  141.9743  159.3260 C   0  0  0  0  0  0  0  0  0  0  0  0
  153.1235  141.1556  160.0722 C   0  0  0  0  0  0  0  0  0  0  0  0
  153.4899  141.5382  161.3795 C   0  0  0  0  0  0  0  0  0  0  0  0
  154.4263  140.6483  162.1770 C   0  0  0  0  0  0  0  0  0  0  0  0
  152.9133  144.1393  163.5873 H   0  0  0  0  0  0  0  0  0  0  0  0
  154.4465  143.2882  163.4187 H   0  0  0  0  0  0  0  0  0  0  0  0
  153.0297  142.4464  164.0651 H   0  0  0  0  0  0  0  0  0  0  0  0
  151.7286  144.4764  161.5863 H   0  0  0  0  0  0  0  0  0  0  0  0
  150.3933  143.1843  157.0126 H   0  0  0  0  0  0  0  0  0  0  0  0
  152.6597  141.1544  156.3613 H   0  0  0  0  0  0  0  0  0  0  0  0
  152.3006  139.9519  157.5782 H   0  0  0  0  0  0  0  0  0  0  0  0
  149.9315  141.3316  156.3319 H   0  0  0  0  0  0  0  0  0  0  0  0
  150.3243  139.5471  154.6455 H   0  0  0  0  0  0  0  0  0  0  0  0
  150.5679  138.5257  157.3099 H   0  0  0  0  0  0  0  0  0  0  0  0
  149.2348  139.5711  157.7636 H   0  0  0  0  0  0  0  0  0  0  0  0
  150.2767  134.1102  154.0542 H   0  0  0  0  0  0  0  0  0  0  0  0
  150.2981  133.9268  156.8361 H   0  0  0  0  0  0  0  0  0  0  0  0
  149.7392  135.5219  158.7091 H   0  0  0  0  0  0  0  0  0  0  0  0
  148.4045  136.6072  158.2533 H   0  0  0  0  0  0  0  0  0  0  0  0
  150.0838  137.2110  158.2686 H   0  0  0  0  0  0  0  0  0  0  0  0
  153.5023  140.2406  159.6415 H   0  0  0  0  0  0  0  0  0  0  0  0
  154.7102  139.7603  161.6113 H   0  0  0  0  0  0  0  0  0  0  0  0
  153.9483  140.3189  163.0996 H   0  0  0  0  0  0  0  0  0  0  0  0
  155.3390  141.1870  162.4326 H   0  0  0  0  0  0  0  0  0  0  0  0
  149.4731  136.4642  153.5722 H   0  0  0  0  0  0  0  0  0  0  0  0
  1  2  1  0  0  0  0
  1 23  1  0  0  0  0
  1 24  1  0  0  0  0
  1 25  1  0  0  0  0
  2 21  1  0  0  0  0
  2  3  2  0  0  0  0
  3  4  1  0  0  0  0
  3 26  1  0  0  0  0
  4 19  2  0  0  0  0
  4  5  1  0  0  0  0
  5  6  2  0  0  0  0
  6  7  1  0  0  0  0
  6 27  1  0  0  0  0
  7  8  1  0  0  0  0
  7 19  1  0  0  0  0
  8  9  1  0  0  0  0
  8 28  1  0  0  0  0
  8 29  1  0  0  0  0
  9 10  1  0  0  0  0
  9 11  1  0  0  0  0
  9 30  1  0  0  0  0
 10 31  1  0  0  0  0
 11 12  1  0  0  0  0
 11 32  1  0  0  0  0
 11 33  1  0  0  0  0
 12 13  1  0  0  0  0
 13 17  1  0  0  0  0
 13 14  2  0  0  0  0
 14 15  1  0  0  0  0
 14 43  1  0  0  0  0
 15 16  2  0  0  0  0
 15 34  1  0  0  0  0
 16 17  1  0  0  0  0
 16 35  1  0  0  0  0
 17 18  1  0  0  0  0
 18 36  1  0  0  0  0
 18 37  1  0  0  0  0
 18 38  1  0  0  0  0
 19 20  1  0  0  0  0
 20 21  2  0  0  0  0
 20 39  1  0  0  0  0
 21 22  1  0  0  0  0
 22 40  1  0  0  0  0
 22 41  1  0  0  0  0
 22 42  1  0  0  0  0
M  CHG  1  14   1
M  END
> <s_m_source_file>
AV-unprocessed.smi

> <i_m_source_file_index>
609

> <i_lp_mmshare_version>
43012

> <i_f3d_flags>
0

> <s_epik_input>
W0NIM11jKFtjSF0xKWMoW0NIM10pW2NIXWMoYzEyKW4oW2NIXW4yKVtDSDJdW0NASF0oW09IXSlbQ0gyXVNjM25bY0hdW2NIXW4zW0NIM10=

> <s_epik_cmdline>
J2VwaWtfcHl0aG9uJywgJy1waCcsICc3LjAnLCAnLXRuJywgJzgnLCAnLW1hJywgJzIwMCcsICctbWV0YWxfYmluZGluZycsICctaW1hZScsICc8aW5maWxlLm1hZT4nLCAnLW9tYWUnLCAnPG91dGZpbGUubWFlPic=

> <r_lp_tautomer_probability>
1

> <r_epik_Ionization_Penalty>
0.215713

> <r_epik_Ionization_Penalty_Charging>
0

> <r_epik_Ionization_Penalty_Neutral>
0.215713

> <r_epik_State_Penalty>
0.19579

> <r_epik_Charging_Adjusted_Penalty>
0.19579

> <i_epik_Tot_Q>
1

> <i_epik_Tot_abs_Q>
1

> <r_epik_Metal_State_Penalty>
0.429751

> <b_epik_Metal_Only>
0

> <s_lp_Force_Field>
OPLS_2005

> <r_lp_Energy>
9.84341

> <b_lp_Chiralities_Consistent>
1

> <s_lp_Variant>
AV-unprocessed.smi:609-2

> <Gold.Version>
5.8.1

> <Gold.Id.Protein>
6NUR|6NUR_protein|mol2

> <Gold.PLP.Fitness>
52.0726

> <Gold.PLP.PLP>
-43.1022

> <Gold.PLP.part.hbond>
-2.0000

> <Gold.PLP.part.metal>
0.0000

> <Gold.PLP.part.buried>
-6.6615

> <Gold.PLP.part.nonpolar>
-34.4051

> <Gold.PLP.part.repulsive>
0.1404

> <Gold.PLP.ligand.clash>
0.0000

> <Gold.PLP.ligand.torsion>
1.5190

> <Gold.PLP.Chemscore.Hbond>
3.0000

> <Gold.PLP.Chemscore.CHOScore>
0.9957

> <Gold.PLP.Chemscore.Metal>
0.0000

> <Gold.Chemscore.Hbonds>
donor molecule, donor type, donor heavy atom, donor atom, acceptor molecule, acceptor atom, score
      L1  H    14    43       P1  7948  1.98
      P1  H  7989  7998       L1    10  1.00
      L1  C     6    27       P1  8028  0.99

> <Gold.PLP.Chemscore.Internal.Correction>
0.0215

> <Gold.Rescore>
     Score         DG    S(hbond)    S(metal)    S(lipo)     H(rot)  DE(clash)    DE(int)     intcor
     16.71     -18.22       1.86        0.00     110.85       2.52       0.02       1.48       ----

> <Gold.Chemscore.Fitness>
16.7085

> <Gold.Chemscore.DG>
-18.2159

> <Gold.Chemscore.ZeroCoef>
-5.4800

> <Gold.Chemscore.Hbond>
1.8578

> <Gold.Chemscore.Metal>
0.0000

> <Gold.Chemscore.Lipo>
110.8544

> <Gold.Chemscore.Internal_Hbond>
0.0000

> <Gold.Chemscore.DEClash>
0.0234

> <Gold.Chemscore.DEInternal>
1.4840

> <Gold.Chemscore.Rot>
2.5153

> <Gold.Chemscore.Internal.Correction>
   9.000000E+99

> <Gold.Chemscore.Hbonds>
donor molecule, donor type, donor heavy atom, donor atom, acceptor molecule, acceptor atom, score
      L1  H    14    43       P1  7948  0.70
      P1  H  7989  7998       L1    10  0.40

> <Gold.Chemscore.Hbond.Weighted>
-6.2051

> <Gold.Chemscore.Metal.Weighted>
-0.0000

> <Gold.Chemscore.Lipo.Weighted>
-12.9700

> <Gold.Chemscore.Internal_Hbond.Weighted>
0.0000

> <Gold.Chemscore.DEClash.Weighted>
0.0234

> <Gold.Chemscore.DEInternal.Weighted>
1.4840

> <Gold.Chemscore.Rot.Weighted>
6.4391

> <Gold.Chemscore.Internal.Correction.Weighted>
   9.000000E+99

> <Gold.Protein.RotatedTorsions>
[ 6907 6896 6895 6894 ] final  -29.73 input  -60.11 | X-H torsion
[ 7974 7965 7964 7962 ] final -105.44 input  175.53 | X-H torsion
[ 8008 7997 7996 7995 ] final   76.37 input   59.86 | X-H torsion
[ 10167 10162 10161 10158 ] final   63.05 input  -65.29 | X-H torsion
[ 10718 10713 10712 10709 ] final -148.29 input   66.30 | X-H torsion
[ 10763 10752 10751 10750 ] final   51.41 input  -60.55 | X-H torsion
[ 11005 11000 10999 10996 ] final  -17.04 input  -57.11 | X-H torsion

> <Gold.Protein.ActiveResidues>
 VAL166  LYS551  ARG553  GLY616  TRP617  ASP618  TYR619  PRO620  LYS621  CYS622 
 ASP623  PHE694  ASN695  SER759  ASP760  ASP761  ALA762  ILE779  LEU786  VAL792 
 PHE793  MET794  SER795  GLU796  ALA797  LYS798  CYS799  TRP800  GLU811  SER814 

> <Gold.Protein.RotatedAtoms>
  151.1152  135.0049  159.8512 H   0  0  0  0  0  0  0  0  0  0  0  0  # atno 6907 bound_to 6896
  152.5445  134.1788  159.8637 H   0  0  0  0  0  0  0  0  0  0  0  0  # atno 6908 bound_to 6896
  151.1841  133.4662  159.2627 H   0  0  0  0  0  0  0  0  0  0  0  0  # atno 6909 bound_to 6896
  145.2305  140.9169  143.3207 H   0  0  0  0  0  0  0  0  0  0  0  0  # atno 7974 bound_to 7965
  155.8263  140.3468  155.5545 H   0  0  0  0  0  0  0  0  0  0  0  0  # atno 8008 bound_to 7997
  155.8289  140.0924  157.1824 H   0  0  0  0  0  0  0  0  0  0  0  0  # atno 8009 bound_to 7997
  154.4004  140.1416  156.3577 H   0  0  0  0  0  0  0  0  0  0  0  0  # atno 8010 bound_to 7997
  140.1373  144.4587  150.6831 H   0  0  0  0  0  0  0  0  0  0  0  0  # atno 10167 bound_to 10162
  156.4184  130.8016  151.2238 H   0  0  0  0  0  0  0  0  0  0  0  0  # atno 10718 bound_to 10713
  152.9785  135.5847  154.4410 H   0  0  0  0  0  0  0  0  0  0  0  0  # atno 10763 bound_to 10752
  154.4012  135.2769  155.2097 H   0  0  0  0  0  0  0  0  0  0  0  0  # atno 10764 bound_to 10752
  154.3928  135.6121  153.5907 H   0  0  0  0  0  0  0  0  0  0  0  0  # atno 10765 bound_to 10752
  140.8128  133.8127  155.9581 H   0  0  0  0  0  0  0  0  0  0  0  0  # atno 11005 bound_to 11000
  144.9681  139.3909  143.6322 LP  0  0  0  0  0  0  0  0  0  0  0  0  # atno 17320 bound_to 7965
  146.3354  139.8766  142.8831 LP  0  0  0  0  0  0  0  0  0  0  0  0  # atno 17321 bound_to 7965
  140.6782  143.2314  151.5453 LP  0  0  0  0  0  0  0  0  0  0  0  0  # atno 17342 bound_to 10162
  139.5490  144.2446  152.1495 LP  0  0  0  0  0  0  0  0  0  0  0  0  # atno 17343 bound_to 10162
  157.7508  131.0236  150.3839 LP  0  0  0  0  0  0  0  0  0  0  0  0  # atno 17370 bound_to 10713
  156.4152  130.3942  149.6863 LP  0  0  0  0  0  0  0  0  0  0  0  0  # atno 17371 bound_to 10713
  140.9180  134.2178  157.4945 LP  0  0  0  0  0  0  0  0  0  0  0  0  # atno 17394 bound_to 11000
  139.8713  134.9779  156.4979 LP  0  0  0  0  0  0  0  0  0  0  0  0  # atno 17395 bound_to 11000

$$$$
