AV-unprocessed.smi:1762|AV-procd|sdf|7110|dock10
  -GOLD-   22720 8333D 1   1.00000     0.00000
 Structure written by MMmdl.
 53 54  0  0  0  0  0  0  0  0  2 V2000
  151.4480  137.6920  154.6241 C   0  0  0  0  0  0  0  0  0  0  0  0
  150.8350  139.0142  155.0991 C   0  0  1  0  0  0  0  0  0  0  0  0
  149.6297  139.4349  154.2393 C   0  0  0  0  0  0  0  0  0  0  0  0
  148.9767  140.6532  154.7307 N   0  0  0  0  0  0  0  0  0  0  0  0
  147.8651  141.1051  153.8461 C   0  0  1  0  0  0  0  0  0  0  0  0
  146.9064  139.9658  153.4215 C   0  0  0  0  0  0  0  0  0  0  0  0
  146.0582  139.5348  154.2021 O   0  0  0  0  0  0  0  0  0  0  0  0
  147.0804  139.4623  152.1886 N   0  0  0  0  0  0  0  0  0  0  0  0
  146.3328  138.3401  151.6292 C   0  0  0  0  0  0  0  0  0  0  0  0
  146.2870  137.1134  152.5607 C   0  0  0  0  0  0  0  0  0  0  0  0
  145.7571  135.8581  151.8903 C   0  0  0  0  0  0  0  0  0  0  0  0
  144.3765  135.6455  151.6864 C   0  0  0  0  0  0  0  0  0  0  0  0
  143.9465  134.4537  151.0666 C   0  0  0  0  0  0  0  0  0  0  0  0
  144.9044  133.4995  150.6655 C   0  0  0  0  0  0  0  0  0  0  0  0
  146.2703  133.7625  150.8940 C   0  0  0  0  0  0  0  0  0  0  0  0
  146.6418  134.9161  151.4908 N   0  3  0  0  0  0  0  0  0  0  0  0
  147.0785  142.3517  154.3783 C   0  0  0  0  0  0  0  0  0  0  0  0
  146.1332  142.0431  155.5567 C   0  0  0  0  0  0  0  0  0  0  0  0
  146.3281  143.1275  153.2787 C   0  0  0  0  0  0  0  0  0  0  0  0
  148.6065  140.4467  156.1423 C   0  0  0  0  0  0  0  0  0  0  0  0
  149.7823  139.9830  157.0257 C   0  0  2  0  0  0  0  0  0  0  0  0
  150.7862  141.1052  157.3441 C   0  0  0  0  0  0  0  0  0  0  0  0
  150.4204  138.8457  156.4502 O   0  0  0  0  0  0  0  0  0  0  0  0
  151.8015  137.7704  153.5957 H   0  0  0  0  0  0  0  0  0  0  0  0
  150.7202  136.8811  154.6670 H   0  0  0  0  0  0  0  0  0  0  0  0
  152.2975  137.4102  155.2465 H   0  0  0  0  0  0  0  0  0  0  0  0
  151.6052  139.7841  155.0473 H   0  0  0  0  0  0  0  0  0  0  0  0
  149.9999  139.5734  153.2260 H   0  0  0  0  0  0  0  0  0  0  0  0
  148.9065  138.6183  154.1990 H   0  0  0  0  0  0  0  0  0  0  0  0
  148.3278  141.4383  152.9144 H   0  0  0  0  0  0  0  0  0  0  0  0
  147.8108  139.8582  151.6145 H   0  0  0  0  0  0  0  0  0  0  0  0
  145.3179  138.6844  151.4294 H   0  0  0  0  0  0  0  0  0  0  0  0
  146.7544  138.0603  150.6625 H   0  0  0  0  0  0  0  0  0  0  0  0
  147.2885  136.9106  152.9417 H   0  0  0  0  0  0  0  0  0  0  0  0
  145.6741  137.3342  153.4360 H   0  0  0  0  0  0  0  0  0  0  0  0
  143.6546  136.3847  152.0022 H   0  0  0  0  0  0  0  0  0  0  0  0
  142.8941  134.2735  150.9021 H   0  0  0  0  0  0  0  0  0  0  0  0
  144.5957  132.5801  150.1894 H   0  0  0  0  0  0  0  0  0  0  0  0
  147.0708  133.0905  150.6207 H   0  0  0  0  0  0  0  0  0  0  0  0
  147.8107  143.0680  154.7470 H   0  0  0  0  0  0  0  0  0  0  0  0
  145.3038  141.4020  155.2614 H   0  0  0  0  0  0  0  0  0  0  0  0
  145.7026  142.9613  155.9577 H   0  0  0  0  0  0  0  0  0  0  0  0
  146.6584  141.5519  156.3757 H   0  0  0  0  0  0  0  0  0  0  0  0
  145.4750  142.5689  152.8932 H   0  0  0  0  0  0  0  0  0  0  0  0
  146.9885  143.3608  152.4434 H   0  0  0  0  0  0  0  0  0  0  0  0
  145.9446  144.0728  153.6637 H   0  0  0  0  0  0  0  0  0  0  0  0
  148.2146  141.3582  156.5930 H   0  0  0  0  0  0  0  0  0  0  0  0
  147.8080  139.7051  156.2006 H   0  0  0  0  0  0  0  0  0  0  0  0
  149.3720  139.6490  157.9790 H   0  0  0  0  0  0  0  0  0  0  0  0
  150.3046  141.9082  157.9023 H   0  0  0  0  0  0  0  0  0  0  0  0
  151.2092  141.5468  156.4419 H   0  0  0  0  0  0  0  0  0  0  0  0
  151.6095  140.7298  157.9519 H   0  0  0  0  0  0  0  0  0  0  0  0
  147.6356  135.0856  151.6481 H   0  0  0  0  0  0  0  0  0  0  0  0
  1  2  1  0  0  0  0
  1 24  1  0  0  0  0
  1 25  1  0  0  0  0
  1 26  1  0  0  0  0
  2 23  1  0  0  0  0
  2  3  1  0  0  0  0
  2 27  1  0  0  0  0
  3  4  1  0  0  0  0
  3 28  1  0  0  0  0
  3 29  1  0  0  0  0
  4  5  1  0  0  0  0
  4 20  1  0  0  0  0
  5  6  1  0  0  0  0
  5 17  1  0  0  0  0
  5 30  1  0  0  0  0
  6  7  2  0  0  0  0
  6  8  1  0  0  0  0
  8  9  1  0  0  0  0
  8 31  1  0  0  0  0
  9 10  1  0  0  0  0
  9 32  1  0  0  0  0
  9 33  1  0  0  0  0
 10 11  1  0  0  0  0
 10 34  1  0  0  0  0
 10 35  1  0  0  0  0
 11 16  1  0  0  0  0
 11 12  2  0  0  0  0
 12 13  1  0  0  0  0
 12 36  1  0  0  0  0
 13 14  2  0  0  0  0
 13 37  1  0  0  0  0
 14 15  1  0  0  0  0
 14 38  1  0  0  0  0
 15 16  2  0  0  0  0
 15 39  1  0  0  0  0
 16 53  1  0  0  0  0
 17 18  1  0  0  0  0
 17 19  1  0  0  0  0
 17 40  1  0  0  0  0
 18 41  1  0  0  0  0
 18 42  1  0  0  0  0
 18 43  1  0  0  0  0
 19 44  1  0  0  0  0
 19 45  1  0  0  0  0
 19 46  1  0  0  0  0
 20 21  1  0  0  0  0
 20 47  1  0  0  0  0
 20 48  1  0  0  0  0
 21 22  1  0  0  0  0
 21 23  1  0  0  0  0
 21 49  1  0  0  0  0
 22 50  1  0  0  0  0
 22 51  1  0  0  0  0
 22 52  1  0  0  0  0
M  CHG  1  16   1
M  END
> <s_m_source_file>
AV-unprocessed.smi

> <i_m_source_file_index>
1762

> <i_lp_mmshare_version>
43012

> <i_f3d_flags>
0

> <s_epik_input>
W0NIM11bQ0BASF0xW0NIMl1OKFtDSDJdW0NASF0oTzEpW0NIM10pW0NAQEhdKFtDSF0oW0NIM10pW0NIM10pQyg9TylbTkhdW0NIMl1bQ0gyXWMyW2NIXVtjSF1bY0hdW2NIXW4y

> <s_epik_cmdline>
J2VwaWtfcHl0aG9uJywgJy1waCcsICc3LjAnLCAnLXRuJywgJzgnLCAnLW1hJywgJzIwMCcsICctbWV0YWxfYmluZGluZycsICctaW1hZScsICc8aW5maWxlLm1hZT4nLCAnLW9tYWUnLCAnPG91dGZpbGUubWFlPic=

> <r_epik_Ionization_Penalty>
1.86475

> <r_epik_Ionization_Penalty_Charging>
1.85347

> <r_epik_Ionization_Penalty_Neutral>
0.0112771

> <r_epik_State_Penalty>
1.99714

> <r_epik_Charging_Adjusted_Penalty>
3.85061

> <i_epik_Tot_Q>
1

> <i_epik_Tot_abs_Q>
1

> <r_epik_Metal_State_Penalty>
2.02271

> <b_epik_Metal_Only>
0

> <s_lp_Force_Field>
OPLS_2005

> <r_lp_Energy>
36.5288

> <b_lp_Chiralities_Consistent>
1

> <s_lp_Variant>
AV-unprocessed.smi:1762-12

> <Gold.Version>
5.8.1

> <Gold.Id.Protein>
6NUR|6NUR_protein|mol2

> <Gold.PLP.Fitness>
45.0075

> <Gold.PLP.PLP>
-37.6854

> <Gold.PLP.part.hbond>
-2.0000

> <Gold.PLP.part.metal>
0.0000

> <Gold.PLP.part.buried>
-3.0343

> <Gold.PLP.part.nonpolar>
-33.8084

> <Gold.PLP.part.repulsive>
0.3129

> <Gold.PLP.ligand.clash>
0.0000

> <Gold.PLP.ligand.torsion>
0.9773

> <Gold.PLP.Chemscore.Hbond>
2.9760

> <Gold.PLP.Chemscore.CHOScore>
0.0000

> <Gold.PLP.Chemscore.Metal>
0.0000

> <Gold.Chemscore.Hbonds>
donor molecule, donor type, donor heavy atom, donor atom, acceptor molecule, acceptor atom, score
      L1  H     8    31       P1  7957  1.00
      L1  H    16    53       P1  7948  1.98

> <Gold.PLP.Chemscore.Internal.Correction>
0.3488

> <Gold.Rescore>
     Score         DG    S(hbond)    S(metal)    S(lipo)     H(rot)  DE(clash)    DE(int)     intcor
     11.84     -17.91       1.61        0.00      97.86       1.72       1.73       4.33       ----

> <Gold.Chemscore.Fitness>
11.8428

> <Gold.Chemscore.DG>
-17.9063

> <Gold.Chemscore.ZeroCoef>
-5.4800

> <Gold.Chemscore.Hbond>
1.6088

> <Gold.Chemscore.Metal>
0.0000

> <Gold.Chemscore.Lipo>
97.8598

> <Gold.Chemscore.Internal_Hbond>
0.0000

> <Gold.Chemscore.DEClash>
1.7316

> <Gold.Chemscore.DEInternal>
4.3319

> <Gold.Chemscore.Rot>
1.7174

> <Gold.Chemscore.Internal.Correction>
   9.000000E+99

> <Gold.Chemscore.Hbonds>
donor molecule, donor type, donor heavy atom, donor atom, acceptor molecule, acceptor atom, score
      L1  H     8    31       P1  7957  0.96
      L1  H    16    53       P1  7948  0.62

> <Gold.Chemscore.Hbond.Weighted>
-5.3733

> <Gold.Chemscore.Metal.Weighted>
-0.0000

> <Gold.Chemscore.Lipo.Weighted>
-11.4496

> <Gold.Chemscore.Internal_Hbond.Weighted>
0.0000

> <Gold.Chemscore.DEClash.Weighted>
1.7316

> <Gold.Chemscore.DEInternal.Weighted>
4.3319

> <Gold.Chemscore.Rot.Weighted>
4.3966

> <Gold.Chemscore.Internal.Correction.Weighted>
   9.000000E+99

> <Gold.Protein.RotatedTorsions>
[ 6907 6896 6895 6894 ] final   18.66 input  -60.11 | X-H torsion
[ 7974 7965 7964 7962 ] final  144.31 input  175.53 | X-H torsion
[ 8008 7997 7996 7995 ] final -129.77 input   59.86 | X-H torsion
[ 10167 10162 10161 10158 ] final  165.26 input  -65.29 | X-H torsion
[ 10718 10713 10712 10709 ] final -101.45 input   66.30 | X-H torsion
[ 10763 10752 10751 10750 ] final -120.53 input  -60.55 | X-H torsion
[ 11005 11000 10999 10996 ] final -157.95 input  -57.11 | X-H torsion

> <Gold.Protein.ActiveResidues>
 VAL166  LYS551  ARG553  GLY616  TRP617  ASP618  TYR619  PRO620  LYS621  CYS622 
 ASP623  PHE694  ASN695  SER759  ASP760  ASP761  ALA762  ILE779  LEU786  VAL792 
 PHE793  MET794  SER795  GLU796  ALA797  LYS798  CYS799  TRP800  GLU811  SER814 

> <Gold.Protein.RotatedAtoms>
  151.8687  135.0497  160.0476 H   0  0  0  0  0  0  0  0  0  0  0  0  # atno 6907 bound_to 6896
  152.2605  133.5289  159.5387 H   0  0  0  0  0  0  0  0  0  0  0  0  # atno 6908 bound_to 6896
  150.7115  134.0752  159.3921 H   0  0  0  0  0  0  0  0  0  0  0  0  # atno 6909 bound_to 6896
  144.8846  139.5647  143.5827 H   0  0  0  0  0  0  0  0  0  0  0  0  # atno 7974 bound_to 7965
  155.2847  140.0445  157.3018 H   0  0  0  0  0  0  0  0  0  0  0  0  # atno 8008 bound_to 7997
  154.5576  140.2336  155.8353 H   0  0  0  0  0  0  0  0  0  0  0  0  # atno 8009 bound_to 7997
  156.2020  140.3023  155.9555 H   0  0  0  0  0  0  0  0  0  0  0  0  # atno 8010 bound_to 7997
  139.4903  144.4151  151.9254 H   0  0  0  0  0  0  0  0  0  0  0  0  # atno 10167 bound_to 10162
  156.0195  130.5374  150.6965 H   0  0  0  0  0  0  0  0  0  0  0  0  # atno 10718 bound_to 10713
  154.8646  135.4200  154.2474 H   0  0  0  0  0  0  0  0  0  0  0  0  # atno 10763 bound_to 10752
  153.3427  135.6994  153.6859 H   0  0  0  0  0  0  0  0  0  0  0  0  # atno 10764 bound_to 10752
  153.5831  135.3569  155.2855 H   0  0  0  0  0  0  0  0  0  0  0  0  # atno 10765 bound_to 10752
  140.6590  134.4369  157.5234 H   0  0  0  0  0  0  0  0  0  0  0  0  # atno 11005 bound_to 11000
  146.3016  139.7446  142.9087 LP  0  0  0  0  0  0  0  0  0  0  0  0  # atno 17320 bound_to 7965
  145.3891  141.0370  143.3134 LP  0  0  0  0  0  0  0  0  0  0  0  0  # atno 17321 bound_to 7965
  140.3593  144.2993  150.5936 LP  0  0  0  0  0  0  0  0  0  0  0  0  # atno 17342 bound_to 10162
  140.5417  143.2222  151.8074 LP  0  0  0  0  0  0  0  0  0  0  0  0  # atno 17343 bound_to 10162
  157.4635  131.0885  151.0720 LP  0  0  0  0  0  0  0  0  0  0  0  0  # atno 17370 bound_to 10713
  157.1201  130.6058  149.5503 LP  0  0  0  0  0  0  0  0  0  0  0  0  # atno 17371 bound_to 10713
  139.9019  134.8536  156.1860 LP  0  0  0  0  0  0  0  0  0  0  0  0  # atno 17394 bound_to 11000
  141.0479  133.6903  156.1718 LP  0  0  0  0  0  0  0  0  0  0  0  0  # atno 17395 bound_to 11000

$$$$
