#       Name:                AV-unprocessed.smi:3335
#       Creating user name   scv26
#       Creation time:       Fri Mar 27 19:23:02 2020


#       File generated by GOLD software.
#

@<TRIPOS>MOLECULE
AV-unprocessed.smi:3335
    50    51     1
SMALL
NO_CHARGES


@<TRIPOS>ATOM
      1 ****        -3.1608  -1.9707  -3.3031 C.3            1 S1                 0.0000
      2 ****        -2.7906  -0.9608  -2.2556 C.2            1 S1                 0.0000
      3 ****        -2.0580   0.2475  -2.4270 C.2            1 S1                 0.0000
      4 ****        -1.8927   0.9114  -1.2951 N.2            1 S1                 0.0000
      5 ****        -2.5165   0.1575  -0.3624 N.pl3          1 S1                 0.0000
      6 ****        -2.5237   0.5752   1.0352 C.3            1 S1                 0.0000
      7 ****        -3.2289   1.9390   1.1692 C.3            1 S1                 0.0000
      8 ****        -1.0879   0.5601   1.6241 C.3            1 S1                 0.0000
      9 ****        -1.0387   1.0014   3.0985 C.3            1 S1                 0.0000
     10 ****        -0.5062  -0.7992   1.5011 N.4            1 S1                 1.0000
     11 ****         0.9600  -0.8520   1.2998 C.3            1 S1                 0.0000
     12 ****         1.5042  -2.1929   1.8153 C.3            1 S1                 0.0000
     13 ****         1.3090  -0.6854  -0.1919 C.2            1 S1                 0.0000
     14 ****         0.5945  -1.2376  -1.0299 O.2            1 S1                 0.0000
     15 ****         2.3906   0.0406  -0.5458 N.am           1 S1                 0.0000
     16 ****         2.7796   0.2657  -1.9371 C.3            1 S1                 0.0000
     17 ****         3.8858   1.3197  -1.8949 C.3            1 S1                 0.0000
     18 ****         4.4966   1.1605  -0.5101 C.3            1 S1                 0.0000
     19 ****         3.3293   0.6988   0.3624 C.3            1 S1                 0.0000
     20 ****        -3.0685  -0.9780  -0.9182 C.2            1 S1                 0.0000
     21 ****        -2.8636  -1.6476  -4.3010 H              1 S1                 0.0000
     22 ****        -4.2362  -2.1474  -3.3303 H              1 S1                 0.0000
     23 ****        -2.6803  -2.9321  -3.1211 H              1 S1                 0.0000
     24 ****        -1.6380   0.6563  -3.3342 H              1 S1                 0.0000
     25 ****        -3.1240  -0.1540   1.5819 H              1 S1                 0.0000
     26 ****        -3.4180   2.1941   2.2116 H              1 S1                 0.0000
     27 ****        -4.1965   1.9286   0.6661 H              1 S1                 0.0000
     28 ****        -2.6363   2.7425   0.7304 H              1 S1                 0.0000
     29 ****        -0.4793   1.2558   1.0438 H              1 S1                 0.0000
     30 ****        -1.3508   2.0386   3.2186 H              1 S1                 0.0000
     31 ****        -0.0287   0.9308   3.5025 H              1 S1                 0.0000
     32 ****        -1.6867   0.3825   3.7200 H              1 S1                 0.0000
     33 ****        -0.7458  -1.3176   2.3338 H              1 S1                 0.0000
     34 ****         1.4054  -0.0586   1.8984 H              1 S1                 0.0000
     35 ****         2.5876  -2.2510   1.7025 H              1 S1                 0.0000
     36 ****         1.0687  -3.0370   1.2784 H              1 S1                 0.0000
     37 ****         1.2804  -2.3238   2.8745 H              1 S1                 0.0000
     38 ****         3.1566  -0.6685  -2.3562 H              1 S1                 0.0000
     39 ****         1.9399   0.5983  -2.5497 H              1 S1                 0.0000
     40 ****         4.6153   1.2001  -2.6964 H              1 S1                 0.0000
     41 ****         3.4475   2.3143  -1.9877 H              1 S1                 0.0000
     42 ****         5.2627   0.3844  -0.5376 H              1 S1                 0.0000
     43 ****         4.9620   2.0764  -0.1447 H              1 S1                 0.0000
     44 ****         2.8379   1.5573   0.8226 H              1 S1                 0.0000
     45 ****         3.6748   0.0337   1.1551 H              1 S1                 0.0000
     46 ****        -3.6042  -1.7017  -0.3216 H              1 S1                 0.0000
     47 ****        -0.9280  -1.2568   0.7050 H              1 S1                 0.0000
     48 ****        -1.4130   1.7783  -1.1594 LP             1 S1                 0.0000
     49 ****        -0.1927  -1.7799  -0.7364 LP             1 S1                 0.0000
     50 ****         0.8017  -1.1434  -2.0036 LP             1 S1                 0.0000
@<TRIPOS>BOND
    1    1    2 1     
    2    1   21 1     
    3    1   22 1     
    4    1   23 1     
    5    2   20 2     
    6    2    3 1     
    7    3    4 2     
    8    3   24 1     
    9    4    5 1     
   10    5    6 1     
   11    5   20 1     
   12    6    7 1     
   13    6    8 1     
   14    6   25 1     
   15    7   26 1     
   16    7   27 1     
   17    7   28 1     
   18    8    9 1     
   19    8   10 1     
   20    8   29 1     
   21    9   30 1     
   22    9   31 1     
   23    9   32 1     
   24   10   11 1     
   25   10   33 1     
   26   10   47 1     
   27   11   12 1     
   28   11   13 1     
   29   11   34 1     
   30   12   35 1     
   31   12   36 1     
   32   12   37 1     
   33   13   14 2     
   34   13   15 am    
   35   15   19 1     
   36   15   16 1     
   37   16   17 1     
   38   16   38 1     
   39   16   39 1     
   40   17   18 1     
   41   17   40 1     
   42   17   41 1     
   43   18   19 1     
   44   18   42 1     
   45   18   43 1     
   46   19   44 1     
   47   19   45 1     
   48   20   46 1     
   49    4   48 1     
   50   14   49 1     
   51   14   50 1     
@<TRIPOS>SUBSTRUCTURE
      1 S1             1
@<TRIPOS>SET
LONE_PAIRS      STATIC     ATOMS    <user>   **** ""
3 48 49 50
DONOR_HYDROGENS      STATIC     ATOMS    <user>   **** ""
2 33 47
ATOM$BLUE        STATIC     ATOMS    COLORGROUP SYSTEM
3 48 49 50
ATOM$RED        STATIC     ATOMS    COLORGROUP SYSTEM
2 33 47
