AV-unprocessed.smi:433|AV-procd|sdf|2551|dock2
  -GOLD-   2262022513D 1   1.00000     0.00000
 Structure written by MMmdl.
 36 37  0  0  0  0  0  0  0  0  1 V2000
  149.3921  140.4544  154.1951 C   0  0  0  0  0  0  0  0  0  0  0  0
  150.3407  139.4916  154.6756 N   0  0  0  0  0  0  0  0  0  0  0  0
  150.4068  138.2044  154.1795 C   0  0  0  0  0  0  0  0  0  0  0  0
  151.2867  137.2875  154.6373 C   0  0  0  0  0  0  0  0  0  0  0  0
  152.2325  137.6193  155.6975 C   0  0  0  0  0  0  0  0  0  0  0  0
  153.0327  136.8067  156.1623 O   0  0  0  0  0  0  0  0  0  0  0  0
  152.1506  138.9527  156.1690 N   0  0  0  0  0  0  0  0  0  0  0  0
  153.0466  139.3489  157.2411 C   0  0  0  0  0  0  0  0  0  0  0  0
  152.4617  139.0766  158.6458 C   0  0  1  0  0  0  0  0  0  0  0  0
  153.3232  138.1939  159.3354 O   0  0  0  0  0  0  0  0  0  0  0  0
  152.3483  140.3562  159.4874 C   0  0  0  0  0  0  0  0  0  0  0  0
  152.4792  141.4750  158.6208 O   0  0  0  0  0  0  0  0  0  0  0  0
  152.3908  142.7385  159.1623 C   0  0  0  0  0  0  0  0  0  0  0  0
  152.2918  143.8147  158.2565 C   0  0  0  0  0  0  0  0  0  0  0  0
  152.1952  145.1406  158.7204 C   0  0  0  0  0  0  0  0  0  0  0  0
  152.1959  145.4038  160.1025 C   0  0  0  0  0  0  0  0  0  0  0  0
  152.2944  144.3392  161.0177 C   0  0  0  0  0  0  0  0  0  0  0  0
  152.3917  143.0127  160.5535 C   0  0  0  0  0  0  0  0  0  0  0  0
  151.2150  139.9072  155.7030 C   0  0  0  0  0  0  0  0  0  0  0  0
  151.1529  141.0468  156.1738 O   0  0  0  0  0  0  0  0  0  0  0  0
  148.8184  139.9905  153.3921 H   0  0  0  0  0  0  0  0  0  0  0  0
  149.9526  141.3128  153.8205 H   0  0  0  0  0  0  0  0  0  0  0  0
  148.7422  140.7191  155.0311 H   0  0  0  0  0  0  0  0  0  0  0  0
  149.7242  137.9121  153.3946 H   0  0  0  0  0  0  0  0  0  0  0  0
  151.2891  136.2930  154.2162 H   0  0  0  0  0  0  0  0  0  0  0  0
  154.0140  138.8686  157.0831 H   0  0  0  0  0  0  0  0  0  0  0  0
  153.2574  140.4095  157.0925 H   0  0  0  0  0  0  0  0  0  0  0  0
  151.4771  138.6116  158.5778 H   0  0  0  0  0  0  0  0  0  0  0  0
  153.4716  138.5371  160.2036 H   0  0  0  0  0  0  0  0  0  0  0  0
  151.3736  140.3908  159.9775 H   0  0  0  0  0  0  0  0  0  0  0  0
  153.1190  140.3696  160.2601 H   0  0  0  0  0  0  0  0  0  0  0  0
  152.2905  143.6201  157.1939 H   0  0  0  0  0  0  0  0  0  0  0  0
  152.1200  145.9551  158.0150 H   0  0  0  0  0  0  0  0  0  0  0  0
  152.1210  146.4203  160.4600 H   0  0  0  0  0  0  0  0  0  0  0  0
  152.2950  144.5399  162.0788 H   0  0  0  0  0  0  0  0  0  0  0  0
  152.4644  142.2226  161.2851 H   0  0  0  0  0  0  0  0  0  0  0  0
  1  2  1  0  0  0  0
  1 21  1  0  0  0  0
  1 22  1  0  0  0  0
  1 23  1  0  0  0  0
  2 19  1  0  0  0  0
  2  3  1  0  0  0  0
  3  4  2  0  0  0  0
  3 24  1  0  0  0  0
  4  5  1  0  0  0  0
  4 25  1  0  0  0  0
  5  6  2  0  0  0  0
  5  7  1  0  0  0  0
  7  8  1  0  0  0  0
  7 19  1  0  0  0  0
  8  9  1  0  0  0  0
  8 26  1  0  0  0  0
  8 27  1  0  0  0  0
  9 10  1  0  0  0  0
  9 11  1  0  0  0  0
  9 28  1  0  0  0  0
 10 29  1  0  0  0  0
 11 12  1  0  0  0  0
 11 30  1  0  0  0  0
 11 31  1  0  0  0  0
 12 13  1  0  0  0  0
 13 18  1  0  0  0  0
 13 14  2  0  0  0  0
 14 15  1  0  0  0  0
 14 32  1  0  0  0  0
 15 16  2  0  0  0  0
 15 33  1  0  0  0  0
 16 17  1  0  0  0  0
 16 34  1  0  0  0  0
 17 18  2  0  0  0  0
 17 35  1  0  0  0  0
 18 36  1  0  0  0  0
 19 20  2  0  0  0  0
M  END
> <s_m_source_file>
AV-unprocessed.smi

> <i_m_source_file_index>
433

> <i_lp_mmshare_version>
43012

> <i_f3d_flags>
0

> <s_epik_input>
W0NIM11uMVtjSF1bY0hdYyg9TyluKGMxPU8pW0NIMl1bQ0BIXShbT0hdKVtDSDJdT2MyW2NIXVtjSF1bY0hdW2NIXVtjSF0y

> <s_epik_cmdline>
J2VwaWtfcHl0aG9uJywgJy1waCcsICc3LjAnLCAnLXRuJywgJzgnLCAnLW1hJywgJzIwMCcsICctbWV0YWxfYmluZGluZycsICctaW1hZScsICc8aW5maWxlLm1hZT4nLCAnLW9tYWUnLCAnPG91dGZpbGUubWFlPic=

> <r_lp_tautomer_probability>
1

> <r_epik_Ionization_Penalty>
2.21742e-07

> <r_epik_Ionization_Penalty_Charging>
1.04568e-07

> <r_epik_Ionization_Penalty_Neutral>
1.17174e-07

> <r_epik_State_Penalty>
-0

> <r_epik_Charging_Adjusted_Penalty>
1.04568e-07

> <i_epik_Tot_Q>
0

> <i_epik_Tot_abs_Q>
0

> <r_epik_Metal_State_Penalty>
-0

> <b_epik_Metal_Only>
0

> <s_lp_Force_Field>
OPLS_2005

> <r_lp_Energy>
22.7461

> <b_lp_Chiralities_Consistent>
1

> <s_lp_Variant>
AV-unprocessed.smi:433-2

> <Gold.Version>
5.8.1

> <Gold.Id.Protein>
6NUR|6NUR_protein|mol2

> <Gold.PLP.Fitness>
47.9013

> <Gold.PLP.PLP>
-44.9438

> <Gold.PLP.part.hbond>
-1.0000

> <Gold.PLP.part.metal>
0.0000

> <Gold.PLP.part.buried>
0.5227

> <Gold.PLP.part.nonpolar>
-43.7491

> <Gold.PLP.part.repulsive>
0.0651

> <Gold.PLP.ligand.clash>
0.0000

> <Gold.PLP.ligand.torsion>
1.8661

> <Gold.PLP.Chemscore.Hbond>
0.7360

> <Gold.PLP.Chemscore.CHOScore>
1.4776

> <Gold.PLP.Chemscore.Metal>
0.0000

> <Gold.Chemscore.Hbonds>
donor molecule, donor type, donor heavy atom, donor atom, acceptor molecule, acceptor atom, score
      P1  H 10752 10763       L1     6  0.67
      L1  C     3    24       P1  7948  1.00

> <Gold.PLP.Chemscore.Internal.Correction>
0.0489

> <Gold.Rescore>
     Score         DG    S(hbond)    S(metal)    S(lipo)     H(rot)  DE(clash)    DE(int)     intcor
     11.70     -14.66       0.77        0.00     110.35       2.46       0.97       1.99       ----

> <Gold.Chemscore.Fitness>
11.7028

> <Gold.Chemscore.DG>
-14.6642

> <Gold.Chemscore.ZeroCoef>
-5.4800

> <Gold.Chemscore.Hbond>
0.7703

> <Gold.Chemscore.Metal>
0.0000

> <Gold.Chemscore.Lipo>
110.3497

> <Gold.Chemscore.Internal_Hbond>
0.0000

> <Gold.Chemscore.DEClash>
0.9717

> <Gold.Chemscore.DEInternal>
1.9897

> <Gold.Chemscore.Rot>
2.4608

> <Gold.Chemscore.Internal.Correction>
   9.000000E+99

> <Gold.Chemscore.Hbonds>
donor molecule, donor type, donor heavy atom, donor atom, acceptor molecule, acceptor atom, score
      P1  H 10752 10763       L1     6  0.40

> <Gold.Chemscore.Hbond.Weighted>
-2.5730

> <Gold.Chemscore.Metal.Weighted>
-0.0000

> <Gold.Chemscore.Lipo.Weighted>
-12.9109

> <Gold.Chemscore.Internal_Hbond.Weighted>
0.0000

> <Gold.Chemscore.DEClash.Weighted>
0.9717

> <Gold.Chemscore.DEInternal.Weighted>
1.9897

> <Gold.Chemscore.Rot.Weighted>
6.2997

> <Gold.Chemscore.Internal.Correction.Weighted>
   9.000000E+99

> <Gold.Protein.RotatedTorsions>
[ 6907 6896 6895 6894 ] final -147.48 input  -60.11 | X-H torsion
[ 7974 7965 7964 7962 ] final   -4.26 input  175.53 | X-H torsion
[ 8008 7997 7996 7995 ] final  151.55 input   59.86 | X-H torsion
[ 10167 10162 10161 10158 ] final -163.75 input  -65.29 | X-H torsion
[ 10718 10713 10712 10709 ] final   82.13 input   66.30 | X-H torsion
[ 10763 10752 10751 10750 ] final   87.71 input  -60.55 | X-H torsion
[ 11005 11000 10999 10996 ] final  -78.92 input  -57.11 | X-H torsion

> <Gold.Protein.ActiveResidues>
 VAL166  LYS551  ARG553  GLY616  TRP617  ASP618  TYR619  PRO620  LYS621  CYS622 
 ASP623  PHE694  ASN695  SER759  ASP760  ASP761  ALA762  ILE779  LEU786  VAL792 
 PHE793  MET794  SER795  GLU796  ALA797  LYS798  CYS799  TRP800  GLU811  SER814 

> <Gold.Protein.RotatedAtoms>
  151.1562  133.4874  159.2594 H   0  0  0  0  0  0  0  0  0  0  0  0  # atno 6907 bound_to 6896
  151.1501  135.0223  159.8674 H   0  0  0  0  0  0  0  0  0  0  0  0  # atno 6908 bound_to 6896
  152.5463  134.1447  159.8547 H   0  0  0  0  0  0  0  0  0  0  0  0  # atno 6909 bound_to 6896
  146.2375  140.1844  142.8332 H   0  0  0  0  0  0  0  0  0  0  0  0  # atno 7974 bound_to 7965
  156.2669  140.2044  156.6194 H   0  0  0  0  0  0  0  0  0  0  0  0  # atno 8008 bound_to 7997
  154.6769  140.0544  157.0249 H   0  0  0  0  0  0  0  0  0  0  0  0  # atno 8009 bound_to 7997
  155.1056  140.3210  155.4538 H   0  0  0  0  0  0  0  0  0  0  0  0  # atno 8010 bound_to 7997
  139.6299  144.0460  152.2007 H   0  0  0  0  0  0  0  0  0  0  0  0  # atno 10167 bound_to 10162
  157.6850  131.0034  150.2329 H   0  0  0  0  0  0  0  0  0  0  0  0  # atno 10718 bound_to 10713
  153.1695  135.4533  154.9883 H   0  0  0  0  0  0  0  0  0  0  0  0  # atno 10763 bound_to 10752
  154.7956  135.3236  154.7677 H   0  0  0  0  0  0  0  0  0  0  0  0  # atno 10764 bound_to 10752
  153.8155  135.6951  153.4889 H   0  0  0  0  0  0  0  0  0  0  0  0  # atno 10765 bound_to 10752
  141.1666  133.7083  156.8044 H   0  0  0  0  0  0  0  0  0  0  0  0  # atno 11005 bound_to 11000
  144.9908  140.8545  143.5340 LP  0  0  0  0  0  0  0  0  0  0  0  0  # atno 17320 bound_to 7965
  145.1850  139.2331  143.5273 LP  0  0  0  0  0  0  0  0  0  0  0  0  # atno 17321 bound_to 7965
  140.0123  144.6215  150.7637 LP  0  0  0  0  0  0  0  0  0  0  0  0  # atno 17342 bound_to 10162
  140.7433  143.2844  151.3506 LP  0  0  0  0  0  0  0  0  0  0  0  0  # atno 17343 bound_to 10162
  156.2958  130.3751  149.7798 LP  0  0  0  0  0  0  0  0  0  0  0  0  # atno 17370 bound_to 10713
  156.5443  130.8314  151.3279 LP  0  0  0  0  0  0  0  0  0  0  0  0  # atno 17371 bound_to 10713
  140.2233  134.8741  157.3400 LP  0  0  0  0  0  0  0  0  0  0  0  0  # atno 17394 bound_to 11000
  140.1966  134.4306  155.7686 LP  0  0  0  0  0  0  0  0  0  0  0  0  # atno 17395 bound_to 11000

$$$$
