AV-unprocessed.smi:3031|AV-procd|sdf|11551|dock4
  -GOLD-   2272016513D 1   1.00000     0.00000
 Structure written by MMmdl.
 48 49  0  0  0  0  0  0  0  0  3 V2000
  151.8543  144.3185  158.4632 C   0  0  0  0  0  0  0  0  0  0  0  0
  151.4675  143.0025  157.8518 C   0  0  0  0  0  0  0  0  0  0  0  0
  151.4086  141.7310  158.4884 C   0  0  0  0  0  0  0  0  0  0  0  0
  151.0364  140.7632  157.6672 N   0  0  0  0  0  0  0  0  0  0  0  0
  150.8341  141.3802  156.4818 N   0  0  0  0  0  0  0  0  0  0  0  0
  150.4401  140.6130  155.3089 C   0  0  0  0  0  0  0  0  0  0  0  0
  149.0689  141.0269  154.7337 C   0  0  2  0  0  0  0  0  0  0  0  0
  148.0324  141.2108  155.8529 C   0  0  0  0  0  0  0  0  0  0  0  0
  148.6042  140.0212  153.7520 N   0  3  0  0  0  0  0  0  0  0  0  0
  147.1913  140.1569  153.3405 C   0  0  0  0  0  0  0  0  0  0  0  0
  146.6949  138.8872  152.6248 C   0  0  1  0  0  0  0  0  0  0  0  0
  147.6692  138.5150  151.6710 O   0  0  0  0  0  0  0  0  0  0  0  0
  146.4978  137.6947  153.5856 C   0  0  0  0  0  0  0  0  0  0  0  0
  146.3177  136.3977  152.8820 N   0  3  0  0  0  0  0  0  0  0  0  0
  146.0123  135.2628  153.7892 C   0  0  0  0  0  0  0  0  0  0  0  0
  145.8686  133.9564  152.9898 C   0  0  0  0  0  0  0  0  0  0  0  0
  144.8617  134.1109  151.9980 O   0  0  0  0  0  0  0  0  0  0  0  0
  145.1862  135.1344  151.0663 C   0  0  0  0  0  0  0  0  0  0  0  0
  145.3061  136.4806  151.8010 C   0  0  0  0  0  0  0  0  0  0  0  0
  151.1019  142.7306  156.5637 C   0  0  0  0  0  0  0  0  0  0  0  0
  152.7863  144.2422  159.0235 H   0  0  0  0  0  0  0  0  0  0  0  0
  151.0924  144.6801  159.1537 H   0  0  0  0  0  0  0  0  0  0  0  0
  151.9976  145.0917  157.7079 H   0  0  0  0  0  0  0  0  0  0  0  0
  151.6281  141.4842  159.5169 H   0  0  0  0  0  0  0  0  0  0  0  0
  151.2151  140.7241  154.5488 H   0  0  0  0  0  0  0  0  0  0  0  0
  150.4275  139.5589  155.5893 H   0  0  0  0  0  0  0  0  0  0  0  0
  149.1896  141.9852  154.2259 H   0  0  0  0  0  0  0  0  0  0  0  0
  148.3689  141.9528  156.5775 H   0  0  0  0  0  0  0  0  0  0  0  0
  147.8590  140.2785  156.3915 H   0  0  0  0  0  0  0  0  0  0  0  0
  147.0739  141.5521  155.4616 H   0  0  0  0  0  0  0  0  0  0  0  0
  149.1683  140.1282  152.9209 H   0  0  0  0  0  0  0  0  0  0  0  0
  146.5644  140.3811  154.2044 H   0  0  0  0  0  0  0  0  0  0  0  0
  147.1195  141.0102  152.6651 H   0  0  0  0  0  0  0  0  0  0  0  0
  145.7722  139.0969  152.0843 H   0  0  0  0  0  0  0  0  0  0  0  0
  148.4364  139.0554  151.7898 H   0  0  0  0  0  0  0  0  0  0  0  0
  147.3436  137.6095  154.2701 H   0  0  0  0  0  0  0  0  0  0  0  0
  145.6232  137.8938  154.2075 H   0  0  0  0  0  0  0  0  0  0  0  0
  146.8000  135.1405  154.5315 H   0  0  0  0  0  0  0  0  0  0  0  0
  145.0889  135.4673  154.3333 H   0  0  0  0  0  0  0  0  0  0  0  0
  146.8157  133.6776  152.5249 H   0  0  0  0  0  0  0  0  0  0  0  0
  145.5873  133.1389  153.6537 H   0  0  0  0  0  0  0  0  0  0  0  0
  146.1133  134.8899  150.5452 H   0  0  0  0  0  0  0  0  0  0  0  0
  144.4009  135.1865  150.3118 H   0  0  0  0  0  0  0  0  0  0  0  0
  144.3401  136.7619  152.2234 H   0  0  0  0  0  0  0  0  0  0  0  0
  145.5849  137.2598  151.0905 H   0  0  0  0  0  0  0  0  0  0  0  0
  151.0118  143.3819  155.7064 H   0  0  0  0  0  0  0  0  0  0  0  0
  148.7596  139.0959  154.1267 H   0  0  0  0  0  0  0  0  0  0  0  0
  147.1944  136.1858  152.4275 H   0  0  0  0  0  0  0  0  0  0  0  0
  1  2  1  0  0  0  0
  1 21  1  0  0  0  0
  1 22  1  0  0  0  0
  1 23  1  0  0  0  0
  2 20  2  0  0  0  0
  2  3  1  0  0  0  0
  3  4  2  0  0  0  0
  3 24  1  0  0  0  0
  4  5  1  0  0  0  0
  5  6  1  0  0  0  0
  5 20  1  0  0  0  0
  6  7  1  0  0  0  0
  6 25  1  0  0  0  0
  6 26  1  0  0  0  0
  7  8  1  0  0  0  0
  7  9  1  0  0  0  0
  7 27  1  0  0  0  0
  8 28  1  0  0  0  0
  8 29  1  0  0  0  0
  8 30  1  0  0  0  0
  9 10  1  0  0  0  0
  9 31  1  0  0  0  0
  9 47  1  0  0  0  0
 10 11  1  0  0  0  0
 10 32  1  0  0  0  0
 10 33  1  0  0  0  0
 11 12  1  0  0  0  0
 11 13  1  0  0  0  0
 11 34  1  0  0  0  0
 12 35  1  0  0  0  0
 13 14  1  0  0  0  0
 13 36  1  0  0  0  0
 13 37  1  0  0  0  0
 14 19  1  0  0  0  0
 14 15  1  0  0  0  0
 14 48  1  0  0  0  0
 15 16  1  0  0  0  0
 15 38  1  0  0  0  0
 15 39  1  0  0  0  0
 16 17  1  0  0  0  0
 16 40  1  0  0  0  0
 16 41  1  0  0  0  0
 17 18  1  0  0  0  0
 18 19  1  0  0  0  0
 18 42  1  0  0  0  0
 18 43  1  0  0  0  0
 19 44  1  0  0  0  0
 19 45  1  0  0  0  0
 20 46  1  0  0  0  0
M  CHG  1   9   1
M  CHG  1  14   1
M  END
> <s_m_source_file>
AV-unprocessed.smi

> <i_m_source_file_index>
3031

> <i_lp_mmshare_version>
43012

> <i_f3d_flags>
0

> <s_epik_input>
W0NIM11jMVtjSF1ubihbY0hdMSlbQ0gyXVtDQEhdKFtDSDNdKVtOSF1bQ0gyXVtDQEhdKFtPSF0pW0NIMl1OMltDSDJdW0NIMl1PW0NIMl1bQ0gyXTI=

> <s_epik_cmdline>
J2VwaWtfcHl0aG9uJywgJy1waCcsICc3LjAnLCAnLXRuJywgJzgnLCAnLW1hJywgJzIwMCcsICctbWV0YWxfYmluZGluZycsICctaW1hZScsICc8aW5maWxlLm1hZT4nLCAnLW9tYWUnLCAnPG91dGZpbGUubWFlPic=

> <r_lp_tautomer_probability>
1

> <r_epik_Ionization_Penalty>
1.76542

> <r_epik_Ionization_Penalty_Charging>
1.76348

> <r_epik_Ionization_Penalty_Neutral>
0.00194017

> <r_epik_State_Penalty>
1.49348

> <r_epik_Charging_Adjusted_Penalty>
3.25696

> <i_epik_Tot_Q>
2

> <i_epik_Tot_abs_Q>
2

> <r_epik_Metal_State_Penalty>
1.49349

> <b_epik_Metal_Only>
0

> <s_lp_Force_Field>
OPLS_2005

> <r_lp_Energy>
28.4562

> <b_lp_Chiralities_Consistent>
1

> <s_lp_Variant>
AV-unprocessed.smi:3031-11

> <Gold.Version>
5.8.1

> <Gold.Id.Protein>
6NUR|6NUR_protein|mol2

> <Gold.PLP.Fitness>
53.2444

> <Gold.PLP.PLP>
-36.9280

> <Gold.PLP.part.hbond>
-4.5583

> <Gold.PLP.part.metal>
0.0000

> <Gold.PLP.part.buried>
-2.0292

> <Gold.PLP.part.nonpolar>
-30.3906

> <Gold.PLP.part.repulsive>
0.2320

> <Gold.PLP.ligand.clash>
0.0000

> <Gold.PLP.ligand.torsion>
0.4475

> <Gold.PLP.Chemscore.Hbond>
4.8408

> <Gold.PLP.Chemscore.CHOScore>
0.8475

> <Gold.PLP.Chemscore.Metal>
0.0000

> <Gold.Chemscore.Hbonds>
donor molecule, donor type, donor heavy atom, donor atom, acceptor molecule, acceptor atom, score
      L1  H     9    31       P1  7957  1.00
      L1  H    12    35       P1  7957  0.96
      L1  H    14    48       P1  7948  2.00
      P1  H  7954  7966       L1    12  0.73
      L1  C    20    46       P1  8028  0.70

> <Gold.PLP.Chemscore.Internal.Correction>
0.1465

> <Gold.Rescore>
     Score         DG    S(hbond)    S(metal)    S(lipo)     H(rot)  DE(clash)    DE(int)     intcor
     18.17     -19.39       3.00        0.00      93.17       2.74       0.75       0.47       ----

> <Gold.Chemscore.Fitness>
18.1740

> <Gold.Chemscore.DG>
-19.3934

> <Gold.Chemscore.ZeroCoef>
-5.4800

> <Gold.Chemscore.Hbond>
3.0047

> <Gold.Chemscore.Metal>
0.0000

> <Gold.Chemscore.Lipo>
93.1692

> <Gold.Chemscore.Internal_Hbond>
0.0000

> <Gold.Chemscore.DEClash>
0.7533

> <Gold.Chemscore.DEInternal>
0.4661

> <Gold.Chemscore.Rot>
2.7434

> <Gold.Chemscore.Internal.Correction>
   9.000000E+99

> <Gold.Chemscore.Hbonds>
donor molecule, donor type, donor heavy atom, donor atom, acceptor molecule, acceptor atom, score
      L1  H     9    31       P1  7957  0.99
      L1  H    12    35       P1  7957  0.85
      L1  H    14    48       P1  7948  1.00
      P1  H  7954  7966       L1    12  0.09

> <Gold.Chemscore.Hbond.Weighted>
-10.0357

> <Gold.Chemscore.Metal.Weighted>
-0.0000

> <Gold.Chemscore.Lipo.Weighted>
-10.9008

> <Gold.Chemscore.Internal_Hbond.Weighted>
0.0000

> <Gold.Chemscore.DEClash.Weighted>
0.7533

> <Gold.Chemscore.DEInternal.Weighted>
0.4661

> <Gold.Chemscore.Rot.Weighted>
7.0231

> <Gold.Chemscore.Internal.Correction.Weighted>
   9.000000E+99

> <Gold.Protein.RotatedTorsions>
[ 6907 6896 6895 6894 ] final   57.31 input  -60.11 | X-H torsion
[ 7974 7965 7964 7962 ] final -104.08 input  175.53 | X-H torsion
[ 8008 7997 7996 7995 ] final   27.77 input   59.86 | X-H torsion
[ 10167 10162 10161 10158 ] final  121.81 input  -65.29 | X-H torsion
[ 10718 10713 10712 10709 ] final  137.33 input   66.30 | X-H torsion
[ 10763 10752 10751 10750 ] final   50.80 input  -60.55 | X-H torsion
[ 11005 11000 10999 10996 ] final   50.46 input  -57.11 | X-H torsion

> <Gold.Protein.ActiveResidues>
 VAL166  LYS551  ARG553  GLY616  TRP617  ASP618  TYR619  PRO620  LYS621  CYS622 
 ASP623  PHE694  ASN695  SER759  ASP760  ASP761  ALA762  ILE779  LEU786  VAL792 
 PHE793  MET794  SER795  GLU796  ALA797  LYS798  CYS799  TRP800  GLU811  SER814 

> <Gold.Protein.RotatedAtoms>
  152.3719  134.6721  160.0172 H   0  0  0  0  0  0  0  0  0  0  0  0  # atno 6907 bound_to 6896
  151.7012  133.3306  159.3275 H   0  0  0  0  0  0  0  0  0  0  0  0  # atno 6908 bound_to 6896
  150.7680  134.6549  159.6353 H   0  0  0  0  0  0  0  0  0  0  0  0  # atno 6909 bound_to 6896
  145.2477  140.9227  143.3113 H   0  0  0  0  0  0  0  0  0  0  0  0  # atno 7974 bound_to 7965
  155.0482  140.3177  155.4701 H   0  0  0  0  0  0  0  0  0  0  0  0  # atno 8008 bound_to 7997
  156.2840  140.2151  156.5551 H   0  0  0  0  0  0  0  0  0  0  0  0  # atno 8009 bound_to 7997
  154.7232  140.0487  157.0647 H   0  0  0  0  0  0  0  0  0  0  0  0  # atno 8010 bound_to 7997
  139.5896  144.7020  151.3322 H   0  0  0  0  0  0  0  0  0  0  0  0  # atno 10167 bound_to 10162
  157.4372  131.1054  151.0184 H   0  0  0  0  0  0  0  0  0  0  0  0  # atno 10718 bound_to 10713
  152.9784  135.5867  154.4312 H   0  0  0  0  0  0  0  0  0  0  0  0  # atno 10763 bound_to 10752
  154.3925  135.2768  155.2148 H   0  0  0  0  0  0  0  0  0  0  0  0  # atno 10764 bound_to 10752
  154.4014  135.6102  153.5954 H   0  0  0  0  0  0  0  0  0  0  0  0  # atno 10765 bound_to 10752
  140.1015  134.5075  155.8758 H   0  0  0  0  0  0  0  0  0  0  0  0  # atno 11005 bound_to 11000
  144.9531  139.4061  143.6392 LP  0  0  0  0  0  0  0  0  0  0  0  0  # atno 17320 bound_to 7965
  146.3311  139.8548  142.8866 LP  0  0  0  0  0  0  0  0  0  0  0  0  # atno 17321 bound_to 7965
  140.7162  143.7260  150.7659 LP  0  0  0  0  0  0  0  0  0  0  0  0  # atno 17342 bound_to 10162
  140.0813  143.4966  152.2528 LP  0  0  0  0  0  0  0  0  0  0  0  0  # atno 17343 bound_to 10162
  157.1060  130.6001  149.5471 LP  0  0  0  0  0  0  0  0  0  0  0  0  # atno 17370 bound_to 10713
  155.9935  130.4996  150.7382 LP  0  0  0  0  0  0  0  0  0  0  0  0  # atno 17371 bound_to 10713
  141.2107  133.6698  156.6527 LP  0  0  0  0  0  0  0  0  0  0  0  0  # atno 17394 bound_to 11000
  140.3213  134.8005  157.4255 LP  0  0  0  0  0  0  0  0  0  0  0  0  # atno 17395 bound_to 11000

$$$$
