AV-unprocessed.smi:494|AV-procd|sdf|2713|dock7
  -GOLD-   2262023153D 1   1.00000     0.00000
 Structure written by MMmdl.
 49 50  0  0  0  0  0  0  0  0  2 V2000
  151.4406  130.6083  154.7572 C   0  0  0  0  0  0  0  0  0  0  0  0
  150.9850  131.7921  155.5612 C   0  0  0  0  0  0  0  0  0  0  0  0
  151.2709  131.8479  156.8510 N   0  0  0  0  0  0  0  0  0  0  0  0
  150.7223  133.0475  157.3143 O   0  0  0  0  0  0  0  0  0  0  0  0
  150.1227  133.6762  156.2719 C   0  0  0  0  0  0  0  0  0  0  0  0
  149.4671  134.9837  156.5651 C   0  0  0  0  0  0  0  0  0  0  0  0
  150.2504  132.9344  155.1295 C   0  0  0  0  0  0  0  0  0  0  0  0
  149.7389  133.2423  153.7451 C   0  0  0  0  0  0  0  0  0  0  0  0
  148.2189  133.0821  153.7016 C   0  0  0  0  0  0  0  0  0  0  0  0
  147.6988  132.0338  154.0805 O   0  0  0  0  0  0  0  0  0  0  0  0
  147.5213  134.1255  153.2264 N   0  0  0  0  0  0  0  0  0  0  0  0
  146.0657  134.2159  153.1190 C   0  0  0  0  0  0  0  0  0  0  0  0
  145.5803  134.8339  151.7679 C   0  0  0  0  0  0  0  0  0  0  0  0
  145.9763  136.2930  151.7483 N   0  3  0  0  0  0  0  0  0  0  0  0
  145.5153  137.1237  152.8901 C   0  0  0  0  0  0  0  0  0  0  0  0
  145.7250  137.0042  150.4670 C   0  0  0  0  0  0  0  0  0  0  0  0
  146.2239  134.0690  150.5712 C   0  0  0  0  0  0  0  0  0  0  0  0
  145.7517  132.6079  150.4309 C   0  0  0  0  0  0  0  0  0  0  0  0
  144.2225  132.5031  150.3604 C   0  0  0  0  0  0  0  0  0  0  0  0
  143.5608  133.2025  151.5548 C   0  0  0  0  0  0  0  0  0  0  0  0
  144.0276  134.6658  151.6549 C   0  0  0  0  0  0  0  0  0  0  0  0
  152.4829  130.7188  154.4579 H   0  0  0  0  0  0  0  0  0  0  0  0
  150.8459  130.4912  153.8513 H   0  0  0  0  0  0  0  0  0  0  0  0
  151.3526  129.6831  155.3273 H   0  0  0  0  0  0  0  0  0  0  0  0
  148.3852  134.8668  156.6267 H   0  0  0  0  0  0  0  0  0  0  0  0
  149.6851  135.7105  155.7824 H   0  0  0  0  0  0  0  0  0  0  0  0
  149.8171  135.3953  157.5120 H   0  0  0  0  0  0  0  0  0  0  0  0
  149.9940  134.2583  153.4415 H   0  0  0  0  0  0  0  0  0  0  0  0
  150.1907  132.5843  153.0018 H   0  0  0  0  0  0  0  0  0  0  0  0
  148.0434  134.9427  152.9446 H   0  0  0  0  0  0  0  0  0  0  0  0
  145.6144  133.2402  153.2979 H   0  0  0  0  0  0  0  0  0  0  0  0
  145.7376  134.8140  153.9664 H   0  0  0  0  0  0  0  0  0  0  0  0
  144.4306  137.0877  152.9969 H   0  0  0  0  0  0  0  0  0  0  0  0
  145.7995  138.1669  152.7484 H   0  0  0  0  0  0  0  0  0  0  0  0
  145.9759  136.8115  153.8271 H   0  0  0  0  0  0  0  0  0  0  0  0
  144.6637  137.2143  150.3299 H   0  0  0  0  0  0  0  0  0  0  0  0
  146.0768  136.4491  149.5996 H   0  0  0  0  0  0  0  0  0  0  0  0
  146.2509  137.9592  150.4607 H   0  0  0  0  0  0  0  0  0  0  0  0
  145.9975  134.5907  149.6405 H   0  0  0  0  0  0  0  0  0  0  0  0
  147.3108  134.0615  150.6560 H   0  0  0  0  0  0  0  0  0  0  0  0
  146.1875  132.1693  149.5328 H   0  0  0  0  0  0  0  0  0  0  0  0
  146.1234  132.0086  151.2619 H   0  0  0  0  0  0  0  0  0  0  0  0
  143.8702  132.9556  149.4326 H   0  0  0  0  0  0  0  0  0  0  0  0
  143.9206  131.4557  150.3263 H   0  0  0  0  0  0  0  0  0  0  0  0
  142.4772  133.1735  151.4361 H   0  0  0  0  0  0  0  0  0  0  0  0
  143.7719  132.6606  152.4761 H   0  0  0  0  0  0  0  0  0  0  0  0
  143.5197  135.1572  152.4853 H   0  0  0  0  0  0  0  0  0  0  0  0
  143.6559  135.1465  150.7504 H   0  0  0  0  0  0  0  0  0  0  0  0
  146.9822  136.2772  151.8402 H   0  0  0  0  0  0  0  0  0  0  0  0
  1  2  1  0  0  0  0
  1 22  1  0  0  0  0
  1 23  1  0  0  0  0
  1 24  1  0  0  0  0
  2  7  1  0  0  0  0
  2  3  2  0  0  0  0
  3  4  1  0  0  0  0
  4  5  1  0  0  0  0
  5  6  1  0  0  0  0
  5  7  2  0  0  0  0
  6 25  1  0  0  0  0
  6 26  1  0  0  0  0
  6 27  1  0  0  0  0
  7  8  1  0  0  0  0
  8  9  1  0  0  0  0
  8 28  1  0  0  0  0
  8 29  1  0  0  0  0
  9 10  2  0  0  0  0
  9 11  1  0  0  0  0
 11 12  1  0  0  0  0
 11 30  1  0  0  0  0
 12 13  1  0  0  0  0
 12 31  1  0  0  0  0
 12 32  1  0  0  0  0
 13 21  1  0  0  0  0
 13 14  1  0  0  0  0
 13 17  1  0  0  0  0
 14 15  1  0  0  0  0
 14 16  1  0  0  0  0
 14 49  1  0  0  0  0
 15 33  1  0  0  0  0
 15 34  1  0  0  0  0
 15 35  1  0  0  0  0
 16 36  1  0  0  0  0
 16 37  1  0  0  0  0
 16 38  1  0  0  0  0
 17 18  1  0  0  0  0
 17 39  1  0  0  0  0
 17 40  1  0  0  0  0
 18 19  1  0  0  0  0
 18 41  1  0  0  0  0
 18 42  1  0  0  0  0
 19 20  1  0  0  0  0
 19 43  1  0  0  0  0
 19 44  1  0  0  0  0
 20 21  1  0  0  0  0
 20 45  1  0  0  0  0
 20 46  1  0  0  0  0
 21 47  1  0  0  0  0
 21 48  1  0  0  0  0
M  CHG  1  14   1
M  END
> <s_m_source_file>
AV-unprocessed.smi

> <i_m_source_file_index>
494

> <i_lp_mmshare_version>
43012

> <i_f3d_flags>
0

> <s_epik_input>
W0NIM11jMW5vYyhbQ0gzXSljMVtDSDJdQyg9TylbTkhdW0NIMl1DMihOKFtDSDNdKVtDSDNdKVtDSDJdW0NIMl1bQ0gyXVtDSDJdW0NIMl0y

> <s_epik_cmdline>
J2VwaWtfcHl0aG9uJywgJy1waCcsICc3LjAnLCAnLXRuJywgJzgnLCAnLW1hJywgJzIwMCcsICctbWV0YWxfYmluZGluZycsICctaW1hZScsICc8aW5maWxlLm1hZT4nLCAnLW9tYWUnLCAnPG91dGZpbGUubWFlPic=

> <r_epik_Ionization_Penalty>
0.00230711

> <r_epik_Ionization_Penalty_Charging>
0.00230702

> <r_epik_Ionization_Penalty_Neutral>
8.72116e-08

> <r_epik_State_Penalty>
0.00159123

> <r_epik_Charging_Adjusted_Penalty>
0.00389825

> <i_epik_Tot_Q>
1

> <i_epik_Tot_abs_Q>
1

> <r_epik_Metal_State_Penalty>
-0

> <b_epik_Metal_Only>
0

> <s_lp_Force_Field>
OPLS_2005

> <r_lp_Energy>
28.1912

> <b_lp_Chiralities_Consistent>
1

> <s_lp_Variant>
AV-unprocessed.smi:494-1

> <Gold.Version>
5.8.1

> <Gold.Id.Protein>
6NUR|6NUR_protein|mol2

> <Gold.PLP.Fitness>
45.3969

> <Gold.PLP.PLP>
-34.0566

> <Gold.PLP.part.hbond>
-3.0000

> <Gold.PLP.part.metal>
0.0000

> <Gold.PLP.part.buried>
-1.2264

> <Gold.PLP.part.nonpolar>
-29.8692

> <Gold.PLP.part.repulsive>
0.1110

> <Gold.PLP.ligand.clash>
0.0000

> <Gold.PLP.ligand.torsion>
0.3950

> <Gold.PLP.Chemscore.Hbond>
4.0000

> <Gold.PLP.Chemscore.CHOScore>
0.0000

> <Gold.PLP.Chemscore.Metal>
0.0000

> <Gold.Chemscore.Hbonds>
donor molecule, donor type, donor heavy atom, donor atom, acceptor molecule, acceptor atom, score
      L1  H    11    30       P1  7948  1.00
      L1  H    14    49       P1  7948  2.00
      P1  H  6896  6907       L1     4  1.00

> <Gold.PLP.Chemscore.Internal.Correction>
0.1304

> <Gold.Rescore>
     Score         DG    S(hbond)    S(metal)    S(lipo)     H(rot)  DE(clash)    DE(int)     intcor
     18.85     -20.62       2.79        0.00      86.53       1.68       1.43       0.34       ----

> <Gold.Chemscore.Fitness>
18.8532

> <Gold.Chemscore.DG>
-20.6249

> <Gold.Chemscore.ZeroCoef>
-5.4800

> <Gold.Chemscore.Hbond>
2.7872

> <Gold.Chemscore.Metal>
0.0000

> <Gold.Chemscore.Lipo>
86.5310

> <Gold.Chemscore.Internal_Hbond>
0.0000

> <Gold.Chemscore.DEClash>
1.4305

> <Gold.Chemscore.DEInternal>
0.3412

> <Gold.Chemscore.Rot>
1.6752

> <Gold.Chemscore.Internal.Correction>
   9.000000E+99

> <Gold.Chemscore.Hbonds>
donor molecule, donor type, donor heavy atom, donor atom, acceptor molecule, acceptor atom, score
      L1  H    11    30       P1  7948  0.92
      L1  H    14    49       P1  7948  0.99
      P1  H  6896  6907       L1     4  0.89

> <Gold.Chemscore.Hbond.Weighted>
-9.3092

> <Gold.Chemscore.Metal.Weighted>
-0.0000

> <Gold.Chemscore.Lipo.Weighted>
-10.1241

> <Gold.Chemscore.Internal_Hbond.Weighted>
0.0000

> <Gold.Chemscore.DEClash.Weighted>
1.4305

> <Gold.Chemscore.DEInternal.Weighted>
0.3412

> <Gold.Chemscore.Rot.Weighted>
4.2884

> <Gold.Chemscore.Internal.Correction.Weighted>
   9.000000E+99

> <Gold.Protein.RotatedTorsions>
[ 6907 6896 6895 6894 ] final -142.83 input  -60.11 | X-H torsion
[ 7974 7965 7964 7962 ] final  -28.78 input  175.53 | X-H torsion
[ 8008 7997 7996 7995 ] final  150.15 input   59.86 | X-H torsion
[ 10167 10162 10161 10158 ] final  105.78 input  -65.29 | X-H torsion
[ 10718 10713 10712 10709 ] final   93.29 input   66.30 | X-H torsion
[ 10763 10752 10751 10750 ] final   56.55 input  -60.55 | X-H torsion
[ 11005 11000 10999 10996 ] final -101.23 input  -57.11 | X-H torsion

> <Gold.Protein.ActiveResidues>
 VAL166  LYS551  ARG553  GLY616  TRP617  ASP618  TYR619  PRO620  LYS621  CYS622 
 ASP623  PHE694  ASN695  SER759  ASP760  ASP761  ALA762  ILE779  LEU786  VAL792 
 PHE793  MET794  SER795  GLU796  ALA797  LYS798  CYS799  TRP800  GLU811  SER814 

> <Gold.Protein.RotatedAtoms>
  151.0923  133.5307  159.2614 H   0  0  0  0  0  0  0  0  0  0  0  0  # atno 6907 bound_to 6896
  151.2169  135.0503  159.8944 H   0  0  0  0  0  0  0  0  0  0  0  0  # atno 6908 bound_to 6896
  152.5435  134.0730  159.8256 H   0  0  0  0  0  0  0  0  0  0  0  0  # atno 6909 bound_to 6896
  146.1264  140.5327  142.8713 H   0  0  0  0  0  0  0  0  0  0  0  0  # atno 7974 bound_to 7965
  156.2727  140.2082  156.5971 H   0  0  0  0  0  0  0  0  0  0  0  0  # atno 8008 bound_to 7997
  154.6936  140.0528  157.0411 H   0  0  0  0  0  0  0  0  0  0  0  0  # atno 8009 bound_to 7997
  155.0832  140.3189  155.4598 H   0  0  0  0  0  0  0  0  0  0  0  0  # atno 8010 bound_to 7997
  139.7064  144.7085  151.1099 H   0  0  0  0  0  0  0  0  0  0  0  0  # atno 10167 bound_to 10162
  157.6955  131.0473  150.4012 H   0  0  0  0  0  0  0  0  0  0  0  0  # atno 10718 bound_to 10713
  152.9834  135.5672  154.5247 H   0  0  0  0  0  0  0  0  0  0  0  0  # atno 10763 bound_to 10752
  154.4729  135.2785  155.1631 H   0  0  0  0  0  0  0  0  0  0  0  0  # atno 10764 bound_to 10752
  154.3171  135.6276  153.5544 H   0  0  0  0  0  0  0  0  0  0  0  0  # atno 10765 bound_to 10752
  141.1239  133.8461  157.1204 H   0  0  0  0  0  0  0  0  0  0  0  0  # atno 11005 bound_to 11000
  144.7646  140.5502  143.6712 LP  0  0  0  0  0  0  0  0  0  0  0  0  # atno 17320 bound_to 7965
  145.5356  139.1475  143.3475 LP  0  0  0  0  0  0  0  0  0  0  0  0  # atno 17321 bound_to 7965
  140.7722  143.5353  150.9376 LP  0  0  0  0  0  0  0  0  0  0  0  0  # atno 17342 bound_to 10162
  139.9036  143.6806  152.3127 LP  0  0  0  0  0  0  0  0  0  0  0  0  # atno 17343 bound_to 10162
  156.4405  130.3990  149.6700 LP  0  0  0  0  0  0  0  0  0  0  0  0  # atno 17370 bound_to 10713
  156.3885  130.7615  151.2614 LP  0  0  0  0  0  0  0  0  0  0  0  0  # atno 17371 bound_to 10713
  140.0220  134.9941  157.0611 LP  0  0  0  0  0  0  0  0  0  0  0  0  # atno 17394 bound_to 11000
  140.4424  134.1667  155.7175 LP  0  0  0  0  0  0  0  0  0  0  0  0  # atno 17395 bound_to 11000

$$$$
