AV-unprocessed.smi:3303|AV-procd|sdf|12685|dock1
  -GOLD-   2272019 23D 1   1.00000     0.00000
 Structure written by MMmdl.
 44 45  0  0  0  0  0  0  0  0  2 V2000
  146.8155  142.8952  154.4511 C   0  0  0  0  0  0  0  0  0  0  0  0
  147.7141  141.7492  153.9529 C   0  0  2  0  0  0  0  0  0  0  0  0
  146.8463  140.5996  153.3987 C   0  0  0  0  0  0  0  0  0  0  0  0
  147.6769  139.4669  152.9180 N   0  3  2  0  0  0  0  0  0  0  0  0
  146.8911  138.4462  152.1881 C   0  0  0  0  0  0  0  0  0  0  0  0
  148.5778  138.9091  153.9658 C   0  0  2  0  0  0  0  0  0  0  0  0
  147.8346  138.1467  155.0843 C   0  0  0  0  0  0  0  0  0  0  0  0
  149.4825  140.0253  154.5200 C   0  0  0  0  0  0  0  0  0  0  0  0
  148.6746  141.2257  155.0485 C   0  0  1  0  0  0  0  0  0  0  0  0
  149.6289  142.2669  155.4077 N   0  0  0  0  0  0  0  0  0  0  0  0
  150.3757  141.9219  156.6093 C   0  0  0  0  0  0  0  0  0  0  0  0
  151.5461  142.8955  156.8287 C   0  0  0  0  0  0  0  0  0  0  0  0
  151.7772  143.2303  158.2936 C   0  0  0  0  0  0  0  0  0  0  0  0
  151.6693  144.5621  158.7477 C   0  0  0  0  0  0  0  0  0  0  0  0
  151.9130  144.8298  160.1087 C   0  0  0  0  0  0  0  0  0  0  0  0
  152.2565  143.7614  160.9592 C   0  0  0  0  0  0  0  0  0  0  0  0
  152.3395  142.4671  160.4086 C   0  0  0  0  0  0  0  0  0  0  0  0
  152.1068  142.1997  159.1055 N   0  0  0  0  0  0  0  0  0  0  0  0
  146.2164  142.5857  155.3079 H   0  0  0  0  0  0  0  0  0  0  0  0
  146.1313  143.2256  153.6692 H   0  0  0  0  0  0  0  0  0  0  0  0
  147.4021  143.7643  154.7504 H   0  0  0  0  0  0  0  0  0  0  0  0
  148.3134  142.1352  153.1264 H   0  0  0  0  0  0  0  0  0  0  0  0
  146.1409  140.2512  154.1536 H   0  0  0  0  0  0  0  0  0  0  0  0
  146.2465  140.9727  152.5673 H   0  0  0  0  0  0  0  0  0  0  0  0
  146.1107  138.0163  152.8162 H   0  0  0  0  0  0  0  0  0  0  0  0
  147.5347  137.6400  151.8348 H   0  0  0  0  0  0  0  0  0  0  0  0
  146.4104  138.8915  151.3166 H   0  0  0  0  0  0  0  0  0  0  0  0
  149.2307  138.1887  153.4710 H   0  0  0  0  0  0  0  0  0  0  0  0
  148.5416  137.7586  155.8181 H   0  0  0  0  0  0  0  0  0  0  0  0
  147.2845  137.2902  154.6950 H   0  0  0  0  0  0  0  0  0  0  0  0
  147.1286  138.7789  155.6217 H   0  0  0  0  0  0  0  0  0  0  0  0
  150.1263  139.6283  155.3062 H   0  0  0  0  0  0  0  0  0  0  0  0
  150.1503  140.3591  153.7237 H   0  0  0  0  0  0  0  0  0  0  0  0
  148.1013  140.9089  155.9213 H   0  0  0  0  0  0  0  0  0  0  0  0
  150.2723  142.4339  154.6471 H   0  0  0  0  0  0  0  0  0  0  0  0
  149.7207  141.9353  157.4812 H   0  0  0  0  0  0  0  0  0  0  0  0
  150.7546  140.9046  156.5056 H   0  0  0  0  0  0  0  0  0  0  0  0
  152.4592  142.4562  156.4257 H   0  0  0  0  0  0  0  0  0  0  0  0
  151.3829  143.8156  156.2652 H   0  0  0  0  0  0  0  0  0  0  0  0
  151.4105  145.3619  158.0694 H   0  0  0  0  0  0  0  0  0  0  0  0
  151.8399  145.8365  160.4926 H   0  0  0  0  0  0  0  0  0  0  0  0
  152.4519  143.9296  162.0078 H   0  0  0  0  0  0  0  0  0  0  0  0
  152.6013  141.6243  161.0309 H   0  0  0  0  0  0  0  0  0  0  0  0
  148.2961  139.8664  152.2269 H   0  0  0  0  0  0  0  0  0  0  0  0
  1  2  1  0  0  0  0
  1 19  1  0  0  0  0
  1 20  1  0  0  0  0
  1 21  1  0  0  0  0
  2  9  1  0  0  0  0
  2  3  1  0  0  0  0
  2 22  1  0  0  0  0
  3  4  1  0  0  0  0
  3 23  1  0  0  0  0
  3 24  1  0  0  0  0
  4  5  1  0  0  0  0
  4  6  1  0  0  0  0
  4 44  1  0  0  0  0
  5 25  1  0  0  0  0
  5 26  1  0  0  0  0
  5 27  1  0  0  0  0
  6  7  1  0  0  0  0
  6  8  1  0  0  0  0
  6 28  1  0  0  0  0
  7 29  1  0  0  0  0
  7 30  1  0  0  0  0
  7 31  1  0  0  0  0
  8  9  1  0  0  0  0
  8 32  1  0  0  0  0
  8 33  1  0  0  0  0
  9 10  1  0  0  0  0
  9 34  1  0  0  0  0
 10 11  1  0  0  0  0
 10 35  1  0  0  0  0
 11 12  1  0  0  0  0
 11 36  1  0  0  0  0
 11 37  1  0  0  0  0
 12 13  1  0  0  0  0
 12 38  1  0  0  0  0
 12 39  1  0  0  0  0
 13 18  1  0  0  0  0
 13 14  2  0  0  0  0
 14 15  1  0  0  0  0
 14 40  1  0  0  0  0
 15 16  2  0  0  0  0
 15 41  1  0  0  0  0
 16 17  1  0  0  0  0
 16 42  1  0  0  0  0
 17 18  2  0  0  0  0
 17 43  1  0  0  0  0
M  CHG  1   4   1
M  END
> <s_m_source_file>
AV-unprocessed.smi

> <i_m_source_file_index>
3303

> <i_lp_mmshare_version>
43012

> <i_f3d_flags>
0

> <s_epik_input>
W0NIM11bQ0BASF0xW0NIMl1OKFtDSDNdKVtDQEBIXShbQ0gzXSlbQ0gyXVtDQEhdMVtOSF1bQ0gyXVtDSDJdYzJbY0hdW2NIXVtjSF1bY0hdbjI=

> <s_epik_cmdline>
J2VwaWtfcHl0aG9uJywgJy1waCcsICc3LjAnLCAnLXRuJywgJzgnLCAnLW1hJywgJzIwMCcsICctbWV0YWxfYmluZGluZycsICctaW1hZScsICc8aW5maWxlLm1hZT4nLCAnLW9tYWUnLCAnPG91dGZpbGUubWFlPic=

> <r_epik_Ionization_Penalty>
2.31085

> <r_epik_Ionization_Penalty_Charging>
0.000313057

> <r_epik_Ionization_Penalty_Neutral>
2.31054

> <r_epik_State_Penalty>
2.4087

> <r_epik_Charging_Adjusted_Penalty>
2.40902

> <i_epik_Tot_Q>
1

> <i_epik_Tot_abs_Q>
1

> <r_epik_Metal_State_Penalty>
2.30979

> <b_epik_Metal_Only>
0

> <s_lp_Force_Field>
OPLS_2005

> <r_lp_Energy>
26.7889

> <b_lp_Chiralities_Consistent>
1

> <s_lp_Variant>
AV-unprocessed.smi:3303-29

> <Gold.Version>
5.8.1

> <Gold.Id.Protein>
6NUR|6NUR_protein|mol2

> <Gold.PLP.Fitness>
43.5428

> <Gold.PLP.PLP>
-41.1928

> <Gold.PLP.part.hbond>
-1.9795

> <Gold.PLP.part.metal>
0.0000

> <Gold.PLP.part.buried>
-1.8530

> <Gold.PLP.part.nonpolar>
-38.1279

> <Gold.PLP.part.repulsive>
0.0627

> <Gold.PLP.ligand.clash>
0.0000

> <Gold.PLP.ligand.torsion>
0.3573

> <Gold.PLP.Chemscore.Hbond>
1.0000

> <Gold.PLP.Chemscore.CHOScore>
0.0000

> <Gold.PLP.Chemscore.Metal>
0.0000

> <Gold.Chemscore.Hbonds>
donor molecule, donor type, donor heavy atom, donor atom, acceptor molecule, acceptor atom, score
      L1  H     4    44       P1  7957  1.00

> <Gold.PLP.Chemscore.Internal.Correction>
0.0646

> <Gold.Rescore>
     Score         DG    S(hbond)    S(metal)    S(lipo)     H(rot)  DE(clash)    DE(int)     intcor
     18.52     -20.11       1.00        0.00     125.55       1.33       1.39       0.20       ----

> <Gold.Chemscore.Fitness>
18.5184

> <Gold.Chemscore.DG>
-20.1101

> <Gold.Chemscore.ZeroCoef>
-5.4800

> <Gold.Chemscore.Hbond>
0.9995

> <Gold.Chemscore.Metal>
0.0000

> <Gold.Chemscore.Lipo>
125.5498

> <Gold.Chemscore.Internal_Hbond>
0.0000

> <Gold.Chemscore.DEClash>
1.3920

> <Gold.Chemscore.DEInternal>
0.1997

> <Gold.Chemscore.Rot>
1.3272

> <Gold.Chemscore.Internal.Correction>
   9.000000E+99

> <Gold.Chemscore.Hbonds>
donor molecule, donor type, donor heavy atom, donor atom, acceptor molecule, acceptor atom, score
      L1  H     4    44       P1  7957  1.00

> <Gold.Chemscore.Hbond.Weighted>
-3.3384

> <Gold.Chemscore.Metal.Weighted>
-0.0000

> <Gold.Chemscore.Lipo.Weighted>
-14.6893

> <Gold.Chemscore.Internal_Hbond.Weighted>
0.0000

> <Gold.Chemscore.DEClash.Weighted>
1.3920

> <Gold.Chemscore.DEInternal.Weighted>
0.1997

> <Gold.Chemscore.Rot.Weighted>
3.3976

> <Gold.Chemscore.Internal.Correction.Weighted>
   9.000000E+99

> <Gold.Protein.RotatedTorsions>
[ 6907 6896 6895 6894 ] final -116.28 input  -60.11 | X-H torsion
[ 7974 7965 7964 7962 ] final   -4.59 input  175.53 | X-H torsion
[ 8008 7997 7996 7995 ] final -105.36 input   59.86 | X-H torsion
[ 10167 10162 10161 10158 ] final  104.78 input  -65.29 | X-H torsion
[ 10718 10713 10712 10709 ] final    0.82 input   66.30 | X-H torsion
[ 10763 10752 10751 10750 ] final  165.89 input  -60.55 | X-H torsion
[ 11005 11000 10999 10996 ] final   18.29 input  -57.11 | X-H torsion

> <Gold.Protein.ActiveResidues>
 VAL166  LYS551  ARG553  GLY616  TRP617  ASP618  TYR619  PRO620  LYS621  CYS622 
 ASP623  PHE694  ASN695  SER759  ASP760  ASP761  ALA762  ILE779  LEU786  VAL792 
 PHE793  MET794  SER795  GLU796  ALA797  LYS798  CYS799  TRP800  GLU811  SER814 

> <Gold.Protein.RotatedAtoms>
  150.8044  133.8539  159.3212 H   0  0  0  0  0  0  0  0  0  0  0  0  # atno 6907 bound_to 6896
  151.6342  135.1018  160.0137 H   0  0  0  0  0  0  0  0  0  0  0  0  # atno 6908 bound_to 6896
  152.4133  133.6958  159.6452 H   0  0  0  0  0  0  0  0  0  0  0  0  # atno 6909 bound_to 6896
  146.2369  140.1894  142.8332 H   0  0  0  0  0  0  0  0  0  0  0  0  # atno 7974 bound_to 7965
  154.8987  140.0413  157.1880 H   0  0  0  0  0  0  0  0  0  0  0  0  # atno 8008 bound_to 7997
  154.8466  140.2923  155.5604 H   0  0  0  0  0  0  0  0  0  0  0  0  # atno 8009 bound_to 7997
  156.2994  140.2472  156.3418 H   0  0  0  0  0  0  0  0  0  0  0  0  # atno 8010 bound_to 7997
  139.7148  144.7070  151.0968 H   0  0  0  0  0  0  0  0  0  0  0  0  # atno 10167 bound_to 10162
  156.8390  130.5514  149.5679 H   0  0  0  0  0  0  0  0  0  0  0  0  # atno 10718 bound_to 10713
  154.3308  135.2755  155.2473 H   0  0  0  0  0  0  0  0  0  0  0  0  # atno 10763 bound_to 10752
  154.4786  135.5864  153.6376 H   0  0  0  0  0  0  0  0  0  0  0  0  # atno 10764 bound_to 10752
  152.9867  135.6105  154.3500 H   0  0  0  0  0  0  0  0  0  0  0  0  # atno 10765 bound_to 10752
  140.4264  134.1465  155.7677 H   0  0  0  0  0  0  0  0  0  0  0  0  # atno 11005 bound_to 11000
  144.9870  140.8512  143.5363 LP  0  0  0  0  0  0  0  0  0  0  0  0  # atno 17320 bound_to 7965
  145.1895  139.2308  143.5250 LP  0  0  0  0  0  0  0  0  0  0  0  0  # atno 17321 bound_to 7965
  140.7741  143.5244  150.9497 LP  0  0  0  0  0  0  0  0  0  0  0  0  # atno 17342 bound_to 10162
  139.8930  143.6929  152.3142 LP  0  0  0  0  0  0  0  0  0  0  0  0  # atno 17343 bound_to 10162
  156.0891  130.5882  150.9701 LP  0  0  0  0  0  0  0  0  0  0  0  0  # atno 17370 bound_to 10713
  157.6366  131.0915  150.8336 LP  0  0  0  0  0  0  0  0  0  0  0  0  # atno 17371 bound_to 10713
  141.1763  133.8507  157.1409 LP  0  0  0  0  0  0  0  0  0  0  0  0  # atno 17394 bound_to 11000
  140.0164  134.9965  157.0502 LP  0  0  0  0  0  0  0  0  0  0  0  0  # atno 17395 bound_to 11000

$$$$
