AV-unprocessed.smi:1307|AV-procd|sdf|5436|dock9
  -GOLD-   22720 5 03D 1   1.00000     0.00000
 Structure written by MMmdl.
 41 41  0  0  0  0  0  0  0  0  1 V2000
  146.1758  141.1876  154.7700 C   0  0  0  0  0  0  0  0  0  0  0  0
  147.5649  141.7794  155.0712 C   0  0  0  0  0  0  0  0  0  0  0  0
  148.6148  141.1082  154.1636 C   0  0  0  0  0  0  0  0  0  0  0  0
  147.9303  141.6823  156.5778 C   0  0  2  0  0  0  0  0  0  0  0  0
  146.9565  142.4457  157.4918 C   0  0  0  0  0  0  0  0  0  0  0  0
  149.2754  142.2055  156.8187 N   0  0  0  0  0  0  0  0  0  0  0  0
  150.3469  141.4902  157.1947 C   0  0  0  0  0  0  0  0  0  0  0  0
  150.3193  140.2728  157.3811 O   0  0  0  0  0  0  0  0  0  0  0  0
  151.6524  142.2858  157.3601 C   0  0  0  0  0  0  0  0  0  0  0  0
  152.3174  142.0831  158.6721 N   0  0  0  0  0  0  0  0  0  0  0  0
  152.3682  143.1524  159.6206 C   0  0  0  0  0  0  0  0  0  0  0  0
  151.7770  144.5206  159.2497 C   0  0  0  0  0  0  0  0  0  0  0  0
  151.9151  145.3921  160.2499 F   0  0  0  0  0  0  0  0  0  0  0  0
  152.3835  145.0593  158.1922 F   0  0  0  0  0  0  0  0  0  0  0  0
  150.4706  144.4204  159.0022 F   0  0  0  0  0  0  0  0  0  0  0  0
  152.9629  142.9612  160.8125 C   0  0  0  0  0  0  0  0  0  0  0  0
  153.5382  141.6854  161.1377 C   0  0  0  0  0  0  0  0  0  0  0  0
  153.5042  140.6660  160.2498 C   0  0  0  0  0  0  0  0  0  0  0  0
  154.0831  139.3342  160.5391 C   0  0  0  0  0  0  0  0  0  0  0  0
  154.6230  139.2229  161.7595 N   0  0  0  0  0  0  0  0  0  0  0  0
  154.1143  138.3603  159.7868 O   0  0  0  0  0  0  0  0  0  0  0  0
  152.8645  140.8434  158.9208 C   0  0  0  0  0  0  0  0  0  0  0  0
  152.8087  139.9589  158.0607 O   0  0  0  0  0  0  0  0  0  0  0  0
  146.1146  140.1437  155.0791 H   0  0  0  0  0  0  0  0  0  0  0  0
  145.9541  141.2297  153.7032 H   0  0  0  0  0  0  0  0  0  0  0  0
  145.3820  141.7348  155.2771 H   0  0  0  0  0  0  0  0  0  0  0  0
  147.5342  142.8350  154.7979 H   0  0  0  0  0  0  0  0  0  0  0  0
  148.7482  140.0576  154.4232 H   0  0  0  0  0  0  0  0  0  0  0  0
  149.5872  141.5953  154.2368 H   0  0  0  0  0  0  0  0  0  0  0  0
  148.3172  141.1555  153.1157 H   0  0  0  0  0  0  0  0  0  0  0  0
  147.8882  140.6308  156.8668 H   0  0  0  0  0  0  0  0  0  0  0  0
  145.9529  142.0231  157.4581 H   0  0  0  0  0  0  0  0  0  0  0  0
  146.8883  143.4972  157.2110 H   0  0  0  0  0  0  0  0  0  0  0  0
  147.2821  142.4011  158.5318 H   0  0  0  0  0  0  0  0  0  0  0  0
  149.4014  143.1982  156.6854 H   0  0  0  0  0  0  0  0  0  0  0  0
  152.3005  142.0585  156.5190 H   0  0  0  0  0  0  0  0  0  0  0  0
  151.4284  143.3433  157.2071 H   0  0  0  0  0  0  0  0  0  0  0  0
  153.0226  143.7577  161.5391 H   0  0  0  0  0  0  0  0  0  0  0  0
  153.9914  141.5839  162.1127 H   0  0  0  0  0  0  0  0  0  0  0  0
  155.0380  138.3502  162.0518 H   0  0  0  0  0  0  0  0  0  0  0  0
  154.6070  140.0145  162.3860 H   0  0  0  0  0  0  0  0  0  0  0  0
  1  2  1  0  0  0  0
  1 24  1  0  0  0  0
  1 25  1  0  0  0  0
  1 26  1  0  0  0  0
  2  3  1  0  0  0  0
  2  4  1  0  0  0  0
  2 27  1  0  0  0  0
  3 28  1  0  0  0  0
  3 29  1  0  0  0  0
  3 30  1  0  0  0  0
  4  5  1  0  0  0  0
  4  6  1  0  0  0  0
  4 31  1  0  0  0  0
  5 32  1  0  0  0  0
  5 33  1  0  0  0  0
  5 34  1  0  0  0  0
  6  7  1  0  0  0  0
  6 35  1  0  0  0  0
  7  8  2  0  0  0  0
  7  9  1  0  0  0  0
  9 10  1  0  0  0  0
  9 36  1  0  0  0  0
  9 37  1  0  0  0  0
 10 22  1  0  0  0  0
 10 11  1  0  0  0  0
 11 12  1  0  0  0  0
 11 16  2  0  0  0  0
 12 13  1  0  0  0  0
 12 14  1  0  0  0  0
 12 15  1  0  0  0  0
 16 17  1  0  0  0  0
 16 38  1  0  0  0  0
 17 18  2  0  0  0  0
 17 39  1  0  0  0  0
 18 19  1  0  0  0  0
 18 22  1  0  0  0  0
 19 20  1  0  0  0  0
 19 21  2  0  0  0  0
 20 40  1  0  0  0  0
 20 41  1  0  0  0  0
 22 23  2  0  0  0  0
M  END
> <s_m_source_file>
AV-unprocessed.smi

> <i_m_source_file_index>
1307

> <i_lp_mmshare_version>
43012

> <i_f3d_flags>
0

> <s_epik_input>
W0NIM11bQ0hdKFtDSDNdKVtDQEhdKFtDSDNdKVtOSF1DKD1PKVtDSDJdbjFjKEMoRikoRilGKVtjSF1bY0hdYyhjMT1PKUMoPU8pW05IMl0=

> <s_epik_cmdline>
J2VwaWtfcHl0aG9uJywgJy1waCcsICc3LjAnLCAnLXRuJywgJzgnLCAnLW1hJywgJzIwMCcsICctbWV0YWxfYmluZGluZycsICctaW1hZScsICc8aW5maWxlLm1hZT4nLCAnLW9tYWUnLCAnPG91dGZpbGUubWFlPic=

> <r_lp_tautomer_probability>
1

> <r_epik_Ionization_Penalty>
2.05992e-06

> <r_epik_Ionization_Penalty_Charging>
8.21357e-10

> <r_epik_Ionization_Penalty_Neutral>
2.0591e-06

> <r_epik_State_Penalty>
-0

> <r_epik_Charging_Adjusted_Penalty>
8.21357e-10

> <i_epik_Tot_Q>
0

> <i_epik_Tot_abs_Q>
0

> <r_epik_Metal_State_Penalty>
-0

> <b_epik_Metal_Only>
0

> <s_lp_Force_Field>
OPLS_2005

> <r_lp_Energy>
26.4012

> <b_lp_Chiralities_Consistent>
1

> <s_lp_Variant>
AV-unprocessed.smi:1307-1

> <Gold.Version>
5.8.1

> <Gold.Id.Protein>
6NUR|6NUR_protein|mol2

> <Gold.PLP.Fitness>
54.6523

> <Gold.PLP.PLP>
-49.1171

> <Gold.PLP.part.hbond>
-2.0000

> <Gold.PLP.part.metal>
0.0000

> <Gold.PLP.part.buried>
-6.9314

> <Gold.PLP.part.nonpolar>
-39.9370

> <Gold.PLP.part.repulsive>
0.0112

> <Gold.PLP.ligand.clash>
3.9710

> <Gold.PLP.ligand.torsion>
0.1822

> <Gold.PLP.Chemscore.Hbond>
1.9440

> <Gold.PLP.Chemscore.CHOScore>
0.0000

> <Gold.PLP.Chemscore.Metal>
0.0000

> <Gold.Chemscore.Hbonds>
donor molecule, donor type, donor heavy atom, donor atom, acceptor molecule, acceptor atom, score
      L1  H     6    35       P1  8028  0.91
      P1  H  7997  8008       L1    23  0.93

> <Gold.PLP.Chemscore.Internal.Correction>
4.0386

> <Gold.Rescore>
     Score         DG    S(hbond)    S(metal)    S(lipo)     H(rot)  DE(clash)    DE(int)     intcor
     10.86     -16.92       1.87        0.00      87.68       1.97       0.58       5.48       ----

> <Gold.Chemscore.Fitness>
10.8558

> <Gold.Chemscore.DG>
-16.9189

> <Gold.Chemscore.ZeroCoef>
-5.4800

> <Gold.Chemscore.Hbond>
1.8652

> <Gold.Chemscore.Metal>
0.0000

> <Gold.Chemscore.Lipo>
87.6770

> <Gold.Chemscore.Internal_Hbond>
0.0000

> <Gold.Chemscore.DEClash>
0.5830

> <Gold.Chemscore.DEInternal>
5.4801

> <Gold.Chemscore.Rot>
1.9723

> <Gold.Chemscore.Internal.Correction>
   9.000000E+99

> <Gold.Chemscore.Hbonds>
donor molecule, donor type, donor heavy atom, donor atom, acceptor molecule, acceptor atom, score
      L1  H     6    35       P1  8028  0.89
      P1  H  7997  8008       L1    23  0.64

> <Gold.Chemscore.Hbond.Weighted>
-6.2297

> <Gold.Chemscore.Metal.Weighted>
-0.0000

> <Gold.Chemscore.Lipo.Weighted>
-10.2582

> <Gold.Chemscore.Internal_Hbond.Weighted>
0.0000

> <Gold.Chemscore.DEClash.Weighted>
0.5830

> <Gold.Chemscore.DEInternal.Weighted>
5.4801

> <Gold.Chemscore.Rot.Weighted>
5.0490

> <Gold.Chemscore.Internal.Correction.Weighted>
   9.000000E+99

> <Gold.Protein.RotatedTorsions>
[ 6907 6896 6895 6894 ] final -119.30 input  -60.11 | X-H torsion
[ 7974 7965 7964 7962 ] final   88.89 input  175.53 | X-H torsion
[ 8008 7997 7996 7995 ] final  -68.85 input   59.86 | X-H torsion
[ 10167 10162 10161 10158 ] final -133.79 input  -65.29 | X-H torsion
[ 10718 10713 10712 10709 ] final -137.03 input   66.30 | X-H torsion
[ 10763 10752 10751 10750 ] final  169.03 input  -60.55 | X-H torsion
[ 11005 11000 10999 10996 ] final   20.02 input  -57.11 | X-H torsion

> <Gold.Protein.ActiveResidues>
 VAL166  LYS551  ARG553  GLY616  TRP617  ASP618  TYR619  PRO620  LYS621  CYS622 
 ASP623  PHE694  ASN695  SER759  ASP760  ASP761  ALA762  ILE779  LEU786  VAL792 
 PHE793  MET794  SER795  GLU796  ALA797  LYS798  CYS799  TRP800  GLU811  SER814 

> <Gold.Protein.RotatedAtoms>
  150.8293  133.8118  159.3105 H   0  0  0  0  0  0  0  0  0  0  0  0  # atno 6907 bound_to 6896
  151.5853  135.1054  160.0036 H   0  0  0  0  0  0  0  0  0  0  0  0  # atno 6908 bound_to 6896
  152.4374  133.7345  159.6662 H   0  0  0  0  0  0  0  0  0  0  0  0  # atno 6909 bound_to 6896
  145.5396  139.2288  143.2573 H   0  0  0  0  0  0  0  0  0  0  0  0  # atno 7974 bound_to 7965
  154.4897  140.0865  156.7566 H   0  0  0  0  0  0  0  0  0  0  0  0  # atno 8008 bound_to 7997
  155.4262  140.3448  155.4257 H   0  0  0  0  0  0  0  0  0  0  0  0  # atno 8009 bound_to 7997
  156.1312  140.1502  156.9051 H   0  0  0  0  0  0  0  0  0  0  0  0  # atno 8010 bound_to 7997
  139.8946  143.6681  152.2606 H   0  0  0  0  0  0  0  0  0  0  0  0  # atno 10167 bound_to 10162
  156.2836  130.7335  151.1340 H   0  0  0  0  0  0  0  0  0  0  0  0  # atno 10718 bound_to 10713
  154.3773  135.2753  155.2232 H   0  0  0  0  0  0  0  0  0  0  0  0  # atno 10763 bound_to 10752
  154.4354  135.5967  153.6098 H   0  0  0  0  0  0  0  0  0  0  0  0  # atno 10764 bound_to 10752
  152.9836  135.6005  154.4011 H   0  0  0  0  0  0  0  0  0  0  0  0  # atno 10765 bound_to 10752
  140.4072  134.1656  155.7666 H   0  0  0  0  0  0  0  0  0  0  0  0  # atno 11005 bound_to 11000
  146.1990  140.6216  142.9111 LP  0  0  0  0  0  0  0  0  0  0  0  0  # atno 17320 bound_to 7965
  144.7584  140.5362  143.6753 LP  0  0  0  0  0  0  0  0  0  0  0  0  # atno 17321 bound_to 7965
  139.7079  144.7625  151.1162 LP  0  0  0  0  0  0  0  0  0  0  0  0  # atno 17342 bound_to 10162
  140.7719  143.5370  150.9357 LP  0  0  0  0  0  0  0  0  0  0  0  0  # atno 17343 bound_to 10162
  157.7322  131.0602  150.5641 LP  0  0  0  0  0  0  0  0  0  0  0  0  # atno 17370 bound_to 10713
  156.5749  130.4289  149.6003 LP  0  0  0  0  0  0  0  0  0  0  0  0  # atno 17371 bound_to 10713
  141.1835  133.8364  157.1174 LP  0  0  0  0  0  0  0  0  0  0  0  0  # atno 17394 bound_to 11000
  140.0293  134.9909  157.0749 LP  0  0  0  0  0  0  0  0  0  0  0  0  # atno 17395 bound_to 11000

$$$$
