AV-unprocessed.smi:1254|AV-procd|sdf|5274|dock2
  -GOLD-   22720 4393D 1   1.00000     0.00000
 Structure written by MMmdl.
 45 46  0  0  0  0  0  0  0  0  1 V2000
  147.0332  130.8981  154.2597 C   0  0  0  0  0  0  0  0  0  0  0  0
  147.9150  132.0790  154.4822 C   0  0  0  0  0  0  0  0  0  0  0  0
  148.0887  133.2513  153.8016 C   0  0  0  0  0  0  0  0  0  0  0  0
  149.0796  133.9217  154.5670 C   0  0  0  0  0  0  0  0  0  0  0  0
  149.5471  135.2053  154.1869 N   0  0  0  0  0  0  0  0  0  0  0  0
  150.4397  135.9761  154.8311 C   0  0  0  0  0  0  0  0  0  0  0  0
  151.0142  135.6744  155.8777 O   0  0  0  0  0  0  0  0  0  0  0  0
  150.6304  137.1384  154.1910 N   0  0  0  0  0  0  0  0  0  0  0  0
  151.5048  138.2125  154.6494 C   0  0  0  0  0  0  0  0  0  0  0  0
  150.7042  139.3620  155.2846 C   0  0  1  0  0  0  0  0  0  0  0  0
  151.5618  140.1966  156.2555 C   0  0  0  0  0  0  0  0  0  0  0  0
  150.8209  141.3240  156.8119 N   0  0  0  0  0  0  0  0  0  0  0  0
  151.6529  142.0883  157.7427 C   0  0  0  0  0  0  0  0  0  0  0  0
  151.3815  143.6074  157.7947 C   0  0  0  0  0  0  0  0  0  0  0  0
  152.6659  144.3689  158.1535 C   0  0  0  0  0  0  0  0  0  0  0  0
  150.2578  143.9512  158.7862 C   0  0  0  0  0  0  0  0  0  0  0  0
  150.3037  142.1389  155.7149 C   0  0  0  0  0  0  0  0  0  0  0  0
  149.4616  141.3085  154.7316 C   0  0  0  0  0  0  0  0  0  0  0  0
  150.2341  140.2168  154.2447 O   0  0  0  0  0  0  0  0  0  0  0  0
  149.4770  133.2208  155.6181 N   0  0  0  0  0  0  0  0  0  0  0  0
  148.7318  132.0367  155.5697 O   0  0  0  0  0  0  0  0  0  0  0  0
  146.6469  130.8873  153.2402 H   0  0  0  0  0  0  0  0  0  0  0  0
  146.1844  130.9168  154.9432 H   0  0  0  0  0  0  0  0  0  0  0  0
  147.5797  129.9690  154.4232 H   0  0  0  0  0  0  0  0  0  0  0  0
  147.5846  133.5750  152.9030 H   0  0  0  0  0  0  0  0  0  0  0  0
  149.1510  135.5826  153.3388 H   0  0  0  0  0  0  0  0  0  0  0  0
  150.1151  137.3058  153.3394 H   0  0  0  0  0  0  0  0  0  0  0  0
  152.2324  137.8177  155.3608 H   0  0  0  0  0  0  0  0  0  0  0  0
  152.0751  138.5800  153.7959 H   0  0  0  0  0  0  0  0  0  0  0  0
  149.8491  138.9524  155.8260 H   0  0  0  0  0  0  0  0  0  0  0  0
  151.9139  139.5547  157.0640 H   0  0  0  0  0  0  0  0  0  0  0  0
  152.4506  140.5594  155.7366 H   0  0  0  0  0  0  0  0  0  0  0  0
  151.5120  141.6930  158.7498 H   0  0  0  0  0  0  0  0  0  0  0  0
  152.7041  141.9173  157.5048 H   0  0  0  0  0  0  0  0  0  0  0  0
  151.0793  143.9549  156.8071 H   0  0  0  0  0  0  0  0  0  0  0  0
  153.0357  144.0814  159.1383 H   0  0  0  0  0  0  0  0  0  0  0  0
  152.4950  145.4458  158.1636 H   0  0  0  0  0  0  0  0  0  0  0  0
  153.4564  144.1697  157.4294 H   0  0  0  0  0  0  0  0  0  0  0  0
  150.5082  143.6272  159.7969 H   0  0  0  0  0  0  0  0  0  0  0  0
  149.3201  143.4704  158.5055 H   0  0  0  0  0  0  0  0  0  0  0  0
  150.0752  145.0257  158.8166 H   0  0  0  0  0  0  0  0  0  0  0  0
  149.6848  142.9482  156.0997 H   0  0  0  0  0  0  0  0  0  0  0  0
  151.1311  142.6041  155.1771 H   0  0  0  0  0  0  0  0  0  0  0  0
  148.5575  140.9358  155.2158 H   0  0  0  0  0  0  0  0  0  0  0  0
  149.1439  141.9242  153.8901 H   0  0  0  0  0  0  0  0  0  0  0  0
  1  2  1  0  0  0  0
  1 22  1  0  0  0  0
  1 23  1  0  0  0  0
  1 24  1  0  0  0  0
  2 21  1  0  0  0  0
  2  3  2  0  0  0  0
  3  4  1  0  0  0  0
  3 25  1  0  0  0  0
  4  5  1  0  0  0  0
  4 20  2  0  0  0  0
  5  6  1  0  0  0  0
  5 26  1  0  0  0  0
  6  7  2  0  0  0  0
  6  8  1  0  0  0  0
  8  9  1  0  0  0  0
  8 27  1  0  0  0  0
  9 10  1  0  0  0  0
  9 28  1  0  0  0  0
  9 29  1  0  0  0  0
 10 19  1  0  0  0  0
 10 11  1  0  0  0  0
 10 30  1  0  0  0  0
 11 12  1  0  0  0  0
 11 31  1  0  0  0  0
 11 32  1  0  0  0  0
 12 13  1  0  0  0  0
 12 17  1  0  0  0  0
 13 14  1  0  0  0  0
 13 33  1  0  0  0  0
 13 34  1  0  0  0  0
 14 15  1  0  0  0  0
 14 16  1  0  0  0  0
 14 35  1  0  0  0  0
 15 36  1  0  0  0  0
 15 37  1  0  0  0  0
 15 38  1  0  0  0  0
 16 39  1  0  0  0  0
 16 40  1  0  0  0  0
 16 41  1  0  0  0  0
 17 18  1  0  0  0  0
 17 42  1  0  0  0  0
 17 43  1  0  0  0  0
 18 19  1  0  0  0  0
 18 44  1  0  0  0  0
 18 45  1  0  0  0  0
 20 21  1  0  0  0  0
M  END
> <s_m_source_file>
AV-unprocessed.smi

> <i_m_source_file_index>
1254

> <i_lp_mmshare_version>
43012

> <i_f3d_flags>
0

> <s_epik_input>
W0NIM11jMVtjSF1jKG5vMSlbTkhdQyg9TylbTkhdW0NIMl1bQ0BASF0yW0NIMl1OKFtDSDJdW0NIMl1PMilbQ0gyXVtDSF0oW0NIM10pW0NIM10=

> <s_epik_cmdline>
J2VwaWtfcHl0aG9uJywgJy1waCcsICc3LjAnLCAnLXRuJywgJzgnLCAnLW1hJywgJzIwMCcsICctbWV0YWxfYmluZGluZycsICctaW1hZScsICc8aW5maWxlLm1hZT4nLCAnLW9tYWUnLCAnPG91dGZpbGUubWFlPic=

> <r_epik_Ionization_Penalty>
1.11086

> <r_epik_Ionization_Penalty_Charging>
0

> <r_epik_Ionization_Penalty_Neutral>
1.11086

> <r_epik_State_Penalty>
1.16881

> <r_epik_Charging_Adjusted_Penalty>
1.16881

> <i_epik_Tot_Q>
0

> <i_epik_Tot_abs_Q>
0

> <r_epik_Metal_State_Penalty>
1.1835

> <b_epik_Metal_Only>
0

> <s_lp_Force_Field>
OPLS_2005

> <r_lp_Energy>
20.9556

> <b_lp_Chiralities_Consistent>
1

> <s_lp_Variant>
AV-unprocessed.smi:1254-6

> <Gold.Version>
5.8.1

> <Gold.Id.Protein>
6NUR|6NUR_protein|mol2

> <Gold.PLP.Fitness>
47.8024

> <Gold.PLP.PLP>
-39.5083

> <Gold.PLP.part.hbond>
-6.0000

> <Gold.PLP.part.metal>
0.0000

> <Gold.PLP.part.buried>
-2.0102

> <Gold.PLP.part.nonpolar>
-32.5387

> <Gold.PLP.part.repulsive>
0.3688

> <Gold.PLP.ligand.clash>
0.0000

> <Gold.PLP.ligand.torsion>
1.1574

> <Gold.PLP.Chemscore.Hbond>
3.5142

> <Gold.PLP.Chemscore.CHOScore>
0.0000

> <Gold.PLP.Chemscore.Metal>
0.0000

> <Gold.Chemscore.Hbonds>
donor molecule, donor type, donor heavy atom, donor atom, acceptor molecule, acceptor atom, score
      L1  H     5    26       P1  7948  1.00
      L1  H     8    27       P1  7948  0.59
      P1  H  7989  7998       L1    19  1.00
      P1  H 10752 10765       L1     7  0.34

> <Gold.PLP.Chemscore.Internal.Correction>
0.0663

> <Gold.Rescore>
     Score         DG    S(hbond)    S(metal)    S(lipo)     H(rot)  DE(clash)    DE(int)     intcor
     16.78     -19.68       2.45        0.00      88.50       1.69       0.34       2.56       ----

> <Gold.Chemscore.Fitness>
16.7750

> <Gold.Chemscore.DG>
-19.6803

> <Gold.Chemscore.ZeroCoef>
-5.4800

> <Gold.Chemscore.Hbond>
2.4467

> <Gold.Chemscore.Metal>
0.0000

> <Gold.Chemscore.Lipo>
88.5015

> <Gold.Chemscore.Internal_Hbond>
0.0000

> <Gold.Chemscore.DEClash>
0.3442

> <Gold.Chemscore.DEInternal>
2.5611

> <Gold.Chemscore.Rot>
1.6900

> <Gold.Chemscore.Internal.Correction>
   9.000000E+99

> <Gold.Chemscore.Hbonds>
donor molecule, donor type, donor heavy atom, donor atom, acceptor molecule, acceptor atom, score
      L1  H     5    26       P1  7948  0.49
      L1  H     8    27       P1  7948  0.13
      P1  H  7989  7998       L1    19  0.34
      P1  H 10752 10765       L1     7  0.07

> <Gold.Chemscore.Hbond.Weighted>
-8.1721

> <Gold.Chemscore.Metal.Weighted>
-0.0000

> <Gold.Chemscore.Lipo.Weighted>
-10.3547

> <Gold.Chemscore.Internal_Hbond.Weighted>
0.0000

> <Gold.Chemscore.DEClash.Weighted>
0.3442

> <Gold.Chemscore.DEInternal.Weighted>
2.5611

> <Gold.Chemscore.Rot.Weighted>
4.3265

> <Gold.Chemscore.Internal.Correction.Weighted>
   9.000000E+99

> <Gold.Protein.RotatedTorsions>
[ 6907 6896 6895 6894 ] final  156.15 input  -60.11 | X-H torsion
[ 7974 7965 7964 7962 ] final  157.78 input  175.53 | X-H torsion
[ 8008 7997 7996 7995 ] final  -27.43 input   59.86 | X-H torsion
[ 10167 10162 10161 10158 ] final  157.40 input  -65.29 | X-H torsion
[ 10718 10713 10712 10709 ] final  -62.89 input   66.30 | X-H torsion
[ 10763 10752 10751 10750 ] final -149.23 input  -60.55 | X-H torsion
[ 11005 11000 10999 10996 ] final -117.99 input  -57.11 | X-H torsion

> <Gold.Protein.ActiveResidues>
 VAL166  LYS551  ARG553  GLY616  TRP617  ASP618  TYR619  PRO620  LYS621  CYS622 
 ASP623  PHE694  ASN695  SER759  ASP760  ASP761  ALA762  ILE779  LEU786  VAL792 
 PHE793  MET794  SER795  GLU796  ALA797  LYS798  CYS799  TRP800  GLU811  SER814 

> <Gold.Protein.RotatedAtoms>
  152.0339  133.3949  159.4308 H   0  0  0  0  0  0  0  0  0  0  0  0  # atno 6907 bound_to 6896
  150.6880  134.3490  159.4910 H   0  0  0  0  0  0  0  0  0  0  0  0  # atno 6908 bound_to 6896
  152.1280  134.9156  160.0611 H   0  0  0  0  0  0  0  0  0  0  0  0  # atno 6909 bound_to 6896
  144.7883  139.7388  143.6232 H   0  0  0  0  0  0  0  0  0  0  0  0  # atno 7974 bound_to 7965
  154.4378  140.1872  156.0930 H   0  0  0  0  0  0  0  0  0  0  0  0  # atno 8008 bound_to 7997
  156.0351  140.3326  155.7155 H   0  0  0  0  0  0  0  0  0  0  0  0  # atno 8009 bound_to 7997
  155.5783  140.0619  157.2780 H   0  0  0  0  0  0  0  0  0  0  0  0  # atno 8010 bound_to 7997
  139.4823  144.4921  151.8293 H   0  0  0  0  0  0  0  0  0  0  0  0  # atno 10167 bound_to 10162
  156.0826  130.4214  150.1199 H   0  0  0  0  0  0  0  0  0  0  0  0  # atno 10718 bound_to 10713
  154.8189  135.3314  154.7096 H   0  0  0  0  0  0  0  0  0  0  0  0  # atno 10763 bound_to 10752
  153.7732  135.6924  153.4907 H   0  0  0  0  0  0  0  0  0  0  0  0  # atno 10764 bound_to 10752
  153.2030  135.4509  155.0238 H   0  0  0  0  0  0  0  0  0  0  0  0  # atno 10765 bound_to 10752
  141.0317  133.9971  157.3133 H   0  0  0  0  0  0  0  0  0  0  0  0  # atno 11005 bound_to 11000
  146.2125  139.5491  142.9672 LP  0  0  0  0  0  0  0  0  0  0  0  0  # atno 17320 bound_to 7965
  145.5862  141.0376  143.2095 LP  0  0  0  0  0  0  0  0  0  0  0  0  # atno 17321 bound_to 7965
  140.4406  144.1991  150.5891 LP  0  0  0  0  0  0  0  0  0  0  0  0  # atno 17342 bound_to 10162
  140.4687  143.2421  151.9120 LP  0  0  0  0  0  0  0  0  0  0  0  0  # atno 17343 bound_to 10162
  156.9227  130.9688  151.3546 LP  0  0  0  0  0  0  0  0  0  0  0  0  # atno 17370 bound_to 10713
  157.5949  130.8470  149.8714 LP  0  0  0  0  0  0  0  0  0  0  0  0  # atno 17371 bound_to 10713
  139.9212  135.0200  156.8072 LP  0  0  0  0  0  0  0  0  0  0  0  0  # atno 17394 bound_to 11000
  140.6395  133.9832  155.7700 LP  0  0  0  0  0  0  0  0  0  0  0  0  # atno 17395 bound_to 11000

$$$$
