AV-unprocessed.smi:1196|AV-procd|sdf|5001|dock7
  -GOLD-   22720 4 13D 1   1.00000     0.00000
 Structure written by MMmdl.
 36 37  0  0  0  0  0  0  0  0  2 V2000
  154.8534  138.3678  159.9903 C   0  0  0  0  0  0  0  0  0  0  0  0
  153.7888  139.4509  160.2254 C   0  0  1  0  0  0  0  0  0  0  0  0
  154.1619  140.7680  159.5181 C   0  0  0  0  0  0  0  0  0  0  0  0
  153.2626  141.8550  159.8634 N   0  0  0  0  0  0  0  0  0  0  0  0
  152.5567  142.6823  159.0158 C   0  0  0  0  0  0  0  0  0  0  0  0
  151.8519  143.5555  159.7939 C   0  0  0  0  0  0  0  0  0  0  0  0
  152.1979  143.1792  161.1220 C   0  0  0  0  0  0  0  0  0  0  0  0
  153.0409  142.1599  161.1606 N   0  0  0  0  0  0  0  0  0  0  0  0
  152.4872  138.9793  159.7566 N   0  0  0  0  0  0  0  0  0  0  0  0
  152.2056  138.5789  158.5075 C   0  0  0  0  0  0  0  0  0  0  0  0
  153.0354  138.5716  157.5974 O   0  0  0  0  0  0  0  0  0  0  0  0
  150.7679  138.1166  158.2565 C   0  0  0  0  0  0  0  0  0  0  0  0
  150.2635  137.1213  159.3192 C   0  0  0  0  0  0  0  0  0  0  0  0
  148.8102  136.6634  159.0739 C   0  0  2  0  0  0  0  0  0  0  0  0
  147.9539  136.9712  160.2062 N   0  5  0  0  0  0  0  0  0  0  0  0
  147.4138  135.8166  160.6624 C   0  0  0  0  0  0  0  0  0  0  0  0
  146.6309  135.6710  161.5984 O   0  0  0  0  0  0  0  0  0  0  0  0
  147.8482  134.7753  159.9453 N   0  0  0  0  0  0  0  0  0  0  0  0
  148.6896  135.1542  158.9889 C   0  0  0  0  0  0  0  0  0  0  0  0
  149.2707  134.4362  158.1764 O   0  0  0  0  0  0  0  0  0  0  0  0
  155.8300  138.6949  160.3476 H   0  0  0  0  0  0  0  0  0  0  0  0
  154.9494  138.1293  158.9306 H   0  0  0  0  0  0  0  0  0  0  0  0
  154.6044  137.4467  160.5180 H   0  0  0  0  0  0  0  0  0  0  0  0
  153.7353  139.6471  161.2979 H   0  0  0  0  0  0  0  0  0  0  0  0
  155.1709  141.0704  159.8006 H   0  0  0  0  0  0  0  0  0  0  0  0
  154.1695  140.6374  158.4346 H   0  0  0  0  0  0  0  0  0  0  0  0
  152.6159  142.5827  157.9419 H   0  0  0  0  0  0  0  0  0  0  0  0
  151.1913  144.3437  159.4647 H   0  0  0  0  0  0  0  0  0  0  0  0
  151.8630  143.6130  162.0527 H   0  0  0  0  0  0  0  0  0  0  0  0
  151.7452  138.9401  160.4405 H   0  0  0  0  0  0  0  0  0  0  0  0
  150.1239  138.9962  158.2297 H   0  0  0  0  0  0  0  0  0  0  0  0
  150.7071  137.6550  157.2697 H   0  0  0  0  0  0  0  0  0  0  0  0
  150.9163  136.2464  159.3166 H   0  0  0  0  0  0  0  0  0  0  0  0
  150.3536  137.5610  160.3145 H   0  0  0  0  0  0  0  0  0  0  0  0
  148.4367  137.0887  158.1413 H   0  0  0  0  0  0  0  0  0  0  0  0
  147.5781  133.8185  160.1172 H   0  0  0  0  0  0  0  0  0  0  0  0
  1  2  1  0  0  0  0
  1 21  1  0  0  0  0
  1 22  1  0  0  0  0
  1 23  1  0  0  0  0
  2  3  1  0  0  0  0
  2  9  1  0  0  0  0
  2 24  1  0  0  0  0
  3  4  1  0  0  0  0
  3 25  1  0  0  0  0
  3 26  1  0  0  0  0
  4  8  1  0  0  0  0
  4  5  1  0  0  0  0
  5  6  2  0  0  0  0
  5 27  1  0  0  0  0
  6  7  1  0  0  0  0
  6 28  1  0  0  0  0
  7  8  2  0  0  0  0
  7 29  1  0  0  0  0
  9 10  1  0  0  0  0
  9 30  1  0  0  0  0
 10 11  2  0  0  0  0
 10 12  1  0  0  0  0
 12 13  1  0  0  0  0
 12 31  1  0  0  0  0
 12 32  1  0  0  0  0
 13 14  1  0  0  0  0
 13 33  1  0  0  0  0
 13 34  1  0  0  0  0
 14 19  1  0  0  0  0
 14 15  1  0  0  0  0
 14 35  1  0  0  0  0
 15 16  1  0  0  0  0
 16 17  2  0  0  0  0
 16 18  1  0  0  0  0
 18 19  1  0  0  0  0
 18 36  1  0  0  0  0
 19 20  2  0  0  0  0
M  CHG  1  15  -1
M  END
> <s_m_source_file>
AV-unprocessed.smi

> <i_m_source_file_index>
1196

> <i_lp_mmshare_version>
43012

> <i_f3d_flags>
0

> <s_epik_input>
bjFbY0hdW2NIXVtjSF1uMVtDSDJdW0NAQEhdKFtDSDNdKVtOSF1DKD1PKVtDSDJdW0NIMl1bQ0BASF0yW05IXUMoPU8pW05IXUMyPU8=

> <s_epik_cmdline>
J2VwaWtfcHl0aG9uJywgJy1waCcsICc3LjAnLCAnLXRuJywgJzgnLCAnLW1hJywgJzIwMCcsICctbWV0YWxfYmluZGluZycsICctaW1hZScsICc8aW5maWxlLm1hZT4nLCAnLW9tYWUnLCAnPG91dGZpbGUubWFlPic=

> <r_lp_tautomer_probability>
1

> <r_epik_Ionization_Penalty>
5.79547

> <r_epik_Ionization_Penalty_Charging>
5.79516

> <r_epik_Ionization_Penalty_Neutral>
0.000313087

> <r_epik_State_Penalty>
5.80096

> <r_epik_Charging_Adjusted_Penalty>
11.5961

> <i_epik_Tot_Q>
-1

> <i_epik_Tot_abs_Q>
1

> <r_epik_Metal_State_Penalty>
2.14443

> <b_epik_Metal_Only>
1

> <s_lp_Force_Field>
OPLS_2005

> <r_lp_Energy>
12.2353

> <b_lp_Chiralities_Consistent>
1

> <s_lp_Variant>
AV-unprocessed.smi:1196-6

> <Gold.Version>
5.8.1

> <Gold.Id.Protein>
6NUR|6NUR_protein|mol2

> <Gold.PLP.Fitness>
45.4719

> <Gold.PLP.PLP>
-32.6329

> <Gold.PLP.part.hbond>
-4.0000

> <Gold.PLP.part.metal>
0.0000

> <Gold.PLP.part.buried>
-2.6557

> <Gold.PLP.part.nonpolar>
-27.0910

> <Gold.PLP.part.repulsive>
0.2145

> <Gold.PLP.ligand.clash>
0.0000

> <Gold.PLP.ligand.torsion>
0.9498

> <Gold.PLP.Chemscore.Hbond>
4.8864

> <Gold.PLP.Chemscore.CHOScore>
0.0000

> <Gold.PLP.Chemscore.Metal>
0.0000

> <Gold.Chemscore.Hbonds>
donor molecule, donor type, donor heavy atom, donor atom, acceptor molecule, acceptor atom, score
      P1  H  6896  6907       L1    20  0.75
      P1  H  6931  6943       L1    15  0.20
      P1  H  6934  6947       L1    15  0.53
      P1  H  7997  8009       L1    11  0.62

> <Gold.PLP.Chemscore.Internal.Correction>
0.0795

> <Gold.Rescore>
     Score         DG    S(hbond)    S(metal)    S(lipo)     H(rot)  DE(clash)    DE(int)     intcor
     12.61     -15.20       2.69        0.00      69.46       2.89       0.52       2.06       ----

> <Gold.Chemscore.Fitness>
12.6139

> <Gold.Chemscore.DG>
-15.1959

> <Gold.Chemscore.ZeroCoef>
-5.4800

> <Gold.Chemscore.Hbond>
2.6945

> <Gold.Chemscore.Metal>
0.0000

> <Gold.Chemscore.Lipo>
69.4572

> <Gold.Chemscore.Internal_Hbond>
0.0000

> <Gold.Chemscore.DEClash>
0.5204

> <Gold.Chemscore.DEInternal>
2.0616

> <Gold.Chemscore.Rot>
2.8946

> <Gold.Chemscore.Internal.Correction>
   9.000000E+99

> <Gold.Chemscore.Hbonds>
donor molecule, donor type, donor heavy atom, donor atom, acceptor molecule, acceptor atom, score
      P1  H  6896  6907       L1    20  0.09
      P1  H  6931  6943       L1    15  0.09
      P1  H  6934  6947       L1    15  0.27
      P1  H  7997  8009       L1    11  0.62

> <Gold.Chemscore.Hbond.Weighted>
-8.9995

> <Gold.Chemscore.Metal.Weighted>
-0.0000

> <Gold.Chemscore.Lipo.Weighted>
-8.1265

> <Gold.Chemscore.Internal_Hbond.Weighted>
0.0000

> <Gold.Chemscore.DEClash.Weighted>
0.5204

> <Gold.Chemscore.DEInternal.Weighted>
2.0616

> <Gold.Chemscore.Rot.Weighted>
7.4101

> <Gold.Chemscore.Internal.Correction.Weighted>
   9.000000E+99

> <Gold.Protein.RotatedTorsions>
[ 6907 6896 6895 6894 ] final -107.39 input  -60.11 | X-H torsion
[ 7974 7965 7964 7962 ] final  -14.71 input  175.53 | X-H torsion
[ 8008 7997 7996 7995 ] final  166.39 input   59.86 | X-H torsion
[ 10167 10162 10161 10158 ] final  122.77 input  -65.29 | X-H torsion
[ 10718 10713 10712 10709 ] final   76.01 input   66.30 | X-H torsion
[ 10763 10752 10751 10750 ] final   23.50 input  -60.55 | X-H torsion
[ 11005 11000 10999 10996 ] final   81.13 input  -57.11 | X-H torsion

> <Gold.Protein.ActiveResidues>
 VAL166  LYS551  ARG553  GLY616  TRP617  ASP618  TYR619  PRO620  LYS621  CYS622 
 ASP623  PHE694  ASN695  SER759  ASP760  ASP761  ALA762  ILE779  LEU786  VAL792 
 PHE793  MET794  SER795  GLU796  ALA797  LYS798  CYS799  TRP800  GLU811  SER814 

> <Gold.Protein.RotatedAtoms>
  150.7442  133.9833  159.3583 H   0  0  0  0  0  0  0  0  0  0  0  0  # atno 6907 bound_to 6896
  151.7776  135.0768  160.0378 H   0  0  0  0  0  0  0  0  0  0  0  0  # atno 6908 bound_to 6896
  152.3296  133.5907  159.5837 H   0  0  0  0  0  0  0  0  0  0  0  0  # atno 6909 bound_to 6896
  146.2063  140.3387  142.8406 H   0  0  0  0  0  0  0  0  0  0  0  0  # atno 7974 bound_to 7965
  156.1722  140.1644  156.8427 H   0  0  0  0  0  0  0  0  0  0  0  0  # atno 8008 bound_to 7997
  154.5269  140.0765  156.8308 H   0  0  0  0  0  0  0  0  0  0  0  0  # atno 8009 bound_to 7997
  155.3488  140.3389  155.4241 H   0  0  0  0  0  0  0  0  0  0  0  0  # atno 8010 bound_to 7997
  139.5839  144.6998  151.3459 H   0  0  0  0  0  0  0  0  0  0  0  0  # atno 10167 bound_to 10162
  157.6657  130.9754  150.1435 H   0  0  0  0  0  0  0  0  0  0  0  0  # atno 10718 bound_to 10713
  153.0834  135.6625  153.9999 H   0  0  0  0  0  0  0  0  0  0  0  0  # atno 10763 bound_to 10752
  153.9615  135.2973  155.3434 H   0  0  0  0  0  0  0  0  0  0  0  0  # atno 10764 bound_to 10752
  154.7237  135.5153  153.8925 H   0  0  0  0  0  0  0  0  0  0  0  0  # atno 10765 bound_to 10752
  139.9109  134.7973  156.2001 H   0  0  0  0  0  0  0  0  0  0  0  0  # atno 11005 bound_to 11000
  144.8801  140.7388  143.5992 LP  0  0  0  0  0  0  0  0  0  0  0  0  # atno 17320 bound_to 7965
  145.3307  139.1760  143.4538 LP  0  0  0  0  0  0  0  0  0  0  0  0  # atno 17321 bound_to 7965
  140.7113  143.7382  150.7573 LP  0  0  0  0  0  0  0  0  0  0  0  0  # atno 17342 bound_to 10162
  140.0922  143.4867  152.2472 LP  0  0  0  0  0  0  0  0  0  0  0  0  # atno 17343 bound_to 10162
  156.2252  130.3677  149.8509 LP  0  0  0  0  0  0  0  0  0  0  0  0  # atno 17370 bound_to 10713
  156.6351  130.8682  151.3503 LP  0  0  0  0  0  0  0  0  0  0  0  0  # atno 17371 bound_to 10713
  141.0530  133.6879  156.1807 LP  0  0  0  0  0  0  0  0  0  0  0  0  # atno 17394 bound_to 11000
  140.6781  134.4797  157.5588 LP  0  0  0  0  0  0  0  0  0  0  0  0  # atno 17395 bound_to 11000

$$$$
