AV-unprocessed.smi:1576|AV-procd|sdf|6344|dock2
  -GOLD-   22720 6563D 1   1.00000     0.00000
 Structure written by MMmdl.
 45 47  0  0  0  0  0  0  0  0  1 V2000
  146.7060  139.0449  154.4264 O   0  0  0  0  0  0  0  0  0  0  0  0
  147.4810  138.5884  153.5866 C   0  0  0  0  0  0  0  0  0  0  0  0
  148.8112  138.7804  153.5664 N   0  0  0  0  0  0  0  0  0  0  0  0
  149.6144  139.5414  154.4590 C   0  0  0  0  0  0  0  0  0  0  0  0
  150.9606  139.2462  154.7765 C   0  0  0  0  0  0  0  0  0  0  0  0
  151.6425  140.0719  155.6910 C   0  0  0  0  0  0  0  0  0  0  0  0
  150.9648  141.1679  156.2747 C   0  0  0  0  0  0  0  0  0  0  0  0
  151.6322  142.0076  157.1928 N   0  0  0  0  0  0  0  0  0  0  0  0
  152.1456  141.3425  158.3921 C   0  0  0  0  0  0  0  0  0  0  0  0
  153.1852  142.2191  159.1115 C   0  0  0  0  0  0  0  0  0  0  0  0
  152.6213  143.6169  159.4068 C   0  0  0  0  0  0  0  0  0  0  0  0
  152.1073  144.2602  158.1107 C   0  0  0  0  0  0  0  0  0  0  0  0
  151.0855  143.3497  157.4089 C   0  0  0  0  0  0  0  0  0  0  0  0
  149.6719  141.4426  155.9739 N   0  0  0  0  0  0  0  0  0  0  0  0
  149.0219  140.6481  155.0985 C   0  0  0  0  0  0  0  0  0  0  0  0
  147.0895  137.8080  152.5692 N   0  0  0  0  0  0  0  0  0  0  0  0
  145.7141  137.3883  152.3160 C   0  0  1  0  0  0  0  0  0  0  0  0
  145.6349  136.2149  151.3175 C   0  0  0  0  0  0  0  0  0  0  0  0
  144.2319  135.5999  151.3927 C   0  0  0  0  0  0  0  0  0  0  0  0
  143.6658  135.8335  153.1200 S   0  0  0  0  0  0  0  0  0  0  0  0
  142.4011  136.5841  153.1102 O   0  0  0  0  0  0  0  0  0  0  0  0
  143.7879  134.5655  153.8550 O   0  0  0  0  0  0  0  0  0  0  0  0
  145.0333  136.9468  153.6194 C   0  0  0  0  0  0  0  0  0  0  0  0
  149.3196  138.2766  152.8545 H   0  0  0  0  0  0  0  0  0  0  0  0
  151.4815  138.4037  154.3499 H   0  0  0  0  0  0  0  0  0  0  0  0
  152.6758  139.8628  155.9252 H   0  0  0  0  0  0  0  0  0  0  0  0
  151.3079  141.1385  159.0601 H   0  0  0  0  0  0  0  0  0  0  0  0
  152.5976  140.3796  158.1579 H   0  0  0  0  0  0  0  0  0  0  0  0
  153.4997  141.7390  160.0385 H   0  0  0  0  0  0  0  0  0  0  0  0
  154.0779  142.3091  158.4910 H   0  0  0  0  0  0  0  0  0  0  0  0
  151.8073  143.5409  160.1288 H   0  0  0  0  0  0  0  0  0  0  0  0
  153.3877  144.2447  159.8620 H   0  0  0  0  0  0  0  0  0  0  0  0
  151.6573  145.2297  158.3255 H   0  0  0  0  0  0  0  0  0  0  0  0
  152.9466  144.4496  157.4402 H   0  0  0  0  0  0  0  0  0  0  0  0
  150.8043  143.8000  156.4560 H   0  0  0  0  0  0  0  0  0  0  0  0
  150.1785  143.2737  158.0104 H   0  0  0  0  0  0  0  0  0  0  0  0
  147.9930  140.9105  154.8993 H   0  0  0  0  0  0  0  0  0  0  0  0
  147.7939  137.4733  151.9283 H   0  0  0  0  0  0  0  0  0  0  0  0
  145.1471  138.2277  151.9086 H   0  0  0  0  0  0  0  0  0  0  0  0
  145.8776  136.5261  150.3011 H   0  0  0  0  0  0  0  0  0  0  0  0
  146.3643  135.4542  151.5995 H   0  0  0  0  0  0  0  0  0  0  0  0
  143.5417  136.1333  150.7387 H   0  0  0  0  0  0  0  0  0  0  0  0
  144.2150  134.5425  151.1284 H   0  0  0  0  0  0  0  0  0  0  0  0
  145.7135  136.3710  154.2477 H   0  0  0  0  0  0  0  0  0  0  0  0
  144.6440  137.7822  154.2018 H   0  0  0  0  0  0  0  0  0  0  0  0
  1  2  2  0  0  0  0
  2  3  1  0  0  0  0
  2 16  1  0  0  0  0
  3  4  1  0  0  0  0
  3 24  1  0  0  0  0
  4 15  1  0  0  0  0
  4  5  2  0  0  0  0
  5  6  1  0  0  0  0
  5 25  1  0  0  0  0
  6  7  2  0  0  0  0
  6 26  1  0  0  0  0
  7  8  1  0  0  0  0
  7 14  1  0  0  0  0
  8 13  1  0  0  0  0
  8  9  1  0  0  0  0
  9 10  1  0  0  0  0
  9 27  1  0  0  0  0
  9 28  1  0  0  0  0
 10 11  1  0  0  0  0
 10 29  1  0  0  0  0
 10 30  1  0  0  0  0
 11 12  1  0  0  0  0
 11 31  1  0  0  0  0
 11 32  1  0  0  0  0
 12 13  1  0  0  0  0
 12 33  1  0  0  0  0
 12 34  1  0  0  0  0
 13 35  1  0  0  0  0
 13 36  1  0  0  0  0
 14 15  2  0  0  0  0
 15 37  1  0  0  0  0
 16 17  1  0  0  0  0
 16 38  1  0  0  0  0
 17 23  1  0  0  0  0
 17 18  1  0  0  0  0
 17 39  1  0  0  0  0
 18 19  1  0  0  0  0
 18 40  1  0  0  0  0
 18 41  1  0  0  0  0
 19 20  1  0  0  0  0
 19 42  1  0  0  0  0
 19 43  1  0  0  0  0
 20 21  2  0  0  0  0
 20 22  2  0  0  0  0
 20 23  1  0  0  0  0
 23 44  1  0  0  0  0
 23 45  1  0  0  0  0
M  END
> <s_m_source_file>
AV-unprocessed.smi

> <i_m_source_file_index>
1576

> <i_lp_mmshare_version>
43012

> <i_f3d_flags>
0

> <s_epik_input>
Tz1TMSg9TylbQ0gyXVtDSDJdW0NASF0oW0NIMl0xKVtOSF1DKD1PKVtOSF1jMltjSF1bY0hdYyhuW2NIXTIpTjNbQ0gyXVtDSDJdW0NIMl1bQ0gyXVtDSDJdMw==

> <s_epik_cmdline>
J2VwaWtfcHl0aG9uJywgJy1waCcsICc3LjAnLCAnLXRuJywgJzgnLCAnLW1hJywgJzIwMCcsICctbWV0YWxfYmluZGluZycsICctaW1hZScsICc8aW5maWxlLm1hZT4nLCAnLW9tYWUnLCAnPG91dGZpbGUubWFlPic=

> <r_lp_tautomer_probability>
1

> <r_epik_Ionization_Penalty>
0.0900267

> <r_epik_Ionization_Penalty_Charging>
0

> <r_epik_Ionization_Penalty_Neutral>
0.0900267

> <r_epik_State_Penalty>
0.0748882

> <r_epik_Charging_Adjusted_Penalty>
0.0748882

> <i_epik_Tot_Q>
0

> <i_epik_Tot_abs_Q>
0

> <r_epik_Metal_State_Penalty>
0.0662821

> <b_epik_Metal_Only>
0

> <s_lp_Force_Field>
OPLS_2005

> <r_lp_Energy>
22.1821

> <b_lp_Chiralities_Consistent>
1

> <s_lp_Variant>
AV-unprocessed.smi:1576-2

> <Gold.Version>
5.8.1

> <Gold.Id.Protein>
6NUR|6NUR_protein|mol2

> <Gold.PLP.Fitness>
44.6953

> <Gold.PLP.PLP>
-41.2740

> <Gold.PLP.part.hbond>
-2.9657

> <Gold.PLP.part.metal>
0.0000

> <Gold.PLP.part.buried>
-2.6654

> <Gold.PLP.part.nonpolar>
-37.8295

> <Gold.PLP.part.repulsive>
0.6792

> <Gold.PLP.ligand.clash>
0.0000

> <Gold.PLP.ligand.torsion>
0.6745

> <Gold.PLP.Chemscore.Hbond>
1.4493

> <Gold.PLP.Chemscore.CHOScore>
0.0000

> <Gold.PLP.Chemscore.Metal>
0.0000

> <Gold.Chemscore.Hbonds>
donor molecule, donor type, donor heavy atom, donor atom, acceptor molecule, acceptor atom, score
      L1  H     3    24       P1  7948  0.28
      L1  H    16    38       P1  7948  0.80

> <Gold.PLP.Chemscore.Internal.Correction>
0.4224

> <Gold.Rescore>
     Score         DG    S(hbond)    S(metal)    S(lipo)     H(rot)  DE(clash)    DE(int)     intcor
     15.28     -18.79       1.39        0.00     101.27       1.24       0.21       3.29       ----

> <Gold.Chemscore.Fitness>
15.2841

> <Gold.Chemscore.DG>
-18.7920

> <Gold.Chemscore.ZeroCoef>
-5.4800

> <Gold.Chemscore.Hbond>
1.3861

> <Gold.Chemscore.Metal>
0.0000

> <Gold.Chemscore.Lipo>
101.2670

> <Gold.Chemscore.Internal_Hbond>
0.0000

> <Gold.Chemscore.DEClash>
0.2137

> <Gold.Chemscore.DEInternal>
3.2942

> <Gold.Chemscore.Rot>
1.2366

> <Gold.Chemscore.Internal.Correction>
   9.000000E+99

> <Gold.Chemscore.Hbonds>
donor molecule, donor type, donor heavy atom, donor atom, acceptor molecule, acceptor atom, score
      L1  H     3    24       P1  7948  0.26
      L1  H    16    38       P1  7948  0.79

> <Gold.Chemscore.Hbond.Weighted>
-4.6295

> <Gold.Chemscore.Metal.Weighted>
-0.0000

> <Gold.Chemscore.Lipo.Weighted>
-11.8482

> <Gold.Chemscore.Internal_Hbond.Weighted>
0.0000

> <Gold.Chemscore.DEClash.Weighted>
0.2137

> <Gold.Chemscore.DEInternal.Weighted>
3.2942

> <Gold.Chemscore.Rot.Weighted>
3.1657

> <Gold.Chemscore.Internal.Correction.Weighted>
   9.000000E+99

> <Gold.Protein.RotatedTorsions>
[ 6907 6896 6895 6894 ] final   82.75 input  -60.11 | X-H torsion
[ 7974 7965 7964 7962 ] final  -20.16 input  175.53 | X-H torsion
[ 8008 7997 7996 7995 ] final -119.13 input   59.86 | X-H torsion
[ 10167 10162 10161 10158 ] final -153.80 input  -65.29 | X-H torsion
[ 10718 10713 10712 10709 ] final -119.62 input   66.30 | X-H torsion
[ 10763 10752 10751 10750 ] final -170.48 input  -60.55 | X-H torsion
[ 11005 11000 10999 10996 ] final   77.38 input  -57.11 | X-H torsion

> <Gold.Protein.ActiveResidues>
 VAL166  LYS551  ARG553  GLY616  TRP617  ASP618  TYR619  PRO620  LYS621  CYS622 
 ASP623  PHE694  ASN695  SER759  ASP760  ASP761  ALA762  ILE779  LEU786  VAL792 
 PHE793  MET794  SER795  GLU796  ALA797  LYS798  CYS799  TRP800  GLU811  SER814 

> <Gold.Protein.RotatedAtoms>
  152.5308  134.3002  159.9075 H   0  0  0  0  0  0  0  0  0  0  0  0  # atno 6907 bound_to 6896
  151.2953  133.4140  159.2643 H   0  0  0  0  0  0  0  0  0  0  0  0  # atno 6908 bound_to 6896
  151.0165  134.9453  159.8093 H   0  0  0  0  0  0  0  0  0  0  0  0  # atno 6909 bound_to 6896
  146.1803  140.4163  142.8497 H   0  0  0  0  0  0  0  0  0  0  0  0  # atno 7974 bound_to 7965
  155.1107  140.0397  157.2723 H   0  0  0  0  0  0  0  0  0  0  0  0  # atno 8008 bound_to 7997
  154.6687  140.2607  155.7004 H   0  0  0  0  0  0  0  0  0  0  0  0  # atno 8009 bound_to 7997
  156.2649  140.2802  156.1188 H   0  0  0  0  0  0  0  0  0  0  0  0  # atno 8010 bound_to 7997
  139.7066  143.9176  152.2451 H   0  0  0  0  0  0  0  0  0  0  0  0  # atno 10167 bound_to 10162
  156.1195  130.6312  150.9438 H   0  0  0  0  0  0  0  0  0  0  0  0  # atno 10718 bound_to 10713
  154.6411  135.2898  155.0103 H   0  0  0  0  0  0  0  0  0  0  0  0  # atno 10763 bound_to 10752
  154.1229  135.6545  153.4910 H   0  0  0  0  0  0  0  0  0  0  0  0  # atno 10764 bound_to 10752
  153.0327  135.5292  154.7278 H   0  0  0  0  0  0  0  0  0  0  0  0  # atno 10765 bound_to 10752
  139.9257  134.7678  156.1514 H   0  0  0  0  0  0  0  0  0  0  0  0  # atno 11005 bound_to 11000
  144.8304  140.6698  143.6294 LP  0  0  0  0  0  0  0  0  0  0  0  0  # atno 17320 bound_to 7965
  145.4095  139.1583  143.4134 LP  0  0  0  0  0  0  0  0  0  0  0  0  # atno 17321 bound_to 7965
  139.9033  144.6899  150.8641 LP  0  0  0  0  0  0  0  0  0  0  0  0  # atno 17342 bound_to 10162
  140.7723  143.3497  151.2039 LP  0  0  0  0  0  0  0  0  0  0  0  0  # atno 17343 bound_to 10162
  157.6378  131.0914  150.8313 LP  0  0  0  0  0  0  0  0  0  0  0  0  # atno 17370 bound_to 10713
  156.8411  130.5048  149.5321 LP  0  0  0  0  0  0  0  0  0  0  0  0  # atno 17371 bound_to 10713
  141.0812  133.6753  156.2341 LP  0  0  0  0  0  0  0  0  0  0  0  0  # atno 17394 bound_to 11000
  140.6344  134.5231  157.5563 LP  0  0  0  0  0  0  0  0  0  0  0  0  # atno 17395 bound_to 11000

$$$$
