AV-unprocessed.smi:299|AV-procd|sdf|2268|dock8
  -GOLD-   2262022163D 1   1.00000     0.00000
 Structure written by MMmdl.
 42 43  0  0  0  0  0  0  0  0  2 V2000
  146.4720  131.3469  153.8233 C   0  0  0  0  0  0  0  0  0  0  0  0
  145.7921  132.2263  152.7530 C   0  0  1  0  0  0  0  0  0  0  0  0
  145.0810  131.3015  151.7396 C   0  0  0  0  0  0  0  0  0  0  0  0
  144.3838  132.0912  150.6300 C   0  0  0  0  0  0  0  0  0  0  0  0
  143.4151  133.0934  151.2562 C   0  0  0  0  0  0  0  0  0  0  0  0
  144.1475  134.0042  152.2514 C   0  0  0  0  0  0  0  0  0  0  0  0
  144.8319  133.2274  153.3265 N   0  3  2  0  0  0  0  0  0  0  0  0
  145.4324  134.1234  154.3577 C   0  0  0  0  0  0  0  0  0  0  0  0
  146.5471  135.0354  153.8039 C   0  0  0  0  0  0  0  0  0  0  0  0
  147.0171  136.1068  154.8069 C   0  0  0  0  0  0  0  0  0  0  0  0
  147.8655  137.1245  154.1939 N   0  0  0  0  0  0  0  0  0  0  0  0
  148.5619  138.0572  154.8631 C   0  0  0  0  0  0  0  0  0  0  0  0
  148.5356  138.1728  156.0877 O   0  0  0  0  0  0  0  0  0  0  0  0
  149.4131  139.0118  154.0242 C   0  0  0  0  0  0  0  0  0  0  0  0
  150.8253  138.8551  154.3181 N   0  0  0  0  0  0  0  0  0  0  0  0
  151.6294  137.7945  154.2191 C   0  0  0  0  0  0  0  0  0  0  0  0
  152.8643  138.0792  154.6031 N   0  0  0  0  0  0  0  0  0  0  0  0
  152.7833  139.4160  154.9564 N   0  0  0  0  0  0  0  0  0  0  0  0
  151.5762  139.8820  154.7890 N   0  0  0  0  0  0  0  0  0  0  0  0
  147.0172  130.5233  153.3609 H   0  0  0  0  0  0  0  0  0  0  0  0
  145.7411  130.9124  154.5062 H   0  0  0  0  0  0  0  0  0  0  0  0
  147.2070  131.8969  154.4098 H   0  0  0  0  0  0  0  0  0  0  0  0
  146.5720  132.7758  152.2227 H   0  0  0  0  0  0  0  0  0  0  0  0
  145.7993  130.6147  151.2903 H   0  0  0  0  0  0  0  0  0  0  0  0
  144.3477  130.6815  152.2582 H   0  0  0  0  0  0  0  0  0  0  0  0
  145.1232  132.6144  150.0224 H   0  0  0  0  0  0  0  0  0  0  0  0
  143.8494  131.4147  149.9622 H   0  0  0  0  0  0  0  0  0  0  0  0
  142.9472  133.6944  150.4758 H   0  0  0  0  0  0  0  0  0  0  0  0
  142.6088  132.5630  151.7649 H   0  0  0  0  0  0  0  0  0  0  0  0
  144.8797  134.6190  151.7254 H   0  0  0  0  0  0  0  0  0  0  0  0
  143.4116  134.6865  152.6722 H   0  0  0  0  0  0  0  0  0  0  0  0
  144.6793  134.7917  154.7669 H   0  0  0  0  0  0  0  0  0  0  0  0
  145.7985  133.5232  155.1919 H   0  0  0  0  0  0  0  0  0  0  0  0
  147.4118  134.4499  153.4958 H   0  0  0  0  0  0  0  0  0  0  0  0
  146.1862  135.5375  152.9054 H   0  0  0  0  0  0  0  0  0  0  0  0
  146.1558  136.5843  155.2768 H   0  0  0  0  0  0  0  0  0  0  0  0
  147.5820  135.6371  155.6124 H   0  0  0  0  0  0  0  0  0  0  0  0
  147.9497  137.1009  153.1878 H   0  0  0  0  0  0  0  0  0  0  0  0
  149.2483  138.8223  152.9627 H   0  0  0  0  0  0  0  0  0  0  0  0
  149.1211  140.0456  154.2160 H   0  0  0  0  0  0  0  0  0  0  0  0
  151.3121  136.8222  153.8722 H   0  0  0  0  0  0  0  0  0  0  0  0
  144.1171  132.6904  153.7968 H   0  0  0  0  0  0  0  0  0  0  0  0
  1  2  1  0  0  0  0
  1 20  1  0  0  0  0
  1 21  1  0  0  0  0
  1 22  1  0  0  0  0
  2  7  1  0  0  0  0
  2  3  1  0  0  0  0
  2 23  1  0  0  0  0
  3  4  1  0  0  0  0
  3 24  1  0  0  0  0
  3 25  1  0  0  0  0
  4  5  1  0  0  0  0
  4 26  1  0  0  0  0
  4 27  1  0  0  0  0
  5  6  1  0  0  0  0
  5 28  1  0  0  0  0
  5 29  1  0  0  0  0
  6  7  1  0  0  0  0
  6 30  1  0  0  0  0
  6 31  1  0  0  0  0
  7  8  1  0  0  0  0
  7 42  1  0  0  0  0
  8  9  1  0  0  0  0
  8 32  1  0  0  0  0
  8 33  1  0  0  0  0
  9 10  1  0  0  0  0
  9 34  1  0  0  0  0
  9 35  1  0  0  0  0
 10 11  1  0  0  0  0
 10 36  1  0  0  0  0
 10 37  1  0  0  0  0
 11 12  1  0  0  0  0
 11 38  1  0  0  0  0
 12 13  2  0  0  0  0
 12 14  1  0  0  0  0
 14 15  1  0  0  0  0
 14 39  1  0  0  0  0
 14 40  1  0  0  0  0
 15 19  1  0  0  0  0
 15 16  1  0  0  0  0
 16 17  2  0  0  0  0
 16 41  1  0  0  0  0
 17 18  1  0  0  0  0
 18 19  2  0  0  0  0
M  CHG  1   7   1
M  END
> <s_m_source_file>
AV-unprocessed.smi

> <i_m_source_file_index>
299

> <i_lp_mmshare_version>
43012

> <i_f3d_flags>
0

> <s_epik_input>
W0NIM11bQ0BASF0xW0NIMl1bQ0gyXVtDSDJdW0NIMl1OMVtDSDJdW0NIMl1bQ0gyXVtOSF1DKD1PKVtDSDJdbjJbY0hdbm5uMg==

> <s_epik_cmdline>
J2VwaWtfcHl0aG9uJywgJy1waCcsICc3LjAnLCAnLXRuJywgJzgnLCAnLW1hJywgJzIwMCcsICctbWV0YWxfYmluZGluZycsICctaW1hZScsICc8aW5maWxlLm1hZT4nLCAnLW9tYWUnLCAnPG91dGZpbGUubWFlPic=

> <r_lp_tautomer_probability>
1

> <r_epik_Ionization_Penalty>
0.000544863

> <r_epik_Ionization_Penalty_Charging>
0.000543475

> <r_epik_Ionization_Penalty_Neutral>
1.38784e-06

> <r_epik_State_Penalty>
0.000340025

> <r_epik_Charging_Adjusted_Penalty>
0.0008835

> <i_epik_Tot_Q>
1

> <i_epik_Tot_abs_Q>
1

> <r_epik_Metal_State_Penalty>
-0

> <b_epik_Metal_Only>
0

> <s_lp_Force_Field>
OPLS_2005

> <r_lp_Energy>
25.9803

> <b_lp_Chiralities_Consistent>
1

> <s_lp_Variant>
AV-unprocessed.smi:299-4

> <Gold.Version>
5.8.1

> <Gold.Id.Protein>
6NUR|6NUR_protein|mol2

> <Gold.PLP.Fitness>
48.1930

> <Gold.PLP.PLP>
-31.0007

> <Gold.PLP.part.hbond>
-5.7631

> <Gold.PLP.part.metal>
0.0000

> <Gold.PLP.part.buried>
-6.3399

> <Gold.PLP.part.nonpolar>
-20.0638

> <Gold.PLP.part.repulsive>
0.1160

> <Gold.PLP.ligand.clash>
0.0000

> <Gold.PLP.ligand.torsion>
0.1227

> <Gold.PLP.Chemscore.Hbond>
4.8000

> <Gold.PLP.Chemscore.CHOScore>
0.9953

> <Gold.PLP.Chemscore.Metal>
0.0000

> <Gold.Chemscore.Hbonds>
donor molecule, donor type, donor heavy atom, donor atom, acceptor molecule, acceptor atom, score
      L1  H     7    42       P1 10957  2.00
      L1  H    11    38       P1  7948  0.80
      P1  H  7989  7998       L1    19  1.00
      P1  H  7997  8008       L1    18  0.91
      L1  C    16    41       P1  7949  0.97

> <Gold.PLP.Chemscore.Internal.Correction>
0.0519

> <Gold.Rescore>
     Score         DG    S(hbond)    S(metal)    S(lipo)     H(rot)  DE(clash)    DE(int)     intcor
     15.47     -15.72       3.75        0.00      45.41       2.97       0.00       0.26       ----

> <Gold.Chemscore.Fitness>
15.4668

> <Gold.Chemscore.DG>
-15.7238

> <Gold.Chemscore.ZeroCoef>
-5.4800

> <Gold.Chemscore.Hbond>
3.7513

> <Gold.Chemscore.Metal>
0.0000

> <Gold.Chemscore.Lipo>
45.4058

> <Gold.Chemscore.Internal_Hbond>
0.0000

> <Gold.Chemscore.DEClash>
0.0000

> <Gold.Chemscore.DEInternal>
0.2570

> <Gold.Chemscore.Rot>
2.9680

> <Gold.Chemscore.Internal.Correction>
   9.000000E+99

> <Gold.Chemscore.Hbonds>
donor molecule, donor type, donor heavy atom, donor atom, acceptor molecule, acceptor atom, score
      L1  H     7    42       P1 10957  0.68
      L1  H    11    38       P1  7948  0.80
      P1  H  7989  7998       L1    19  0.19
      P1  H  7997  8008       L1    18  0.81

> <Gold.Chemscore.Hbond.Weighted>
-12.5293

> <Gold.Chemscore.Metal.Weighted>
-0.0000

> <Gold.Chemscore.Lipo.Weighted>
-5.3125

> <Gold.Chemscore.Internal_Hbond.Weighted>
0.0000

> <Gold.Chemscore.DEClash.Weighted>
0.0000

> <Gold.Chemscore.DEInternal.Weighted>
0.2570

> <Gold.Chemscore.Rot.Weighted>
7.5980

> <Gold.Chemscore.Internal.Correction.Weighted>
   9.000000E+99

> <Gold.Protein.RotatedTorsions>
[ 6907 6896 6895 6894 ] final  145.39 input  -60.11 | X-H torsion
[ 7974 7965 7964 7962 ] final  -91.71 input  175.53 | X-H torsion
[ 8008 7997 7996 7995 ] final  -22.27 input   59.86 | X-H torsion
[ 10167 10162 10161 10158 ] final  -77.14 input  -65.29 | X-H torsion
[ 10718 10713 10712 10709 ] final  -34.73 input   66.30 | X-H torsion
[ 10763 10752 10751 10750 ] final  -55.16 input  -60.55 | X-H torsion
[ 11005 11000 10999 10996 ] final  -32.61 input  -57.11 | X-H torsion

> <Gold.Protein.ActiveResidues>
 VAL166  LYS551  ARG553  GLY616  TRP617  ASP618  TYR619  PRO620  LYS621  CYS622 
 ASP623  PHE694  ASN695  SER759  ASP760  ASP761  ALA762  ILE779  LEU786  VAL792 
 PHE793  MET794  SER795  GLU796  ALA797  LYS798  CYS799  TRP800  GLU811  SER814 

> <Gold.Protein.RotatedAtoms>
  152.1814  133.4710  159.4959 H   0  0  0  0  0  0  0  0  0  0  0  0  # atno 6907 bound_to 6896
  150.6935  134.1828  159.4264 H   0  0  0  0  0  0  0  0  0  0  0  0  # atno 6908 bound_to 6896
  151.9739  135.0062  160.0605 H   0  0  0  0  0  0  0  0  0  0  0  0  # atno 6909 bound_to 6896
  145.4095  140.9544  143.2242 H   0  0  0  0  0  0  0  0  0  0  0  0  # atno 7974 bound_to 7965
  154.4654  140.2012  156.0131 H   0  0  0  0  0  0  0  0  0  0  0  0  # atno 8008 bound_to 7997
  156.0918  140.3257  155.7796 H   0  0  0  0  0  0  0  0  0  0  0  0  # atno 8009 bound_to 7997
  155.4944  140.0549  157.2939 H   0  0  0  0  0  0  0  0  0  0  0  0  # atno 8010 bound_to 7997
  140.4796  143.2405  151.8079 H   0  0  0  0  0  0  0  0  0  0  0  0  # atno 10167 bound_to 10162
  156.3470  130.4302  149.7737 H   0  0  0  0  0  0  0  0  0  0  0  0  # atno 10718 bound_to 10713
  154.1864  135.6434  153.5048 H   0  0  0  0  0  0  0  0  0  0  0  0  # atno 10763 bound_to 10752
  153.0046  135.5418  154.6461 H   0  0  0  0  0  0  0  0  0  0  0  0  # atno 10764 bound_to 10752
  154.5838  135.2927  155.0678 H   0  0  0  0  0  0  0  0  0  0  0  0  # atno 10765 bound_to 10752
  140.9567  133.7189  156.1304 H   0  0  0  0  0  0  0  0  0  0  0  0  # atno 11005 bound_to 11000
  144.8319  139.5614  143.6940 LP  0  0  0  0  0  0  0  0  0  0  0  0  # atno 17320 bound_to 7965
  146.2712  139.6640  142.9295 LP  0  0  0  0  0  0  0  0  0  0  0  0  # atno 17321 bound_to 7965
  139.4831  144.4790  151.9331 LP  0  0  0  0  0  0  0  0  0  0  0  0  # atno 17342 bound_to 10162
  140.3875  144.2658  150.5902 LP  0  0  0  0  0  0  0  0  0  0  0  0  # atno 17343 bound_to 10162
  156.4952  130.8103  151.3110 LP  0  0  0  0  0  0  0  0  0  0  0  0  # atno 17370 bound_to 10713
  157.7455  130.9962  150.2773 LP  0  0  0  0  0  0  0  0  0  0  0  0  # atno 17371 bound_to 10713
  140.7526  134.4028  157.5539 LP  0  0  0  0  0  0  0  0  0  0  0  0  # atno 17394 bound_to 11000
  139.8864  134.8910  156.2585 LP  0  0  0  0  0  0  0  0  0  0  0  0  # atno 17395 bound_to 11000

$$$$
