#       Name:                AV-unprocessed.smi:3349
#       Creating user name   scv26
#       Creation time:       Fri Mar 27 19:36:49 2020


#       File generated by GOLD software.
#

@<TRIPOS>MOLECULE
AV-unprocessed.smi:3349
    47    48     1
SMALL
NO_CHARGES


@<TRIPOS>ATOM
      1 ****        -0.3822   1.4605   0.8797 C.3            1 S1                 0.0000
      2 ****        -0.9057   0.7411  -0.3889 C.3            1 S1                 0.0000
      3 ****        -0.2821  -0.6766  -0.4968 C.3            1 S1                 0.0000
      4 ****         1.1751  -0.6491  -0.4478 N.am           1 S1                 0.0000
      5 ****         1.9505  -1.7095  -0.1762 C.2            1 S1                 0.0000
      6 ****         1.4977  -2.8363   0.0292 O.2            1 S1                 0.0000
      7 ****         3.4630  -1.4434  -0.1218 C.3            1 S1                 0.0000
      8 ****         4.3050  -2.7312  -0.1916 C.3            1 S1                 0.0000
      9 ****         3.7923  -0.6663   1.0654 N.pl3          1 S1                 0.0000
     10 ****         3.6943  -0.9662   2.3638 C.2            1 S1                 0.0000
     11 ****         4.0773   0.0128   3.1712 N.2            1 S1                 0.0000
     12 ****         4.4253   0.9517   2.2420 C.2            1 S1                 0.0000
     13 ****         4.2694   0.5977   0.9663 N.2            1 S1                 0.0000
     14 ****        -2.4072   0.7085  -0.4213 N.4            1 S1                 1.0000
     15 ****        -3.0313   2.0614  -0.3806 C.3            1 S1                 0.0000
     16 ****        -4.5668   1.9768  -0.3945 C.3            1 S1                 0.0000
     17 ****        -4.9949   1.2691  -1.5466 O.3            1 S1                 0.0000
     18 ****        -4.5151  -0.0655  -1.5349 C.3            1 S1                 0.0000
     19 ****        -2.9770  -0.0693  -1.5582 C.3            1 S1                 0.0000
     20 ****         0.7049   1.4347   0.9517 H              1 S1                 0.0000
     21 ****        -0.7788   1.0018   1.7859 H              1 S1                 0.0000
     22 ****        -0.6401   2.5181   0.8943 H              1 S1                 0.0000
     23 ****        -0.5723   1.3123  -1.2570 H              1 S1                 0.0000
     24 ****        -0.6713  -1.3119   0.3010 H              1 S1                 0.0000
     25 ****        -0.5326  -1.1515  -1.4445 H              1 S1                 0.0000
     26 ****         1.6260   0.2409  -0.6058 H              1 S1                 0.0000
     27 ****         3.7132  -0.8428  -0.9987 H              1 S1                 0.0000
     28 ****         4.0748  -3.3065  -1.0891 H              1 S1                 0.0000
     29 ****         4.1324  -3.3763   0.6709 H              1 S1                 0.0000
     30 ****         5.3696  -2.4969  -0.2193 H              1 S1                 0.0000
     31 ****         3.3313  -1.9175   2.7247 H              1 S1                 0.0000
     32 ****         4.8018   1.9268   2.5141 H              1 S1                 0.0000
     33 ****        -2.7474   2.5993   0.5218 H              1 S1                 0.0000
     34 ****        -2.6839   2.6501  -1.2310 H              1 S1                 0.0000
     35 ****        -4.9402   1.4923   0.5093 H              1 S1                 0.0000
     36 ****        -4.9970   2.9782  -0.4177 H              1 S1                 0.0000
     37 ****        -4.8930  -0.5959  -0.6592 H              1 S1                 0.0000
     38 ****        -4.9032  -0.5859  -2.4107 H              1 S1                 0.0000
     39 ****        -2.6156   0.3433  -2.5015 H              1 S1                 0.0000
     40 ****        -2.6650  -1.1112  -1.5160 H              1 S1                 0.0000
     41 ****        -2.7006   0.2326   0.4200 H              1 S1                 0.0000
     42 ****         0.5104  -2.9919  -0.0027 LP             1 S1                 0.0000
     43 ****         2.1173  -3.5956   0.2278 LP             1 S1                 0.0000
     44 ****         4.1038   0.0525   4.1700 LP             1 S1                 0.0000
     45 ****         4.4576   1.1318   0.1420 LP             1 S1                 0.0000
     46 ****        -4.6490   1.7332  -2.3621 LP             1 S1                 0.0000
     47 ****        -5.9946   1.2564  -1.5692 LP             1 S1                 0.0000
@<TRIPOS>BOND
    1    1    2 1     
    2    1   20 1     
    3    1   21 1     
    4    1   22 1     
    5    2    3 1     
    6    2   14 1     
    7    2   23 1     
    8    3    4 1     
    9    3   24 1     
   10    3   25 1     
   11    4    5 am    
   12    4   26 1     
   13    5    6 2     
   14    5    7 1     
   15    7    8 1     
   16    7    9 1     
   17    7   27 1     
   18    8   28 1     
   19    8   29 1     
   20    8   30 1     
   21    9   13 1     
   22    9   10 1     
   23   10   11 2     
   24   10   31 1     
   25   11   12 1     
   26   12   13 2     
   27   12   32 1     
   28   14   19 1     
   29   14   15 1     
   30   14   41 1     
   31   15   16 1     
   32   15   33 1     
   33   15   34 1     
   34   16   17 1     
   35   16   35 1     
   36   16   36 1     
   37   17   18 1     
   38   18   19 1     
   39   18   37 1     
   40   18   38 1     
   41   19   39 1     
   42   19   40 1     
   43    6   42 1     
   44    6   43 1     
   45   11   44 1     
   46   13   45 1     
   47   17   46 1     
   48   17   47 1     
@<TRIPOS>SUBSTRUCTURE
      1 S1             1
@<TRIPOS>SET
LONE_PAIRS      STATIC     ATOMS    <user>   **** ""
6 42 43 44 45 46 47
DONOR_HYDROGENS      STATIC     ATOMS    <user>   **** ""
2 26 41
ATOM$BLUE        STATIC     ATOMS    COLORGROUP SYSTEM
6 42 43 44 45 46 47
ATOM$RED        STATIC     ATOMS    COLORGROUP SYSTEM
2 26 41
