#       Name:                AV-unprocessed.smi:1
#       Creating user name   scv26
#       Creation time:       Thu Mar 26 15:08:31 2020


#       File generated by GOLD software.
#

@<TRIPOS>MOLECULE
AV-unprocessed.smi:1
    66    71     1
SMALL
NO_CHARGES


@<TRIPOS>ATOM
      1 ****        -5.2161   0.6494  -0.9134 O.2            1 S1                 0.0000
      2 ****        -5.2024  -0.5167  -0.5179 C.2            1 S1                 0.0000
      3 ****        -3.9670  -1.2136  -0.2072 N.am           1 S1                 0.0000
      4 ****        -2.6967  -0.7754  -0.3695 C.ar           1 S1                 0.0000
      5 ****        -2.4056   0.4113  -0.9641 N.ar           1 S1                 0.0000
      6 ****        -1.1349   0.7981  -1.1057 C.ar           1 S1                 0.0000
      7 ****        -0.0240   0.1599  -0.7342 N.ar           1 S1                 0.0000
      8 ****        -0.3053  -1.0371  -0.1404 C.ar           1 S1                 0.0000
      9 ****        -1.6075  -1.5689   0.0755 C.ar           1 S1                 0.0000
     10 ****        -1.5140  -2.8047   0.7018 N.2            1 S1                 0.0000
     11 ****        -0.2292  -2.9930   0.8386 C.2            1 S1                 0.0000
     12 ****         0.5726  -1.9843   0.3526 N.pl3          1 S1                 0.0000
     13 ****         2.0696  -1.9397   0.3521 C.3            1 S1                 0.0000
     14 ****         2.4695  -0.6036   0.3558 O.3            1 S1                 0.0000
     15 ****         3.5632  -0.4141  -0.5307 C.3            1 S1                 0.0000
     16 ****         3.6230   1.0375  -1.0209 C.3            1 S1                 0.0000
     17 ****         4.0752   1.8666   0.0366 O.3            1 S1                 0.0000
     18 ****         4.0835   3.2054  -0.1123 C.2            1 S1                 0.0000
     19 ****         3.7241   3.7801  -1.1421 O.2            1 S1                 0.0000
     20 ****         4.5751   3.9206   1.1006 C.ar           1 S1                 0.0000
     21 ****         4.6515   5.3330   1.0894 C.ar           1 S1                 0.0000
     22 ****         5.1125   6.0357   2.2195 C.ar           1 S1                 0.0000
     23 ****         5.5034   5.3346   3.3749 C.ar           1 S1                 0.0000
     24 ****         5.4314   3.9296   3.3992 C.ar           1 S1                 0.0000
     25 ****         4.9702   3.2250   2.2702 C.ar           1 S1                 0.0000
     26 ****         3.3305  -1.4436  -1.6344 C.3            1 S1                 0.0000
     27 ****         2.4240  -0.9796  -2.6197 O.3            1 S1                 0.0000
     28 ****         1.4850  -2.2751  -3.0936 S.o2           1 S1                 0.0000
     29 ****         0.0798  -1.8463  -3.1555 O.2            1 S1                 0.0000
     30 ****         2.1577  -2.9367  -4.2221 O.2            1 S1                 0.0000
     31 ****         1.6989  -3.2267  -1.7363 O.3            1 S1                 0.0000
     32 ****         2.6727  -2.6168  -0.8969 C.3            1 S1                 0.0000
     33 ****        -6.4698  -1.2707  -0.2395 C.ar           1 S1                 0.0000
     34 ****        -7.6407  -0.5724   0.1324 C.ar           1 S1                 0.0000
     35 ****        -8.8382  -1.2706   0.3822 C.ar           1 S1                 0.0000
     36 ****        -8.8771  -2.6718   0.2541 C.ar           1 S1                 0.0000
     37 ****        -7.7187  -3.3742  -0.1282 C.ar           1 S1                 0.0000
     38 ****        -6.5203  -2.6772  -0.3775 C.ar           1 S1                 0.0000
     39 ****        -4.0682  -2.1445   0.1700 H              1 S1                 0.0000
     40 ****        -0.9869   1.7536  -1.5867 H              1 S1                 0.0000
     41 ****         0.1743  -3.8865   1.2922 H              1 S1                 0.0000
     42 ****         2.3588  -2.4298   1.2826 H              1 S1                 0.0000
     43 ****         4.4812  -0.6736  -0.0005 H              1 S1                 0.0000
     44 ****         4.3188   1.1209  -1.8565 H              1 S1                 0.0000
     45 ****         2.6425   1.3607  -1.3738 H              1 S1                 0.0000
     46 ****         4.3579   5.8931   0.2131 H              1 S1                 0.0000
     47 ****         5.1663   7.1142   2.1988 H              1 S1                 0.0000
     48 ****         5.8578   5.8734   4.2413 H              1 S1                 0.0000
     49 ****         5.7305   3.3901   4.2855 H              1 S1                 0.0000
     50 ****         4.9272   2.1469   2.3229 H              1 S1                 0.0000
     51 ****         4.2598  -1.7339  -2.1258 H              1 S1                 0.0000
     52 ****         3.4184  -3.3439  -0.5746 H              1 S1                 0.0000
     53 ****        -7.6271   0.5034   0.2344 H              1 S1                 0.0000
     54 ****        -9.7271  -0.7298   0.6719 H              1 S1                 0.0000
     55 ****        -9.7956  -3.2069   0.4452 H              1 S1                 0.0000
     56 ****        -7.7492  -4.4487  -0.2333 H              1 S1                 0.0000
     57 ****        -5.6452  -3.2350  -0.6784 H              1 S1                 0.0000
     58 ****        -4.3571   1.1480  -1.0301 LP             1 S1                 0.0000
     59 ****        -6.0862   1.0979  -1.1179 LP             1 S1                 0.0000
     60 ****        -3.1449   0.9969  -1.2967 LP             1 S1                 0.0000
     61 ****         0.9007   0.5144  -0.8734 LP             1 S1                 0.0000
     62 ****        -2.2584  -3.4103   0.9830 LP             1 S1                 0.0000
     63 ****         2.7462  -0.3445   1.2812 LP             1 S1                 0.0000
     64 ****         1.7046  -0.0294   0.0636 LP             1 S1                 0.0000
     65 ****         3.4040   3.2480  -1.9260 LP             1 S1                 0.0000
     66 ****         3.7527   4.7784  -1.1936 LP             1 S1                 0.0000
@<TRIPOS>BOND
    1    1    2 2     
    2    2    3 am    
    3    2   33 1     
    4    3    4 1     
    5    3   39 1     
    6    4    9 ar    
    7    4    5 ar    
    8    5    6 ar    
    9    6    7 ar    
   10    6   40 1     
   11    7    8 ar    
   12    8   12 1     
   13    8    9 ar    
   14    9   10 1     
   15   10   11 2     
   16   11   12 1     
   17   11   41 1     
   18   12   13 1     
   19   13   32 1     
   20   13   14 1     
   21   13   42 1     
   22   14   15 1     
   23   15   16 1     
   24   15   26 1     
   25   15   43 1     
   26   16   17 1     
   27   16   44 1     
   28   16   45 1     
   29   17   18 1     
   30   18   19 2     
   31   18   20 1     
   32   20   25 ar    
   33   20   21 ar    
   34   21   22 ar    
   35   21   46 1     
   36   22   23 ar    
   37   22   47 1     
   38   23   24 ar    
   39   23   48 1     
   40   24   25 ar    
   41   24   49 1     
   42   25   50 1     
   43   26   32 1     
   44   26   27 1     
   45   26   51 1     
   46   27   28 1     
   47   28   29 2     
   48   28   30 2     
   49   28   31 1     
   50   31   32 1     
   51   32   52 1     
   52   33   38 ar    
   53   33   34 ar    
   54   34   35 ar    
   55   34   53 1     
   56   35   36 ar    
   57   35   54 1     
   58   36   37 ar    
   59   36   55 1     
   60   37   38 ar    
   61   37   56 1     
   62   38   57 1     
   63    1   58 1     
   64    1   59 1     
   65    5   60 1     
   66    7   61 1     
   67   10   62 1     
   68   14   63 1     
   69   14   64 1     
   70   19   65 1     
   71   19   66 1     
@<TRIPOS>SUBSTRUCTURE
      1 S1             1
@<TRIPOS>SET
LONE_PAIRS      STATIC     ATOMS    <user>   **** ""
11 58 59 60 61 62 63 64 65 66 29 30
DONOR_HYDROGENS      STATIC     ATOMS    <user>   **** ""
1 39
ATOM$BLUE        STATIC     ATOMS    COLORGROUP SYSTEM
11 58 59 60 61 62 63 64 65 66 29 30
ATOM$RED        STATIC     ATOMS    COLORGROUP SYSTEM
1 39
