AV-unprocessed.smi:1734|AV-procd|sdf|6984|dock1
  -GOLD-   22720 8193D 1   1.00000     0.00000
 Structure written by MMmdl.
 51 53  0  0  0  0  0  0  0  0  2 V2000
  146.8434  133.9907  159.2009 C   0  0  0  0  0  0  0  0  0  0  0  0
  147.0470  134.8669  160.4264 C   0  0  0  0  0  0  0  0  0  0  0  0
  147.2339  134.2588  161.6861 C   0  0  0  0  0  0  0  0  0  0  0  0
  147.4256  135.0698  162.8177 C   0  0  0  0  0  0  0  0  0  0  0  0
  147.4221  136.4639  162.6406 C   0  0  0  0  0  0  0  0  0  0  0  0
  147.2444  137.0534  161.4407 N   0  0  0  0  0  0  0  0  0  0  0  0
  147.0592  136.2849  160.3380 C   0  0  0  0  0  0  0  0  0  0  0  0
  146.8597  136.8384  159.0416 N   0  0  0  0  0  0  0  0  0  0  0  0
  147.6679  137.6629  158.3519 C   0  0  0  0  0  0  0  0  0  0  0  0
  148.7714  138.0611  158.7250 O   0  0  0  0  0  0  0  0  0  0  0  0
  147.1246  138.0033  157.1758 N   0  0  0  0  0  0  0  0  0  0  0  0
  147.7652  138.8752  156.1955 C   0  0  0  0  0  0  0  0  0  0  0  0
  148.4982  138.1012  155.0677 C   0  0  2  0  0  0  0  0  0  0  0  0
  149.8377  138.7499  154.6351 C   0  0  2  0  0  0  0  0  0  0  0  0
  151.0738  138.0368  155.1535 C   0  0  0  0  0  0  0  0  0  0  0  0
  152.1494  139.1078  155.0033 C   0  0  0  0  0  0  0  0  0  0  0  0
  151.4822  140.3535  155.1767 O   0  0  0  0  0  0  0  0  0  0  0  0
  150.0728  140.1540  155.1990 C   0  0  0  0  0  0  0  0  0  0  0  0
  147.6386  137.7916  153.8844 N   0  3  0  0  0  0  0  0  0  0  0  0
  146.5248  136.8540  154.1702 C   0  0  0  0  0  0  0  0  0  0  0  0
  145.8377  136.4353  152.8590 C   0  0  0  0  0  0  0  0  0  0  0  0
  145.3859  137.5912  152.1628 O   0  0  0  0  0  0  0  0  0  0  0  0
  146.4565  138.4620  151.8166 C   0  0  0  0  0  0  0  0  0  0  0  0
  147.1539  138.9524  153.0961 C   0  0  0  0  0  0  0  0  0  0  0  0
  146.8392  132.9329  159.4657 H   0  0  0  0  0  0  0  0  0  0  0  0
  147.6452  134.1530  158.4799 H   0  0  0  0  0  0  0  0  0  0  0  0
  145.8918  134.2189  158.7201 H   0  0  0  0  0  0  0  0  0  0  0  0
  147.2318  133.1834  161.7876 H   0  0  0  0  0  0  0  0  0  0  0  0
  147.5713  134.6349  163.7954 H   0  0  0  0  0  0  0  0  0  0  0  0
  147.5649  137.1237  163.4837 H   0  0  0  0  0  0  0  0  0  0  0  0
  145.9960  136.5760  158.5911 H   0  0  0  0  0  0  0  0  0  0  0  0
  146.2132  137.6370  156.9439 H   0  0  0  0  0  0  0  0  0  0  0  0
  146.9915  139.4977  155.7424 H   0  0  0  0  0  0  0  0  0  0  0  0
  148.4387  139.5638  156.7058 H   0  0  0  0  0  0  0  0  0  0  0  0
  148.7633  137.1331  155.4958 H   0  0  0  0  0  0  0  0  0  0  0  0
  149.9048  138.8058  153.5480 H   0  0  0  0  0  0  0  0  0  0  0  0
  150.9534  137.7765  156.2063 H   0  0  0  0  0  0  0  0  0  0  0  0
  151.3091  137.1260  154.6021 H   0  0  0  0  0  0  0  0  0  0  0  0
  152.9614  138.9861  155.7205 H   0  0  0  0  0  0  0  0  0  0  0  0
  152.5761  139.0806  154.0000 H   0  0  0  0  0  0  0  0  0  0  0  0
  149.5568  140.9265  154.6283 H   0  0  0  0  0  0  0  0  0  0  0  0
  149.7348  140.2184  156.2342 H   0  0  0  0  0  0  0  0  0  0  0  0
  146.9003  135.9669  154.6813 H   0  0  0  0  0  0  0  0  0  0  0  0
  145.7976  137.3239  154.8331 H   0  0  0  0  0  0  0  0  0  0  0  0
  146.5186  135.8609  152.2287 H   0  0  0  0  0  0  0  0  0  0  0  0
  144.9824  135.7935  153.0707 H   0  0  0  0  0  0  0  0  0  0  0  0
  147.1610  137.9501  151.1589 H   0  0  0  0  0  0  0  0  0  0  0  0
  146.0566  139.3087  151.2585 H   0  0  0  0  0  0  0  0  0  0  0  0
  146.4475  139.5387  153.6849 H   0  0  0  0  0  0  0  0  0  0  0  0
  147.9815  139.6095  152.8301 H   0  0  0  0  0  0  0  0  0  0  0  0
  148.2470  137.2807  153.2605 H   0  0  0  0  0  0  0  0  0  0  0  0
  1  2  1  0  0  0  0
  1 25  1  0  0  0  0
  1 26  1  0  0  0  0
  1 27  1  0  0  0  0
  2  7  1  0  0  0  0
  2  3  2  0  0  0  0
  3  4  1  0  0  0  0
  3 28  1  0  0  0  0
  4  5  2  0  0  0  0
  4 29  1  0  0  0  0
  5  6  1  0  0  0  0
  5 30  1  0  0  0  0
  6  7  2  0  0  0  0
  7  8  1  0  0  0  0
  8  9  1  0  0  0  0
  8 31  1  0  0  0  0
  9 10  2  0  0  0  0
  9 11  1  0  0  0  0
 11 12  1  0  0  0  0
 11 32  1  0  0  0  0
 12 13  1  0  0  0  0
 12 33  1  0  0  0  0
 12 34  1  0  0  0  0
 13 14  1  0  0  0  0
 13 19  1  0  0  0  0
 13 35  1  0  0  0  0
 14 18  1  0  0  0  0
 14 15  1  0  0  0  0
 14 36  1  0  0  0  0
 15 16  1  0  0  0  0
 15 37  1  0  0  0  0
 15 38  1  0  0  0  0
 16 17  1  0  0  0  0
 16 39  1  0  0  0  0
 16 40  1  0  0  0  0
 17 18  1  0  0  0  0
 18 41  1  0  0  0  0
 18 42  1  0  0  0  0
 19 24  1  0  0  0  0
 19 20  1  0  0  0  0
 19 51  1  0  0  0  0
 20 21  1  0  0  0  0
 20 43  1  0  0  0  0
 20 44  1  0  0  0  0
 21 22  1  0  0  0  0
 21 45  1  0  0  0  0
 21 46  1  0  0  0  0
 22 23  1  0  0  0  0
 23 24  1  0  0  0  0
 23 47  1  0  0  0  0
 23 48  1  0  0  0  0
 24 49  1  0  0  0  0
 24 50  1  0  0  0  0
M  CHG  1  19   1
M  END
> <s_m_source_file>
AV-unprocessed.smi

> <i_m_source_file_index>
1734

> <i_lp_mmshare_version>
43012

> <i_f3d_flags>
0

> <s_epik_input>
W0NIM11jMVtjSF1bY0hdW2NIXW5jMVtOSF1DKD1PKVtOSF1bQ0gyXVtDQEhdKFtDQEBIXTJbQ0gyXVtDSDJdT1tDSDJdMilOM1tDSDJdW0NIMl1PW0NIMl1bQ0gyXTM=

> <s_epik_cmdline>
J2VwaWtfcHl0aG9uJywgJy1waCcsICc3LjAnLCAnLXRuJywgJzgnLCAnLW1hJywgJzIwMCcsICctbWV0YWxfYmluZGluZycsICctaW1hZScsICc8aW5maWxlLm1hZT4nLCAnLW9tYWUnLCAnPG91dGZpbGUubWFlPic=

> <r_epik_Ionization_Penalty>
0.983302

> <r_epik_Ionization_Penalty_Charging>
0.98326

> <r_epik_Ionization_Penalty_Neutral>
4.21967e-05

> <r_epik_State_Penalty>
1.0303

> <r_epik_Charging_Adjusted_Penalty>
2.01356

> <i_epik_Tot_Q>
1

> <i_epik_Tot_abs_Q>
1

> <r_epik_Metal_State_Penalty>
1.03031

> <b_epik_Metal_Only>
0

> <s_lp_Force_Field>
OPLS_2005

> <r_lp_Energy>
50.4673

> <b_lp_Chiralities_Consistent>
1

> <s_lp_Variant>
AV-unprocessed.smi:1734-5

> <Gold.Version>
5.8.1

> <Gold.Id.Protein>
6NUR|6NUR_protein|mol2

> <Gold.PLP.Fitness>
46.7493

> <Gold.PLP.PLP>
-39.3320

> <Gold.PLP.part.hbond>
-4.4140

> <Gold.PLP.part.metal>
0.0000

> <Gold.PLP.part.buried>
-5.3061

> <Gold.PLP.part.nonpolar>
-31.1804

> <Gold.PLP.part.repulsive>
0.5856

> <Gold.PLP.ligand.clash>
0.0000

> <Gold.PLP.ligand.torsion>
2.6381

> <Gold.PLP.Chemscore.Hbond>
3.9872

> <Gold.PLP.Chemscore.CHOScore>
0.0000

> <Gold.PLP.Chemscore.Metal>
0.0000

> <Gold.Chemscore.Hbonds>
donor molecule, donor type, donor heavy atom, donor atom, acceptor molecule, acceptor atom, score
      L1  H    19    51       P1  7948  2.00
      P1  H  6931  6943       L1     6  0.19
      P1  H  6934  6947       L1     6  0.99
      P1  H  7989  7998       L1    17  0.72

> <Gold.PLP.Chemscore.Internal.Correction>
0.7320

> <Gold.Rescore>
     Score         DG    S(hbond)    S(metal)    S(lipo)     H(rot)  DE(clash)    DE(int)     intcor
     16.87     -19.32       2.64        0.00      80.10       1.70       0.00       2.44       ----

> <Gold.Chemscore.Fitness>
16.8717

> <Gold.Chemscore.DG>
-19.3161

> <Gold.Chemscore.ZeroCoef>
-5.4800

> <Gold.Chemscore.Hbond>
2.6387

> <Gold.Chemscore.Metal>
0.0000

> <Gold.Chemscore.Lipo>
80.0983

> <Gold.Chemscore.Internal_Hbond>
0.0000

> <Gold.Chemscore.DEClash>
0.0038

> <Gold.Chemscore.DEInternal>
2.4406

> <Gold.Chemscore.Rot>
1.6986

> <Gold.Chemscore.Internal.Correction>
   9.000000E+99

> <Gold.Chemscore.Hbonds>
donor molecule, donor type, donor heavy atom, donor atom, acceptor molecule, acceptor atom, score
      L1  H    19    51       P1  7948  1.00
      P1  H  6934  6947       L1     6  0.65
      P1  H  7989  7998       L1    17  0.02

> <Gold.Chemscore.Hbond.Weighted>
-8.8131

> <Gold.Chemscore.Metal.Weighted>
-0.0000

> <Gold.Chemscore.Lipo.Weighted>
-9.3715

> <Gold.Chemscore.Internal_Hbond.Weighted>
0.0000

> <Gold.Chemscore.DEClash.Weighted>
0.0038

> <Gold.Chemscore.DEInternal.Weighted>
2.4406

> <Gold.Chemscore.Rot.Weighted>
4.3485

> <Gold.Chemscore.Internal.Correction.Weighted>
   9.000000E+99

> <Gold.Protein.RotatedTorsions>
[ 6907 6896 6895 6894 ] final  -89.52 input  -60.11 | X-H torsion
[ 7974 7965 7964 7962 ] final -160.62 input  175.53 | X-H torsion
[ 8008 7997 7996 7995 ] final -159.64 input   59.86 | X-H torsion
[ 10167 10162 10161 10158 ] final  -21.73 input  -65.29 | X-H torsion
[ 10718 10713 10712 10709 ] final -177.58 input   66.30 | X-H torsion
[ 10763 10752 10751 10750 ] final  -50.40 input  -60.55 | X-H torsion
[ 11005 11000 10999 10996 ] final  137.69 input  -57.11 | X-H torsion

> <Gold.Protein.ActiveResidues>
 VAL166  LYS551  ARG553  GLY616  TRP617  ASP618  TYR619  PRO620  LYS621  CYS622 
 ASP623  PHE694  ASN695  SER759  ASP760  ASP761  ALA762  ILE779  LEU786  VAL792 
 PHE793  MET794  SER795  GLU796  ALA797  LYS798  CYS799  TRP800  GLU811  SER814 

> <Gold.Protein.RotatedAtoms>
  150.6874  134.2574  159.4535 H   0  0  0  0  0  0  0  0  0  0  0  0  # atno 6907 bound_to 6896
  152.0507  134.9653  160.0584 H   0  0  0  0  0  0  0  0  0  0  0  0  # atno 6908 bound_to 6896
  152.1118  133.4270  159.4671 H   0  0  0  0  0  0  0  0  0  0  0  0  # atno 6909 bound_to 6896
  144.7420  140.3516  143.6114 H   0  0  0  0  0  0  0  0  0  0  0  0  # atno 7974 bound_to 7965
  155.7655  140.0845  157.2134 H   0  0  0  0  0  0  0  0  0  0  0  0  # atno 8008 bound_to 7997
  154.4000  140.1535  156.2938 H   0  0  0  0  0  0  0  0  0  0  0  0  # atno 8009 bound_to 7997
  155.8798  140.3421  155.5882 H   0  0  0  0  0  0  0  0  0  0  0  0  # atno 8010 bound_to 7997
  140.7283  143.4600  151.0393 H   0  0  0  0  0  0  0  0  0  0  0  0  # atno 10167 bound_to 10162
  156.8316  130.9655  151.3106 H   0  0  0  0  0  0  0  0  0  0  0  0  # atno 10718 bound_to 10713
  154.1098  135.6551  153.4883 H   0  0  0  0  0  0  0  0  0  0  0  0  # atno 10763 bound_to 10752
  153.0260  135.5245  154.7203 H   0  0  0  0  0  0  0  0  0  0  0  0  # atno 10764 bound_to 10752
  154.6380  135.2984  155.0107 H   0  0  0  0  0  0  0  0  0  0  0  0  # atno 10765 bound_to 10752
  140.0131  134.9430  157.0320 H   0  0  0  0  0  0  0  0  0  0  0  0  # atno 11005 bound_to 11000
  145.7270  139.1725  143.2452 LP  0  0  0  0  0  0  0  0  0  0  0  0  # atno 17320 bound_to 7965
  146.1234  140.7279  142.9446 LP  0  0  0  0  0  0  0  0  0  0  0  0  # atno 17321 bound_to 7965
  139.8284  143.7724  152.3179 LP  0  0  0  0  0  0  0  0  0  0  0  0  # atno 17342 bound_to 10162
  139.7831  144.7437  151.0060 LP  0  0  0  0  0  0  0  0  0  0  0  0  # atno 17343 bound_to 10162
  157.6403  130.8800  149.9437 LP  0  0  0  0  0  0  0  0  0  0  0  0  # atno 17370 bound_to 10713
  156.0931  130.3661  150.0358 LP  0  0  0  0  0  0  0  0  0  0  0  0  # atno 17371 bound_to 10713
  140.4518  134.1574  155.7182 LP  0  0  0  0  0  0  0  0  0  0  0  0  # atno 17394 bound_to 11000
  141.1725  133.8581  157.1527 LP  0  0  0  0  0  0  0  0  0  0  0  0  # atno 17395 bound_to 11000

$$$$
