AV-unprocessed.smi:2839|AV-procd|sdf|10930|dock6
  -GOLD-   2272015373D 1   1.00000     0.00000
 Structure written by MMmdl.
 32 33  0  0  0  0  0  0  0  0  1 V2000
  150.5146  135.8741  154.6743 C   0  0  0  0  0  0  0  0  0  0  0  0
  150.6553  137.3084  154.8899 N   0  0  0  0  0  0  0  0  0  0  0  0
  151.3922  138.1296  154.0678 C   0  0  0  0  0  0  0  0  0  0  0  0
  151.3765  139.3529  154.4739 N   0  0  0  0  0  0  0  0  0  0  0  0
  150.6015  139.2932  155.5893 N   0  0  0  0  0  0  0  0  0  0  0  0
  150.3292  140.5195  156.3412 C   0  0  0  0  0  0  0  0  0  0  0  0
  151.5305  141.0086  157.1617 C   0  0  0  0  0  0  0  0  0  0  0  0
  152.4814  140.2626  157.4006 O   0  0  0  0  0  0  0  0  0  0  0  0
  151.4625  142.2741  157.6015 N   0  0  0  0  0  0  0  0  0  0  0  0
  152.4882  142.9433  158.3973 C   0  0  0  0  0  0  0  0  0  0  0  0
  152.4733  142.4334  159.8515 C   0  0  0  0  0  0  0  0  0  0  0  0
  152.4751  143.6795  160.7389 C   0  0  0  0  0  0  0  0  0  0  0  0
  151.7697  144.7410  159.9012 C   0  0  0  0  0  0  0  0  0  0  0  0
  152.2409  144.4634  158.4737 C   0  0  0  0  0  0  0  0  0  0  0  0
  150.1586  138.0586  155.8671 C   0  0  0  0  0  0  0  0  0  0  0  0
  149.4546  137.7012  156.8113 O   0  0  0  0  0  0  0  0  0  0  0  0
  150.7202  135.5989  153.6387 H   0  0  0  0  0  0  0  0  0  0  0  0
  149.5010  135.5473  154.9101 H   0  0  0  0  0  0  0  0  0  0  0  0
  151.2061  135.3279  155.3165 H   0  0  0  0  0  0  0  0  0  0  0  0
  151.8988  137.7109  153.1965 H   0  0  0  0  0  0  0  0  0  0  0  0
  150.0251  141.3020  155.6439 H   0  0  0  0  0  0  0  0  0  0  0  0
  149.4873  140.3636  157.0173 H   0  0  0  0  0  0  0  0  0  0  0  0
  150.6443  142.8158  157.3639 H   0  0  0  0  0  0  0  0  0  0  0  0
  153.4703  142.7565  157.9585 H   0  0  0  0  0  0  0  0  0  0  0  0
  151.5669  141.8593  160.0498 H   0  0  0  0  0  0  0  0  0  0  0  0
  153.3195  141.7802  160.0669 H   0  0  0  0  0  0  0  0  0  0  0  0
  151.9895  143.5117  161.7006 H   0  0  0  0  0  0  0  0  0  0  0  0
  153.5020  143.9909  160.9341 H   0  0  0  0  0  0  0  0  0  0  0  0
  150.6895  144.6025  159.9653 H   0  0  0  0  0  0  0  0  0  0  0  0
  151.9973  145.7558  160.2287 H   0  0  0  0  0  0  0  0  0  0  0  0
  153.1810  144.9876  158.2979 H   0  0  0  0  0  0  0  0  0  0  0  0
  151.5294  144.8281  157.7313 H   0  0  0  0  0  0  0  0  0  0  0  0
  1  2  1  0  0  0  0
  1 17  1  0  0  0  0
  1 18  1  0  0  0  0
  1 19  1  0  0  0  0
  2 15  1  0  0  0  0
  2  3  1  0  0  0  0
  3  4  2  0  0  0  0
  3 20  1  0  0  0  0
  4  5  1  0  0  0  0
  5  6  1  0  0  0  0
  5 15  1  0  0  0  0
  6  7  1  0  0  0  0
  6 21  1  0  0  0  0
  6 22  1  0  0  0  0
  7  8  2  0  0  0  0
  7  9  1  0  0  0  0
  9 10  1  0  0  0  0
  9 23  1  0  0  0  0
 10 14  1  0  0  0  0
 10 11  1  0  0  0  0
 10 24  1  0  0  0  0
 11 12  1  0  0  0  0
 11 25  1  0  0  0  0
 11 26  1  0  0  0  0
 12 13  1  0  0  0  0
 12 27  1  0  0  0  0
 12 28  1  0  0  0  0
 13 14  1  0  0  0  0
 13 29  1  0  0  0  0
 13 30  1  0  0  0  0
 14 31  1  0  0  0  0
 14 32  1  0  0  0  0
 15 16  2  0  0  0  0
M  END
> <s_m_source_file>
AV-unprocessed.smi

> <i_m_source_file_index>
2839

> <i_lp_mmshare_version>
43012

> <i_f3d_flags>
0

> <s_epik_input>
W0NIM11uMVtjSF1ubihjMT1PKVtDSDJdQyg9TylbTkhdW0NIXTJbQ0gyXVtDSDJdW0NIMl1bQ0gyXTI=

> <s_epik_cmdline>
J2VwaWtfcHl0aG9uJywgJy1waCcsICc3LjAnLCAnLXRuJywgJzgnLCAnLW1hJywgJzIwMCcsICctbWV0YWxfYmluZGluZycsICctaW1hZScsICc8aW5maWxlLm1hZT4nLCAnLW9tYWUnLCAnPG91dGZpbGUubWFlPic=

> <r_lp_tautomer_probability>
1

> <r_epik_Ionization_Penalty>
1.58668e-07

> <r_epik_Ionization_Penalty_Charging>
8.23952e-09

> <r_epik_Ionization_Penalty_Neutral>
1.50429e-07

> <r_epik_State_Penalty>
-0

> <r_epik_Charging_Adjusted_Penalty>
8.23952e-09

> <i_epik_Tot_Q>
0

> <i_epik_Tot_abs_Q>
0

> <r_epik_Metal_State_Penalty>
-0

> <b_epik_Metal_Only>
0

> <s_lp_Force_Field>
OPLS_2005

> <r_lp_Energy>
35.3478

> <b_lp_Chiralities_Consistent>
1

> <s_lp_Variant>
AV-unprocessed.smi:2839-1

> <Gold.Version>
5.8.1

> <Gold.Id.Protein>
6NUR|6NUR_protein|mol2

> <Gold.PLP.Fitness>
40.5569

> <Gold.PLP.PLP>
-32.6173

> <Gold.PLP.part.hbond>
-2.0000

> <Gold.PLP.part.metal>
0.0000

> <Gold.PLP.part.buried>
-2.8997

> <Gold.PLP.part.nonpolar>
-26.5830

> <Gold.PLP.part.repulsive>
0.1580

> <Gold.PLP.ligand.clash>
0.0000

> <Gold.PLP.ligand.torsion>
0.5321

> <Gold.PLP.Chemscore.Hbond>
2.0000

> <Gold.PLP.Chemscore.CHOScore>
1.0000

> <Gold.PLP.Chemscore.Metal>
0.0000

> <Gold.Chemscore.Hbonds>
donor molecule, donor type, donor heavy atom, donor atom, acceptor molecule, acceptor atom, score
      P1  H  7989  7998       L1     4  1.00
      P1  H  7997  8010       L1     8  0.97
      L1  C     3    20       P1  7949  1.00

> <Gold.PLP.Chemscore.Internal.Correction>
0.0039

> <Gold.Rescore>
     Score         DG    S(hbond)    S(metal)    S(lipo)     H(rot)  DE(clash)    DE(int)     intcor
     14.98     -15.55       1.82        0.00      71.75       1.72       0.14       0.43       ----

> <Gold.Chemscore.Fitness>
14.9765

> <Gold.Chemscore.DG>
-15.5495

> <Gold.Chemscore.ZeroCoef>
-5.4800

> <Gold.Chemscore.Hbond>
1.8198

> <Gold.Chemscore.Metal>
0.0000

> <Gold.Chemscore.Lipo>
71.7492

> <Gold.Chemscore.Internal_Hbond>
0.0000

> <Gold.Chemscore.DEClash>
0.1390

> <Gold.Chemscore.DEInternal>
0.4341

> <Gold.Chemscore.Rot>
1.7201

> <Gold.Chemscore.Internal.Correction>
   9.000000E+99

> <Gold.Chemscore.Hbonds>
donor molecule, donor type, donor heavy atom, donor atom, acceptor molecule, acceptor atom, score
      P1  H  7989  7998       L1     4  0.99
      P1  H  7997  8010       L1     8  0.86

> <Gold.Chemscore.Hbond.Weighted>
-6.0782

> <Gold.Chemscore.Metal.Weighted>
-0.0000

> <Gold.Chemscore.Lipo.Weighted>
-8.3947

> <Gold.Chemscore.Internal_Hbond.Weighted>
0.0000

> <Gold.Chemscore.DEClash.Weighted>
0.1390

> <Gold.Chemscore.DEInternal.Weighted>
0.4341

> <Gold.Chemscore.Rot.Weighted>
4.4033

> <Gold.Chemscore.Internal.Correction.Weighted>
   9.000000E+99

> <Gold.Protein.RotatedTorsions>
[ 6907 6896 6895 6894 ] final  174.17 input  -60.11 | X-H torsion
[ 7974 7965 7964 7962 ] final   33.45 input  175.53 | X-H torsion
[ 8008 7997 7996 7995 ] final   55.77 input   59.86 | X-H torsion
[ 10167 10162 10161 10158 ] final  -69.28 input  -65.29 | X-H torsion
[ 10718 10713 10712 10709 ] final -172.85 input   66.30 | X-H torsion
[ 10763 10752 10751 10750 ] final   66.05 input  -60.55 | X-H torsion
[ 11005 11000 10999 10996 ] final   86.31 input  -57.11 | X-H torsion

> <Gold.Protein.ActiveResidues>
 VAL166  LYS551  ARG553  GLY616  TRP617  ASP618  TYR619  PRO620  LYS621  CYS622 
 ASP623  PHE694  ASN695  SER759  ASP760  ASP761  ALA762  ILE779  LEU786  VAL792 
 PHE793  MET794  SER795  GLU796  ALA797  LYS798  CYS799  TRP800  GLU811  SER814 

> <Gold.Protein.RotatedAtoms>
  151.7566  133.3331  159.3406 H   0  0  0  0  0  0  0  0  0  0  0  0  # atno 6907 bound_to 6896
  150.7514  134.6143  159.6112 H   0  0  0  0  0  0  0  0  0  0  0  0  # atno 6908 bound_to 6896
  152.3433  134.7107  160.0309 H   0  0  0  0  0  0  0  0  0  0  0  0  # atno 6909 bound_to 6896
  146.1420  139.6395  142.9157 H   0  0  0  0  0  0  0  0  0  0  0  0  # atno 7974 bound_to 7965
  155.5066  140.3476  155.4381 H   0  0  0  0  0  0  0  0  0  0  0  0  # atno 8008 bound_to 7997
  156.0878  140.1403  156.9659 H   0  0  0  0  0  0  0  0  0  0  0  0  # atno 8009 bound_to 7997
  154.4617  140.0932  156.6886 H   0  0  0  0  0  0  0  0  0  0  0  0  # atno 8010 bound_to 7997
  140.5443  143.2313  151.7032 H   0  0  0  0  0  0  0  0  0  0  0  0  # atno 10167 bound_to 10162
  156.7616  130.9416  151.3118 H   0  0  0  0  0  0  0  0  0  0  0  0  # atno 10718 bound_to 10713
  153.0123  135.5334  154.6764 H   0  0  0  0  0  0  0  0  0  0  0  0  # atno 10763 bound_to 10752
  154.5935  135.2861  155.0613 H   0  0  0  0  0  0  0  0  0  0  0  0  # atno 10764 bound_to 10752
  154.1697  135.6534  153.5059 H   0  0  0  0  0  0  0  0  0  0  0  0  # atno 10765 bound_to 10752
  139.8948  134.8347  156.2703 H   0  0  0  0  0  0  0  0  0  0  0  0  # atno 11005 bound_to 11000
  145.5025  141.0437  143.2532 LP  0  0  0  0  0  0  0  0  0  0  0  0  # atno 17320 bound_to 7965
  144.7803  139.6541  143.7157 LP  0  0  0  0  0  0  0  0  0  0  0  0  # atno 17321 bound_to 7965
  139.5001  144.3920  152.0270 LP  0  0  0  0  0  0  0  0  0  0  0  0  # atno 17342 bound_to 10162
  140.3031  144.3623  150.6054 LP  0  0  0  0  0  0  0  0  0  0  0  0  # atno 17343 bound_to 10162
  157.6732  130.9070  150.0088 LP  0  0  0  0  0  0  0  0  0  0  0  0  # atno 17370 bound_to 10713
  156.1335  130.3643  149.9694 LP  0  0  0  0  0  0  0  0  0  0  0  0  # atno 17371 bound_to 10713
  141.0105  133.7098  156.1104 LP  0  0  0  0  0  0  0  0  0  0  0  0  # atno 17394 bound_to 11000
  140.7374  134.4188  157.5559 LP  0  0  0  0  0  0  0  0  0  0  0  0  # atno 17395 bound_to 11000

$$$$
