AV-unprocessed.smi:1019|AV-procd|sdf|4444|dock7
  -GOLD-   22720 2403D 1   1.00000     0.00000
 Structure written by MMmdl.
 44 46  0  0  0  0  0  0  0  0  2 V2000
  150.9738  141.7589  156.0249 C   0  0  0  0  0  0  0  0  0  0  0  0
  149.5779  142.0936  156.4040 N   0  3  2  0  0  0  0  0  0  0  0  0
  149.3902  142.1827  157.8746 C   0  0  0  0  0  0  0  0  0  0  0  0
  150.6017  142.7735  158.5745 C   0  0  0  0  0  0  0  0  0  0  0  0
  150.8053  144.1697  158.5704 C   0  0  0  0  0  0  0  0  0  0  0  0
  151.9282  144.7230  159.2158 C   0  0  0  0  0  0  0  0  0  0  0  0
  152.8500  143.8831  159.8698 C   0  0  0  0  0  0  0  0  0  0  0  0
  152.6485  142.4892  159.8787 C   0  0  0  0  0  0  0  0  0  0  0  0
  151.5262  141.9347  159.2330 C   0  0  0  0  0  0  0  0  0  0  0  0
  148.5819  141.1954  155.7641 C   0  0  0  0  0  0  0  0  0  0  0  0
  148.2008  141.6510  154.3364 C   0  0  2  0  0  0  0  0  0  0  0  0
  148.2997  143.0589  154.2570 O   0  0  0  0  0  0  0  0  0  0  0  0
  146.7646  141.2631  153.9285 C   0  0  0  0  0  0  0  0  0  0  0  0
  145.7575  141.8646  154.7843 N   0  0  0  0  0  0  0  0  0  0  0  0
  145.4090  141.4733  156.0256 C   0  0  0  0  0  0  0  0  0  0  0  0
  144.4429  142.1572  156.6311 N   0  0  0  0  0  0  0  0  0  0  0  0
  144.1381  143.1143  155.6789 C   0  0  0  0  0  0  0  0  0  0  0  0
  143.1857  144.1581  155.7000 C   0  0  0  0  0  0  0  0  0  0  0  0
  143.0514  145.0253  154.5956 C   0  0  0  0  0  0  0  0  0  0  0  0
  143.8669  144.8643  153.4568 C   0  0  0  0  0  0  0  0  0  0  0  0
  144.8221  143.8307  153.4118 C   0  0  0  0  0  0  0  0  0  0  0  0
  144.9496  142.9644  154.5138 C   0  0  0  0  0  0  0  0  0  0  0  0
  151.2644  140.7874  156.4273 H   0  0  0  0  0  0  0  0  0  0  0  0
  151.6744  142.5043  156.4009 H   0  0  0  0  0  0  0  0  0  0  0  0
  151.1012  141.7253  154.9438 H   0  0  0  0  0  0  0  0  0  0  0  0
  148.5397  142.8258  158.1057 H   0  0  0  0  0  0  0  0  0  0  0  0
  149.1545  141.1981  158.2824 H   0  0  0  0  0  0  0  0  0  0  0  0
  150.1018  144.8198  158.0712 H   0  0  0  0  0  0  0  0  0  0  0  0
  152.0822  145.7922  159.2097 H   0  0  0  0  0  0  0  0  0  0  0  0
  153.7105  144.3079  160.3656 H   0  0  0  0  0  0  0  0  0  0  0  0
  153.3550  141.8455  160.3819 H   0  0  0  0  0  0  0  0  0  0  0  0
  151.3795  140.8644  159.2439 H   0  0  0  0  0  0  0  0  0  0  0  0
  148.9887  140.1833  155.7640 H   0  0  0  0  0  0  0  0  0  0  0  0
  147.6689  141.1484  156.3596 H   0  0  0  0  0  0  0  0  0  0  0  0
  148.8883  141.2296  153.6049 H   0  0  0  0  0  0  0  0  0  0  0  0
  148.2527  143.4214  155.1281 H   0  0  0  0  0  0  0  0  0  0  0  0
  146.5690  141.5672  152.8989 H   0  0  0  0  0  0  0  0  0  0  0  0
  146.6386  140.1801  153.9636 H   0  0  0  0  0  0  0  0  0  0  0  0
  145.8828  140.6308  156.5082 H   0  0  0  0  0  0  0  0  0  0  0  0
  142.5577  144.2935  156.5683 H   0  0  0  0  0  0  0  0  0  0  0  0
  142.3204  145.8201  154.6240 H   0  0  0  0  0  0  0  0  0  0  0  0
  143.7593  145.5365  152.6180 H   0  0  0  0  0  0  0  0  0  0  0  0
  145.4488  143.7080  152.5412 H   0  0  0  0  0  0  0  0  0  0  0  0
  149.3868  143.0192  156.0483 H   0  0  0  0  0  0  0  0  0  0  0  0
  1  2  1  0  0  0  0
  1 23  1  0  0  0  0
  1 24  1  0  0  0  0
  1 25  1  0  0  0  0
  2  3  1  0  0  0  0
  2 10  1  0  0  0  0
  2 44  1  0  0  0  0
  3  4  1  0  0  0  0
  3 26  1  0  0  0  0
  3 27  1  0  0  0  0
  4  9  1  0  0  0  0
  4  5  2  0  0  0  0
  5  6  1  0  0  0  0
  5 28  1  0  0  0  0
  6  7  2  0  0  0  0
  6 29  1  0  0  0  0
  7  8  1  0  0  0  0
  7 30  1  0  0  0  0
  8  9  2  0  0  0  0
  8 31  1  0  0  0  0
  9 32  1  0  0  0  0
 10 11  1  0  0  0  0
 10 33  1  0  0  0  0
 10 34  1  0  0  0  0
 11 12  1  0  0  0  0
 11 13  1  0  0  0  0
 11 35  1  0  0  0  0
 12 36  1  0  0  0  0
 13 14  1  0  0  0  0
 13 37  1  0  0  0  0
 13 38  1  0  0  0  0
 14 22  1  0  0  0  0
 14 15  1  0  0  0  0
 15 16  2  0  0  0  0
 15 39  1  0  0  0  0
 16 17  1  0  0  0  0
 17 22  2  0  0  0  0
 17 18  1  0  0  0  0
 18 19  2  0  0  0  0
 18 40  1  0  0  0  0
 19 20  1  0  0  0  0
 19 41  1  0  0  0  0
 20 21  2  0  0  0  0
 20 42  1  0  0  0  0
 21 22  1  0  0  0  0
 21 43  1  0  0  0  0
M  CHG  1   2   1
M  END
> <s_m_source_file>
AV-unprocessed.smi

> <i_m_source_file_index>
1019

> <i_lp_mmshare_version>
43012

> <i_f3d_flags>
0

> <s_epik_input>
W2NIXTFbY0hdW2NIXVtjSF1bY0hdYzFbQ0gyXU4oW0NIM10pW0NIMl1bQ0BIXShbT0hdKVtDSDJdbihbY0hdbjIpYyhjMjMpW2NIXVtjSF1bY0hdW2NIXTM=

> <s_epik_cmdline>
J2VwaWtfcHl0aG9uJywgJy1waCcsICc3LjAnLCAnLXRuJywgJzgnLCAnLW1hJywgJzIwMCcsICctbWV0YWxfYmluZGluZycsICctaW1hZScsICc8aW5maWxlLm1hZT4nLCAnLW9tYWUnLCAnPG91dGZpbGUubWFlPic=

> <r_epik_Ionization_Penalty>
0.0996557

> <r_epik_Ionization_Penalty_Charging>
0.0475377

> <r_epik_Ionization_Penalty_Neutral>
0.0521179

> <r_epik_State_Penalty>
0.0851777

> <r_epik_Charging_Adjusted_Penalty>
0.132715

> <i_epik_Tot_Q>
1

> <i_epik_Tot_abs_Q>
1

> <r_epik_Metal_State_Penalty>
0.0423478

> <b_epik_Metal_Only>
0

> <s_lp_Force_Field>
OPLS_2005

> <r_lp_Energy>
17.6047

> <b_lp_Chiralities_Consistent>
1

> <s_lp_Variant>
AV-unprocessed.smi:1019-2

> <Gold.Version>
5.8.1

> <Gold.Id.Protein>
6NUR|6NUR_protein|mol2

> <Gold.PLP.Fitness>
59.7176

> <Gold.PLP.PLP>
-53.3891

> <Gold.PLP.part.hbond>
-3.3666

> <Gold.PLP.part.metal>
0.0000

> <Gold.PLP.part.buried>
-3.9650

> <Gold.PLP.part.nonpolar>
-45.4090

> <Gold.PLP.part.repulsive>
0.1259

> <Gold.PLP.ligand.clash>
0.0000

> <Gold.PLP.ligand.torsion>
1.3979

> <Gold.PLP.Chemscore.Hbond>
2.9440

> <Gold.PLP.Chemscore.CHOScore>
0.0000

> <Gold.PLP.Chemscore.Metal>
0.0000

> <Gold.Chemscore.Hbonds>
donor molecule, donor type, donor heavy atom, donor atom, acceptor molecule, acceptor atom, score
      L1  H     2    44       P1  8028  2.00
      L1  H    12    36       P1  8028  0.53
      P1  H  8022  8030       L1    12  0.45

> <Gold.PLP.Chemscore.Internal.Correction>
0.2924

> <Gold.Rescore>
     Score         DG    S(hbond)    S(metal)    S(lipo)     H(rot)  DE(clash)    DE(int)     intcor
     20.01     -21.56       1.70        0.00     140.67       2.36       0.06       1.49       ----

> <Gold.Chemscore.Fitness>
20.0090

> <Gold.Chemscore.DG>
-21.5648

> <Gold.Chemscore.ZeroCoef>
-5.4800

> <Gold.Chemscore.Hbond>
1.6982

> <Gold.Chemscore.Metal>
0.0000

> <Gold.Chemscore.Lipo>
140.6712

> <Gold.Chemscore.Internal_Hbond>
0.0000

> <Gold.Chemscore.DEClash>
0.0613

> <Gold.Chemscore.DEInternal>
1.4945

> <Gold.Chemscore.Rot>
2.3616

> <Gold.Chemscore.Internal.Correction>
   9.000000E+99

> <Gold.Chemscore.Hbonds>
donor molecule, donor type, donor heavy atom, donor atom, acceptor molecule, acceptor atom, score
      L1  H     2    44       P1  8028  1.00
      L1  H    12    36       P1  8028  0.48
      P1  H  8022  8030       L1    12  0.02

> <Gold.Chemscore.Hbond.Weighted>
-5.6720

> <Gold.Chemscore.Metal.Weighted>
-0.0000

> <Gold.Chemscore.Lipo.Weighted>
-16.4585

> <Gold.Chemscore.Internal_Hbond.Weighted>
0.0000

> <Gold.Chemscore.DEClash.Weighted>
0.0613

> <Gold.Chemscore.DEInternal.Weighted>
1.4945

> <Gold.Chemscore.Rot.Weighted>
6.0457

> <Gold.Chemscore.Internal.Correction.Weighted>
   9.000000E+99

> <Gold.Protein.RotatedTorsions>
[ 6907 6896 6895 6894 ] final  -56.47 input  -60.11 | X-H torsion
[ 7974 7965 7964 7962 ] final  143.06 input  175.53 | X-H torsion
[ 8008 7997 7996 7995 ] final   12.87 input   59.86 | X-H torsion
[ 10167 10162 10161 10158 ] final  105.76 input  -65.29 | X-H torsion
[ 10718 10713 10712 10709 ] final -104.34 input   66.30 | X-H torsion
[ 10763 10752 10751 10750 ] final   -1.21 input  -60.55 | X-H torsion
[ 11005 11000 10999 10996 ] final -120.02 input  -57.11 | X-H torsion

> <Gold.Protein.ActiveResidues>
 VAL166  LYS551  ARG553  GLY616  TRP617  ASP618  TYR619  PRO620  LYS621  CYS622 
 ASP623  PHE694  ASN695  SER759  ASP760  ASP761  ALA762  ILE779  LEU786  VAL792 
 PHE793  MET794  SER795  GLU796  ALA797  LYS798  CYS799  TRP800  GLU811  SER814 

> <Gold.Protein.RotatedAtoms>
  150.8165  134.7349  159.6733 H   0  0  0  0  0  0  0  0  0  0  0  0  # atno 6907 bound_to 6896
  152.4283  134.5823  159.9961 H   0  0  0  0  0  0  0  0  0  0  0  0  # atno 6908 bound_to 6896
  151.6019  133.3318  159.3085 H   0  0  0  0  0  0  0  0  0  0  0  0  # atno 6909 bound_to 6896
  144.8954  139.5499  143.5779 H   0  0  0  0  0  0  0  0  0  0  0  0  # atno 7974 bound_to 7965
  154.8266  140.2892  155.5750 H   0  0  0  0  0  0  0  0  0  0  0  0  # atno 8008 bound_to 7997
  156.3002  140.2540  156.3114 H   0  0  0  0  0  0  0  0  0  0  0  0  # atno 8009 bound_to 7997
  154.9278  140.0384  157.2021 H   0  0  0  0  0  0  0  0  0  0  0  0  # atno 8010 bound_to 7997
  139.7066  144.7085  151.1097 H   0  0  0  0  0  0  0  0  0  0  0  0  # atno 10167 bound_to 10162
  156.0300  130.5510  150.7382 H   0  0  0  0  0  0  0  0  0  0  0  0  # atno 10718 bound_to 10713
  153.3419  135.6981  153.6860 H   0  0  0  0  0  0  0  0  0  0  0  0  # atno 10763 bound_to 10752
  153.5621  135.3533  155.2804 H   0  0  0  0  0  0  0  0  0  0  0  0  # atno 10764 bound_to 10752
  154.8638  135.4252  154.2634 H   0  0  0  0  0  0  0  0  0  0  0  0  # atno 10765 bound_to 10752
  141.0174  134.0176  157.3331 H   0  0  0  0  0  0  0  0  0  0  0  0  # atno 11005 bound_to 11000
  146.3078  139.7640  142.9043 LP  0  0  0  0  0  0  0  0  0  0  0  0  # atno 17320 bound_to 7965
  145.3710  141.0342  143.3231 LP  0  0  0  0  0  0  0  0  0  0  0  0  # atno 17321 bound_to 7965
  140.7723  143.5351  150.9378 LP  0  0  0  0  0  0  0  0  0  0  0  0  # atno 17342 bound_to 10162
  139.9034  143.6808  152.3127 LP  0  0  0  0  0  0  0  0  0  0  0  0  # atno 17343 bound_to 10162
  157.4957  131.0914  151.0374 LP  0  0  0  0  0  0  0  0  0  0  0  0  # atno 17370 bound_to 10713
  157.0769  130.5887  149.5413 LP  0  0  0  0  0  0  0  0  0  0  0  0  # atno 17371 bound_to 10713
  139.9125  135.0192  156.7749 LP  0  0  0  0  0  0  0  0  0  0  0  0  # atno 17394 bound_to 11000
  140.6632  133.9626  155.7816 LP  0  0  0  0  0  0  0  0  0  0  0  0  # atno 17395 bound_to 11000

$$$$
