AV-unprocessed.smi:193|AV-procd|sdf|1513|dock3
  -GOLD-   2262019343D 1   1.00000     0.00000
 Structure written by MMmdl.
 61 65  0  0  0  0  0  0  0  0  1 V2000
  152.2623  139.4785  155.3914 C   0  0  0  0  0  0  0  0  0  0  0  0
  151.5165  140.7806  155.7177 C   0  0  1  0  0  0  0  0  0  0  0  0
  150.1113  140.8047  155.0771 C   0  0  0  0  0  0  0  0  0  0  0  0
  149.0458  140.2598  155.9174 N   0  0  0  0  0  0  0  0  0  0  0  0
  148.1535  139.5256  155.2047 C   0  0  0  0  0  0  0  0  0  0  0  0
  147.3710  140.1217  154.2645 N   0  0  0  0  0  0  0  0  0  0  0  0
  146.5164  139.3948  153.5388 C   0  0  0  0  0  0  0  0  0  0  0  0
  146.2899  138.0809  153.5856 N   0  0  0  0  0  0  0  0  0  0  0  0
  147.0693  137.4775  154.5281 C   0  0  0  0  0  0  0  0  0  0  0  0
  148.0211  138.1190  155.3703 C   0  0  0  0  0  0  0  0  0  0  0  0
  148.6274  137.1829  156.1981 N   0  0  0  0  0  0  0  0  0  0  0  0
  148.0688  136.0523  155.8634 C   0  0  0  0  0  0  0  0  0  0  0  0
  147.1150  136.1380  154.8741 N   0  0  0  0  0  0  0  0  0  0  0  0
  146.3409  135.0398  154.3158 C   0  0  0  0  0  0  0  0  0  0  0  0
  147.0394  134.3042  153.1445 C   0  0  0  0  0  0  0  0  0  0  0  0
  147.0820  135.1912  152.0405 O   0  0  0  0  0  0  0  0  0  0  0  0
  148.4873  133.9381  153.5287 C   0  0  0  0  0  0  0  0  0  0  0  0
  149.1673  133.0608  152.4626 C   0  0  0  0  0  0  0  0  0  0  0  0
  148.3860  131.8975  152.2188 O   0  0  0  0  0  0  0  0  0  0  0  0
  147.0995  132.1997  151.6927 C   0  0  0  0  0  0  0  0  0  0  0  0
  146.2914  133.0246  152.7102 C   0  0  0  0  0  0  0  0  0  0  0  0
  148.4845  141.2068  156.8827 C   0  0  0  0  0  0  0  0  0  0  0  0
  149.4049  141.4827  158.0802 C   0  0  0  0  0  0  0  0  0  0  0  0
  150.6719  142.1060  157.6942 N   0  0  0  0  0  0  0  0  0  0  0  0
  151.2443  142.7168  158.8845 C   0  0  2  0  0  0  0  0  0  0  0  0
  151.8074  144.1137  158.7498 C   0  0  0  0  0  0  0  0  0  0  0  0
  152.7420  142.9366  158.9013 C   0  0  1  0  0  0  0  0  0  0  0  0
  153.5353  142.7398  160.1744 C   0  0  0  0  0  0  0  0  0  0  0  0
  151.5961  141.0688  157.2326 C   0  0  0  0  0  0  0  0  0  0  0  0
  151.7967  138.6237  155.8812 H   0  0  0  0  0  0  0  0  0  0  0  0
  153.2983  139.5267  155.7282 H   0  0  0  0  0  0  0  0  0  0  0  0
  152.2750  139.2848  154.3183 H   0  0  0  0  0  0  0  0  0  0  0  0
  152.0720  141.5765  155.2200 H   0  0  0  0  0  0  0  0  0  0  0  0
  149.8546  141.8412  154.8540 H   0  0  0  0  0  0  0  0  0  0  0  0
  150.1457  140.3121  154.1040 H   0  0  0  0  0  0  0  0  0  0  0  0
  145.9333  139.9441  152.8145 H   0  0  0  0  0  0  0  0  0  0  0  0
  148.3340  135.1184  156.3373 H   0  0  0  0  0  0  0  0  0  0  0  0
  146.1064  134.3404  155.1198 H   0  0  0  0  0  0  0  0  0  0  0  0
  145.3853  135.4452  153.9809 H   0  0  0  0  0  0  0  0  0  0  0  0
  147.9712  135.4903  151.9286 H   0  0  0  0  0  0  0  0  0  0  0  0
  149.0764  134.8392  153.7042 H   0  0  0  0  0  0  0  0  0  0  0  0
  148.4825  133.3891  154.4712 H   0  0  0  0  0  0  0  0  0  0  0  0
  149.3182  133.6136  151.5342 H   0  0  0  0  0  0  0  0  0  0  0  0
  150.1539  132.7527  152.8091 H   0  0  0  0  0  0  0  0  0  0  0  0
  147.1970  132.7304  150.7443 H   0  0  0  0  0  0  0  0  0  0  0  0
  146.5813  131.2653  151.4770 H   0  0  0  0  0  0  0  0  0  0  0  0
  146.1012  132.4048  153.5873 H   0  0  0  0  0  0  0  0  0  0  0  0
  145.3156  133.2675  152.2878 H   0  0  0  0  0  0  0  0  0  0  0  0
  148.2391  142.1429  156.3789 H   0  0  0  0  0  0  0  0  0  0  0  0
  147.5459  140.8155  157.2781 H   0  0  0  0  0  0  0  0  0  0  0  0
  148.8664  142.1691  158.7351 H   0  0  0  0  0  0  0  0  0  0  0  0
  149.5655  140.5779  158.6684 H   0  0  0  0  0  0  0  0  0  0  0  0
  150.7946  142.4909  159.8502 H   0  0  0  0  0  0  0  0  0  0  0  0
  151.7576  144.5914  157.7730 H   0  0  0  0  0  0  0  0  0  0  0  0
  151.6897  144.7827  159.5998 H   0  0  0  0  0  0  0  0  0  0  0  0
  153.2826  142.6416  158.0035 H   0  0  0  0  0  0  0  0  0  0  0  0
  152.9600  143.0588  161.0440 H   0  0  0  0  0  0  0  0  0  0  0  0
  154.4566  143.3210  160.1339 H   0  0  0  0  0  0  0  0  0  0  0  0
  153.7923  141.6875  160.2946 H   0  0  0  0  0  0  0  0  0  0  0  0
  151.4574  140.1517  157.8074 H   0  0  0  0  0  0  0  0  0  0  0  0
  152.6220  141.3806  157.4373 H   0  0  0  0  0  0  0  0  0  0  0  0
  1  2  1  0  0  0  0
  1 30  1  0  0  0  0
  1 31  1  0  0  0  0
  1 32  1  0  0  0  0
  2 29  1  0  0  0  0
  2  3  1  0  0  0  0
  2 33  1  0  0  0  0
  3  4  1  0  0  0  0
  3 34  1  0  0  0  0
  3 35  1  0  0  0  0
  4  5  1  0  0  0  0
  4 22  1  0  0  0  0
  5 10  1  0  0  0  0
  5  6  2  0  0  0  0
  6  7  1  0  0  0  0
  7  8  2  0  0  0  0
  7 36  1  0  0  0  0
  8  9  1  0  0  0  0
  9 13  1  0  0  0  0
  9 10  2  0  0  0  0
 10 11  1  0  0  0  0
 11 12  2  0  0  0  0
 12 13  1  0  0  0  0
 12 37  1  0  0  0  0
 13 14  1  0  0  0  0
 14 15  1  0  0  0  0
 14 38  1  0  0  0  0
 14 39  1  0  0  0  0
 15 21  1  0  0  0  0
 15 16  1  0  0  0  0
 15 17  1  0  0  0  0
 16 40  1  0  0  0  0
 17 18  1  0  0  0  0
 17 41  1  0  0  0  0
 17 42  1  0  0  0  0
 18 19  1  0  0  0  0
 18 43  1  0  0  0  0
 18 44  1  0  0  0  0
 19 20  1  0  0  0  0
 20 21  1  0  0  0  0
 20 45  1  0  0  0  0
 20 46  1  0  0  0  0
 21 47  1  0  0  0  0
 21 48  1  0  0  0  0
 22 23  1  0  0  0  0
 22 49  1  0  0  0  0
 22 50  1  0  0  0  0
 23 24  1  0  0  0  0
 23 51  1  0  0  0  0
 23 52  1  0  0  0  0
 24 25  1  0  0  0  0
 24 29  1  0  0  0  0
 25 27  1  0  0  0  0
 25 26  1  0  0  0  0
 25 53  1  0  0  0  0
 26 27  1  0  0  0  0
 26 54  1  0  0  0  0
 26 55  1  0  0  0  0
 27 28  1  0  0  0  0
 27 56  1  0  0  0  0
 28 57  1  0  0  0  0
 28 58  1  0  0  0  0
 28 59  1  0  0  0  0
 29 60  1  0  0  0  0
 29 61  1  0  0  0  0
M  END
> <s_m_source_file>
AV-unprocessed.smi

> <i_m_source_file_index>
193

> <i_lp_mmshare_version>
43012

> <i_f3d_flags>
0

> <s_epik_input>
W0NIM11bQ0BASF0xW0NIMl1bQ0BIXTFOKFtDSDJdMilbQ0gyXVtDSDJdTihbQ0gyXVtDQEhdMltDSDNdKWMobltjSF1uMyljKGMzNCluW2NIXW40W0NIMl1DNShbT0hdKVtDSDJdW0NIMl1PW0NIMl1bQ0gyXTU=

> <s_epik_cmdline>
J2VwaWtfcHl0aG9uJywgJy1waCcsICc3LjAnLCAnLXRuJywgJzgnLCAnLW1hJywgJzIwMCcsICctbWV0YWxfYmluZGluZycsICctaW1hZScsICc8aW5maWxlLm1hZT4nLCAnLW9tYWUnLCAnPG91dGZpbGUubWFlPic=

> <r_lp_tautomer_probability>
1

> <r_epik_Ionization_Penalty>
1.45227

> <r_epik_Ionization_Penalty_Charging>
0

> <r_epik_Ionization_Penalty_Neutral>
1.45227

> <r_epik_State_Penalty>
2.02377

> <r_epik_Charging_Adjusted_Penalty>
2.02377

> <i_epik_Tot_Q>
0

> <i_epik_Tot_abs_Q>
0

> <r_epik_Metal_State_Penalty>
2.01937

> <b_epik_Metal_Only>
0

> <s_lp_Force_Field>
OPLS_2005

> <r_lp_Energy>
55.7491

> <b_lp_Chiralities_Consistent>
1

> <s_lp_Variant>
AV-unprocessed.smi:193-18

> <Gold.Version>
5.8.1

> <Gold.Id.Protein>
6NUR|6NUR_protein|mol2

> <Gold.PLP.Fitness>
41.9100

> <Gold.PLP.PLP>
-37.7959

> <Gold.PLP.part.hbond>
-0.7057

> <Gold.PLP.part.metal>
0.0000

> <Gold.PLP.part.buried>
-4.7031

> <Gold.PLP.part.nonpolar>
-33.2400

> <Gold.PLP.part.repulsive>
1.0098

> <Gold.PLP.ligand.clash>
0.0000

> <Gold.PLP.ligand.torsion>
1.4272

> <Gold.PLP.Chemscore.Hbond>
1.0000

> <Gold.PLP.Chemscore.CHOScore>
0.8428

> <Gold.PLP.Chemscore.Metal>
0.0000

> <Gold.Chemscore.Hbonds>
donor molecule, donor type, donor heavy atom, donor atom, acceptor molecule, acceptor atom, score
      L1  H    16    40       P1  7948  0.15
      L1  C     7    36       P1 10175  1.00

> <Gold.PLP.Chemscore.Internal.Correction>
1.4403

> <Gold.Rescore>
     Score         DG    S(hbond)    S(metal)    S(lipo)     H(rot)  DE(clash)    DE(int)     intcor
     13.86     -15.31       0.99        0.00     103.07       2.17       0.07       1.38       ----

> <Gold.Chemscore.Fitness>
13.8585

> <Gold.Chemscore.DG>
-15.3058

> <Gold.Chemscore.ZeroCoef>
-5.4800

> <Gold.Chemscore.Hbond>
0.9918

> <Gold.Chemscore.Metal>
0.0000

> <Gold.Chemscore.Lipo>
103.0702

> <Gold.Chemscore.Internal_Hbond>
0.0000

> <Gold.Chemscore.DEClash>
0.0699

> <Gold.Chemscore.DEInternal>
1.3774

> <Gold.Chemscore.Rot>
2.1664

> <Gold.Chemscore.Internal.Correction>
   9.000000E+99

> <Gold.Chemscore.Hbonds>
donor molecule, donor type, donor heavy atom, donor atom, acceptor molecule, acceptor atom, score
      L1  H    16    40       P1  7948  0.17

> <Gold.Chemscore.Hbond.Weighted>
-3.3126

> <Gold.Chemscore.Metal.Weighted>
-0.0000

> <Gold.Chemscore.Lipo.Weighted>
-12.0592

> <Gold.Chemscore.Internal_Hbond.Weighted>
0.0000

> <Gold.Chemscore.DEClash.Weighted>
0.0699

> <Gold.Chemscore.DEInternal.Weighted>
1.3774

> <Gold.Chemscore.Rot.Weighted>
5.5459

> <Gold.Chemscore.Internal.Correction.Weighted>
   9.000000E+99

> <Gold.Protein.RotatedTorsions>
[ 6907 6896 6895 6894 ] final  165.55 input  -60.11 | X-H torsion
[ 7974 7965 7964 7962 ] final  104.21 input  175.53 | X-H torsion
[ 8008 7997 7996 7995 ] final  -77.92 input   59.86 | X-H torsion
[ 10167 10162 10161 10158 ] final    6.67 input  -65.29 | X-H torsion
[ 10718 10713 10712 10709 ] final  147.10 input   66.30 | X-H torsion
[ 10763 10752 10751 10750 ] final  160.21 input  -60.55 | X-H torsion
[ 11005 11000 10999 10996 ] final  -24.66 input  -57.11 | X-H torsion

> <Gold.Protein.ActiveResidues>
 VAL166  LYS551  ARG553  GLY616  TRP617  ASP618  TYR619  PRO620  LYS621  CYS622 
 ASP623  PHE694  ASN695  SER759  ASP760  ASP761  ALA762  ILE779  LEU786  VAL792 
 PHE793  MET794  SER795  GLU796  ALA797  LYS798  CYS799  TRP800  GLU811  SER814 

> <Gold.Protein.RotatedAtoms>
  151.8927  133.3520  159.3803 H   0  0  0  0  0  0  0  0  0  0  0  0  # atno 6907 bound_to 6896
  150.7099  134.4908  159.5524 H   0  0  0  0  0  0  0  0  0  0  0  0  # atno 6908 bound_to 6896
  152.2481  134.8161  160.0501 H   0  0  0  0  0  0  0  0  0  0  0  0  # atno 6909 bound_to 6896
  145.3357  139.2475  143.3636 H   0  0  0  0  0  0  0  0  0  0  0  0  # atno 7974 bound_to 7965
  154.5641  140.0702  156.8864 H   0  0  0  0  0  0  0  0  0  0  0  0  # atno 8008 bound_to 7997
  155.2756  140.3368  155.4244 H   0  0  0  0  0  0  0  0  0  0  0  0  # atno 8009 bound_to 7997
  156.2066  140.1742  156.7772 H   0  0  0  0  0  0  0  0  0  0  0  0  # atno 8010 bound_to 7997
  140.6415  143.7764  150.7434 H   0  0  0  0  0  0  0  0  0  0  0  0  # atno 10167 bound_to 10162
  157.3252  131.0911  151.1208 H   0  0  0  0  0  0  0  0  0  0  0  0  # atno 10718 bound_to 10713
  154.2439  135.2774  155.2843 H   0  0  0  0  0  0  0  0  0  0  0  0  # atno 10763 bound_to 10752
  154.5522  135.5672  153.6935 H   0  0  0  0  0  0  0  0  0  0  0  0  # atno 10764 bound_to 10752
  152.9994  135.6277  154.2584 H   0  0  0  0  0  0  0  0  0  0  0  0  # atno 10765 bound_to 10752
  140.8866  133.7617  156.0368 H   0  0  0  0  0  0  0  0  0  0  0  0  # atno 11005 bound_to 11000
  146.3028  140.3944  142.8698 LP  0  0  0  0  0  0  0  0  0  0  0  0  # atno 17320 bound_to 7965
  144.8829  140.7424  143.5975 LP  0  0  0  0  0  0  0  0  0  0  0  0  # atno 17321 bound_to 7965
  140.1396  143.4453  152.2202 LP  0  0  0  0  0  0  0  0  0  0  0  0  # atno 17342 bound_to 10162
  139.5624  144.7414  151.4118 LP  0  0  0  0  0  0  0  0  0  0  0  0  # atno 17343 bound_to 10162
  157.2478  130.6599  149.5918 LP  0  0  0  0  0  0  0  0  0  0  0  0  # atno 17370 bound_to 10713
  155.9690  130.4548  150.5863 LP  0  0  0  0  0  0  0  0  0  0  0  0  # atno 17371 bound_to 10713
  140.8397  134.3081  157.5318 LP  0  0  0  0  0  0  0  0  0  0  0  0  # atno 17394 bound_to 11000
  139.8725  134.9409  156.3783 LP  0  0  0  0  0  0  0  0  0  0  0  0  # atno 17395 bound_to 11000

$$$$
