AV-unprocessed.smi:1359|AV-procd|sdf|5550|dock2
  -GOLD-   22720 5143D 1   1.00000     0.00000
 Structure written by MMmdl.
 34 35  0  0  0  0  0  0  0  0  1 V2000
  152.6369  143.8857  158.7294 C   0  0  0  0  0  0  0  0  0  0  0  0
  151.5538  143.8657  157.6456 C   0  0  0  0  0  0  0  0  0  0  0  0
  151.1717  142.4379  157.2230 C   0  0  0  0  0  0  0  0  0  0  0  0
  150.0621  142.4370  156.2769 N   0  0  0  0  0  0  0  0  0  0  0  0
  149.8591  141.5097  155.3274 C   0  0  0  0  0  0  0  0  0  0  0  0
  150.6112  140.5530  155.1429 O   0  0  0  0  0  0  0  0  0  0  0  0
  148.6210  141.6883  154.4464 C   0  0  0  0  0  0  0  0  0  0  0  0
  147.7563  140.4608  154.4927 C   0  0  0  0  0  0  0  0  0  0  0  0
  147.3845  139.6713  153.4317 C   0  0  0  0  0  0  0  0  0  0  0  0
  146.3729  138.3425  153.9277 S   0  0  0  0  0  0  0  0  0  0  0  0
  146.4836  138.9240  155.5918 C   0  0  0  0  0  0  0  0  0  0  0  0
  145.8615  138.3404  156.7354 N   0  0  0  0  0  0  0  0  0  0  0  0
  145.0216  137.1513  156.6286 C   0  0  0  0  0  0  0  0  0  0  0  0
  144.5942  136.8743  158.0665 C   0  0  0  0  0  0  0  0  0  0  0  0
  145.2423  137.9445  158.7872 N   0  0  0  0  0  0  0  0  0  0  0  0
  145.9562  138.7636  158.0116 C   0  0  0  0  0  0  0  0  0  0  0  0
  146.5813  139.7359  158.4311 O   0  0  0  0  0  0  0  0  0  0  0  0
  147.2338  140.0244  155.7149 N   0  0  0  0  0  0  0  0  0  0  0  0
  152.8857  144.9090  159.0108 H   0  0  0  0  0  0  0  0  0  0  0  0
  153.5514  143.4040  158.3820 H   0  0  0  0  0  0  0  0  0  0  0  0
  152.3035  143.3655  159.6277 H   0  0  0  0  0  0  0  0  0  0  0  0
  150.6730  144.3921  158.0154 H   0  0  0  0  0  0  0  0  0  0  0  0
  151.9036  144.4244  156.7767 H   0  0  0  0  0  0  0  0  0  0  0  0
  152.0231  141.9520  156.7455 H   0  0  0  0  0  0  0  0  0  0  0  0
  150.9192  141.8339  158.0961 H   0  0  0  0  0  0  0  0  0  0  0  0
  149.3921  143.1885  156.3570 H   0  0  0  0  0  0  0  0  0  0  0  0
  148.0721  142.5697  154.7814 H   0  0  0  0  0  0  0  0  0  0  0  0
  148.9333  141.8927  153.4214 H   0  0  0  0  0  0  0  0  0  0  0  0
  147.6485  139.7891  152.3911 H   0  0  0  0  0  0  0  0  0  0  0  0
  144.1602  137.3434  155.9873 H   0  0  0  0  0  0  0  0  0  0  0  0
  145.5865  136.3157  156.2130 H   0  0  0  0  0  0  0  0  0  0  0  0
  143.5121  136.9269  158.1909 H   0  0  0  0  0  0  0  0  0  0  0  0
  144.9471  135.9051  158.4202 H   0  0  0  0  0  0  0  0  0  0  0  0
  145.1548  138.0535  159.7874 H   0  0  0  0  0  0  0  0  0  0  0  0
  1  2  1  0  0  0  0
  1 19  1  0  0  0  0
  1 20  1  0  0  0  0
  1 21  1  0  0  0  0
  2  3  1  0  0  0  0
  2 22  1  0  0  0  0
  2 23  1  0  0  0  0
  3  4  1  0  0  0  0
  3 24  1  0  0  0  0
  3 25  1  0  0  0  0
  4  5  1  0  0  0  0
  4 26  1  0  0  0  0
  5  6  2  0  0  0  0
  5  7  1  0  0  0  0
  7  8  1  0  0  0  0
  7 27  1  0  0  0  0
  7 28  1  0  0  0  0
  8 18  1  0  0  0  0
  8  9  2  0  0  0  0
  9 10  1  0  0  0  0
  9 29  1  0  0  0  0
 10 11  1  0  0  0  0
 11 12  1  0  0  0  0
 11 18  2  0  0  0  0
 12 16  1  0  0  0  0
 12 13  1  0  0  0  0
 13 14  1  0  0  0  0
 13 30  1  0  0  0  0
 13 31  1  0  0  0  0
 14 15  1  0  0  0  0
 14 32  1  0  0  0  0
 14 33  1  0  0  0  0
 15 16  1  0  0  0  0
 15 34  1  0  0  0  0
 16 17  2  0  0  0  0
M  END
> <s_m_source_file>
AV-unprocessed.smi

> <i_m_source_file_index>
1359

> <i_lp_mmshare_version>
43012

> <i_f3d_flags>
0

> <s_epik_input>
W0NIM11bQ0gyXVtDSDJdW05IXUMoPU8pW0NIMl1jMVtjSF1zYyhuMSlOMltDSDJdW0NIMl1bTkhdQzI9Tw==

> <s_epik_cmdline>
J2VwaWtfcHl0aG9uJywgJy1waCcsICc3LjAnLCAnLXRuJywgJzgnLCAnLW1hJywgJzIwMCcsICctbWV0YWxfYmluZGluZycsICctaW1hZScsICc8aW5maWxlLm1hZT4nLCAnLW9tYWUnLCAnPG91dGZpbGUubWFlPic=

> <r_lp_tautomer_probability>
1

> <r_epik_Ionization_Penalty>
0.000119828

> <r_epik_Ionization_Penalty_Charging>
0

> <r_epik_Ionization_Penalty_Neutral>
0.000119828

> <r_epik_State_Penalty>
-0

> <r_epik_Charging_Adjusted_Penalty>
0

> <i_epik_Tot_Q>
0

> <i_epik_Tot_abs_Q>
0

> <r_epik_Metal_State_Penalty>
-0

> <b_epik_Metal_Only>
0

> <s_lp_Force_Field>
OPLS_2005

> <r_lp_Energy>
29.9012

> <b_lp_Chiralities_Consistent>
1

> <s_lp_Variant>
AV-unprocessed.smi:1359-1

> <Gold.Version>
5.8.1

> <Gold.Id.Protein>
6NUR|6NUR_protein|mol2

> <Gold.PLP.Fitness>
33.4392

> <Gold.PLP.PLP>
-24.8545

> <Gold.PLP.part.hbond>
-3.0000

> <Gold.PLP.part.metal>
0.0000

> <Gold.PLP.part.buried>
-2.0801

> <Gold.PLP.part.nonpolar>
-19.7060

> <Gold.PLP.part.repulsive>
0.2466

> <Gold.PLP.ligand.clash>
0.0000

> <Gold.PLP.ligand.torsion>
0.2119

> <Gold.PLP.Chemscore.Hbond>
1.9920

> <Gold.PLP.Chemscore.CHOScore>
1.0000

> <Gold.PLP.Chemscore.Metal>
0.0000

> <Gold.Chemscore.Hbonds>
donor molecule, donor type, donor heavy atom, donor atom, acceptor molecule, acceptor atom, score
      L1  H     4    26       P1  8028  0.88
      P1  H  7989  7998       L1     6  0.98
      L1  C     9    29       P1  7957  1.00

> <Gold.PLP.Chemscore.Internal.Correction>
0.0325

> <Gold.Rescore>
     Score         DG    S(hbond)    S(metal)    S(lipo)     H(rot)  DE(clash)    DE(int)     intcor
     11.83     -13.44       1.66        0.00      60.15       1.81       0.03       1.58       ----

> <Gold.Chemscore.Fitness>
11.8310

> <Gold.Chemscore.DG>
-13.4434

> <Gold.Chemscore.ZeroCoef>
-5.4800

> <Gold.Chemscore.Hbond>
1.6612

> <Gold.Chemscore.Metal>
0.0000

> <Gold.Chemscore.Lipo>
60.1500

> <Gold.Chemscore.Internal_Hbond>
0.0000

> <Gold.Chemscore.DEClash>
0.0277

> <Gold.Chemscore.DEInternal>
1.5847

> <Gold.Chemscore.Rot>
1.8057

> <Gold.Chemscore.Internal.Correction>
   9.000000E+99

> <Gold.Chemscore.Hbonds>
donor molecule, donor type, donor heavy atom, donor atom, acceptor molecule, acceptor atom, score
      L1  H     4    26       P1  8028  0.87
      P1  H  7989  7998       L1     6  0.60

> <Gold.Chemscore.Hbond.Weighted>
-5.5484

> <Gold.Chemscore.Metal.Weighted>
-0.0000

> <Gold.Chemscore.Lipo.Weighted>
-7.0376

> <Gold.Chemscore.Internal_Hbond.Weighted>
0.0000

> <Gold.Chemscore.DEClash.Weighted>
0.0277

> <Gold.Chemscore.DEInternal.Weighted>
1.5847

> <Gold.Chemscore.Rot.Weighted>
4.6226

> <Gold.Chemscore.Internal.Correction.Weighted>
   9.000000E+99

> <Gold.Protein.RotatedTorsions>
[ 6907 6896 6895 6894 ] final  -52.48 input  -60.11 | X-H torsion
[ 7974 7965 7964 7962 ] final   67.13 input  175.53 | X-H torsion
[ 8008 7997 7996 7995 ] final  109.20 input   59.86 | X-H torsion
[ 10167 10162 10161 10158 ] final -172.78 input  -65.29 | X-H torsion
[ 10718 10713 10712 10709 ] final  -22.58 input   66.30 | X-H torsion
[ 10763 10752 10751 10750 ] final  132.43 input  -60.55 | X-H torsion
[ 11005 11000 10999 10996 ] final  -72.96 input  -57.11 | X-H torsion

> <Gold.Protein.ActiveResidues>
 VAL166  LYS551  ARG553  GLY616  TRP617  ASP618  TYR619  PRO620  LYS621  CYS622 
 ASP623  PHE694  ASN695  SER759  ASP760  ASP761  ALA762  ILE779  LEU786  VAL792 
 PHE793  MET794  SER795  GLU796  ALA797  LYS798  CYS799  TRP800  GLU811  SER814 

> <Gold.Protein.RotatedAtoms>
  150.8514  134.7840  159.7011 H   0  0  0  0  0  0  0  0  0  0  0  0  # atno 6907 bound_to 6896
  152.4577  134.5250  159.9804 H   0  0  0  0  0  0  0  0  0  0  0  0  # atno 6908 bound_to 6896
  151.5370  133.3401  159.2964 H   0  0  0  0  0  0  0  0  0  0  0  0  # atno 6909 bound_to 6896
  145.8183  139.3070  143.1058 H   0  0  0  0  0  0  0  0  0  0  0  0  # atno 7974 bound_to 7965
  156.1961  140.3062  155.9430 H   0  0  0  0  0  0  0  0  0  0  0  0  # atno 8008 bound_to 7997
  155.3062  140.0449  157.3049 H   0  0  0  0  0  0  0  0  0  0  0  0  # atno 8009 bound_to 7997
  154.5511  140.2292  155.8492 H   0  0  0  0  0  0  0  0  0  0  0  0  # atno 8010 bound_to 7997
  139.5725  144.1608  152.1404 H   0  0  0  0  0  0  0  0  0  0  0  0  # atno 10167 bound_to 10162
  156.5026  130.4591  149.6692 H   0  0  0  0  0  0  0  0  0  0  0  0  # atno 10718 bound_to 10713
  153.7905  135.3155  155.3378 H   0  0  0  0  0  0  0  0  0  0  0  0  # atno 10763 bound_to 10752
  154.8127  135.4656  154.0563 H   0  0  0  0  0  0  0  0  0  0  0  0  # atno 10764 bound_to 10752
  153.1880  135.6904  153.8477 H   0  0  0  0  0  0  0  0  0  0  0  0  # atno 10765 bound_to 10752
  141.1616  133.6863  156.7139 H   0  0  0  0  0  0  0  0  0  0  0  0  # atno 11005 bound_to 11000
  145.9703  140.8765  143.0166 LP  0  0  0  0  0  0  0  0  0  0  0  0  # atno 17320 bound_to 7965
  144.6750  140.1936  143.7394 LP  0  0  0  0  0  0  0  0  0  0  0  0  # atno 17321 bound_to 7965
  140.1144  144.5428  150.6903 LP  0  0  0  0  0  0  0  0  0  0  0  0  # atno 17342 bound_to 10162
  140.7009  143.2434  151.4867 LP  0  0  0  0  0  0  0  0  0  0  0  0  # atno 17343 bound_to 10162
  156.3317  130.7335  151.2266 LP  0  0  0  0  0  0  0  0  0  0  0  0  # atno 17370 bound_to 10713
  157.7461  131.0428  150.4712 LP  0  0  0  0  0  0  0  0  0  0  0  0  # atno 17371 bound_to 10713
  140.2866  134.8274  157.3980 LP  0  0  0  0  0  0  0  0  0  0  0  0  # atno 17394 bound_to 11000
  140.1384  134.5003  155.8050 LP  0  0  0  0  0  0  0  0  0  0  0  0  # atno 17395 bound_to 11000

$$$$
