AV-unprocessed.smi:362|AV-procd|sdf|2422|dock10
  -GOLD-   2262022363D 1   1.00000     0.00000
 Structure written by MMmdl.
 35 37  0  0  0  0  0  0  0  0  2 V2000
  152.8156  139.9813  157.6721 O   0  0  0  0  0  0  0  0  0  0  0  0
  152.0080  140.8639  157.3792 C   0  0  0  0  0  0  0  0  0  0  0  0
  151.0194  140.6587  156.2242 C   0  0  0  0  0  0  0  0  0  0  0  0
  150.8955  139.2457  155.8326 N   0  0  0  0  0  0  0  0  0  0  0  0
  149.6500  138.6205  156.0193 C   0  0  0  0  0  0  0  0  0  0  0  0
  149.4478  137.3293  155.6948 C   0  0  0  0  0  0  0  0  0  0  0  0
  150.5626  136.5755  155.1346 C   0  0  0  0  0  0  0  0  0  0  0  0
  150.3941  135.3973  154.8261 O   0  0  0  0  0  0  0  0  0  0  0  0
  151.7533  137.2250  154.9781 N   0  5  0  0  0  0  0  0  0  0  0  0
  151.9453  138.5379  155.3159 C   0  0  0  0  0  0  0  0  0  0  0  0
  153.0294  139.1044  155.1693 O   0  0  0  0  0  0  0  0  0  0  0  0
  151.9119  142.0307  158.0371 N   0  0  0  0  0  0  0  0  0  0  0  0
  152.7516  142.4820  159.1444 C   0  0  0  0  0  0  0  0  0  0  0  0
  152.7783  141.5169  160.3205 C   0  0  0  0  0  0  0  0  0  0  0  0
  153.7700  141.6794  161.4474 C   0  0  0  0  0  0  0  0  0  0  0  0
  153.8995  140.5200  160.4845 C   0  0  0  0  0  0  0  0  0  0  0  0
  152.4517  143.8992  159.6103 C   0  0  0  0  0  0  0  0  0  0  0  0
  151.0480  144.4537  159.5760 C   0  0  0  0  0  0  0  0  0  0  0  0
  152.0963  144.9880  158.6258 C   0  0  0  0  0  0  0  0  0  0  0  0
  150.0518  141.0578  156.5309 H   0  0  0  0  0  0  0  0  0  0  0  0
  151.3178  141.2604  155.3632 H   0  0  0  0  0  0  0  0  0  0  0  0
  148.8799  139.2467  156.4452 H   0  0  0  0  0  0  0  0  0  0  0  0
  148.4860  136.8622  155.8483 H   0  0  0  0  0  0  0  0  0  0  0  0
  151.2109  142.6827  157.7163 H   0  0  0  0  0  0  0  0  0  0  0  0
  153.7602  142.4958  158.7291 H   0  0  0  0  0  0  0  0  0  0  0  0
  151.7925  141.1636  160.6174 H   0  0  0  0  0  0  0  0  0  0  0  0
  154.5060  142.4770  161.3696 H   0  0  0  0  0  0  0  0  0  0  0  0
  153.4231  141.4611  162.4552 H   0  0  0  0  0  0  0  0  0  0  0  0
  153.6366  139.5285  160.8470 H   0  0  0  0  0  0  0  0  0  0  0  0
  154.7144  140.5520  159.7641 H   0  0  0  0  0  0  0  0  0  0  0  0
  153.0634  144.2208  160.4511 H   0  0  0  0  0  0  0  0  0  0  0  0
  150.2642  143.8256  159.1571 H   0  0  0  0  0  0  0  0  0  0  0  0
  150.7419  145.0934  160.4013 H   0  0  0  0  0  0  0  0  0  0  0  0
  152.4895  145.9843  158.8171 H   0  0  0  0  0  0  0  0  0  0  0  0
  152.0031  144.7171  157.5762 H   0  0  0  0  0  0  0  0  0  0  0  0
  1  2  2  0  0  0  0
  2  3  1  0  0  0  0
  2 12  1  0  0  0  0
  3  4  1  0  0  0  0
  3 20  1  0  0  0  0
  3 21  1  0  0  0  0
  4 10  1  0  0  0  0
  4  5  1  0  0  0  0
  5  6  2  0  0  0  0
  5 22  1  0  0  0  0
  6  7  1  0  0  0  0
  6 23  1  0  0  0  0
  7  8  2  0  0  0  0
  7  9  1  0  0  0  0
  9 10  1  0  0  0  0
 10 11  2  0  0  0  0
 12 13  1  0  0  0  0
 12 24  1  0  0  0  0
 13 14  1  0  0  0  0
 13 17  1  0  0  0  0
 13 25  1  0  0  0  0
 14 16  1  0  0  0  0
 14 15  1  0  0  0  0
 14 26  1  0  0  0  0
 15 16  1  0  0  0  0
 15 27  1  0  0  0  0
 15 28  1  0  0  0  0
 16 29  1  0  0  0  0
 16 30  1  0  0  0  0
 17 19  1  0  0  0  0
 17 18  1  0  0  0  0
 17 31  1  0  0  0  0
 18 19  1  0  0  0  0
 18 32  1  0  0  0  0
 18 33  1  0  0  0  0
 19 34  1  0  0  0  0
 19 35  1  0  0  0  0
M  CHG  1   9  -1
M  END
> <s_m_source_file>
AV-unprocessed.smi

> <i_m_source_file_index>
362

> <i_lp_mmshare_version>
43012

> <i_f3d_flags>
0

> <s_epik_input>
W0NIMl0xW0NIMl1bQ0hdMVtDSF0oW0NIXTJbQ0gyXVtDSDJdMilbTkhdQyg9TylbQ0gyXW4zW2NIXVtjSF1jKD1PKVtuSF1jMz1P

> <s_epik_cmdline>
J2VwaWtfcHl0aG9uJywgJy1waCcsICc3LjAnLCAnLXRuJywgJzgnLCAnLW1hJywgJzIwMCcsICctbWV0YWxfYmluZGluZycsICctaW1hZScsICc8aW5maWxlLm1hZT4nLCAnLW9tYWUnLCAnPG91dGZpbGUubWFlPic=

> <r_lp_tautomer_probability>
0.999537

> <r_epik_Ionization_Penalty>
3.10326

> <r_epik_Ionization_Penalty_Charging>
2.95532e-08

> <r_epik_Ionization_Penalty_Neutral>
3.10326

> <r_epik_State_Penalty>
3.10233

> <r_epik_Charging_Adjusted_Penalty>
3.10233

> <i_epik_Tot_Q>
-1

> <i_epik_Tot_abs_Q>
1

> <r_epik_Metal_State_Penalty>
0.461987

> <b_epik_Metal_Only>
1

> <s_lp_Force_Field>
OPLS_2005

> <r_lp_Energy>
32.875

> <b_lp_Chiralities_Consistent>
1

> <s_lp_Variant>
AV-unprocessed.smi:362-2

> <Gold.Version>
5.8.1

> <Gold.Id.Protein>
6NUR|6NUR_protein|mol2

> <Gold.PLP.Fitness>
48.4965

> <Gold.PLP.PLP>
-40.1825

> <Gold.PLP.part.hbond>
-3.0000

> <Gold.PLP.part.metal>
0.0000

> <Gold.PLP.part.buried>
-5.4126

> <Gold.PLP.part.nonpolar>
-32.4075

> <Gold.PLP.part.repulsive>
0.3316

> <Gold.PLP.ligand.clash>
0.0000

> <Gold.PLP.ligand.torsion>
1.4319

> <Gold.PLP.Chemscore.Hbond>
3.0000

> <Gold.PLP.Chemscore.CHOScore>
0.0000

> <Gold.PLP.Chemscore.Metal>
0.0000

> <Gold.Chemscore.Hbonds>
donor molecule, donor type, donor heavy atom, donor atom, acceptor molecule, acceptor atom, score
      P1  H  7997  8009       L1     1  1.00
      P1  H 10752 10763       L1     9  1.82

> <Gold.PLP.Chemscore.Internal.Correction>
2.1779

> <Gold.Rescore>
     Score         DG    S(hbond)    S(metal)    S(lipo)     H(rot)  DE(clash)    DE(int)     intcor
     11.68     -16.62       1.85        0.00      88.11       2.09       0.01       4.93       ----

> <Gold.Chemscore.Fitness>
11.6827

> <Gold.Chemscore.DG>
-16.6247

> <Gold.Chemscore.ZeroCoef>
-5.4800

> <Gold.Chemscore.Hbond>
1.8544

> <Gold.Chemscore.Metal>
0.0000

> <Gold.Chemscore.Lipo>
88.1113

> <Gold.Chemscore.Internal_Hbond>
0.0000

> <Gold.Chemscore.DEClash>
0.0130

> <Gold.Chemscore.DEInternal>
4.9289

> <Gold.Chemscore.Rot>
2.0929

> <Gold.Chemscore.Internal.Correction>
   9.000000E+99

> <Gold.Chemscore.Hbonds>
donor molecule, donor type, donor heavy atom, donor atom, acceptor molecule, acceptor atom, score
      P1  H  7997  8009       L1     1  0.89
      P1  H 10752 10763       L1     9  0.19

> <Gold.Chemscore.Hbond.Weighted>
-6.1936

> <Gold.Chemscore.Metal.Weighted>
-0.0000

> <Gold.Chemscore.Lipo.Weighted>
-10.3090

> <Gold.Chemscore.Internal_Hbond.Weighted>
0.0000

> <Gold.Chemscore.DEClash.Weighted>
0.0130

> <Gold.Chemscore.DEInternal.Weighted>
4.9289

> <Gold.Chemscore.Rot.Weighted>
5.3579

> <Gold.Chemscore.Internal.Correction.Weighted>
   9.000000E+99

> <Gold.Protein.RotatedTorsions>
[ 6907 6896 6895 6894 ] final   80.42 input  -60.11 | X-H torsion
[ 7974 7965 7964 7962 ] final   97.69 input  175.53 | X-H torsion
[ 8008 7997 7996 7995 ] final  172.32 input   59.86 | X-H torsion
[ 10167 10162 10161 10158 ] final  -56.58 input  -65.29 | X-H torsion
[ 10718 10713 10712 10709 ] final   72.77 input   66.30 | X-H torsion
[ 10763 10752 10751 10750 ] final   55.44 input  -60.55 | X-H torsion
[ 11005 11000 10999 10996 ] final  101.49 input  -57.11 | X-H torsion

> <Gold.Protein.ActiveResidues>
 VAL166  LYS551  ARG553  GLY616  TRP617  ASP618  TYR619  PRO620  LYS621  CYS622 
 ASP623  PHE694  ASN695  SER759  ASP760  ASP761  ALA762  ILE779  LEU786  VAL792 
 PHE793  MET794  SER795  GLU796  ALA797  LYS798  CYS799  TRP800  GLU811  SER814 

> <Gold.Protein.RotatedAtoms>
  152.5234  134.3361  159.9200 H   0  0  0  0  0  0  0  0  0  0  0  0  # atno 6907 bound_to 6896
  151.3310  133.3994  159.2670 H   0  0  0  0  0  0  0  0  0  0  0  0  # atno 6908 bound_to 6896
  150.9880  134.9239  159.7941 H   0  0  0  0  0  0  0  0  0  0  0  0  # atno 6909 bound_to 6896
  145.4222  139.2320  143.3190 H   0  0  0  0  0  0  0  0  0  0  0  0  # atno 7974 bound_to 7965
  156.1185  140.1489  156.9238 H   0  0  0  0  0  0  0  0  0  0  0  0  # atno 8008 bound_to 7997
  154.4818  140.0877  156.7437 H   0  0  0  0  0  0  0  0  0  0  0  0  # atno 8009 bound_to 7997
  155.4470  140.3433  155.4298 H   0  0  0  0  0  0  0  0  0  0  0  0  # atno 8010 bound_to 7997
  140.6309  143.2459  151.5244 H   0  0  0  0  0  0  0  0  0  0  0  0  # atno 10167 bound_to 10162
  157.6517  130.9595  150.0976 H   0  0  0  0  0  0  0  0  0  0  0  0  # atno 10718 bound_to 10713
  152.9817  135.5710  154.5067 H   0  0  0  0  0  0  0  0  0  0  0  0  # atno 10763 bound_to 10752
  154.4577  135.2780  155.1737 H   0  0  0  0  0  0  0  0  0  0  0  0  # atno 10764 bound_to 10752
  154.3338  135.6244  153.5617 H   0  0  0  0  0  0  0  0  0  0  0  0  # atno 10765 bound_to 10752
  139.8773  134.9185  156.4915 H   0  0  0  0  0  0  0  0  0  0  0  0  # atno 11005 bound_to 11000
  146.2651  140.4947  142.8837 LP  0  0  0  0  0  0  0  0  0  0  0  0  # atno 17320 bound_to 7965
  144.8238  140.6594  143.6335 LP  0  0  0  0  0  0  0  0  0  0  0  0  # atno 17321 bound_to 7965
  139.5523  144.2364  152.1552 LP  0  0  0  0  0  0  0  0  0  0  0  0  # atno 17342 bound_to 10162
  140.1607  144.5028  150.6634 LP  0  0  0  0  0  0  0  0  0  0  0  0  # atno 17343 bound_to 10162
  156.1907  130.3654  149.8913 LP  0  0  0  0  0  0  0  0  0  0  0  0  # atno 17370 bound_to 10713
  156.6842  130.8870  151.3580 LP  0  0  0  0  0  0  0  0  0  0  0  0  # atno 17371 bound_to 10713
  140.8655  133.8027  155.9309 LP  0  0  0  0  0  0  0  0  0  0  0  0  # atno 17394 bound_to 11000
  140.9006  134.2383  157.5044 LP  0  0  0  0  0  0  0  0  0  0  0  0  # atno 17395 bound_to 11000

$$$$
