AV-unprocessed.smi:1880|AV-procd|sdf|7635|dock10
  -GOLD-   22720 9363D 1   1.00000     0.00000
 Structure written by MMmdl.
 36 38  0  0  0  0  0  0  0  0  1 V2000
  150.1074  139.6788  153.7751 O   0  0  0  0  0  0  0  0  0  0  0  0
  149.2669  140.4239  154.6346 C   0  0  2  0  0  0  0  0  0  0  0  0
  148.1013  140.9836  153.8052 C   0  0  0  0  0  0  0  0  0  0  0  0
  147.3459  141.8631  154.6208 O   0  0  0  0  0  0  0  0  0  0  0  0
  146.4990  142.7176  153.8726 C   0  0  0  0  0  0  0  0  0  0  0  0
  145.5120  143.2815  154.8365 C   0  0  0  0  0  0  0  0  0  0  0  0
  144.4397  144.1197  154.7027 C   0  0  0  0  0  0  0  0  0  0  0  0
  143.8891  144.2765  156.0047 C   0  0  0  0  0  0  0  0  0  0  0  0
  144.6683  143.5232  156.8362 C   0  0  0  0  0  0  0  0  0  0  0  0
  145.6633  142.9098  156.1392 O   0  0  0  0  0  0  0  0  0  0  0  0
  150.0937  141.5408  155.3005 C   0  0  0  0  0  0  0  0  0  0  0  0
  150.7829  141.0810  156.4934 N   0  0  0  0  0  0  0  0  0  0  0  0
  151.1118  139.8109  156.7971 C   0  0  0  0  0  0  0  0  0  0  0  0
  151.7511  139.6043  157.9448 N   0  0  0  0  0  0  0  0  0  0  0  0
  151.8507  140.8914  158.4445 C   0  0  0  0  0  0  0  0  0  0  0  0
  152.4316  141.3673  159.6415 C   0  0  0  0  0  0  0  0  0  0  0  0
  152.4163  142.7445  159.9453 C   0  0  0  0  0  0  0  0  0  0  0  0
  152.9787  143.1837  161.0962 F   0  0  0  0  0  0  0  0  0  0  0  0
  151.8200  143.6654  159.0583 C   0  0  0  0  0  0  0  0  0  0  0  0
  151.8102  144.9859  159.3578 F   0  0  0  0  0  0  0  0  0  0  0  0
  151.2347  143.2146  157.8595 C   0  0  0  0  0  0  0  0  0  0  0  0
  151.2525  141.8396  157.5605 C   0  0  0  0  0  0  0  0  0  0  0  0
  149.7276  139.6839  152.9093 H   0  0  0  0  0  0  0  0  0  0  0  0
  148.8772  139.7623  155.4097 H   0  0  0  0  0  0  0  0  0  0  0  0
  148.4896  141.5518  152.9583 H   0  0  0  0  0  0  0  0  0  0  0  0
  147.4822  140.1806  153.4005 H   0  0  0  0  0  0  0  0  0  0  0  0
  147.0723  143.5180  153.4024 H   0  0  0  0  0  0  0  0  0  0  0  0
  145.9868  142.1602  153.0869 H   0  0  0  0  0  0  0  0  0  0  0  0
  144.0929  144.5618  153.7805 H   0  0  0  0  0  0  0  0  0  0  0  0
  143.0316  144.8650  156.2957 H   0  0  0  0  0  0  0  0  0  0  0  0
  144.6560  143.3207  157.8971 H   0  0  0  0  0  0  0  0  0  0  0  0
  150.8287  141.9444  154.6028 H   0  0  0  0  0  0  0  0  0  0  0  0
  149.4453  142.3709  155.5833 H   0  0  0  0  0  0  0  0  0  0  0  0
  150.8703  138.9914  156.1358 H   0  0  0  0  0  0  0  0  0  0  0  0
  152.8915  140.6718  160.3277 H   0  0  0  0  0  0  0  0  0  0  0  0
  150.7816  143.9174  157.1763 H   0  0  0  0  0  0  0  0  0  0  0  0
  1  2  1  0  0  0  0
  1 23  1  0  0  0  0
  2  3  1  0  0  0  0
  2 11  1  0  0  0  0
  2 24  1  0  0  0  0
  3  4  1  0  0  0  0
  3 25  1  0  0  0  0
  3 26  1  0  0  0  0
  4  5  1  0  0  0  0
  5  6  1  0  0  0  0
  5 27  1  0  0  0  0
  5 28  1  0  0  0  0
  6 10  1  0  0  0  0
  6  7  2  0  0  0  0
  7  8  1  0  0  0  0
  7 29  1  0  0  0  0
  8  9  2  0  0  0  0
  8 30  1  0  0  0  0
  9 10  1  0  0  0  0
  9 31  1  0  0  0  0
 11 12  1  0  0  0  0
 11 32  1  0  0  0  0
 11 33  1  0  0  0  0
 12 22  1  0  0  0  0
 12 13  1  0  0  0  0
 13 14  2  0  0  0  0
 13 34  1  0  0  0  0
 14 15  1  0  0  0  0
 15 22  2  0  0  0  0
 15 16  1  0  0  0  0
 16 17  2  0  0  0  0
 16 35  1  0  0  0  0
 17 18  1  0  0  0  0
 17 19  1  0  0  0  0
 19 20  1  0  0  0  0
 19 21  2  0  0  0  0
 21 22  1  0  0  0  0
 21 36  1  0  0  0  0
M  END
> <s_m_source_file>
AV-unprocessed.smi

> <i_m_source_file_index>
1880

> <i_lp_mmshare_version>
43012

> <i_f3d_flags>
0

> <s_epik_input>
W2NIXTFjKEYpYyhGKVtjSF1jKGMxMiluKFtjSF1uMilbQ0gyXVtDQEhdKFtPSF0pW0NIMl1PW0NIMl1jM1tjSF1bY0hdW2NIXW8z

> <s_epik_cmdline>
J2VwaWtfcHl0aG9uJywgJy1waCcsICc3LjAnLCAnLXRuJywgJzgnLCAnLW1hJywgJzIwMCcsICctbWV0YWxfYmluZGluZycsICctaW1hZScsICc8aW5maWxlLm1hZT4nLCAnLW9tYWUnLCAnPG91dGZpbGUubWFlPic=

> <r_epik_Ionization_Penalty>
0.0152348

> <r_epik_Ionization_Penalty_Charging>
0

> <r_epik_Ionization_Penalty_Neutral>
0.0152348

> <r_epik_State_Penalty>
0.0119607

> <r_epik_Charging_Adjusted_Penalty>
0.0119607

> <i_epik_Tot_Q>
0

> <i_epik_Tot_abs_Q>
0

> <r_epik_Metal_State_Penalty>
1.20821e-05

> <b_epik_Metal_Only>
0

> <s_lp_Force_Field>
OPLS_2005

> <r_lp_Energy>
7.92035

> <b_lp_Chiralities_Consistent>
1

> <s_lp_Variant>
AV-unprocessed.smi:1880-1

> <Gold.Version>
5.8.1

> <Gold.Id.Protein>
6NUR|6NUR_protein|mol2

> <Gold.PLP.Fitness>
53.4974

> <Gold.PLP.PLP>
-49.4125

> <Gold.PLP.part.hbond>
-2.0000

> <Gold.PLP.part.metal>
0.0000

> <Gold.PLP.part.buried>
-6.1869

> <Gold.PLP.part.nonpolar>
-40.5208

> <Gold.PLP.part.repulsive>
0.2777

> <Gold.PLP.ligand.clash>
0.1413

> <Gold.PLP.ligand.torsion>
0.7634

> <Gold.PLP.Chemscore.Hbond>
1.8960

> <Gold.PLP.Chemscore.CHOScore>
0.0000

> <Gold.PLP.Chemscore.Metal>
0.0000

> <Gold.Chemscore.Hbonds>
donor molecule, donor type, donor heavy atom, donor atom, acceptor molecule, acceptor atom, score
      L1  H     1    23       P1  7957  1.00
      P1  H  7989  7998       L1     1  0.87

> <Gold.PLP.Chemscore.Internal.Correction>
0.0650

> <Gold.Rescore>
     Score         DG    S(hbond)    S(metal)    S(lipo)     H(rot)  DE(clash)    DE(int)     intcor
     13.54     -14.31       1.31        0.00     100.40       2.85       0.08       0.69       ----

> <Gold.Chemscore.Fitness>
13.5385

> <Gold.Chemscore.DG>
-14.3143

> <Gold.Chemscore.ZeroCoef>
-5.4800

> <Gold.Chemscore.Hbond>
1.3138

> <Gold.Chemscore.Metal>
0.0000

> <Gold.Chemscore.Lipo>
100.3995

> <Gold.Chemscore.Internal_Hbond>
0.0000

> <Gold.Chemscore.DEClash>
0.0809

> <Gold.Chemscore.DEInternal>
0.6949

> <Gold.Chemscore.Rot>
2.8518

> <Gold.Chemscore.Internal.Correction>
   9.000000E+99

> <Gold.Chemscore.Hbonds>
donor molecule, donor type, donor heavy atom, donor atom, acceptor molecule, acceptor atom, score
      L1  H     1    23       P1  7957  0.99
      P1  H  7989  7998       L1     1  0.08

> <Gold.Chemscore.Hbond.Weighted>
-4.3880

> <Gold.Chemscore.Metal.Weighted>
-0.0000

> <Gold.Chemscore.Lipo.Weighted>
-11.7467

> <Gold.Chemscore.Internal_Hbond.Weighted>
0.0000

> <Gold.Chemscore.DEClash.Weighted>
0.0809

> <Gold.Chemscore.DEInternal.Weighted>
0.6949

> <Gold.Chemscore.Rot.Weighted>
7.3005

> <Gold.Chemscore.Internal.Correction.Weighted>
   9.000000E+99

> <Gold.Protein.RotatedTorsions>
[ 6907 6896 6895 6894 ] final   63.98 input  -60.11 | X-H torsion
[ 7974 7965 7964 7962 ] final  150.41 input  175.53 | X-H torsion
[ 8008 7997 7996 7995 ] final  -15.96 input   59.86 | X-H torsion
[ 10167 10162 10161 10158 ] final -105.68 input  -65.29 | X-H torsion
[ 10718 10713 10712 10709 ] final   91.94 input   66.30 | X-H torsion
[ 10763 10752 10751 10750 ] final -144.09 input  -60.55 | X-H torsion
[ 11005 11000 10999 10996 ] final  122.51 input  -57.11 | X-H torsion

> <Gold.Protein.ActiveResidues>
 VAL166  LYS551  ARG553  GLY616  TRP617  ASP618  TYR619  PRO620  LYS621  CYS622 
 ASP623  PHE694  ASN695  SER759  ASP760  ASP761  ALA762  ILE779  LEU786  VAL792 
 PHE793  MET794  SER795  GLU796  ALA797  LYS798  CYS799  TRP800  GLU811  SER814 

> <Gold.Protein.RotatedAtoms>
  152.4295  134.5804  159.9945 H   0  0  0  0  0  0  0  0  0  0  0  0  # atno 6907 bound_to 6896
  151.5931  133.3358  159.3040 H   0  0  0  0  0  0  0  0  0  0  0  0  # atno 6908 bound_to 6896
  150.8187  134.7419  159.6818 H   0  0  0  0  0  0  0  0  0  0  0  0  # atno 6909 bound_to 6896
  144.8366  139.6405  143.6035 H   0  0  0  0  0  0  0  0  0  0  0  0  # atno 7974 bound_to 7965
  154.5090  140.2182  155.9194 H   0  0  0  0  0  0  0  0  0  0  0  0  # atno 8008 bound_to 7997
  156.1529  140.3158  155.8644 H   0  0  0  0  0  0  0  0  0  0  0  0  # atno 8009 bound_to 7997
  155.3903  140.0478  157.3031 H   0  0  0  0  0  0  0  0  0  0  0  0  # atno 8010 bound_to 7997
  140.1959  143.3856  152.1169 H   0  0  0  0  0  0  0  0  0  0  0  0  # atno 10167 bound_to 10162
  157.6959  131.0425  150.3805 H   0  0  0  0  0  0  0  0  0  0  0  0  # atno 10718 bound_to 10713
  154.8443  135.3450  154.6291 H   0  0  0  0  0  0  0  0  0  0  0  0  # atno 10763 bound_to 10752
  153.6900  135.6975  153.5097 H   0  0  0  0  0  0  0  0  0  0  0  0  # atno 10764 bound_to 10752
  153.2602  135.4325  155.0841 H   0  0  0  0  0  0  0  0  0  0  0  0  # atno 10765 bound_to 10752
  139.9271  134.9641  156.8120 H   0  0  0  0  0  0  0  0  0  0  0  0  # atno 11005 bound_to 11000
  146.2664  139.6530  142.9326 LP  0  0  0  0  0  0  0  0  0  0  0  0  # atno 17320 bound_to 7965
  145.4782  141.0437  143.2661 LP  0  0  0  0  0  0  0  0  0  0  0  0  # atno 17321 bound_to 7965
  139.5237  144.7074  151.5311 LP  0  0  0  0  0  0  0  0  0  0  0  0  # atno 17342 bound_to 10162
  140.6424  143.8862  150.6704 LP  0  0  0  0  0  0  0  0  0  0  0  0  # atno 17343 bound_to 10162
  156.4220  130.3954  149.6819 LP  0  0  0  0  0  0  0  0  0  0  0  0  # atno 17370 bound_to 10713
  156.4066  130.7701  151.2712 LP  0  0  0  0  0  0  0  0  0  0  0  0  # atno 17371 bound_to 10713
  140.6304  133.9911  155.7659 LP  0  0  0  0  0  0  0  0  0  0  0  0  # atno 17394 bound_to 11000
  141.0836  134.0024  157.3347 LP  0  0  0  0  0  0  0  0  0  0  0  0  # atno 17395 bound_to 11000

$$$$
