#       Name:                AV-unprocessed.smi:2143
#       Creating user name   scv26
#       Creation time:       Fri Mar 27 11:49:18 2020


#       File generated by GOLD software.
#

@<TRIPOS>MOLECULE
AV-unprocessed.smi:2143
    50    51     1
SMALL
NO_CHARGES


@<TRIPOS>ATOM
      1 ****        -4.4878  -3.0131  -0.6497 C.3            1 S1                 0.0000
      2 ****        -3.7250  -1.6876  -0.4667 C.3            1 S1                 0.0000
      3 ****        -3.8489  -0.8422  -1.7503 C.3            1 S1                 0.0000
      4 ****        -3.1378   0.5081  -1.6147 C.3            1 S1                 0.0000
      5 ****        -1.6612   0.3059  -1.2641 C.3            1 S1                 0.0000
      6 ****        -1.4975  -0.5237   0.0248 C.3            1 S1                 0.0000
      7 ****        -0.0736  -0.7228   0.2897 N.am           1 S1                 0.0000
      8 ****         0.7302   0.1482   0.9182 C.2            1 S1                 0.0000
      9 ****         0.3391   1.2248   1.3711 O.2            1 S1                 0.0000
     10 ****         2.1973  -0.2753   1.0688 C.3            1 S1                 0.0000
     11 ****         3.1220   0.8654   1.0643 N.am           1 S1                 0.0000
     12 ****         3.6238   1.3482   2.2593 C.2            1 S1                 0.0000
     13 ****         4.4622   2.4043   2.3425 C.2            1 S1                 0.0000
     14 ****         4.8978   3.1114   1.1442 C.2            1 S1                 0.0000
     15 ****         5.6439   4.0905   1.1774 O.2            1 S1                 0.0000
     16 ****         4.3822   2.5874  -0.0657 N.am           1 S1                 0.0000
     17 ****         4.7422   3.2326  -1.3114 C.3            1 S1                 0.0000
     18 ****         3.4941   1.4918  -0.1448 C.2            1 S1                 0.0000
     19 ****         3.0473   1.0915  -1.2228 O.2            1 S1                 0.0000
     20 ****        -2.2344  -1.8878  -0.0691 C.3            1 S1                 0.0000
     21 ****        -2.0891  -2.6877   1.2442 C.3            1 S1                 0.0000
     22 ****        -3.9963  -3.6560  -1.3805 H              1 S1                 0.0000
     23 ****        -5.5049  -2.8333  -0.9992 H              1 S1                 0.0000
     24 ****        -4.5729  -3.5665   0.2848 H              1 S1                 0.0000
     25 ****        -4.2171  -1.1373   0.3370 H              1 S1                 0.0000
     26 ****        -3.4303  -1.3901  -2.5958 H              1 S1                 0.0000
     27 ****        -4.8999  -0.6713  -1.9856 H              1 S1                 0.0000
     28 ****        -3.2254   1.0702  -2.5448 H              1 S1                 0.0000
     29 ****        -3.6230   1.1067  -0.8426 H              1 S1                 0.0000
     30 ****        -1.1563  -0.1929  -2.0928 H              1 S1                 0.0000
     31 ****        -1.1807   1.2785  -1.1515 H              1 S1                 0.0000
     32 ****        -1.9366   0.0357   0.8533 H              1 S1                 0.0000
     33 ****         0.3329  -1.5850  -0.0435 H              1 S1                 0.0000
     34 ****         2.2959  -0.8334   2.0008 H              1 S1                 0.0000
     35 ****         2.4672  -0.9752   0.2756 H              1 S1                 0.0000
     36 ****         3.3266   0.8622   3.1772 H              1 S1                 0.0000
     37 ****         4.8122   2.7334   3.3099 H              1 S1                 0.0000
     38 ****         4.9434   2.4592  -2.0546 H              1 S1                 0.0000
     39 ****         5.6454   3.8302  -1.1879 H              1 S1                 0.0000
     40 ****         3.8949   3.8555  -1.6014 H              1 S1                 0.0000
     41 ****        -1.7559  -2.4683  -0.8598 H              1 S1                 0.0000
     42 ****        -2.5934  -2.1841   2.0695 H              1 S1                 0.0000
     43 ****        -1.0451  -2.8191   1.5279 H              1 S1                 0.0000
     44 ****        -2.5069  -3.6898   1.1577 H              1 S1                 0.0000
     45 ****        -0.6216   1.4867   1.2788 LP             1 S1                 0.0000
     46 ****         0.9822   1.8370   1.8311 LP             1 S1                 0.0000
     47 ****         5.9790   4.4343   2.0547 LP             1 S1                 0.0000
     48 ****         5.9147   4.5418   0.3271 LP             1 S1                 0.0000
     49 ****         2.4155   0.3167  -1.2454 LP             1 S1                 0.0000
     50 ****         3.3169   1.5419  -2.0739 LP             1 S1                 0.0000
@<TRIPOS>BOND
    1    1    2 1     
    2    1   22 1     
    3    1   23 1     
    4    1   24 1     
    5    2   20 1     
    6    2    3 1     
    7    2   25 1     
    8    3    4 1     
    9    3   26 1     
   10    3   27 1     
   11    4    5 1     
   12    4   28 1     
   13    4   29 1     
   14    5    6 1     
   15    5   30 1     
   16    5   31 1     
   17    6    7 1     
   18    6   20 1     
   19    6   32 1     
   20    7    8 am    
   21    7   33 1     
   22    8    9 2     
   23    8   10 1     
   24   10   11 1     
   25   10   34 1     
   26   10   35 1     
   27   11   18 am    
   28   11   12 1     
   29   12   13 2     
   30   12   36 1     
   31   13   14 1     
   32   13   37 1     
   33   14   15 2     
   34   14   16 am    
   35   16   17 1     
   36   16   18 am    
   37   17   38 1     
   38   17   39 1     
   39   17   40 1     
   40   18   19 2     
   41   20   21 1     
   42   20   41 1     
   43   21   42 1     
   44   21   43 1     
   45   21   44 1     
   46    9   45 1     
   47    9   46 1     
   48   15   47 1     
   49   15   48 1     
   50   19   49 1     
   51   19   50 1     
@<TRIPOS>SUBSTRUCTURE
      1 S1             1
@<TRIPOS>SET
LONE_PAIRS      STATIC     ATOMS    <user>   **** ""
6 45 46 47 48 49 50
DONOR_HYDROGENS      STATIC     ATOMS    <user>   **** ""
1 33
ATOM$BLUE        STATIC     ATOMS    COLORGROUP SYSTEM
6 45 46 47 48 49 50
ATOM$RED        STATIC     ATOMS    COLORGROUP SYSTEM
1 33
