AV-unprocessed.smi:1047|AV-procd|sdf|4568|dock7
  -GOLD-   22720 3 23D 1   1.00000     0.00000
 Structure written by MMmdl.
 56 58  0  0  0  0  0  0  0  0  2 V2000
  150.9766  129.5676  154.0718 C   0  0  0  0  0  0  0  0  0  0  0  0
  150.8296  130.8286  154.9357 C   0  0  0  0  0  0  0  0  0  0  0  0
  150.3142  132.0010  154.2305 N   0  0  0  0  0  0  0  0  0  0  0  0
  148.9738  131.7853  153.6908 C   0  0  0  0  0  0  0  0  0  0  0  0
  148.4327  133.0387  152.9820 C   0  0  0  0  0  0  0  0  0  0  0  0
  148.4633  134.1467  153.8760 O   0  0  0  0  0  0  0  0  0  0  0  0
  149.7699  134.4240  154.3735 C   0  0  1  0  0  0  0  0  0  0  0  0
  149.6813  135.6392  155.3061 C   0  0  0  0  0  0  0  0  0  0  0  0
  149.2075  136.8329  154.5779 N   0  3  0  0  0  0  0  0  0  0  0  0
  150.1686  137.9535  154.5727 C   0  0  0  0  0  0  0  0  0  0  0  0
  149.4970  139.2825  154.9733 C   0  0  2  0  0  0  0  0  0  0  0  0
  148.5973  139.6736  153.9553 O   0  0  0  0  0  0  0  0  0  0  0  0
  150.4940  140.4415  155.1726 C   0  0  0  0  0  0  0  0  0  0  0  0
  151.3191  140.2754  156.3554 N   0  0  0  0  0  0  0  0  0  0  0  0
  152.1531  139.2521  156.6218 C   0  0  0  0  0  0  0  0  0  0  0  0
  152.8254  139.2977  157.7682 N   0  0  0  0  0  0  0  0  0  0  0  0
  152.3696  140.4857  158.3129 C   0  0  0  0  0  0  0  0  0  0  0  0
  152.6967  141.1216  159.5304 C   0  0  0  0  0  0  0  0  0  0  0  0
  152.1046  142.3543  159.8863 C   0  0  0  0  0  0  0  0  0  0  0  0
  152.4878  143.0041  161.2044 C   0  0  0  0  0  0  0  0  0  0  0  0
  151.1675  142.9697  159.0179 C   0  0  0  0  0  0  0  0  0  0  0  0
  150.5194  144.2943  159.3796 C   0  0  0  0  0  0  0  0  0  0  0  0
  150.8274  142.3469  157.7989 C   0  0  0  0  0  0  0  0  0  0  0  0
  151.4245  141.1208  157.4552 C   0  0  0  0  0  0  0  0  0  0  0  0
  150.2916  133.1699  155.1028 C   0  0  0  0  0  0  0  0  0  0  0  0
  151.4634  128.7723  154.6363 H   0  0  0  0  0  0  0  0  0  0  0  0
  151.5843  129.7653  153.1882 H   0  0  0  0  0  0  0  0  0  0  0  0
  150.0117  129.1842  153.7408 H   0  0  0  0  0  0  0  0  0  0  0  0
  150.2006  130.6069  155.7991 H   0  0  0  0  0  0  0  0  0  0  0  0
  151.8161  131.0648  155.3366 H   0  0  0  0  0  0  0  0  0  0  0  0
  148.9803  130.9593  152.9801 H   0  0  0  0  0  0  0  0  0  0  0  0
  148.2920  131.5019  154.4940 H   0  0  0  0  0  0  0  0  0  0  0  0
  149.0234  133.2647  152.0927 H   0  0  0  0  0  0  0  0  0  0  0  0
  147.4069  132.8746  152.6520 H   0  0  0  0  0  0  0  0  0  0  0  0
  150.4338  134.6578  153.5389 H   0  0  0  0  0  0  0  0  0  0  0  0
  149.0142  135.4268  156.1427 H   0  0  0  0  0  0  0  0  0  0  0  0
  150.6650  135.8556  155.7246 H   0  0  0  0  0  0  0  0  0  0  0  0
  149.0153  136.5704  153.6218 H   0  0  0  0  0  0  0  0  0  0  0  0
  150.9633  137.7055  155.2763 H   0  0  0  0  0  0  0  0  0  0  0  0
  150.6310  138.0418  153.5883 H   0  0  0  0  0  0  0  0  0  0  0  0
  148.9285  139.1439  155.8941 H   0  0  0  0  0  0  0  0  0  0  0  0
  149.0058  139.5378  153.1144 H   0  0  0  0  0  0  0  0  0  0  0  0
  151.1464  140.5397  154.3038 H   0  0  0  0  0  0  0  0  0  0  0  0
  149.9580  141.3874  155.2649 H   0  0  0  0  0  0  0  0  0  0  0  0
  152.2771  138.4293  155.9328 H   0  0  0  0  0  0  0  0  0  0  0  0
  153.4110  140.6531  160.1916 H   0  0  0  0  0  0  0  0  0  0  0  0
  151.6058  143.1580  161.8266 H   0  0  0  0  0  0  0  0  0  0  0  0
  152.9623  143.9700  161.0295 H   0  0  0  0  0  0  0  0  0  0  0  0
  153.1876  142.3841  161.7657 H   0  0  0  0  0  0  0  0  0  0  0  0
  149.8551  144.6420  158.5880 H   0  0  0  0  0  0  0  0  0  0  0  0
  151.2776  145.0610  159.5403 H   0  0  0  0  0  0  0  0  0  0  0  0
  149.9298  144.1938  160.2911 H   0  0  0  0  0  0  0  0  0  0  0  0
  150.1154  142.8054  157.1290 H   0  0  0  0  0  0  0  0  0  0  0  0
  149.6662  132.9682  155.9739 H   0  0  0  0  0  0  0  0  0  0  0  0
  151.2964  133.3651  155.4799 H   0  0  0  0  0  0  0  0  0  0  0  0
  148.3483  137.1468  155.0067 H   0  0  0  0  0  0  0  0  0  0  0  0
  1  2  1  0  0  0  0
  1 26  1  0  0  0  0
  1 27  1  0  0  0  0
  1 28  1  0  0  0  0
  2  3  1  0  0  0  0
  2 29  1  0  0  0  0
  2 30  1  0  0  0  0
  3 25  1  0  0  0  0
  3  4  1  0  0  0  0
  4  5  1  0  0  0  0
  4 31  1  0  0  0  0
  4 32  1  0  0  0  0
  5  6  1  0  0  0  0
  5 33  1  0  0  0  0
  5 34  1  0  0  0  0
  6  7  1  0  0  0  0
  7  8  1  0  0  0  0
  7 25  1  0  0  0  0
  7 35  1  0  0  0  0
  8  9  1  0  0  0  0
  8 36  1  0  0  0  0
  8 37  1  0  0  0  0
  9 10  1  0  0  0  0
  9 38  1  0  0  0  0
  9 56  1  0  0  0  0
 10 11  1  0  0  0  0
 10 39  1  0  0  0  0
 10 40  1  0  0  0  0
 11 12  1  0  0  0  0
 11 13  1  0  0  0  0
 11 41  1  0  0  0  0
 12 42  1  0  0  0  0
 13 14  1  0  0  0  0
 13 43  1  0  0  0  0
 13 44  1  0  0  0  0
 14 24  1  0  0  0  0
 14 15  1  0  0  0  0
 15 16  2  0  0  0  0
 15 45  1  0  0  0  0
 16 17  1  0  0  0  0
 17 24  2  0  0  0  0
 17 18  1  0  0  0  0
 18 19  2  0  0  0  0
 18 46  1  0  0  0  0
 19 20  1  0  0  0  0
 19 21  1  0  0  0  0
 20 47  1  0  0  0  0
 20 48  1  0  0  0  0
 20 49  1  0  0  0  0
 21 22  1  0  0  0  0
 21 23  2  0  0  0  0
 22 50  1  0  0  0  0
 22 51  1  0  0  0  0
 22 52  1  0  0  0  0
 23 24  1  0  0  0  0
 23 53  1  0  0  0  0
 25 54  1  0  0  0  0
 25 55  1  0  0  0  0
M  CHG  1   9   1
M  END
> <s_m_source_file>
AV-unprocessed.smi

> <i_m_source_file_index>
1047

> <i_lp_mmshare_version>
43012

> <i_f3d_flags>
0

> <s_epik_input>
W0NIM11bQ0gyXU4xW0NIMl1bQ0gyXU9bQ0BIXShbQ0gyXTEpW0NIMl1bTkhdW0NIMl1bQ0BIXShbT0hdKVtDSDJdbihbY0hdbjIpYyhjMjMpW2NIXWMoW0NIM10pYyhbY0hdMylbQ0gzXQ==

> <s_epik_cmdline>
J2VwaWtfcHl0aG9uJywgJy1waCcsICc3LjAnLCAnLXRuJywgJzgnLCAnLW1hJywgJzIwMCcsICctbWV0YWxfYmluZGluZycsICctaW1hZScsICc8aW5maWxlLm1hZT4nLCAnLW9tYWUnLCAnPG91dGZpbGUubWFlPic=

> <r_epik_Ionization_Penalty>
0.692425

> <r_epik_Ionization_Penalty_Charging>
0.0243549

> <r_epik_Ionization_Penalty_Neutral>
0.66807

> <r_epik_State_Penalty>
0.592789

> <r_epik_Charging_Adjusted_Penalty>
0.617144

> <i_epik_Tot_Q>
1

> <i_epik_Tot_abs_Q>
1

> <r_epik_Metal_State_Penalty>
0.508021

> <b_epik_Metal_Only>
0

> <s_lp_Force_Field>
OPLS_2005

> <r_lp_Energy>
31.7658

> <b_lp_Chiralities_Consistent>
1

> <s_lp_Variant>
AV-unprocessed.smi:1047-9

> <Gold.Version>
5.8.1

> <Gold.Id.Protein>
6NUR|6NUR_protein|mol2

> <Gold.PLP.Fitness>
59.0086

> <Gold.PLP.PLP>
-48.4778

> <Gold.PLP.part.hbond>
-3.0000

> <Gold.PLP.part.metal>
0.0000

> <Gold.PLP.part.buried>
-2.8933

> <Gold.PLP.part.nonpolar>
-43.1010

> <Gold.PLP.part.repulsive>
0.8056

> <Gold.PLP.ligand.clash>
0.0000

> <Gold.PLP.ligand.torsion>
0.8139

> <Gold.PLP.Chemscore.Hbond>
3.9920

> <Gold.PLP.Chemscore.CHOScore>
0.0000

> <Gold.PLP.Chemscore.Metal>
0.0000

> <Gold.Chemscore.Hbonds>
donor molecule, donor type, donor heavy atom, donor atom, acceptor molecule, acceptor atom, score
      L1  H     9    38       P1  7948  2.00
      L1  H    12    42       P1  7957  0.81
      P1  H  7997  8010       L1    16  0.72

> <Gold.PLP.Chemscore.Internal.Correction>
0.1827

> <Gold.Rescore>
     Score         DG    S(hbond)    S(metal)    S(lipo)     H(rot)  DE(clash)    DE(int)     intcor
     18.39     -20.45       1.84        0.00     132.56       2.60       1.21       0.85       ----

> <Gold.Chemscore.Fitness>
18.3852

> <Gold.Chemscore.DG>
-20.4519

> <Gold.Chemscore.ZeroCoef>
-5.4800

> <Gold.Chemscore.Hbond>
1.8355

> <Gold.Chemscore.Metal>
0.0000

> <Gold.Chemscore.Lipo>
132.5632

> <Gold.Chemscore.Internal_Hbond>
0.0000

> <Gold.Chemscore.DEClash>
1.2146

> <Gold.Chemscore.DEInternal>
0.8522

> <Gold.Chemscore.Rot>
2.6049

> <Gold.Chemscore.Internal.Correction>
   9.000000E+99

> <Gold.Chemscore.Hbonds>
donor molecule, donor type, donor heavy atom, donor atom, acceptor molecule, acceptor atom, score
      L1  H     9    38       P1  7948  1.00
      L1  H    12    42       P1  7957  0.80
      P1  H  7997  8010       L1    16  0.03

> <Gold.Chemscore.Hbond.Weighted>
-6.1305

> <Gold.Chemscore.Metal.Weighted>
-0.0000

> <Gold.Chemscore.Lipo.Weighted>
-15.5099

> <Gold.Chemscore.Internal_Hbond.Weighted>
0.0000

> <Gold.Chemscore.DEClash.Weighted>
1.2146

> <Gold.Chemscore.DEInternal.Weighted>
0.8522

> <Gold.Chemscore.Rot.Weighted>
6.6685

> <Gold.Chemscore.Internal.Correction.Weighted>
   9.000000E+99

> <Gold.Protein.RotatedTorsions>
[ 6907 6896 6895 6894 ] final  -74.03 input  -60.11 | X-H torsion
[ 7974 7965 7964 7962 ] final   82.22 input  175.53 | X-H torsion
[ 8008 7997 7996 7995 ] final   27.10 input   59.86 | X-H torsion
[ 10167 10162 10161 10158 ] final   39.36 input  -65.29 | X-H torsion
[ 10718 10713 10712 10709 ] final   77.36 input   66.30 | X-H torsion
[ 10763 10752 10751 10750 ] final  128.66 input  -60.55 | X-H torsion
[ 11005 11000 10999 10996 ] final  -84.80 input  -57.11 | X-H torsion

> <Gold.Protein.ActiveResidues>
 VAL166  LYS551  ARG553  GLY616  TRP617  ASP618  TYR619  PRO620  LYS621  CYS622 
 ASP623  PHE694  ASN695  SER759  ASP760  ASP761  ALA762  ILE779  LEU786  VAL792 
 PHE793  MET794  SER795  GLU796  ALA797  LYS798  CYS799  TRP800  GLU811  SER814 

> <Gold.Protein.RotatedAtoms>
  150.7108  134.4930  159.5524 H   0  0  0  0  0  0  0  0  0  0  0  0  # atno 6907 bound_to 6896
  152.2543  134.8097  160.0450 H   0  0  0  0  0  0  0  0  0  0  0  0  # atno 6908 bound_to 6896
  151.8833  133.3465  159.3810 H   0  0  0  0  0  0  0  0  0  0  0  0  # atno 6909 bound_to 6896
  145.6280  139.2399  143.2101 H   0  0  0  0  0  0  0  0  0  0  0  0  # atno 7974 bound_to 7965
  155.0377  140.3166  155.4735 H   0  0  0  0  0  0  0  0  0  0  0  0  # atno 8008 bound_to 7997
  156.2861  140.2168  156.5443 H   0  0  0  0  0  0  0  0  0  0  0  0  # atno 8009 bound_to 7997
  154.7316  140.0481  157.0719 H   0  0  0  0  0  0  0  0  0  0  0  0  # atno 8010 bound_to 7997
  140.3848  144.1932  150.6130 H   0  0  0  0  0  0  0  0  0  0  0  0  # atno 10167 bound_to 10162
  157.6707  130.9818  150.1630 H   0  0  0  0  0  0  0  0  0  0  0  0  # atno 10718 bound_to 10713
  153.7291  135.3241  155.3282 H   0  0  0  0  0  0  0  0  0  0  0  0  # atno 10763 bound_to 10752
  154.8332  135.4518  154.1140 H   0  0  0  0  0  0  0  0  0  0  0  0  # atno 10764 bound_to 10752
  153.2282  135.6956  153.8001 H   0  0  0  0  0  0  0  0  0  0  0  0  # atno 10765 bound_to 10752
  141.1647  133.7365  156.8921 H   0  0  0  0  0  0  0  0  0  0  0  0  # atno 11005 bound_to 11000
  146.1379  140.7097  142.9381 LP  0  0  0  0  0  0  0  0  0  0  0  0  # atno 17320 bound_to 7965
  144.7205  140.4356  143.7012 LP  0  0  0  0  0  0  0  0  0  0  0  0  # atno 17321 bound_to 7965
  140.4901  143.2350  151.8831 LP  0  0  0  0  0  0  0  0  0  0  0  0  # atno 17342 bound_to 10162
  139.4793  144.5175  151.8847 LP  0  0  0  0  0  0  0  0  0  0  0  0  # atno 17343 bound_to 10162
  156.2402  130.3690  149.8346 LP  0  0  0  0  0  0  0  0  0  0  0  0  # atno 17370 bound_to 10713
  156.6148  130.8601  151.3462 LP  0  0  0  0  0  0  0  0  0  0  0  0  # atno 17371 bound_to 10713
  140.1641  134.9145  157.2752 LP  0  0  0  0  0  0  0  0  0  0  0  0  # atno 17394 bound_to 11000
  140.2577  134.3608  155.7418 LP  0  0  0  0  0  0  0  0  0  0  0  0  # atno 17395 bound_to 11000

$$$$
