#       Name:                AV-unprocessed.smi:1339
#       Creating user name   scv26
#       Creation time:       Fri Mar 27 05:08:28 2020


#       File generated by GOLD software.
#

@<TRIPOS>MOLECULE
AV-unprocessed.smi:1339
    45    46     1
SMALL
NO_CHARGES


@<TRIPOS>ATOM
      1 ****         0.1170   4.8924   1.5770 C.3            1 S1                 0.0000
      2 ****        -0.1161   4.4794   0.1140 C.3            1 S1                 0.0000
      3 ****        -1.6012   4.6261  -0.2517 C.3            1 S1                 0.0000
      4 ****         0.3783   3.0482  -0.1779 C.3            1 S1                 0.0000
      5 ****         1.9081   2.8855  -0.1076 C.3            1 S1                 0.0000
      6 ****         2.3103   1.5304  -0.4642 N.am           1 S1                 0.0000
      7 ****         2.3088   0.4808   0.3728 C.2            1 S1                 0.0000
      8 ****         1.9927   0.5601   1.5598 O.2            1 S1                 0.0000
      9 ****         2.7159  -0.8676  -0.2223 C.3            1 S1                 0.0000
     10 ****         1.5077  -1.5721  -0.7671 C.2            1 S1                 0.0000
     11 ****         0.9423  -1.4014  -2.0076 C.2            1 S1                 0.0000
     12 ****        -0.4611  -2.4096  -2.2309 S.3            1 S1                 0.0000
     13 ****        -0.2190  -3.0484  -0.6063 C.2            1 S1                 0.0000
     14 ****        -1.0686  -4.0303  -0.0151 N.am           1 S1                 0.0000
     15 ****        -2.2372  -4.5408  -0.7212 C.3            1 S1                 0.0000
     16 ****        -2.8501  -5.5379   0.2577 C.3            1 S1                 0.0000
     17 ****        -1.9439  -5.4599   1.3789 N.am           1 S1                 0.0000
     18 ****        -0.9396  -4.5984   1.2022 C.2            1 S1                 0.0000
     19 ****        -0.0593  -4.3864   2.0350 O.2            1 S1                 0.0000
     20 ****         0.8392  -2.5173   0.0174 N.2            1 S1                 0.0000
     21 ****        -0.3850   4.2114   2.2650 H              1 S1                 0.0000
     22 ****        -0.2659   5.8958   1.7661 H              1 S1                 0.0000
     23 ****         1.1764   4.9020   1.8310 H              1 S1                 0.0000
     24 ****         0.4424   5.1675  -0.5220 H              1 S1                 0.0000
     25 ****        -2.2239   3.9583   0.3446 H              1 S1                 0.0000
     26 ****        -1.7744   4.3925  -1.3026 H              1 S1                 0.0000
     27 ****        -1.9501   5.6453  -0.0824 H              1 S1                 0.0000
     28 ****        -0.1023   2.3502   0.5094 H              1 S1                 0.0000
     29 ****         0.0504   2.7579  -1.1772 H              1 S1                 0.0000
     30 ****         2.3877   3.5743  -0.8032 H              1 S1                 0.0000
     31 ****         2.2865   3.1321   0.8851 H              1 S1                 0.0000
     32 ****         2.5874   1.3734  -1.4223 H              1 S1                 0.0000
     33 ****         3.4597  -0.7158  -1.0055 H              1 S1                 0.0000
     34 ****         3.2008  -1.4668   0.5497 H              1 S1                 0.0000
     35 ****         1.2621  -0.7400  -2.7990 H              1 S1                 0.0000
     36 ****        -2.9317  -3.7319  -0.9524 H              1 S1                 0.0000
     37 ****        -1.9436  -5.0269  -1.6527 H              1 S1                 0.0000
     38 ****        -3.8580  -5.2507   0.5589 H              1 S1                 0.0000
     39 ****        -2.8739  -6.5499  -0.1477 H              1 S1                 0.0000
     40 ****        -2.0695  -6.0108   2.2157 H              1 S1                 0.0000
     41 ****         1.7186   1.4406   1.9464 LP             1 S1                 0.0000
     42 ****         2.0101  -0.2560   2.1374 LP             1 S1                 0.0000
     43 ****         0.6671  -3.7279   1.8381 LP             1 S1                 0.0000
     44 ****        -0.0701  -4.8726   2.9087 LP             1 S1                 0.0000
     45 ****         1.1211  -2.7688   0.9432 LP             1 S1                 0.0000
@<TRIPOS>BOND
    1    1    2 1     
    2    1   21 1     
    3    1   22 1     
    4    1   23 1     
    5    2    3 1     
    6    2    4 1     
    7    2   24 1     
    8    3   25 1     
    9    3   26 1     
   10    3   27 1     
   11    4    5 1     
   12    4   28 1     
   13    4   29 1     
   14    5    6 1     
   15    5   30 1     
   16    5   31 1     
   17    6    7 am    
   18    6   32 1     
   19    7    8 2     
   20    7    9 1     
   21    9   10 1     
   22    9   33 1     
   23    9   34 1     
   24   10   20 1     
   25   10   11 2     
   26   11   12 1     
   27   11   35 1     
   28   12   13 1     
   29   13   14 1     
   30   13   20 2     
   31   14   18 am    
   32   14   15 1     
   33   15   16 1     
   34   15   36 1     
   35   15   37 1     
   36   16   17 1     
   37   16   38 1     
   38   16   39 1     
   39   17   18 am    
   40   17   40 1     
   41   18   19 2     
   42    8   41 1     
   43    8   42 1     
   44   19   43 1     
   45   19   44 1     
   46   20   45 1     
@<TRIPOS>SUBSTRUCTURE
      1 S1             1
@<TRIPOS>SET
LONE_PAIRS      STATIC     ATOMS    <user>   **** ""
5 41 42 43 44 45
DONOR_HYDROGENS      STATIC     ATOMS    <user>   **** ""
2 32 40
ATOM$BLUE        STATIC     ATOMS    COLORGROUP SYSTEM
5 41 42 43 44 45
ATOM$RED        STATIC     ATOMS    COLORGROUP SYSTEM
2 32 40
