#       Name:                AV-unprocessed.smi:2896
#       Creating user name   scv26
#       Creation time:       Fri Mar 27 16:01:43 2020


#       File generated by GOLD software.
#

@<TRIPOS>MOLECULE
AV-unprocessed.smi:2896
    55    56     1
SMALL
NO_CHARGES


@<TRIPOS>ATOM
      1 ****        -0.8898   2.4970  -0.4198 C.3            1 S1                 0.0000
      2 ****        -1.2862   1.0753  -0.8657 C.3            1 S1                 0.0000
      3 ****        -0.5874  -0.0452  -0.0613 C.3            1 S1                 0.0000
      4 ****         0.8665   0.0697  -0.0926 N.am           1 S1                 0.0000
      5 ****         1.6589  -0.3454  -1.0955 C.2            1 S1                 0.0000
      6 ****         1.2061  -0.9012  -2.0978 O.2            1 S1                 0.0000
      7 ****         3.1857  -0.1226  -0.9435 C.3            1 S1                 0.0000
      8 ****         3.8310  -0.0199  -2.3510 C.3            1 S1                 0.0000
      9 ****         3.4852   1.2267  -0.2390 C.3            1 S1                 0.0000
     10 ****         3.7452  -1.3021  -0.1216 C.ar           1 S1                 0.0000
     11 ****         4.5195  -2.3364  -0.7038 C.ar           1 S1                 0.0000
     12 ****         4.9923  -3.3883   0.1037 C.ar           1 S1                 0.0000
     13 ****         4.6735  -3.3790   1.4737 C.ar           1 S1                 0.0000
     14 ****         3.9337  -2.4111   2.0505 N.ar           1 S1                 0.0000
     15 ****         3.4857  -1.4067   1.2681 C.ar           1 S1                 0.0000
     16 ****        -2.8172   0.8746  -0.9880 C.3            1 S1                 0.0000
     17 ****        -3.5353   0.3708   0.1874 N.3            1 S1                 0.0000
     18 ****        -4.8992  -0.0087  -0.1691 C.3            1 S1                 0.0000
     19 ****        -5.6843  -0.5522   1.0364 C.3            1 S1                 0.0000
     20 ****        -5.6951   0.4237   2.0720 O.3            1 S1                 0.0000
     21 ****        -4.3845   0.7887   2.4897 C.3            1 S1                 0.0000
     22 ****        -3.5845   1.3275   1.2902 C.3            1 S1                 0.0000
     23 ****        -1.0855   2.6759   0.6353 H              1 S1                 0.0000
     24 ****        -1.4299   3.2519  -0.9914 H              1 S1                 0.0000
     25 ****         0.1734   2.6759  -0.5821 H              1 S1                 0.0000
     26 ****        -0.9179   0.9973  -1.8896 H              1 S1                 0.0000
     27 ****        -0.8941  -0.0100   0.9838 H              1 S1                 0.0000
     28 ****        -0.8892  -1.0253  -0.4347 H              1 S1                 0.0000
     29 ****         1.3050   0.5084   0.7041 H              1 S1                 0.0000
     30 ****         3.6391  -0.8957  -2.9720 H              1 S1                 0.0000
     31 ****         4.9126   0.1017  -2.2821 H              1 S1                 0.0000
     32 ****         3.4470   0.8414  -2.8994 H              1 S1                 0.0000
     33 ****         3.0572   1.3020   0.7602 H              1 S1                 0.0000
     34 ****         3.0949   2.0682  -0.8134 H              1 S1                 0.0000
     35 ****         4.5599   1.3791  -0.1340 H              1 S1                 0.0000
     36 ****         4.7626  -2.3496  -1.7544 H              1 S1                 0.0000
     37 ****         5.5849  -4.1859  -0.3192 H              1 S1                 0.0000
     38 ****         5.0192  -4.1705   2.1220 H              1 S1                 0.0000
     39 ****         2.8881  -0.6679   1.7797 H              1 S1                 0.0000
     40 ****        -3.2852   1.7930  -1.3455 H              1 S1                 0.0000
     41 ****        -2.9616   0.1527  -1.7934 H              1 S1                 0.0000
     42 ****        -5.4267   0.8527  -0.5821 H              1 S1                 0.0000
     43 ****        -4.8798  -0.7664  -0.9532 H              1 S1                 0.0000
     44 ****        -6.7111  -0.7796   0.7497 H              1 S1                 0.0000
     45 ****        -5.2401  -1.4792   1.4024 H              1 S1                 0.0000
     46 ****        -4.4571   1.5477   3.2686 H              1 S1                 0.0000
     47 ****        -3.8833  -0.0746   2.9300 H              1 S1                 0.0000
     48 ****        -2.5792   1.5535   1.6366 H              1 S1                 0.0000
     49 ****        -4.0245   2.2660   0.9498 H              1 S1                 0.0000
     50 ****         0.2217  -1.0552  -2.1824 LP             1 S1                 0.0000
     51 ****         1.8231  -1.1981  -2.8266 LP             1 S1                 0.0000
     52 ****         3.7233  -2.4364   3.0278 LP             1 S1                 0.0000
     53 ****        -3.0191  -0.4261   0.5011 LP             1 S1                 0.0000
     54 ****        -6.1904   0.0526   2.8575 LP             1 S1                 0.0000
     55 ****        -6.1645   1.2410   1.7378 LP             1 S1                 0.0000
@<TRIPOS>BOND
    1    1    2 1     
    2    1   23 1     
    3    1   24 1     
    4    1   25 1     
    5    2    3 1     
    6    2   16 1     
    7    2   26 1     
    8    3    4 1     
    9    3   27 1     
   10    3   28 1     
   11    4    5 am    
   12    4   29 1     
   13    5    6 2     
   14    5    7 1     
   15    7    8 1     
   16    7    9 1     
   17    7   10 1     
   18    8   30 1     
   19    8   31 1     
   20    8   32 1     
   21    9   33 1     
   22    9   34 1     
   23    9   35 1     
   24   10   15 ar    
   25   10   11 ar    
   26   11   12 ar    
   27   11   36 1     
   28   12   13 ar    
   29   12   37 1     
   30   13   14 ar    
   31   13   38 1     
   32   14   15 ar    
   33   15   39 1     
   34   16   17 1     
   35   16   40 1     
   36   16   41 1     
   37   17   22 1     
   38   17   18 1     
   39   18   19 1     
   40   18   42 1     
   41   18   43 1     
   42   19   20 1     
   43   19   44 1     
   44   19   45 1     
   45   20   21 1     
   46   21   22 1     
   47   21   46 1     
   48   21   47 1     
   49   22   48 1     
   50   22   49 1     
   51    6   50 1     
   52    6   51 1     
   53   14   52 1     
   54   17   53 1     
   55   20   54 1     
   56   20   55 1     
@<TRIPOS>SUBSTRUCTURE
      1 S1             1
@<TRIPOS>SET
LONE_PAIRS      STATIC     ATOMS    <user>   **** ""
6 50 51 52 53 54 55
DONOR_HYDROGENS      STATIC     ATOMS    <user>   **** ""
1 29
ATOM$BLUE        STATIC     ATOMS    COLORGROUP SYSTEM
6 50 51 52 53 54 55
ATOM$RED        STATIC     ATOMS    COLORGROUP SYSTEM
1 29
