#       Name:                AV-unprocessed.smi:776
#       Creating user name   scv26
#       Creation time:       Fri Mar 27 01:12:11 2020


#       File generated by GOLD software.
#

@<TRIPOS>MOLECULE
AV-unprocessed.smi:776
    50    51     1
SMALL
NO_CHARGES


@<TRIPOS>ATOM
      1 ****        -6.4225   1.2742  -0.7541 C.3            1 S1                 0.0000
      2 ****        -5.8916  -0.0138  -0.1070 C.3            1 S1                 0.0000
      3 ****        -6.9290  -0.7086   0.7883 C.3            1 S1                 0.0000
      4 ****        -4.5956   0.2145   0.6095 C.2            1 S1                 0.0000
      5 ****        -4.5186   1.0044   1.6757 N.2            1 S1                 0.0000
      6 ****        -3.1605   0.9551   2.0200 O.3            1 S1                 0.0000
      7 ****        -2.5818   0.1233   1.1214 C.2            1 S1                 0.0000
      8 ****        -1.1083  -0.0992   1.1907 C.3            1 S1                 0.0000
      9 ****        -0.3159   0.9971   0.4607 C.3            1 S1                 0.0000
     10 ****         1.1224   0.7828   0.5698 N.am           1 S1                 0.0000
     11 ****         1.8390  -0.0672  -0.1852 C.2            1 S1                 0.0000
     12 ****         1.3175  -0.7861  -1.0377 O.2            1 S1                 0.0000
     13 ****         3.1457  -0.1409   0.1753 N.am           1 S1                 0.0000
     14 ****         3.9408   1.0795   0.4060 C.3            1 S1                 0.0000
     15 ****         4.6604   1.4666  -0.9013 C.3            1 S1                 0.0000
     16 ****         5.5294   0.3067  -1.4221 C.3            1 S1                 0.0000
     17 ****         4.7478  -1.0200  -1.4686 C.3            1 S1                 0.0000
     18 ****         4.0379  -1.2831  -0.1244 C.3            1 S1                 0.0000
     19 ****         3.3743  -2.6756  -0.0687 C.3            1 S1                 0.0000
     20 ****        -3.4244  -0.3535   0.2087 N.2            1 S1                 0.0000
     21 ****        -5.6895   1.6973  -1.4418 H              1 S1                 0.0000
     22 ****        -6.6528   2.0312  -0.0036 H              1 S1                 0.0000
     23 ****        -7.3335   1.0814  -1.3209 H              1 S1                 0.0000
     24 ****        -5.6839  -0.7042  -0.9258 H              1 S1                 0.0000
     25 ****        -6.5470  -1.6562   1.1692 H              1 S1                 0.0000
     26 ****        -7.8448  -0.9200   0.2358 H              1 S1                 0.0000
     27 ****        -7.1952  -0.0874   1.6442 H              1 S1                 0.0000
     28 ****        -0.8124  -0.1416   2.2395 H              1 S1                 0.0000
     29 ****        -0.8865  -1.0780   0.7635 H              1 S1                 0.0000
     30 ****        -0.6095   1.0474  -0.5893 H              1 S1                 0.0000
     31 ****        -0.5446   1.9711   0.8942 H              1 S1                 0.0000
     32 ****         1.6100   1.3089   1.2802 H              1 S1                 0.0000
     33 ****         3.3454   1.9239   0.7550 H              1 S1                 0.0000
     34 ****         4.6707   0.8969   1.1959 H              1 S1                 0.0000
     35 ****         3.9222   1.7367  -1.6577 H              1 S1                 0.0000
     36 ****         5.2775   2.3514  -0.7428 H              1 S1                 0.0000
     37 ****         5.9276   0.5458  -2.4086 H              1 S1                 0.0000
     38 ****         6.3909   0.1870  -0.7641 H              1 S1                 0.0000
     39 ****         4.0136  -0.9871  -2.2750 H              1 S1                 0.0000
     40 ****         5.4294  -1.8381  -1.7038 H              1 S1                 0.0000
     41 ****         4.8002  -1.3014   0.6566 H              1 S1                 0.0000
     42 ****         4.1327  -3.4586  -0.0850 H              1 S1                 0.0000
     43 ****         2.7170  -2.8609  -0.9179 H              1 S1                 0.0000
     44 ****         2.7960  -2.8030   0.8470 H              1 S1                 0.0000
     45 ****        -5.2536   1.5124   2.1248 LP             1 S1                 0.0000
     46 ****        -3.0491   0.5978   2.9473 LP             1 S1                 0.0000
     47 ****        -2.7535   1.8668   1.9630 LP             1 S1                 0.0000
     48 ****         0.3293  -0.7491  -1.1865 LP             1 S1                 0.0000
     49 ****         1.8821  -1.4070  -1.5815 LP             1 S1                 0.0000
     50 ****        -3.2460  -0.9639  -0.5630 LP             1 S1                 0.0000
@<TRIPOS>BOND
    1    1    2 1     
    2    1   21 1     
    3    1   22 1     
    4    1   23 1     
    5    2    3 1     
    6    2    4 1     
    7    2   24 1     
    8    3   25 1     
    9    3   26 1     
   10    3   27 1     
   11    4   20 1     
   12    4    5 2     
   13    5    6 1     
   14    6    7 1     
   15    7    8 1     
   16    7   20 2     
   17    8    9 1     
   18    8   28 1     
   19    8   29 1     
   20    9   10 1     
   21    9   30 1     
   22    9   31 1     
   23   10   11 am    
   24   10   32 1     
   25   11   12 2     
   26   11   13 am    
   27   13   18 1     
   28   13   14 1     
   29   14   15 1     
   30   14   33 1     
   31   14   34 1     
   32   15   16 1     
   33   15   35 1     
   34   15   36 1     
   35   16   17 1     
   36   16   37 1     
   37   16   38 1     
   38   17   18 1     
   39   17   39 1     
   40   17   40 1     
   41   18   19 1     
   42   18   41 1     
   43   19   42 1     
   44   19   43 1     
   45   19   44 1     
   46    5   45 1     
   47    6   46 1     
   48    6   47 1     
   49   12   48 1     
   50   12   49 1     
   51   20   50 1     
@<TRIPOS>SUBSTRUCTURE
      1 S1             1
@<TRIPOS>SET
LONE_PAIRS      STATIC     ATOMS    <user>   **** ""
6 45 46 47 48 49 50
DONOR_HYDROGENS      STATIC     ATOMS    <user>   **** ""
1 32
ATOM$BLUE        STATIC     ATOMS    COLORGROUP SYSTEM
6 45 46 47 48 49 50
ATOM$RED        STATIC     ATOMS    COLORGROUP SYSTEM
1 32
