#       Name:                AV-unprocessed.smi:2843
#       Creating user name   scv26
#       Creation time:       Fri Mar 27 15:38:32 2020


#       File generated by GOLD software.
#

@<TRIPOS>MOLECULE
AV-unprocessed.smi:2843
    34    34     1
SMALL
NO_CHARGES


@<TRIPOS>ATOM
      1 ****        -1.0861   3.3130  -2.9070 C.3            1 S1                 0.0000
      2 ****        -1.0270   2.6684  -1.5646 C.2            1 S1                 0.0000
      3 ****        -1.9467   1.9871  -0.8200 C.2            1 S1                 0.0000
      4 ****        -1.2309   1.6301   0.3564 C.2            1 S1                 0.0000
      5 ****        -1.7206   0.8615   1.5533 C.3            1 S1                 0.0000
      6 ****        -1.6416  -0.9576   1.2395 S.o2           1 S1                 0.0000
      7 ****        -2.4292  -1.5831   2.3143 O.2            1 S1                 0.0000
      8 ****        -2.1085  -1.1659  -0.1415 O.2            1 S1                 0.0000
      9 ****        -0.0524  -1.2265   1.4119 N.pl3          1 S1                -1.0000
     10 ****         0.4790  -2.5561   1.1676 C.3            1 S1                 0.0000
     11 ****         2.0206  -2.5146   1.1374 C.3            1 S1                 0.0000
     12 ****         2.6272  -1.7607  -0.0657 C.3            1 S1                 0.0000
     13 ****         4.0370  -1.8294  -0.0076 O.3            1 S1                 0.0000
     14 ****         0.0140   2.0795   0.3257 N.2            1 S1                 0.0000
     15 ****         0.1553   2.7384  -0.9005 O.3            1 S1                 0.0000
     16 ****        -2.0669   3.7558  -3.0807 H              1 S1                 0.0000
     17 ****        -0.9012   2.5811  -3.6931 H              1 S1                 0.0000
     18 ****        -0.3392   4.1022  -2.9962 H              1 S1                 0.0000
     19 ****        -2.9713   1.7661  -1.0798 H              1 S1                 0.0000
     20 ****        -1.1449   1.0871   2.4512 H              1 S1                 0.0000
     21 ****        -2.7599   1.1139   1.7602 H              1 S1                 0.0000
     22 ****         0.1624  -3.2547   1.9426 H              1 S1                 0.0000
     23 ****         0.1203  -2.9752   0.2269 H              1 S1                 0.0000
     24 ****         2.3925  -2.0828   2.0680 H              1 S1                 0.0000
     25 ****         2.3860  -3.5420   1.1204 H              1 S1                 0.0000
     26 ****         2.3033  -2.1905  -1.0154 H              1 S1                 0.0000
     27 ****         2.3387  -0.7078  -0.0683 H              1 S1                 0.0000
     28 ****         4.3896  -1.3382  -0.7337 H              1 S1                 0.0000
     29 ****         0.5577  -0.4825   1.6844 LP             1 S1                 0.0000
     30 ****         4.3316  -2.7830  -0.0702 LP             1 S1                 0.0000
     31 ****         4.3591  -1.4368   0.8538 LP             1 S1                 0.0000
     32 ****         0.7111   1.9703   1.0343 LP             1 S1                 0.0000
     33 ****         0.3980   3.6957  -0.7433 LP             1 S1                 0.0000
     34 ****         0.8722   2.2971  -1.4402 LP             1 S1                 0.0000
@<TRIPOS>BOND
    1    1    2 1     
    2    1   16 1     
    3    1   17 1     
    4    1   18 1     
    5    2   15 1     
    6    2    3 2     
    7    3    4 1     
    8    3   19 1     
    9    4    5 1     
   10    4   14 2     
   11    5    6 1     
   12    5   20 1     
   13    5   21 1     
   14    6    7 2     
   15    6    8 2     
   16    6    9 1     
   17    9   10 1     
   18   10   11 1     
   19   10   22 1     
   20   10   23 1     
   21   11   12 1     
   22   11   24 1     
   23   11   25 1     
   24   12   13 1     
   25   12   26 1     
   26   12   27 1     
   27   13   28 1     
   28   14   15 1     
   29    9   29 1     
   30   13   30 1     
   31   13   31 1     
   32   14   32 1     
   33   15   33 1     
   34   15   34 1     
@<TRIPOS>SUBSTRUCTURE
      1 S1             1
@<TRIPOS>SET
LONE_PAIRS      STATIC     ATOMS    <user>   **** ""
8 7 8 29 30 31 32 33 34
DONOR_HYDROGENS      STATIC     ATOMS    <user>   **** ""
1 28
ATOM$BLUE        STATIC     ATOMS    COLORGROUP SYSTEM
8 7 8 29 30 31 32 33 34
ATOM$RED        STATIC     ATOMS    COLORGROUP SYSTEM
1 28
