AV-unprocessed.smi:809|AV-procd|sdf|3808|dock10
  -GOLD-   22720 1243D 1   1.00000     0.00000
 Structure written by MMmdl.
 39 40  0  0  0  0  0  0  0  0  3 V2000
  152.6954  142.6998  161.7238 C   0  0  0  0  0  0  0  0  0  0  0  0
  152.1650  143.4770  160.5604 C   0  0  0  0  0  0  0  0  0  0  0  0
  151.8957  144.8203  160.5182 C   0  0  0  0  0  0  0  0  0  0  0  0
  151.2877  145.3052  158.9611 S   0  0  0  0  0  0  0  0  0  0  0  0
  151.4266  143.6373  158.4004 C   0  0  0  0  0  0  0  0  0  0  0  0
  151.0978  143.2104  157.1703 N   0  5  0  0  0  0  0  0  0  0  0  0
  150.6867  141.9363  156.9858 C   0  0  0  0  0  0  0  0  0  0  0  0
  151.1993  140.9276  157.4761 O   0  0  0  0  0  0  0  0  0  0  0  0
  149.6277  141.8273  156.1699 N   0  0  0  0  0  0  0  0  0  0  0  0
  148.9963  140.5883  155.7184 C   0  0  0  0  0  0  0  0  0  0  0  0
  148.1826  140.7700  154.4076 C   0  0  1  0  0  0  0  0  0  0  0  0
  149.1229  141.0636  153.3913 O   0  0  0  0  0  0  0  0  0  0  0  0
  147.3535  139.5419  153.9629 C   0  0  0  0  0  0  0  0  0  0  0  0
  146.1373  139.3096  154.8757 C   0  0  0  0  0  0  0  0  0  0  0  0
  145.2697  140.5119  154.9190 N   0  3  1  0  0  0  0  0  0  0  0  0
  144.0321  140.2820  155.6949 C   0  0  0  0  0  0  0  0  0  0  0  0
  146.0045  141.7189  155.3732 C   0  0  0  0  0  0  0  0  0  0  0  0
  147.2388  141.9900  154.4904 C   0  0  0  0  0  0  0  0  0  0  0  0
  151.8881  142.8241  159.3569 N   0  0  0  0  0  0  0  0  0  0  0  0
  153.0909  143.3595  162.4964 H   0  0  0  0  0  0  0  0  0  0  0  0
  153.5014  142.0321  161.4181 H   0  0  0  0  0  0  0  0  0  0  0  0
  151.9133  142.0908  162.1774 H   0  0  0  0  0  0  0  0  0  0  0  0
  152.0157  145.5509  161.3037 H   0  0  0  0  0  0  0  0  0  0  0  0
  149.2451  142.6860  155.8008 H   0  0  0  0  0  0  0  0  0  0  0  0
  149.7526  139.8147  155.5911 H   0  0  0  0  0  0  0  0  0  0  0  0
  148.3507  140.2223  156.5178 H   0  0  0  0  0  0  0  0  0  0  0  0
  149.1564  140.3373  152.7881 H   0  0  0  0  0  0  0  0  0  0  0  0
  146.9917  139.6995  152.9454 H   0  0  0  0  0  0  0  0  0  0  0  0
  147.9660  138.6414  153.9152 H   0  0  0  0  0  0  0  0  0  0  0  0
  145.5633  138.4606  154.5023 H   0  0  0  0  0  0  0  0  0  0  0  0
  146.4550  139.0528  155.8858 H   0  0  0  0  0  0  0  0  0  0  0  0
  144.2601  140.0745  156.7412 H   0  0  0  0  0  0  0  0  0  0  0  0
  143.4761  139.4350  155.2912 H   0  0  0  0  0  0  0  0  0  0  0  0
  143.3826  141.1569  155.6524 H   0  0  0  0  0  0  0  0  0  0  0  0
  145.3382  142.5813  155.3325 H   0  0  0  0  0  0  0  0  0  0  0  0
  146.2923  141.6010  156.4183 H   0  0  0  0  0  0  0  0  0  0  0  0
  147.7774  142.8627  154.8623 H   0  0  0  0  0  0  0  0  0  0  0  0
  146.8917  142.2531  153.4895 H   0  0  0  0  0  0  0  0  0  0  0  0
  144.9824  140.6908  153.9676 H   0  0  0  0  0  0  0  0  0  0  0  0
  1  2  1  0  0  0  0
  1 20  1  0  0  0  0
  1 21  1  0  0  0  0
  1 22  1  0  0  0  0
  2 19  1  0  0  0  0
  2  3  2  0  0  0  0
  3  4  1  0  0  0  0
  3 23  1  0  0  0  0
  4  5  1  0  0  0  0
  5  6  1  0  0  0  0
  5 19  2  0  0  0  0
  6  7  1  0  0  0  0
  7  8  2  0  0  0  0
  7  9  1  0  0  0  0
  9 10  1  0  0  0  0
  9 24  1  0  0  0  0
 10 11  1  0  0  0  0
 10 25  1  0  0  0  0
 10 26  1  0  0  0  0
 11 18  1  0  0  0  0
 11 12  1  0  0  0  0
 11 13  1  0  0  0  0
 12 27  1  0  0  0  0
 13 14  1  0  0  0  0
 13 28  1  0  0  0  0
 13 29  1  0  0  0  0
 14 15  1  0  0  0  0
 14 30  1  0  0  0  0
 14 31  1  0  0  0  0
 15 16  1  0  0  0  0
 15 17  1  0  0  0  0
 15 39  1  0  0  0  0
 16 32  1  0  0  0  0
 16 33  1  0  0  0  0
 16 34  1  0  0  0  0
 17 18  1  0  0  0  0
 17 35  1  0  0  0  0
 17 36  1  0  0  0  0
 18 37  1  0  0  0  0
 18 38  1  0  0  0  0
M  CHG  1   6  -1
M  CHG  1  15   1
M  END
> <s_m_source_file>
AV-unprocessed.smi

> <i_m_source_file_index>
809

> <i_lp_mmshare_version>
43012

> <i_f3d_flags>
0

> <s_epik_input>
W0NIM11jMVtjSF1zYyhuMSlbTkhdQyg9TylbTkhdW0NIMl1DMihbT0hdKVtDSDJdW0NIMl1OKFtDSDNdKVtDSDJdW0NIMl0y

> <s_epik_cmdline>
J2VwaWtfcHl0aG9uJywgJy1waCcsICc3LjAnLCAnLXRuJywgJzgnLCAnLW1hJywgJzIwMCcsICctbWV0YWxfYmluZGluZycsICctaW1hZScsICc8aW5maWxlLm1hZT4nLCAnLW9tYWUnLCAnPG91dGZpbGUubWFlPic=

> <r_lp_tautomer_probability>
0.999

> <r_epik_Ionization_Penalty>
8.50704

> <r_epik_Ionization_Penalty_Charging>
6.65046

> <r_epik_Ionization_Penalty_Neutral>
1.85657

> <r_epik_State_Penalty>
6.64992

> <r_epik_Charging_Adjusted_Penalty>
13.3004

> <i_epik_Tot_Q>
0

> <i_epik_Tot_abs_Q>
2

> <r_epik_Metal_State_Penalty>
2.57297

> <b_epik_Metal_Only>
1

> <s_lp_Force_Field>
OPLS_2005

> <r_lp_Energy>
8.4344

> <b_lp_Chiralities_Consistent>
1

> <s_lp_Variant>
AV-unprocessed.smi:809-4

> <Gold.Version>
5.8.1

> <Gold.Id.Protein>
6NUR|6NUR_protein|mol2

> <Gold.PLP.Fitness>
51.6197

> <Gold.PLP.PLP>
-38.3817

> <Gold.PLP.part.hbond>
-4.5244

> <Gold.PLP.part.metal>
0.0000

> <Gold.PLP.part.buried>
-6.1084

> <Gold.PLP.part.nonpolar>
-28.8584

> <Gold.PLP.part.repulsive>
0.6584

> <Gold.PLP.ligand.clash>
0.0000

> <Gold.PLP.ligand.torsion>
0.7359

> <Gold.PLP.Chemscore.Hbond>
4.8988

> <Gold.PLP.Chemscore.CHOScore>
0.0000

> <Gold.PLP.Chemscore.Metal>
0.0000

> <Gold.Chemscore.Hbonds>
donor molecule, donor type, donor heavy atom, donor atom, acceptor molecule, acceptor atom, score
      L1  H     9    24       P1  8028  0.91
      L1  H    12    27       P1  7957  0.77
      L1  H    15    39       P1 10175  2.00
      P1  H  8011  8017       L1    12  1.00

> <Gold.PLP.Chemscore.Internal.Correction>
0.0137

> <Gold.Rescore>
     Score         DG    S(hbond)    S(metal)    S(lipo)     H(rot)  DE(clash)    DE(int)     intcor
     17.06     -19.32       2.79        0.00      78.33       1.82       0.19       2.08       ----

> <Gold.Chemscore.Fitness>
17.0587

> <Gold.Chemscore.DG>
-19.3233

> <Gold.Chemscore.ZeroCoef>
-5.4800

> <Gold.Chemscore.Hbond>
2.7946

> <Gold.Chemscore.Metal>
0.0000

> <Gold.Chemscore.Lipo>
78.3331

> <Gold.Chemscore.Internal_Hbond>
0.0000

> <Gold.Chemscore.DEClash>
0.1856

> <Gold.Chemscore.DEInternal>
2.0790

> <Gold.Chemscore.Rot>
1.8186

> <Gold.Chemscore.Internal.Correction>
   9.000000E+99

> <Gold.Chemscore.Hbonds>
donor molecule, donor type, donor heavy atom, donor atom, acceptor molecule, acceptor atom, score
      L1  H     9    24       P1  8028  0.86
      L1  H    12    27       P1  7957  0.76
      L1  H    15    39       P1 10175  0.91
      P1  H  8011  8017       L1    12  0.25

> <Gold.Chemscore.Hbond.Weighted>
-9.3341

> <Gold.Chemscore.Metal.Weighted>
-0.0000

> <Gold.Chemscore.Lipo.Weighted>
-9.1650

> <Gold.Chemscore.Internal_Hbond.Weighted>
0.0000

> <Gold.Chemscore.DEClash.Weighted>
0.1856

> <Gold.Chemscore.DEInternal.Weighted>
2.0790

> <Gold.Chemscore.Rot.Weighted>
4.6557

> <Gold.Chemscore.Internal.Correction.Weighted>
   9.000000E+99

> <Gold.Protein.RotatedTorsions>
[ 6907 6896 6895 6894 ] final -145.78 input  -60.11 | X-H torsion
[ 7974 7965 7964 7962 ] final  -87.08 input  175.53 | X-H torsion
[ 8008 7997 7996 7995 ] final  -98.41 input   59.86 | X-H torsion
[ 10167 10162 10161 10158 ] final  -97.98 input  -65.29 | X-H torsion
[ 10718 10713 10712 10709 ] final  -94.61 input   66.30 | X-H torsion
[ 10763 10752 10751 10750 ] final   69.11 input  -60.55 | X-H torsion
[ 11005 11000 10999 10996 ] final   71.80 input  -57.11 | X-H torsion

> <Gold.Protein.ActiveResidues>
 VAL166  LYS551  ARG553  GLY616  TRP617  ASP618  TYR619  PRO620  LYS621  CYS622 
 ASP623  PHE694  ASN695  SER759  ASP760  ASP761  ALA762  ILE779  LEU786  VAL792 
 PHE793  MET794  SER795  GLU796  ALA797  LYS798  CYS799  TRP800  GLU811  SER814 

> <Gold.Protein.RotatedAtoms>
  151.1325  133.5027  159.2598 H   0  0  0  0  0  0  0  0  0  0  0  0  # atno 6907 bound_to 6896
  151.1742  135.0331  159.8775 H   0  0  0  0  0  0  0  0  0  0  0  0  # atno 6908 bound_to 6896
  152.5460  134.1184  159.8442 H   0  0  0  0  0  0  0  0  0  0  0  0  # atno 6909 bound_to 6896
  145.4714  140.9559  143.1915 H   0  0  0  0  0  0  0  0  0  0  0  0  # atno 7974 bound_to 7965
  154.8008  140.0455  157.1271 H   0  0  0  0  0  0  0  0  0  0  0  0  # atno 8008 bound_to 7997
  154.9481  140.3061  155.5068 H   0  0  0  0  0  0  0  0  0  0  0  0  # atno 8009 bound_to 7997
  156.2961  140.2293  156.4556 H   0  0  0  0  0  0  0  0  0  0  0  0  # atno 8010 bound_to 7997
  140.2777  143.3302  152.0472 H   0  0  0  0  0  0  0  0  0  0  0  0  # atno 10167 bound_to 10162
  156.0030  130.5075  150.5952 H   0  0  0  0  0  0  0  0  0  0  0  0  # atno 10718 bound_to 10713
  153.0270  135.5222  154.7238 H   0  0  0  0  0  0  0  0  0  0  0  0  # atno 10763 bound_to 10752
  154.6286  135.2897  155.0245 H   0  0  0  0  0  0  0  0  0  0  0  0  # atno 10764 bound_to 10752
  154.1206  135.6608  153.4955 H   0  0  0  0  0  0  0  0  0  0  0  0  # atno 10765 bound_to 10752
  139.9524  134.7203  156.0831 H   0  0  0  0  0  0  0  0  0  0  0  0  # atno 11005 bound_to 11000
  144.7943  139.6265  143.7099 LP  0  0  0  0  0  0  0  0  0  0  0  0  # atno 17320 bound_to 7965
  146.2394  139.5972  142.9501 LP  0  0  0  0  0  0  0  0  0  0  0  0  # atno 17321 bound_to 7965
  139.4971  144.6613  151.6458 LP  0  0  0  0  0  0  0  0  0  0  0  0  # atno 17342 bound_to 10162
  140.5837  143.9901  150.6283 LP  0  0  0  0  0  0  0  0  0  0  0  0  # atno 17343 bound_to 10162
  157.3810  131.0781  151.1477 LP  0  0  0  0  0  0  0  0  0  0  0  0  # atno 17370 bound_to 10713
  157.2199  130.6476  149.5807 LP  0  0  0  0  0  0  0  0  0  0  0  0  # atno 17371 bound_to 10713
  141.1190  133.6619  156.3166 LP  0  0  0  0  0  0  0  0  0  0  0  0  # atno 17394 bound_to 11000
  140.5687  134.5861  157.5452 LP  0  0  0  0  0  0  0  0  0  0  0  0  # atno 17395 bound_to 11000

$$$$
