AV-unprocessed.smi:1410|AV-procd|sdf|5729|dock3
  -GOLD-   22720 5363D 1   1.00000     0.00000
 Structure written by MMmdl.
 39 40  0  0  0  0  0  0  0  0  1 V2000
  144.1872  136.8503  152.2105 N   0  0  0  0  0  0  0  0  0  0  0  0
  145.4064  136.8199  152.7542 C   0  0  0  0  0  0  0  0  0  0  0  0
  145.6922  136.0679  153.6835 O   0  0  0  0  0  0  0  0  0  0  0  0
  146.4612  137.7643  152.1646 C   0  0  0  0  0  0  0  0  0  0  0  0
  146.9794  138.7740  153.1157 N   0  0  0  0  0  0  0  0  0  0  0  0
  147.2026  140.0379  152.4057 C   0  0  0  0  0  0  0  0  0  0  0  0
  147.6140  141.1473  153.3895 C   0  0  0  0  0  0  0  0  0  0  0  0
  148.8859  140.7610  154.1568 C   0  0  0  0  0  0  0  0  0  0  0  0
  149.1903  141.7761  155.1608 N   0  0  0  0  0  0  0  0  0  0  0  0
  150.1033  141.6497  156.1348 C   0  0  0  0  0  0  0  0  0  0  0  0
  150.7959  140.6435  156.2872 O   0  0  0  0  0  0  0  0  0  0  0  0
  150.1363  142.7452  156.9136 N   0  0  0  0  0  0  0  0  0  0  0  0
  150.9620  143.0135  158.0393 C   0  0  0  0  0  0  0  0  0  0  0  0
  151.0306  144.3449  158.4994 C   0  0  0  0  0  0  0  0  0  0  0  0
  151.8548  144.6411  159.6036 C   0  0  0  0  0  0  0  0  0  0  0  0
  152.5960  143.7140  160.2456 N   0  0  0  0  0  0  0  0  0  0  0  0
  152.5405  142.4426  159.7954 C   0  0  0  0  0  0  0  0  0  0  0  0
  151.7492  142.0400  158.7009 C   0  0  0  0  0  0  0  0  0  0  0  0
  148.6739  139.3866  154.8125 C   0  0  0  0  0  0  0  0  0  0  0  0
  148.2162  138.3394  153.7820 C   0  0  0  0  0  0  0  0  0  0  0  0
  143.4656  136.2413  152.5678 H   0  0  0  0  0  0  0  0  0  0  0  0
  143.9914  137.4774  151.4438 H   0  0  0  0  0  0  0  0  0  0  0  0
  147.2910  137.1832  151.7570 H   0  0  0  0  0  0  0  0  0  0  0  0
  145.9949  138.2709  151.3182 H   0  0  0  0  0  0  0  0  0  0  0  0
  147.9666  139.9125  151.6361 H   0  0  0  0  0  0  0  0  0  0  0  0
  146.2872  140.3425  151.8968 H   0  0  0  0  0  0  0  0  0  0  0  0
  147.7739  142.0798  152.8472 H   0  0  0  0  0  0  0  0  0  0  0  0
  146.7963  141.3317  154.0884 H   0  0  0  0  0  0  0  0  0  0  0  0
  149.7115  140.6959  153.4451 H   0  0  0  0  0  0  0  0  0  0  0  0
  148.6611  142.6346  155.1123 H   0  0  0  0  0  0  0  0  0  0  0  0
  149.4490  143.4549  156.7060 H   0  0  0  0  0  0  0  0  0  0  0  0
  150.4602  145.1281  158.0216 H   0  0  0  0  0  0  0  0  0  0  0  0
  151.9217  145.6514  159.9794 H   0  0  0  0  0  0  0  0  0  0  0  0
  153.1513  141.7229  160.3201 H   0  0  0  0  0  0  0  0  0  0  0  0
  151.7732  141.0073  158.3891 H   0  0  0  0  0  0  0  0  0  0  0  0
  149.5958  139.0507  155.2885 H   0  0  0  0  0  0  0  0  0  0  0  0
  147.9278  139.4630  155.6050 H   0  0  0  0  0  0  0  0  0  0  0  0
  148.0662  137.3962  154.3072 H   0  0  0  0  0  0  0  0  0  0  0  0
  149.0011  138.1677  153.0434 H   0  0  0  0  0  0  0  0  0  0  0  0
  1  2  1  0  0  0  0
  1 21  1  0  0  0  0
  1 22  1  0  0  0  0
  2  3  2  0  0  0  0
  2  4  1  0  0  0  0
  4  5  1  0  0  0  0
  4 23  1  0  0  0  0
  4 24  1  0  0  0  0
  5 20  1  0  0  0  0
  5  6  1  0  0  0  0
  6  7  1  0  0  0  0
  6 25  1  0  0  0  0
  6 26  1  0  0  0  0
  7  8  1  0  0  0  0
  7 27  1  0  0  0  0
  7 28  1  0  0  0  0
  8  9  1  0  0  0  0
  8 19  1  0  0  0  0
  8 29  1  0  0  0  0
  9 10  1  0  0  0  0
  9 30  1  0  0  0  0
 10 11  2  0  0  0  0
 10 12  1  0  0  0  0
 12 13  1  0  0  0  0
 12 31  1  0  0  0  0
 13 18  1  0  0  0  0
 13 14  2  0  0  0  0
 14 15  1  0  0  0  0
 14 32  1  0  0  0  0
 15 16  2  0  0  0  0
 15 33  1  0  0  0  0
 16 17  1  0  0  0  0
 17 18  2  0  0  0  0
 17 34  1  0  0  0  0
 18 35  1  0  0  0  0
 19 20  1  0  0  0  0
 19 36  1  0  0  0  0
 19 37  1  0  0  0  0
 20 38  1  0  0  0  0
 20 39  1  0  0  0  0
M  END
> <s_m_source_file>
AV-unprocessed.smi

> <i_m_source_file_index>
1410

> <i_lp_mmshare_version>
43012

> <i_f3d_flags>
0

> <s_epik_input>
W05IMl1DKD1PKVtDSDJdTjFbQ0gyXVtDSDJdW0NIXShbQ0gyXVtDSDJdMSlbTkhdQyg9TylbTkhdYzJbY0hdW2NIXW5bY0hdW2NIXTI=

> <s_epik_cmdline>
J2VwaWtfcHl0aG9uJywgJy1waCcsICc3LjAnLCAnLXRuJywgJzgnLCAnLW1hJywgJzIwMCcsICctbWV0YWxfYmluZGluZycsICctaW1hZScsICc8aW5maWxlLm1hZT4nLCAnLW9tYWUnLCAnPG91dGZpbGUubWFlPic=

> <r_epik_Ionization_Penalty>
0.286942

> <r_epik_Ionization_Penalty_Charging>
0

> <r_epik_Ionization_Penalty_Neutral>
0.286942

> <r_epik_State_Penalty>
0.264061

> <r_epik_Charging_Adjusted_Penalty>
0.264061

> <i_epik_Tot_Q>
0

> <i_epik_Tot_abs_Q>
0

> <r_epik_Metal_State_Penalty>
0.256326

> <b_epik_Metal_Only>
0

> <s_lp_Force_Field>
OPLS_2005

> <r_lp_Energy>
16.89

> <b_lp_Chiralities_Consistent>
1

> <s_lp_Variant>
AV-unprocessed.smi:1410-1

> <Gold.Version>
5.8.1

> <Gold.Id.Protein>
6NUR|6NUR_protein|mol2

> <Gold.PLP.Fitness>
44.7959

> <Gold.PLP.PLP>
-37.1053

> <Gold.PLP.part.hbond>
-4.0000

> <Gold.PLP.part.metal>
0.0000

> <Gold.PLP.part.buried>
-4.7535

> <Gold.PLP.part.nonpolar>
-30.4011

> <Gold.PLP.part.repulsive>
0.5991

> <Gold.PLP.ligand.clash>
0.0000

> <Gold.PLP.ligand.torsion>
0.6501

> <Gold.PLP.Chemscore.Hbond>
2.9920

> <Gold.PLP.Chemscore.CHOScore>
0.0000

> <Gold.PLP.Chemscore.Metal>
0.0000

> <Gold.Chemscore.Hbonds>
donor molecule, donor type, donor heavy atom, donor atom, acceptor molecule, acceptor atom, score
      L1  H     1    22       P1 10171  1.00
      L1  H     9    30       P1  8028  0.56
      L1  H    12    31       P1  8028  0.99

> <Gold.PLP.Chemscore.Internal.Correction>
0.0148

> <Gold.Rescore>
     Score         DG    S(hbond)    S(metal)    S(lipo)     H(rot)  DE(clash)    DE(int)     intcor
     17.87     -21.53       2.83        0.00      98.90       1.94       0.90       2.76       ----

> <Gold.Chemscore.Fitness>
17.8671

> <Gold.Chemscore.DG>
-21.5252

> <Gold.Chemscore.ZeroCoef>
-5.4800

> <Gold.Chemscore.Hbond>
2.8257

> <Gold.Chemscore.Metal>
0.0000

> <Gold.Chemscore.Lipo>
98.8984

> <Gold.Chemscore.Internal_Hbond>
0.0000

> <Gold.Chemscore.DEClash>
0.8956

> <Gold.Chemscore.DEInternal>
2.7625

> <Gold.Chemscore.Rot>
1.9389

> <Gold.Chemscore.Internal.Correction>
   9.000000E+99

> <Gold.Chemscore.Hbonds>
donor molecule, donor type, donor heavy atom, donor atom, acceptor molecule, acceptor atom, score
      L1  H     1    22       P1 10171  0.98
      L1  H     9    30       P1  8028  0.55
      L1  H    12    31       P1  8028  0.94

> <Gold.Chemscore.Hbond.Weighted>
-9.4377

> <Gold.Chemscore.Metal.Weighted>
-0.0000

> <Gold.Chemscore.Lipo.Weighted>
-11.5711

> <Gold.Chemscore.Internal_Hbond.Weighted>
0.0000

> <Gold.Chemscore.DEClash.Weighted>
0.8956

> <Gold.Chemscore.DEInternal.Weighted>
2.7625

> <Gold.Chemscore.Rot.Weighted>
4.9636

> <Gold.Chemscore.Internal.Correction.Weighted>
   9.000000E+99

> <Gold.Protein.RotatedTorsions>
[ 6907 6896 6895 6894 ] final  167.11 input  -60.11 | X-H torsion
[ 7974 7965 7964 7962 ] final  119.09 input  175.53 | X-H torsion
[ 8008 7997 7996 7995 ] final  120.22 input   59.86 | X-H torsion
[ 10167 10162 10161 10158 ] final  116.43 input  -65.29 | X-H torsion
[ 10718 10713 10712 10709 ] final -152.55 input   66.30 | X-H torsion
[ 10763 10752 10751 10750 ] final  -83.47 input  -60.55 | X-H torsion
[ 11005 11000 10999 10996 ] final   52.08 input  -57.11 | X-H torsion

> <Gold.Protein.ActiveResidues>
 VAL166  LYS551  ARG553  GLY616  TRP617  ASP618  TYR619  PRO620  LYS621  CYS622 
 ASP623  PHE694  ASN695  SER759  ASP760  ASP761  ALA762  ILE779  LEU786  VAL792 
 PHE793  MET794  SER795  GLU796  ALA797  LYS798  CYS799  TRP800  GLU811  SER814 

> <Gold.Protein.RotatedAtoms>
  151.8684  133.3471  159.3726 H   0  0  0  0  0  0  0  0  0  0  0  0  # atno 6907 bound_to 6896
  150.7159  134.5137  159.5629 H   0  0  0  0  0  0  0  0  0  0  0  0  # atno 6908 bound_to 6896
  152.2664  134.7980  160.0473 H   0  0  0  0  0  0  0  0  0  0  0  0  # atno 6909 bound_to 6896
  145.1473  139.3231  143.4585 H   0  0  0  0  0  0  0  0  0  0  0  0  # atno 7974 bound_to 7965
  156.2632  140.2835  156.1115 H   0  0  0  0  0  0  0  0  0  0  0  0  # atno 8008 bound_to 7997
  155.1253  140.0393  157.2778 H   0  0  0  0  0  0  0  0  0  0  0  0  # atno 8009 bound_to 7997
  154.6640  140.2573  155.7084 H   0  0  0  0  0  0  0  0  0  0  0  0  # atno 8010 bound_to 7997
  139.6247  144.7106  151.2558 H   0  0  0  0  0  0  0  0  0  0  0  0  # atno 10167 bound_to 10162
  156.4740  130.8272  151.2500 H   0  0  0  0  0  0  0  0  0  0  0  0  # atno 10718 bound_to 10713
  154.5881  135.5555  153.7251 H   0  0  0  0  0  0  0  0  0  0  0  0  # atno 10763 bound_to 10752
  153.0106  135.6336  154.1888 H   0  0  0  0  0  0  0  0  0  0  0  0  # atno 10764 bound_to 10752
  154.1829  135.2886  155.3026 H   0  0  0  0  0  0  0  0  0  0  0  0  # atno 10765 bound_to 10752
  140.0879  134.5249  155.8881 H   0  0  0  0  0  0  0  0  0  0  0  0  # atno 11005 bound_to 11000
  146.3498  140.1534  142.8592 LP  0  0  0  0  0  0  0  0  0  0  0  0  # atno 17320 bound_to 7965
  145.0468  140.8987  143.5019 LP  0  0  0  0  0  0  0  0  0  0  0  0  # atno 17321 bound_to 7965
  140.7404  143.6589  150.8181 LP  0  0  0  0  0  0  0  0  0  0  0  0  # atno 17342 bound_to 10162
  140.0205  143.5547  152.2802 LP  0  0  0  0  0  0  0  0  0  0  0  0  # atno 17343 bound_to 10162
  157.7489  131.0067  150.3161 LP  0  0  0  0  0  0  0  0  0  0  0  0  # atno 17370 bound_to 10713
  156.3589  130.3843  149.7267 LP  0  0  0  0  0  0  0  0  0  0  0  0  # atno 17371 bound_to 10713
  141.2068  133.6659  156.6267 LP  0  0  0  0  0  0  0  0  0  0  0  0  # atno 17394 bound_to 11000
  140.3394  134.7862  157.4386 LP  0  0  0  0  0  0  0  0  0  0  0  0  # atno 17395 bound_to 11000

$$$$
