AV-unprocessed.smi:1276|AV-procd|sdf|5344|dock7
  -GOLD-   22720 4473D 1   1.00000     0.00000
 Structure written by MMmdl.
 44 45  0  0  0  0  0  0  0  0  1 V2000
  145.2325  143.7076  153.9378 C   0  0  0  0  0  0  0  0  0  0  0  0
  145.9568  142.7595  154.8549 C   0  0  0  0  0  0  0  0  0  0  0  0
  147.1157  142.3437  154.4619 N   0  0  0  0  0  0  0  0  0  0  0  0
  147.8623  141.4669  155.2251 N   0  0  0  0  0  0  0  0  0  0  0  0
  149.1431  141.0805  154.6148 C   0  0  0  0  0  0  0  0  0  0  0  0
  150.3548  141.3698  155.5130 C   0  0  0  0  0  0  0  0  0  0  0  0
  151.4266  140.7903  155.3313 O   0  0  0  0  0  0  0  0  0  0  0  0
  150.1706  142.2939  156.4689 N   0  0  0  0  0  0  0  0  0  0  0  0
  151.1764  142.7292  157.4360 C   0  0  0  0  0  0  0  0  0  0  0  0
  151.7022  141.4791  158.1737 C   0  0  0  0  0  0  0  0  0  0  0  0
  152.5077  141.7104  159.4655 C   0  0  0  0  0  0  0  0  0  0  0  0
  153.3942  142.9652  159.4897 C   0  0  0  0  0  0  0  0  0  0  0  0
  152.6274  144.2222  159.9333 C   0  0  0  0  0  0  0  0  0  0  0  0
  151.6712  144.7983  158.8789 C   0  0  0  0  0  0  0  0  0  0  0  0
  150.5989  143.8232  158.3609 C   0  0  0  0  0  0  0  0  0  0  0  0
  147.4783  140.9708  156.4366 C   0  0  0  0  0  0  0  0  0  0  0  0
  148.1802  140.1948  157.0871 O   0  0  0  0  0  0  0  0  0  0  0  0
  146.1650  141.4473  156.8762 C   0  0  0  0  0  0  0  0  0  0  0  0
  145.7228  140.9482  158.1383 C   0  0  0  0  0  0  0  0  0  0  0  0
  145.3833  140.5447  159.1687 N   0  0  0  0  0  0  0  0  0  0  0  0
  145.4200  142.3036  156.1331 C   0  0  0  0  0  0  0  0  0  0  0  0
  144.0503  142.8265  156.5439 C   0  0  0  0  0  0  0  0  0  0  0  0
  145.0689  144.6683  154.4261 H   0  0  0  0  0  0  0  0  0  0  0  0
  144.2617  143.3032  153.6509 H   0  0  0  0  0  0  0  0  0  0  0  0
  145.7935  143.8956  153.0211 H   0  0  0  0  0  0  0  0  0  0  0  0
  149.1436  140.0140  154.3828 H   0  0  0  0  0  0  0  0  0  0  0  0
  149.2673  141.5875  153.6560 H   0  0  0  0  0  0  0  0  0  0  0  0
  149.2592  142.7223  156.5401 H   0  0  0  0  0  0  0  0  0  0  0  0
  152.0113  143.1559  156.8769 H   0  0  0  0  0  0  0  0  0  0  0  0
  150.8699  140.8178  158.4197 H   0  0  0  0  0  0  0  0  0  0  0  0
  152.3213  140.9156  157.4742 H   0  0  0  0  0  0  0  0  0  0  0  0
  151.8259  141.7367  160.3166 H   0  0  0  0  0  0  0  0  0  0  0  0
  153.1332  140.8324  159.6310 H   0  0  0  0  0  0  0  0  0  0  0  0
  154.1932  142.7957  160.2124 H   0  0  0  0  0  0  0  0  0  0  0  0
  153.8890  143.1192  158.5302 H   0  0  0  0  0  0  0  0  0  0  0  0
  152.0788  144.0157  160.8529 H   0  0  0  0  0  0  0  0  0  0  0  0
  153.3508  144.9961  160.1921 H   0  0  0  0  0  0  0  0  0  0  0  0
  151.1699  145.6632  159.3149 H   0  0  0  0  0  0  0  0  0  0  0  0
  152.2461  145.1883  158.0382 H   0  0  0  0  0  0  0  0  0  0  0  0
  149.8747  144.4197  157.8040 H   0  0  0  0  0  0  0  0  0  0  0  0
  150.0413  143.3804  159.1871 H   0  0  0  0  0  0  0  0  0  0  0  0
  143.7461  142.4613  157.5242 H   0  0  0  0  0  0  0  0  0  0  0  0
  143.2911  142.5124  155.8271 H   0  0  0  0  0  0  0  0  0  0  0  0
  144.0523  143.9158  156.5884 H   0  0  0  0  0  0  0  0  0  0  0  0
  1  2  1  0  0  0  0
  1 23  1  0  0  0  0
  1 24  1  0  0  0  0
  1 25  1  0  0  0  0
  2 21  1  0  0  0  0
  2  3  2  0  0  0  0
  3  4  1  0  0  0  0
  4  5  1  0  0  0  0
  4 16  1  0  0  0  0
  5  6  1  0  0  0  0
  5 26  1  0  0  0  0
  5 27  1  0  0  0  0
  6  7  2  0  0  0  0
  6  8  1  0  0  0  0
  8  9  1  0  0  0  0
  8 28  1  0  0  0  0
  9 15  1  0  0  0  0
  9 10  1  0  0  0  0
  9 29  1  0  0  0  0
 10 11  1  0  0  0  0
 10 30  1  0  0  0  0
 10 31  1  0  0  0  0
 11 12  1  0  0  0  0
 11 32  1  0  0  0  0
 11 33  1  0  0  0  0
 12 13  1  0  0  0  0
 12 34  1  0  0  0  0
 12 35  1  0  0  0  0
 13 14  1  0  0  0  0
 13 36  1  0  0  0  0
 13 37  1  0  0  0  0
 14 15  1  0  0  0  0
 14 38  1  0  0  0  0
 14 39  1  0  0  0  0
 15 40  1  0  0  0  0
 15 41  1  0  0  0  0
 16 17  2  0  0  0  0
 16 18  1  0  0  0  0
 18 19  1  0  0  0  0
 18 21  2  0  0  0  0
 19 20  3  0  0  0  0
 21 22  1  0  0  0  0
 22 42  1  0  0  0  0
 22 43  1  0  0  0  0
 22 44  1  0  0  0  0
M  END
> <s_m_source_file>
AV-unprocessed.smi

> <i_m_source_file_index>
1276

> <i_lp_mmshare_version>
43012

> <i_f3d_flags>
0

> <s_epik_input>
TiNDYyhjMVtDSDNdKWMoPU8pbihuYzFbQ0gzXSlbQ0gyXUMoPU8pW05IXVtDSF0yW0NIMl1bQ0gyXVtDSDJdW0NIMl1bQ0gyXVtDSDJdMg==

> <s_epik_cmdline>
J2VwaWtfcHl0aG9uJywgJy1waCcsICc3LjAnLCAnLXRuJywgJzgnLCAnLW1hJywgJzIwMCcsICctbWV0YWxfYmluZGluZycsICctaW1hZScsICc8aW5maWxlLm1hZT4nLCAnLW9tYWUnLCAnPG91dGZpbGUubWFlPic=

> <r_lp_tautomer_probability>
1

> <r_epik_Ionization_Penalty>
2.02378e-08

> <r_epik_Ionization_Penalty_Charging>
2.27609e-11

> <r_epik_Ionization_Penalty_Neutral>
2.0215e-08

> <r_epik_State_Penalty>
-0

> <r_epik_Charging_Adjusted_Penalty>
2.27609e-11

> <i_epik_Tot_Q>
0

> <i_epik_Tot_abs_Q>
0

> <r_epik_Metal_State_Penalty>
-0

> <b_epik_Metal_Only>
0

> <s_lp_Force_Field>
OPLS_2005

> <r_lp_Energy>
30.1422

> <b_lp_Chiralities_Consistent>
1

> <s_lp_Variant>
AV-unprocessed.smi:1276-1

> <Gold.Version>
5.8.1

> <Gold.Id.Protein>
6NUR|6NUR_protein|mol2

> <Gold.PLP.Fitness>
45.9505

> <Gold.PLP.PLP>
-42.3307

> <Gold.PLP.part.hbond>
-3.0000

> <Gold.PLP.part.metal>
0.0000

> <Gold.PLP.part.buried>
-6.4346

> <Gold.PLP.part.nonpolar>
-33.9324

> <Gold.PLP.part.repulsive>
0.3378

> <Gold.PLP.ligand.clash>
0.0002

> <Gold.PLP.ligand.torsion>
0.3220

> <Gold.PLP.Chemscore.Hbond>
1.4142

> <Gold.PLP.Chemscore.CHOScore>
0.0000

> <Gold.PLP.Chemscore.Metal>
0.0000

> <Gold.Chemscore.Hbonds>
donor molecule, donor type, donor heavy atom, donor atom, acceptor molecule, acceptor atom, score
      L1  H     8    28       P1  8028  0.22
      P1  H  6934  6946       L1    20  0.31
      P1  H  7989  7998       L1     7  0.72

> <Gold.PLP.Chemscore.Internal.Correction>
0.0213

> <Gold.Rescore>
     Score         DG    S(hbond)    S(metal)    S(lipo)     H(rot)  DE(clash)    DE(int)     intcor
     13.96     -16.68       1.22        0.00      92.83       1.46       0.13       2.59       ----

> <Gold.Chemscore.Fitness>
13.9638

> <Gold.Chemscore.DG>
-16.6814

> <Gold.Chemscore.ZeroCoef>
-5.4800

> <Gold.Chemscore.Hbond>
1.2219

> <Gold.Chemscore.Metal>
0.0000

> <Gold.Chemscore.Lipo>
92.8341

> <Gold.Chemscore.Internal_Hbond>
0.0000

> <Gold.Chemscore.DEClash>
0.1326

> <Gold.Chemscore.DEInternal>
2.5850

> <Gold.Chemscore.Rot>
1.4615

> <Gold.Chemscore.Internal.Correction>
   9.000000E+99

> <Gold.Chemscore.Hbonds>
donor molecule, donor type, donor heavy atom, donor atom, acceptor molecule, acceptor atom, score
      L1  H     8    28       P1  8028  0.23
      P1  H  6934  6946       L1    20  0.26
      P1  H  7989  7998       L1     7  0.29

> <Gold.Chemscore.Hbond.Weighted>
-4.0811

> <Gold.Chemscore.Metal.Weighted>
-0.0000

> <Gold.Chemscore.Lipo.Weighted>
-10.8616

> <Gold.Chemscore.Internal_Hbond.Weighted>
0.0000

> <Gold.Chemscore.DEClash.Weighted>
0.1326

> <Gold.Chemscore.DEInternal.Weighted>
2.5850

> <Gold.Chemscore.Rot.Weighted>
3.7414

> <Gold.Chemscore.Internal.Correction.Weighted>
   9.000000E+99

> <Gold.Protein.RotatedTorsions>
[ 6907 6896 6895 6894 ] final  161.39 input  -60.11 | X-H torsion
[ 7974 7965 7964 7962 ] final  -65.21 input  175.53 | X-H torsion
[ 8008 7997 7996 7995 ] final   96.32 input   59.86 | X-H torsion
[ 10167 10162 10161 10158 ] final    8.38 input  -65.29 | X-H torsion
[ 10718 10713 10712 10709 ] final  162.52 input   66.30 | X-H torsion
[ 10763 10752 10751 10750 ] final -173.38 input  -60.55 | X-H torsion
[ 11005 11000 10999 10996 ] final   -4.38 input  -57.11 | X-H torsion

> <Gold.Protein.ActiveResidues>
 VAL166  LYS551  ARG553  GLY616  TRP617  ASP618  TYR619  PRO620  LYS621  CYS622 
 ASP623  PHE694  ASN695  SER759  ASP760  ASP761  ALA762  ILE779  LEU786  VAL792 
 PHE793  MET794  SER795  GLU796  ALA797  LYS798  CYS799  TRP800  GLU811  SER814 

> <Gold.Protein.RotatedAtoms>
  151.9563  133.3681  159.4018 H   0  0  0  0  0  0  0  0  0  0  0  0  # atno 6907 bound_to 6896
  150.6972  134.4288  159.5248 H   0  0  0  0  0  0  0  0  0  0  0  0  # atno 6908 bound_to 6896
  152.1969  134.8622  160.0562 H   0  0  0  0  0  0  0  0  0  0  0  0  # atno 6909 bound_to 6896
  145.7571  140.8880  143.0449 H   0  0  0  0  0  0  0  0  0  0  0  0  # atno 7974 bound_to 7965
  156.0783  140.3274  155.7662 H   0  0  0  0  0  0  0  0  0  0  0  0  # atno 8008 bound_to 7997
  155.5194  140.0584  157.2927 H   0  0  0  0  0  0  0  0  0  0  0  0  # atno 8009 bound_to 7997
  154.4568  140.1946  156.0374 H   0  0  0  0  0  0  0  0  0  0  0  0  # atno 8010 bound_to 7997
  140.6317  143.7978  150.7305 H   0  0  0  0  0  0  0  0  0  0  0  0  # atno 10167 bound_to 10162
  157.1214  131.0493  151.2413 H   0  0  0  0  0  0  0  0  0  0  0  0  # atno 10718 bound_to 10713
  154.6085  135.2862  155.0459 H   0  0  0  0  0  0  0  0  0  0  0  0  # atno 10763 bound_to 10752
  154.1697  135.6474  153.5010 H   0  0  0  0  0  0  0  0  0  0  0  0  # atno 10764 bound_to 10752
  153.0185  135.5398  154.6829 H   0  0  0  0  0  0  0  0  0  0  0  0  # atno 10765 bound_to 10752
  140.6796  133.9165  155.8547 H   0  0  0  0  0  0  0  0  0  0  0  0  # atno 11005 bound_to 11000
  144.6838  139.9672  143.7481 LP  0  0  0  0  0  0  0  0  0  0  0  0  # atno 17320 bound_to 7965
  146.0300  139.3326  143.0761 LP  0  0  0  0  0  0  0  0  0  0  0  0  # atno 17321 bound_to 7965
  140.1590  143.4291  152.2079 LP  0  0  0  0  0  0  0  0  0  0  0  0  # atno 17342 bound_to 10162
  139.5531  144.7352  151.4376 LP  0  0  0  0  0  0  0  0  0  0  0  0  # atno 17343 bound_to 10162
  157.4473  130.7578  149.7121 LP  0  0  0  0  0  0  0  0  0  0  0  0  # atno 17370 bound_to 10713
  155.9828  130.4006  150.3398 LP  0  0  0  0  0  0  0  0  0  0  0  0  # atno 17371 bound_to 10713
  141.0328  134.0732  157.3994 LP  0  0  0  0  0  0  0  0  0  0  0  0  # atno 17394 bound_to 11000
  139.8956  135.0141  156.7008 LP  0  0  0  0  0  0  0  0  0  0  0  0  # atno 17395 bound_to 11000

$$$$
