AV-unprocessed.smi:767|AV-procd|sdf|3662|dock5
  -GOLD-   22720 1 73D 1   1.00000     0.00000
 Structure written by MMmdl.
 47 49  0  0  0  0  0  0  0  0  1 V2000
  145.1366  130.5072  151.4503 C   0  0  0  0  0  0  0  0  0  0  0  0
  145.2744  132.0117  151.3488 C   0  0  0  0  0  0  0  0  0  0  0  0
  144.1939  132.8039  150.9087 C   0  0  0  0  0  0  0  0  0  0  0  0
  144.3712  134.1986  150.8369 C   0  0  0  0  0  0  0  0  0  0  0  0
  145.6150  134.7473  151.2101 C   0  0  0  0  0  0  0  0  0  0  0  0
  145.8418  136.2500  151.1848 C   0  0  0  0  0  0  0  0  0  0  0  0
  145.6125  136.9350  152.5482 C   0  0  0  0  0  0  0  0  0  0  0  0
  146.8507  137.3915  153.1717 N   0  0  0  0  0  0  0  0  0  0  0  0
  146.9322  138.0914  154.3106 C   0  0  0  0  0  0  0  0  0  0  0  0
  145.9590  138.4803  154.9562 O   0  0  0  0  0  0  0  0  0  0  0  0
  148.2054  138.2893  154.6731 N   0  0  0  0  0  0  0  0  0  0  0  0
  148.6398  138.9641  155.8974 C   0  0  1  0  0  0  0  0  0  0  0  0
  150.1404  138.7529  156.2142 C   0  0  1  0  0  0  0  0  0  0  0  0
  150.9925  137.7224  155.5159 C   0  0  0  0  0  0  0  0  0  0  0  0
  151.6451  138.5225  154.3845 C   0  0  0  0  0  0  0  0  0  0  0  0
  150.8365  139.6893  154.2405 O   0  0  0  0  0  0  0  0  0  0  0  0
  150.4034  140.0889  155.5396 C   0  0  1  0  0  0  0  0  0  0  0  0
  148.9158  140.4756  155.6799 C   0  0  0  0  0  0  0  0  0  0  0  0
  148.2758  141.1774  154.4743 C   0  0  0  0  0  0  0  0  0  0  0  0
  148.6100  141.3516  156.8989 C   0  0  0  0  0  0  0  0  0  0  0  0
  146.6350  133.8654  151.6252 C   0  0  0  0  0  0  0  0  0  0  0  0
  146.4745  132.5265  151.6968 N   0  0  0  0  0  0  0  0  0  0  0  0
  144.0978  130.2235  151.6218 H   0  0  0  0  0  0  0  0  0  0  0  0
  145.7332  130.1151  152.2748 H   0  0  0  0  0  0  0  0  0  0  0  0
  145.4738  130.0362  150.5268 H   0  0  0  0  0  0  0  0  0  0  0  0
  143.2488  132.3564  150.6383 H   0  0  0  0  0  0  0  0  0  0  0  0
  143.5597  134.8346  150.5145 H   0  0  0  0  0  0  0  0  0  0  0  0
  146.8564  136.4480  150.8380 H   0  0  0  0  0  0  0  0  0  0  0  0
  145.1783  136.6947  150.4420 H   0  0  0  0  0  0  0  0  0  0  0  0
  144.9869  137.8166  152.4072 H   0  0  0  0  0  0  0  0  0  0  0  0
  145.0655  136.2747  153.2228 H   0  0  0  0  0  0  0  0  0  0  0  0
  147.7122  137.1179  152.7220 H   0  0  0  0  0  0  0  0  0  0  0  0
  148.9330  137.9206  154.0782 H   0  0  0  0  0  0  0  0  0  0  0  0
  147.9943  138.7736  156.7569 H   0  0  0  0  0  0  0  0  0  0  0  0
  150.3196  138.8130  157.2889 H   0  0  0  0  0  0  0  0  0  0  0  0
  151.7466  137.2955  156.1776 H   0  0  0  0  0  0  0  0  0  0  0  0
  150.3994  136.8966  155.1288 H   0  0  0  0  0  0  0  0  0  0  0  0
  152.6554  138.8245  154.6638 H   0  0  0  0  0  0  0  0  0  0  0  0
  151.7025  137.9589  153.4530 H   0  0  0  0  0  0  0  0  0  0  0  0
  151.1203  140.7217  156.0651 H   0  0  0  0  0  0  0  0  0  0  0  0
  148.6180  142.2088  154.3839 H   0  0  0  0  0  0  0  0  0  0  0  0
  147.1887  141.1978  154.5574 H   0  0  0  0  0  0  0  0  0  0  0  0
  148.5184  140.6849  153.5326 H   0  0  0  0  0  0  0  0  0  0  0  0
  149.0345  142.3503  156.7922 H   0  0  0  0  0  0  0  0  0  0  0  0
  149.0207  140.9263  157.8150 H   0  0  0  0  0  0  0  0  0  0  0  0
  147.5360  141.4638  157.0509 H   0  0  0  0  0  0  0  0  0  0  0  0
  147.6022  134.2452  151.9193 H   0  0  0  0  0  0  0  0  0  0  0  0
  1  2  1  0  0  0  0
  1 23  1  0  0  0  0
  1 24  1  0  0  0  0
  1 25  1  0  0  0  0
  2 22  1  0  0  0  0
  2  3  2  0  0  0  0
  3  4  1  0  0  0  0
  3 26  1  0  0  0  0
  4  5  2  0  0  0  0
  4 27  1  0  0  0  0
  5  6  1  0  0  0  0
  5 21  1  0  0  0  0
  6  7  1  0  0  0  0
  6 28  1  0  0  0  0
  6 29  1  0  0  0  0
  7  8  1  0  0  0  0
  7 30  1  0  0  0  0
  7 31  1  0  0  0  0
  8  9  1  0  0  0  0
  8 32  1  0  0  0  0
  9 10  2  0  0  0  0
  9 11  1  0  0  0  0
 11 12  1  0  0  0  0
 11 33  1  0  0  0  0
 12 18  1  0  0  0  0
 12 13  1  0  0  0  0
 12 34  1  0  0  0  0
 13 17  1  0  0  0  0
 13 14  1  0  0  0  0
 13 35  1  0  0  0  0
 14 15  1  0  0  0  0
 14 36  1  0  0  0  0
 14 37  1  0  0  0  0
 15 16  1  0  0  0  0
 15 38  1  0  0  0  0
 15 39  1  0  0  0  0
 16 17  1  0  0  0  0
 17 18  1  0  0  0  0
 17 40  1  0  0  0  0
 18 19  1  0  0  0  0
 18 20  1  0  0  0  0
 19 41  1  0  0  0  0
 19 42  1  0  0  0  0
 19 43  1  0  0  0  0
 20 44  1  0  0  0  0
 20 45  1  0  0  0  0
 20 46  1  0  0  0  0
 21 22  2  0  0  0  0
 21 47  1  0  0  0  0
M  END
> <s_m_source_file>
AV-unprocessed.smi

> <i_m_source_file_index>
767

> <i_lp_mmshare_version>
43012

> <i_f3d_flags>
0

> <s_epik_input>
W0NIM11jMVtjSF1bY0hdYyhbY0hdbjEpW0NIMl1bQ0gyXVtOSF1DKD1PKVtOSF1bQ0BIXTJDKFtDSDNdKShbQ0gzXSlbQ0BIXShbQ0BASF0yMylPW0NIMl1bQ0gyXTM=

> <s_epik_cmdline>
J2VwaWtfcHl0aG9uJywgJy1waCcsICc3LjAnLCAnLXRuJywgJzgnLCAnLW1hJywgJzIwMCcsICctbWV0YWxfYmluZGluZycsICctaW1hZScsICc8aW5maWxlLm1hZT4nLCAnLW9tYWUnLCAnPG91dGZpbGUubWFlPic=

> <r_epik_Ionization_Penalty>
0.0567523

> <r_epik_Ionization_Penalty_Charging>
0

> <r_epik_Ionization_Penalty_Neutral>
0.0567523

> <r_epik_State_Penalty>
0.0489186

> <r_epik_Charging_Adjusted_Penalty>
0.0489186

> <i_epik_Tot_Q>
0

> <i_epik_Tot_abs_Q>
0

> <r_epik_Metal_State_Penalty>
0.044622

> <b_epik_Metal_Only>
0

> <s_lp_Force_Field>
OPLS_2005

> <r_lp_Energy>
33.3409

> <b_lp_Chiralities_Consistent>
1

> <s_lp_Variant>
AV-unprocessed.smi:767-6

> <Gold.Version>
5.8.1

> <Gold.Id.Protein>
6NUR|6NUR_protein|mol2

> <Gold.PLP.Fitness>
41.7968

> <Gold.PLP.PLP>
-34.5142

> <Gold.PLP.part.hbond>
-1.9769

> <Gold.PLP.part.metal>
0.0000

> <Gold.PLP.part.buried>
-3.8980

> <Gold.PLP.part.nonpolar>
-28.2132

> <Gold.PLP.part.repulsive>
0.4268

> <Gold.PLP.ligand.clash>
0.0000

> <Gold.PLP.ligand.torsion>
0.9585

> <Gold.PLP.Chemscore.Hbond>
2.0000

> <Gold.PLP.Chemscore.CHOScore>
1.0000

> <Gold.PLP.Chemscore.Metal>
0.0000

> <Gold.Chemscore.Hbonds>
donor molecule, donor type, donor heavy atom, donor atom, acceptor molecule, acceptor atom, score
      L1  H     8    32       P1  7948  1.00
      P1  H  7989  7998       L1    16  1.00
      L1  C    21    47       P1  7948  1.00

> <Gold.PLP.Chemscore.Internal.Correction>
0.1997

> <Gold.Rescore>
     Score         DG    S(hbond)    S(metal)    S(lipo)     H(rot)  DE(clash)    DE(int)     intcor
     18.22     -19.43       1.88        0.00      97.14       1.45       0.19       1.02       ----

> <Gold.Chemscore.Fitness>
18.2201

> <Gold.Chemscore.DG>
-19.4280

> <Gold.Chemscore.ZeroCoef>
-5.4800

> <Gold.Chemscore.Hbond>
1.8843

> <Gold.Chemscore.Metal>
0.0000

> <Gold.Chemscore.Lipo>
97.1414

> <Gold.Chemscore.Internal_Hbond>
0.0000

> <Gold.Chemscore.DEClash>
0.1876

> <Gold.Chemscore.DEInternal>
1.0204

> <Gold.Chemscore.Rot>
1.4497

> <Gold.Chemscore.Internal.Correction>
   9.000000E+99

> <Gold.Chemscore.Hbonds>
donor molecule, donor type, donor heavy atom, donor atom, acceptor molecule, acceptor atom, score
      L1  H     8    32       P1  7948  1.00
      P1  H  7989  7998       L1    16  0.64

> <Gold.Chemscore.Hbond.Weighted>
-6.2937

> <Gold.Chemscore.Metal.Weighted>
-0.0000

> <Gold.Chemscore.Lipo.Weighted>
-11.3655

> <Gold.Chemscore.Internal_Hbond.Weighted>
0.0000

> <Gold.Chemscore.DEClash.Weighted>
0.1876

> <Gold.Chemscore.DEInternal.Weighted>
1.0204

> <Gold.Chemscore.Rot.Weighted>
3.7112

> <Gold.Chemscore.Internal.Correction.Weighted>
   9.000000E+99

> <Gold.Protein.RotatedTorsions>
[ 6907 6896 6895 6894 ] final -100.04 input  -60.11 | X-H torsion
[ 7974 7965 7964 7962 ] final  138.79 input  175.53 | X-H torsion
[ 8008 7997 7996 7995 ] final  -27.16 input   59.86 | X-H torsion
[ 10167 10162 10161 10158 ] final  -78.08 input  -65.29 | X-H torsion
[ 10718 10713 10712 10709 ] final  -92.98 input   66.30 | X-H torsion
[ 10763 10752 10751 10750 ] final -115.02 input  -60.55 | X-H torsion
[ 11005 11000 10999 10996 ] final -153.09 input  -57.11 | X-H torsion

> <Gold.Protein.ActiveResidues>
 VAL166  LYS551  ARG553  GLY616  TRP617  ASP618  TYR619  PRO620  LYS621  CYS622 
 ASP623  PHE694  ASN695  SER759  ASP760  ASP761  ALA762  ILE779  LEU786  VAL792 
 PHE793  MET794  SER795  GLU796  ALA797  LYS798  CYS799  TRP800  GLU811  SER814 

> <Gold.Protein.RotatedAtoms>
  150.7101  134.0948  159.3944 H   0  0  0  0  0  0  0  0  0  0  0  0  # atno 6907 bound_to 6896
  151.8934  135.0405  160.0509 H   0  0  0  0  0  0  0  0  0  0  0  0  # atno 6908 bound_to 6896
  152.2473  133.5150  159.5341 H   0  0  0  0  0  0  0  0  0  0  0  0  # atno 6909 bound_to 6896
  144.9339  139.5013  143.5604 H   0  0  0  0  0  0  0  0  0  0  0  0  # atno 7974 bound_to 7965
  154.4390  140.1880  156.0889 H   0  0  0  0  0  0  0  0  0  0  0  0  # atno 8008 bound_to 7997
  156.0381  140.3323  155.7187 H   0  0  0  0  0  0  0  0  0  0  0  0  # atno 8009 bound_to 7997
  155.5740  140.0615  157.2790 H   0  0  0  0  0  0  0  0  0  0  0  0  # atno 8010 bound_to 7997
  140.4714  143.2426  151.8200 H   0  0  0  0  0  0  0  0  0  0  0  0  # atno 10167 bound_to 10162
  156.0008  130.5009  150.5707 H   0  0  0  0  0  0  0  0  0  0  0  0  # atno 10718 bound_to 10713
  154.8464  135.4397  154.1597 H   0  0  0  0  0  0  0  0  0  0  0  0  # atno 10763 bound_to 10752
  153.2737  135.6947  153.7461 H   0  0  0  0  0  0  0  0  0  0  0  0  # atno 10764 bound_to 10752
  153.6692  135.3422  155.3123 H   0  0  0  0  0  0  0  0  0  0  0  0  # atno 10765 bound_to 10752
  140.7119  134.3823  157.5196 H   0  0  0  0  0  0  0  0  0  0  0  0  # atno 11005 bound_to 11000
  146.3258  139.8309  142.8908 LP  0  0  0  0  0  0  0  0  0  0  0  0  # atno 17320 bound_to 7965
  145.3098  141.0217  143.3561 LP  0  0  0  0  0  0  0  0  0  0  0  0  # atno 17321 bound_to 7965
  139.4819  144.4887  151.9213 LP  0  0  0  0  0  0  0  0  0  0  0  0  # atno 17342 bound_to 10162
  140.3973  144.2539  150.5895 LP  0  0  0  0  0  0  0  0  0  0  0  0  # atno 17343 bound_to 10162
  157.3603  131.0748  151.1642 LP  0  0  0  0  0  0  0  0  0  0  0  0  # atno 17370 bound_to 10713
  157.2429  130.6578  149.5897 LP  0  0  0  0  0  0  0  0  0  0  0  0  # atno 17371 bound_to 10713
  139.8869  134.8896  156.2556 LP  0  0  0  0  0  0  0  0  0  0  0  0  # atno 17394 bound_to 11000
  141.0077  133.7114  156.1061 LP  0  0  0  0  0  0  0  0  0  0  0  0  # atno 17395 bound_to 11000

$$$$
