AV-unprocessed.smi:2204|AV-procd|sdf|8939|dock3
  -GOLD-   2272012153D 1   1.00000     0.00000
 Structure written by MMmdl.
 39 40  0  0  0  0  0  0  0  0  1 V2000
  153.7710  141.7172  161.7120 C   0  0  0  0  0  0  0  0  0  0  0  0
  152.9485  142.6996  160.9319 C   0  0  0  0  0  0  0  0  0  0  0  0
  152.2753  143.8586  161.4084 C   0  0  0  0  0  0  0  0  0  0  0  0
  151.6649  144.3742  160.3000 C   0  0  0  0  0  0  0  0  0  0  0  0
  150.7896  145.5755  160.1579 C   0  0  0  0  0  0  0  0  0  0  0  0
  151.9877  143.5444  159.2400 N   0  0  0  0  0  0  0  0  0  0  0  0
  151.5716  143.6246  157.8448 C   0  0  0  0  0  0  0  0  0  0  0  0
  151.2047  142.2468  157.2840 C   0  0  0  0  0  0  0  0  0  0  0  0
  151.7236  141.2341  157.7524 O   0  0  0  0  0  0  0  0  0  0  0  0
  150.2985  142.2270  156.2940 N   0  0  0  0  0  0  0  0  0  0  0  0
  149.6593  141.0428  155.7285 C   0  0  2  0  0  0  0  0  0  0  0  0
  150.7248  140.0084  155.3389 C   0  0  0  0  0  0  0  0  0  0  0  0
  148.7713  141.4500  154.5344 C   0  0  1  0  0  0  0  0  0  0  0  0
  148.2648  140.2829  153.6755 C   0  0  0  0  0  0  0  0  0  0  0  0
  146.9502  140.8178  153.1562 C   0  0  0  0  0  0  0  0  0  0  0  0
  146.4408  141.5913  154.3656 C   0  0  0  0  0  0  0  0  0  0  0  0
  147.6022  142.1410  154.9783 O   0  0  0  0  0  0  0  0  0  0  0  0
  152.7785  142.5211  159.6325 N   0  0  0  0  0  0  0  0  0  0  0  0
  154.0117  142.1044  162.7022 H   0  0  0  0  0  0  0  0  0  0  0  0
  154.7109  141.4961  161.2054 H   0  0  0  0  0  0  0  0  0  0  0  0
  153.2332  140.7781  161.8450 H   0  0  0  0  0  0  0  0  0  0  0  0
  152.2358  144.2460  162.4157 H   0  0  0  0  0  0  0  0  0  0  0  0
  150.6444  146.0673  161.1202 H   0  0  0  0  0  0  0  0  0  0  0  0
  149.8080  145.2977  159.7730 H   0  0  0  0  0  0  0  0  0  0  0  0
  151.2320  146.3006  159.4746 H   0  0  0  0  0  0  0  0  0  0  0  0
  150.7164  144.2943  157.7534 H   0  0  0  0  0  0  0  0  0  0  0  0
  152.3820  144.0631  157.2604 H   0  0  0  0  0  0  0  0  0  0  0  0
  149.9450  143.1162  155.9715 H   0  0  0  0  0  0  0  0  0  0  0  0
  149.0096  140.5811  156.4739 H   0  0  0  0  0  0  0  0  0  0  0  0
  150.2650  139.1091  154.9285 H   0  0  0  0  0  0  0  0  0  0  0  0
  151.3155  139.7095  156.2055 H   0  0  0  0  0  0  0  0  0  0  0  0
  151.4104  140.4039  154.5887 H   0  0  0  0  0  0  0  0  0  0  0  0
  149.3208  142.1366  153.8887 H   0  0  0  0  0  0  0  0  0  0  0  0
  148.9589  140.0113  152.8799 H   0  0  0  0  0  0  0  0  0  0  0  0
  148.0784  139.3914  154.2749 H   0  0  0  0  0  0  0  0  0  0  0  0
  147.1223  141.4952  152.3189 H   0  0  0  0  0  0  0  0  0  0  0  0
  146.2654  140.0336  152.8320 H   0  0  0  0  0  0  0  0  0  0  0  0
  145.7232  142.3668  154.0978 H   0  0  0  0  0  0  0  0  0  0  0  0
  145.9613  140.9151  155.0737 H   0  0  0  0  0  0  0  0  0  0  0  0
  1  2  1  0  0  0  0
  1 19  1  0  0  0  0
  1 20  1  0  0  0  0
  1 21  1  0  0  0  0
  2 18  2  0  0  0  0
  2  3  1  0  0  0  0
  3  4  2  0  0  0  0
  3 22  1  0  0  0  0
  4  5  1  0  0  0  0
  4  6  1  0  0  0  0
  5 23  1  0  0  0  0
  5 24  1  0  0  0  0
  5 25  1  0  0  0  0
  6  7  1  0  0  0  0
  6 18  1  0  0  0  0
  7  8  1  0  0  0  0
  7 26  1  0  0  0  0
  7 27  1  0  0  0  0
  8  9  2  0  0  0  0
  8 10  1  0  0  0  0
 10 11  1  0  0  0  0
 10 28  1  0  0  0  0
 11 12  1  0  0  0  0
 11 13  1  0  0  0  0
 11 29  1  0  0  0  0
 12 30  1  0  0  0  0
 12 31  1  0  0  0  0
 12 32  1  0  0  0  0
 13 17  1  0  0  0  0
 13 14  1  0  0  0  0
 13 33  1  0  0  0  0
 14 15  1  0  0  0  0
 14 34  1  0  0  0  0
 14 35  1  0  0  0  0
 15 16  1  0  0  0  0
 15 36  1  0  0  0  0
 15 37  1  0  0  0  0
 16 17  1  0  0  0  0
 16 38  1  0  0  0  0
 16 39  1  0  0  0  0
M  END
> <s_m_source_file>
AV-unprocessed.smi

> <i_m_source_file_index>
2204

> <i_lp_mmshare_version>
43012

> <i_f3d_flags>
0

> <s_epik_input>
W0NIM11jMVtjSF1jKFtDSDNdKW4objEpW0NIMl1DKD1PKVtOSF1bQ0BIXShbQ0gzXSlbQ0BASF0yW0NIMl1bQ0gyXVtDSDJdTzI=

> <s_epik_cmdline>
J2VwaWtfcHl0aG9uJywgJy1waCcsICc3LjAnLCAnLXRuJywgJzgnLCAnLW1hJywgJzIwMCcsICctbWV0YWxfYmluZGluZycsICctaW1hZScsICc8aW5maWxlLm1hZT4nLCAnLW9tYWUnLCAnPG91dGZpbGUubWFlPic=

> <r_lp_tautomer_probability>
1

> <r_epik_Ionization_Penalty>
0.000433354

> <r_epik_Ionization_Penalty_Charging>
0

> <r_epik_Ionization_Penalty_Neutral>
0.000433354

> <r_epik_State_Penalty>
-0

> <r_epik_Charging_Adjusted_Penalty>
0

> <i_epik_Tot_Q>
0

> <i_epik_Tot_abs_Q>
0

> <r_epik_Metal_State_Penalty>
-0

> <b_epik_Metal_Only>
0

> <s_lp_Force_Field>
OPLS_2005

> <r_lp_Energy>
16.4317

> <b_lp_Chiralities_Consistent>
1

> <s_lp_Variant>
AV-unprocessed.smi:2204-3

> <Gold.Version>
5.8.1

> <Gold.Id.Protein>
6NUR|6NUR_protein|mol2

> <Gold.PLP.Fitness>
43.8456

> <Gold.PLP.PLP>
-42.4844

> <Gold.PLP.part.hbond>
-1.0000

> <Gold.PLP.part.metal>
0.0000

> <Gold.PLP.part.buried>
-2.3917

> <Gold.PLP.part.nonpolar>
-40.4596

> <Gold.PLP.part.repulsive>
1.6153

> <Gold.PLP.ligand.clash>
0.0000

> <Gold.PLP.ligand.torsion>
0.8373

> <Gold.PLP.Chemscore.Hbond>
1.0000

> <Gold.PLP.Chemscore.CHOScore>
0.0000

> <Gold.PLP.Chemscore.Metal>
0.0000

> <Gold.Chemscore.Hbonds>
donor molecule, donor type, donor heavy atom, donor atom, acceptor molecule, acceptor atom, score
      L1  H    10    28       P1  8028  1.00

> <Gold.PLP.Chemscore.Internal.Correction>
0.0357

> <Gold.Rescore>
     Score         DG    S(hbond)    S(metal)    S(lipo)     H(rot)  DE(clash)    DE(int)     intcor
     12.74     -17.72       0.99        0.00     109.12       1.50       1.36       3.62       ----

> <Gold.Chemscore.Fitness>
12.7378

> <Gold.Chemscore.DG>
-17.7249

> <Gold.Chemscore.ZeroCoef>
-5.4800

> <Gold.Chemscore.Hbond>
0.9939

> <Gold.Chemscore.Metal>
0.0000

> <Gold.Chemscore.Lipo>
109.1155

> <Gold.Chemscore.Internal_Hbond>
0.0000

> <Gold.Chemscore.DEClash>
1.3633

> <Gold.Chemscore.DEInternal>
3.6237

> <Gold.Chemscore.Rot>
1.5005

> <Gold.Chemscore.Internal.Correction>
   9.000000E+99

> <Gold.Chemscore.Hbonds>
donor molecule, donor type, donor heavy atom, donor atom, acceptor molecule, acceptor atom, score
      L1  H    10    28       P1  8028  0.99

> <Gold.Chemscore.Hbond.Weighted>
-3.3196

> <Gold.Chemscore.Metal.Weighted>
-0.0000

> <Gold.Chemscore.Lipo.Weighted>
-12.7665

> <Gold.Chemscore.Internal_Hbond.Weighted>
0.0000

> <Gold.Chemscore.DEClash.Weighted>
1.3633

> <Gold.Chemscore.DEInternal.Weighted>
3.6237

> <Gold.Chemscore.Rot.Weighted>
3.8412

> <Gold.Chemscore.Internal.Correction.Weighted>
   9.000000E+99

> <Gold.Protein.RotatedTorsions>
[ 6907 6896 6895 6894 ] final -137.10 input  -60.11 | X-H torsion
[ 7974 7965 7964 7962 ] final   30.51 input  175.53 | X-H torsion
[ 8008 7997 7996 7995 ] final  151.96 input   59.86 | X-H torsion
[ 10167 10162 10161 10158 ] final    6.61 input  -65.29 | X-H torsion
[ 10718 10713 10712 10709 ] final -175.28 input   66.30 | X-H torsion
[ 10763 10752 10751 10750 ] final  -49.20 input  -60.55 | X-H torsion
[ 11005 11000 10999 10996 ] final   31.93 input  -57.11 | X-H torsion

> <Gold.Protein.ActiveResidues>
 VAL166  LYS551  ARG553  GLY616  TRP617  ASP618  TYR619  PRO620  LYS621  CYS622 
 ASP623  PHE694  ASN695  SER759  ASP760  ASP761  ALA762  ILE779  LEU786  VAL792 
 PHE793  MET794  SER795  GLU796  ALA797  LYS798  CYS799  TRP800  GLU811  SER814 

> <Gold.Protein.RotatedAtoms>
  151.0183  133.5901  159.2674 H   0  0  0  0  0  0  0  0  0  0  0  0  # atno 6907 bound_to 6896
  151.3027  135.0772  159.9254 H   0  0  0  0  0  0  0  0  0  0  0  0  # atno 6908 bound_to 6896
  152.5317  133.9861  159.7883 H   0  0  0  0  0  0  0  0  0  0  0  0  # atno 6909 bound_to 6896
  146.1607  139.6779  142.9035 H   0  0  0  0  0  0  0  0  0  0  0  0  # atno 7974 bound_to 7965
  156.2651  140.2034  156.6257 H   0  0  0  0  0  0  0  0  0  0  0  0  # atno 8008 bound_to 7997
  154.6722  140.0549  157.0202 H   0  0  0  0  0  0  0  0  0  0  0  0  # atno 8009 bound_to 7997
  155.1121  140.3216  155.4522 H   0  0  0  0  0  0  0  0  0  0  0  0  # atno 8010 bound_to 7997
  140.6418  143.7756  150.7439 H   0  0  0  0  0  0  0  0  0  0  0  0  # atno 10167 bound_to 10162
  156.7975  130.9540  151.3119 H   0  0  0  0  0  0  0  0  0  0  0  0  # atno 10718 bound_to 10713
  154.0901  135.6578  153.4851 H   0  0  0  0  0  0  0  0  0  0  0  0  # atno 10763 bound_to 10752
  153.0325  135.5200  154.7388 H   0  0  0  0  0  0  0  0  0  0  0  0  # atno 10764 bound_to 10752
  154.6510  135.3001  154.9956 H   0  0  0  0  0  0  0  0  0  0  0  0  # atno 10765 bound_to 10752
  140.2787  134.2998  155.7806 H   0  0  0  0  0  0  0  0  0  0  0  0  # atno 11005 bound_to 11000
  145.4594  141.0432  143.2760 LP  0  0  0  0  0  0  0  0  0  0  0  0  # atno 17320 bound_to 7965
  144.8024  139.6116  143.7066 LP  0  0  0  0  0  0  0  0  0  0  0  0  # atno 17321 bound_to 7965
  140.1389  143.4459  152.2206 LP  0  0  0  0  0  0  0  0  0  0  0  0  # atno 17342 bound_to 10162
  139.5627  144.7416  151.4109 LP  0  0  0  0  0  0  0  0  0  0  0  0  # atno 17343 bound_to 10162
  157.6570  130.8933  149.9750 LP  0  0  0  0  0  0  0  0  0  0  0  0  # atno 17370 bound_to 10713
  156.1121  130.3649  150.0031 LP  0  0  0  0  0  0  0  0  0  0  0  0  # atno 17371 bound_to 10713
  141.2166  133.7512  156.9447 LP  0  0  0  0  0  0  0  0  0  0  0  0  # atno 17394 bound_to 11000
  140.1304  134.9360  157.2328 LP  0  0  0  0  0  0  0  0  0  0  0  0  # atno 17395 bound_to 11000

$$$$
