AV-unprocessed.smi:2674|AV-procd|sdf|10358|dock9
  -GOLD-   2272014383D 1   1.00000     0.00000
 Structure written by MMmdl.
 45 46  0  0  0  0  0  0  0  0  2 V2000
  145.2447  136.1057  152.9841 C   0  0  0  0  0  0  0  0  0  0  0  0
  146.0893  135.9052  151.7790 N   0  3  2  0  0  0  0  0  0  0  0  0
  145.9751  137.0642  150.8527 C   0  0  0  0  0  0  0  0  0  0  0  0
  146.1542  138.3986  151.5990 C   0  0  0  0  0  0  0  0  0  0  0  0
  147.4255  138.4518  152.3116 N   0  0  0  0  0  0  0  0  0  0  0  0
  147.6830  139.2503  153.3576 C   0  0  0  0  0  0  0  0  0  0  0  0
  146.8525  140.0233  153.8362 O   0  0  0  0  0  0  0  0  0  0  0  0
  148.9437  139.0899  153.7972 N   0  0  0  0  0  0  0  0  0  0  0  0
  149.5836  139.7424  154.8847 C   0  0  0  0  0  0  0  0  0  0  0  0
  148.7104  140.3002  155.8460 C   0  0  0  0  0  0  0  0  0  0  0  0
  149.2464  140.9714  156.9620 C   0  0  0  0  0  0  0  0  0  0  0  0
  150.6434  141.0682  157.0881 C   0  0  0  0  0  0  0  0  0  0  0  0
  151.4415  140.4861  156.0862 C   0  0  0  0  0  0  0  0  0  0  0  0
  150.9301  139.8423  155.0154 N   0  0  0  0  0  0  0  0  0  0  0  0
  145.9183  134.5872  151.0885 C   0  0  0  0  0  0  0  0  0  0  0  0
  144.4783  134.3293  150.5692 C   0  0  0  0  0  0  0  0  0  0  0  0
  144.3432  132.9519  149.8989 C   0  0  0  0  0  0  0  0  0  0  0  0
  144.7660  131.8231  150.8473 C   0  0  0  0  0  0  0  0  0  0  0  0
  146.1907  132.0552  151.3665 C   0  0  0  0  0  0  0  0  0  0  0  0
  146.3197  133.4306  152.0392 C   0  0  0  0  0  0  0  0  0  0  0  0
  144.1873  135.9857  152.7447 H   0  0  0  0  0  0  0  0  0  0  0  0
  145.3812  137.1051  153.3973 H   0  0  0  0  0  0  0  0  0  0  0  0
  145.5069  135.4065  153.7778 H   0  0  0  0  0  0  0  0  0  0  0  0
  146.7219  137.0039  150.0621 H   0  0  0  0  0  0  0  0  0  0  0  0
  145.0133  137.0374  150.3375 H   0  0  0  0  0  0  0  0  0  0  0  0
  146.1292  139.2348  150.9007 H   0  0  0  0  0  0  0  0  0  0  0  0
  145.3315  138.5560  152.2991 H   0  0  0  0  0  0  0  0  0  0  0  0
  148.1626  137.8470  151.9795 H   0  0  0  0  0  0  0  0  0  0  0  0
  149.5135  138.4239  153.2968 H   0  0  0  0  0  0  0  0  0  0  0  0
  147.6390  140.2169  155.7341 H   0  0  0  0  0  0  0  0  0  0  0  0
  148.5960  141.4042  157.7079 H   0  0  0  0  0  0  0  0  0  0  0  0
  151.0918  141.5749  157.9299 H   0  0  0  0  0  0  0  0  0  0  0  0
  152.5185  140.5386  156.1454 H   0  0  0  0  0  0  0  0  0  0  0  0
  146.5801  134.5801  150.2203 H   0  0  0  0  0  0  0  0  0  0  0  0
  143.7669  134.3998  151.3934 H   0  0  0  0  0  0  0  0  0  0  0  0
  144.1869  135.0808  149.8354 H   0  0  0  0  0  0  0  0  0  0  0  0
  143.3141  132.7959  149.5743 H   0  0  0  0  0  0  0  0  0  0  0  0
  144.9580  132.9218  148.9984 H   0  0  0  0  0  0  0  0  0  0  0  0
  144.0721  131.7694  151.6874 H   0  0  0  0  0  0  0  0  0  0  0  0
  144.7072  130.8625  150.3348 H   0  0  0  0  0  0  0  0  0  0  0  0
  146.4592  131.2695  152.0730 H   0  0  0  0  0  0  0  0  0  0  0  0
  146.8996  131.9839  150.5406 H   0  0  0  0  0  0  0  0  0  0  0  0
  147.3429  133.5422  152.3958 H   0  0  0  0  0  0  0  0  0  0  0  0
  145.6890  133.4550  152.9291 H   0  0  0  0  0  0  0  0  0  0  0  0
  147.0434  135.9053  152.1112 H   0  0  0  0  0  0  0  0  0  0  0  0
  1  2  1  0  0  0  0
  1 21  1  0  0  0  0
  1 22  1  0  0  0  0
  1 23  1  0  0  0  0
  2  3  1  0  0  0  0
  2 15  1  0  0  0  0
  2 45  1  0  0  0  0
  3  4  1  0  0  0  0
  3 24  1  0  0  0  0
  3 25  1  0  0  0  0
  4  5  1  0  0  0  0
  4 26  1  0  0  0  0
  4 27  1  0  0  0  0
  5  6  1  0  0  0  0
  5 28  1  0  0  0  0
  6  7  2  0  0  0  0
  6  8  1  0  0  0  0
  8  9  1  0  0  0  0
  8 29  1  0  0  0  0
  9 14  1  0  0  0  0
  9 10  2  0  0  0  0
 10 11  1  0  0  0  0
 10 30  1  0  0  0  0
 11 12  2  0  0  0  0
 11 31  1  0  0  0  0
 12 13  1  0  0  0  0
 12 32  1  0  0  0  0
 13 14  2  0  0  0  0
 13 33  1  0  0  0  0
 15 20  1  0  0  0  0
 15 16  1  0  0  0  0
 15 34  1  0  0  0  0
 16 17  1  0  0  0  0
 16 35  1  0  0  0  0
 16 36  1  0  0  0  0
 17 18  1  0  0  0  0
 17 37  1  0  0  0  0
 17 38  1  0  0  0  0
 18 19  1  0  0  0  0
 18 39  1  0  0  0  0
 18 40  1  0  0  0  0
 19 20  1  0  0  0  0
 19 41  1  0  0  0  0
 19 42  1  0  0  0  0
 20 43  1  0  0  0  0
 20 44  1  0  0  0  0
M  CHG  1   2   1
M  END
> <s_m_source_file>
AV-unprocessed.smi

> <i_m_source_file_index>
2674

> <i_lp_mmshare_version>
43012

> <i_f3d_flags>
0

> <s_epik_input>
W0NIMl0xW0NIMl1bQ0gyXVtDSDJdW0NIMl1bQ0hdMU4oW0NIM10pW0NIMl1bQ0gyXVtOSF1DKD1PKVtOSF1jMltjSF1bY0hdW2NIXVtjSF1uMg==

> <s_epik_cmdline>
J2VwaWtfcHl0aG9uJywgJy1waCcsICc3LjAnLCAnLXRuJywgJzgnLCAnLW1hJywgJzIwMCcsICctbWV0YWxfYmluZGluZycsICctaW1hZScsICc8aW5maWxlLm1hZT4nLCAnLW9tYWUnLCAnPG91dGZpbGUubWFlPic=

> <r_epik_Ionization_Penalty>
0.00206741

> <r_epik_Ionization_Penalty_Charging>
0.00203269

> <r_epik_Ionization_Penalty_Neutral>
3.47205e-05

> <r_epik_State_Penalty>
0.00139005

> <r_epik_Charging_Adjusted_Penalty>
0.00342273

> <i_epik_Tot_Q>
1

> <i_epik_Tot_abs_Q>
1

> <r_epik_Metal_State_Penalty>
-0

> <b_epik_Metal_Only>
0

> <s_lp_Force_Field>
OPLS_2005

> <r_lp_Energy>
21.2235

> <b_lp_Chiralities_Consistent>
1

> <s_lp_Variant>
AV-unprocessed.smi:2674-1

> <Gold.Version>
5.8.1

> <Gold.Id.Protein>
6NUR|6NUR_protein|mol2

> <Gold.PLP.Fitness>
47.6859

> <Gold.PLP.PLP>
-36.2704

> <Gold.PLP.part.hbond>
-5.0000

> <Gold.PLP.part.metal>
0.0000

> <Gold.PLP.part.buried>
1.7246

> <Gold.PLP.part.nonpolar>
-33.7969

> <Gold.PLP.part.repulsive>
0.4795

> <Gold.PLP.ligand.clash>
0.0000

> <Gold.PLP.ligand.torsion>
0.3394

> <Gold.PLP.Chemscore.Hbond>
4.0000

> <Gold.PLP.Chemscore.CHOScore>
0.0000

> <Gold.PLP.Chemscore.Metal>
0.0000

> <Gold.Chemscore.Hbonds>
donor molecule, donor type, donor heavy atom, donor atom, acceptor molecule, acceptor atom, score
      L1  H     2    45       P1  7948  2.00
      L1  H     5    28       P1  7948  1.00
      P1  H  7989  7998       L1    14  1.00

> <Gold.PLP.Chemscore.Internal.Correction>
0.0943

> <Gold.Rescore>
     Score         DG    S(hbond)    S(metal)    S(lipo)     H(rot)  DE(clash)    DE(int)     intcor
     15.44     -19.14       2.63        0.00      78.76       1.70       1.84       1.85       ----

> <Gold.Chemscore.Fitness>
15.4422

> <Gold.Chemscore.DG>
-19.1354

> <Gold.Chemscore.ZeroCoef>
-5.4800

> <Gold.Chemscore.Hbond>
2.6348

> <Gold.Chemscore.Metal>
0.0000

> <Gold.Chemscore.Lipo>
78.7591

> <Gold.Chemscore.Internal_Hbond>
0.0000

> <Gold.Chemscore.DEClash>
1.8425

> <Gold.Chemscore.DEInternal>
1.8507

> <Gold.Chemscore.Rot>
1.7030

> <Gold.Chemscore.Internal.Correction>
   9.000000E+99

> <Gold.Chemscore.Hbonds>
donor molecule, donor type, donor heavy atom, donor atom, acceptor molecule, acceptor atom, score
      L1  H     2    45       P1  7948  0.95
      L1  H     5    28       P1  7948  0.97
      P1  H  7989  7998       L1    14  0.27

> <Gold.Chemscore.Hbond.Weighted>
-8.8003

> <Gold.Chemscore.Metal.Weighted>
-0.0000

> <Gold.Chemscore.Lipo.Weighted>
-9.2148

> <Gold.Chemscore.Internal_Hbond.Weighted>
0.0000

> <Gold.Chemscore.DEClash.Weighted>
1.8425

> <Gold.Chemscore.DEInternal.Weighted>
1.8507

> <Gold.Chemscore.Rot.Weighted>
4.3597

> <Gold.Chemscore.Internal.Correction.Weighted>
   9.000000E+99

> <Gold.Protein.RotatedTorsions>
[ 6907 6896 6895 6894 ] final -138.47 input  -60.11 | X-H torsion
[ 7974 7965 7964 7962 ] final  -92.24 input  175.53 | X-H torsion
[ 8008 7997 7996 7995 ] final  128.43 input   59.86 | X-H torsion
[ 10167 10162 10161 10158 ] final   -1.73 input  -65.29 | X-H torsion
[ 10718 10713 10712 10709 ] final  106.83 input   66.30 | X-H torsion
[ 10763 10752 10751 10750 ] final   26.32 input  -60.55 | X-H torsion
[ 11005 11000 10999 10996 ] final   68.92 input  -57.11 | X-H torsion

> <Gold.Protein.ActiveResidues>
 VAL166  LYS551  ARG553  GLY616  TRP617  ASP618  TYR619  PRO620  LYS621  CYS622 
 ASP623  PHE694  ASN695  SER759  ASP760  ASP761  ALA762  ILE779  LEU786  VAL792 
 PHE793  MET794  SER795  GLU796  ALA797  LYS798  CYS799  TRP800  GLU811  SER814 

> <Gold.Protein.RotatedAtoms>
  151.0354  133.5753  159.2656 H   0  0  0  0  0  0  0  0  0  0  0  0  # atno 6907 bound_to 6896
  151.2819  135.0715  159.9182 H   0  0  0  0  0  0  0  0  0  0  0  0  # atno 6908 bound_to 6896
  152.5353  134.0067  159.7974 H   0  0  0  0  0  0  0  0  0  0  0  0  # atno 6909 bound_to 6896
  145.4025  140.9538  143.2279 H   0  0  0  0  0  0  0  0  0  0  0  0  # atno 7974 bound_to 7965
  156.2914  140.2645  156.2435 H   0  0  0  0  0  0  0  0  0  0  0  0  # atno 8008 bound_to 7997
  154.9954  140.0388  157.2356 H   0  0  0  0  0  0  0  0  0  0  0  0  # atno 8009 bound_to 7997
  154.7649  140.2767  155.6189 H   0  0  0  0  0  0  0  0  0  0  0  0  # atno 8010 bound_to 7997
  140.6822  143.6741  150.8160 H   0  0  0  0  0  0  0  0  0  0  0  0  # atno 10167 bound_to 10162
  157.6652  131.0859  150.6066 H   0  0  0  0  0  0  0  0  0  0  0  0  # atno 10718 bound_to 10713
  153.0630  135.6563  154.0418 H   0  0  0  0  0  0  0  0  0  0  0  0  # atno 10763 bound_to 10752
  154.0082  135.2931  155.3397 H   0  0  0  0  0  0  0  0  0  0  0  0  # atno 10764 bound_to 10752
  154.6977  135.5257  153.8550 H   0  0  0  0  0  0  0  0  0  0  0  0  # atno 10765 bound_to 10752
  139.9684  134.6942  156.0498 H   0  0  0  0  0  0  0  0  0  0  0  0  # atno 11005 bound_to 11000
  144.8364  139.5543  143.6920 LP  0  0  0  0  0  0  0  0  0  0  0  0  # atno 17320 bound_to 7965
  146.2745  139.6717  142.9273 LP  0  0  0  0  0  0  0  0  0  0  0  0  # atno 17321 bound_to 7965
  140.0443  143.5314  152.2703 LP  0  0  0  0  0  0  0  0  0  0  0  0  # atno 17342 bound_to 10162
  139.6153  144.7618  151.2860 LP  0  0  0  0  0  0  0  0  0  0  0  0  # atno 17343 bound_to 10162
  156.6367  130.4447  149.5767 LP  0  0  0  0  0  0  0  0  0  0  0  0  # atno 17370 bound_to 10713
  156.2240  130.6754  151.1397 LP  0  0  0  0  0  0  0  0  0  0  0  0  # atno 17371 bound_to 10713
  141.1363  133.6574  156.3604 LP  0  0  0  0  0  0  0  0  0  0  0  0  # atno 17394 bound_to 11000
  140.5347  134.6178  157.5361 LP  0  0  0  0  0  0  0  0  0  0  0  0  # atno 17395 bound_to 11000

$$$$
