AV-unprocessed.smi:1961|AV-procd|sdf|7920|dock9
  -GOLD-   2272010 83D 1   1.00000     0.00000
 Structure written by MMmdl.
 35 36  0  0  0  0  0  0  0  0  2 V2000
  151.2640  133.0888  156.4787 C   0  0  0  0  0  0  0  0  0  0  0  0
  150.4039  134.3565  156.3700 C   0  0  0  0  0  0  0  0  0  0  0  0
  149.4561  134.3417  155.1622 C   0  0  0  0  0  0  0  0  0  0  0  0
  151.2278  135.6048  156.4242 C   0  0  0  0  0  0  0  0  0  0  0  0
  152.3250  135.7245  157.1781 N   0  0  0  0  0  0  0  0  0  0  0  0
  152.9120  136.9752  157.0555 N   0  0  0  0  0  0  0  0  0  0  0  0
  152.2608  137.7799  156.2044 C   0  0  0  0  0  0  0  0  0  0  0  0
  152.6650  139.0345  155.9457 N   0  5  0  0  0  0  0  0  0  0  0  0
  151.7715  140.0496  155.9634 C   0  0  0  0  0  0  0  0  0  0  0  0
  151.1826  140.5214  154.9878 O   0  0  0  0  0  0  0  0  0  0  0  0
  151.5420  140.5456  157.1875 N   0  0  0  0  0  0  0  0  0  0  0  0
  150.6187  141.6275  157.5114 C   0  0  0  0  0  0  0  0  0  0  0  0
  151.3675  142.9182  157.8830 C   0  0  2  0  0  0  0  0  0  0  0  0
  152.4444  142.7256  158.9478 C   0  0  0  0  0  0  0  0  0  0  0  0
  152.5725  144.1059  159.5745 C   0  0  0  0  0  0  0  0  0  0  0  0
  151.3124  144.8447  159.1127 C   0  0  0  0  0  0  0  0  0  0  0  0
  150.4986  143.8502  158.5075 O   0  0  0  0  0  0  0  0  0  0  0  0
  150.8282  137.0389  155.4928 S   0  0  0  0  0  0  0  0  0  0  0  0
  151.8624  133.0983  157.3904 H   0  0  0  0  0  0  0  0  0  0  0  0
  151.9466  132.9990  155.6330 H   0  0  0  0  0  0  0  0  0  0  0  0
  150.6425  132.1933  156.5001 H   0  0  0  0  0  0  0  0  0  0  0  0
  149.7685  134.3704  157.2564 H   0  0  0  0  0  0  0  0  0  0  0  0
  148.8031  135.2151  155.1670 H   0  0  0  0  0  0  0  0  0  0  0  0
  148.8220  133.4550  155.1708 H   0  0  0  0  0  0  0  0  0  0  0  0
  150.0097  134.3458  154.2226 H   0  0  0  0  0  0  0  0  0  0  0  0
  152.0417  140.1272  157.9583 H   0  0  0  0  0  0  0  0  0  0  0  0
  149.9743  141.8004  156.6493 H   0  0  0  0  0  0  0  0  0  0  0  0
  149.9653  141.3205  158.3294 H   0  0  0  0  0  0  0  0  0  0  0  0
  151.8094  143.3791  156.9972 H   0  0  0  0  0  0  0  0  0  0  0  0
  152.1062  142.0133  159.7017 H   0  0  0  0  0  0  0  0  0  0  0  0
  153.3833  142.3570  158.5337 H   0  0  0  0  0  0  0  0  0  0  0  0
  152.6267  144.0372  160.6613 H   0  0  0  0  0  0  0  0  0  0  0  0
  153.4677  144.6213  159.2248 H   0  0  0  0  0  0  0  0  0  0  0  0
  150.7882  145.3344  159.9335 H   0  0  0  0  0  0  0  0  0  0  0  0
  151.5632  145.6019  158.3683 H   0  0  0  0  0  0  0  0  0  0  0  0
  1  2  1  0  0  0  0
  1 19  1  0  0  0  0
  1 20  1  0  0  0  0
  1 21  1  0  0  0  0
  2  3  1  0  0  0  0
  2  4  1  0  0  0  0
  2 22  1  0  0  0  0
  3 23  1  0  0  0  0
  3 24  1  0  0  0  0
  3 25  1  0  0  0  0
  4 18  1  0  0  0  0
  4  5  2  0  0  0  0
  5  6  1  0  0  0  0
  6  7  2  0  0  0  0
  7  8  1  0  0  0  0
  7 18  1  0  0  0  0
  8  9  1  0  0  0  0
  9 10  2  0  0  0  0
  9 11  1  0  0  0  0
 11 12  1  0  0  0  0
 11 26  1  0  0  0  0
 12 13  1  0  0  0  0
 12 27  1  0  0  0  0
 12 28  1  0  0  0  0
 13 17  1  0  0  0  0
 13 14  1  0  0  0  0
 13 29  1  0  0  0  0
 14 15  1  0  0  0  0
 14 30  1  0  0  0  0
 14 31  1  0  0  0  0
 15 16  1  0  0  0  0
 15 32  1  0  0  0  0
 15 33  1  0  0  0  0
 16 17  1  0  0  0  0
 16 34  1  0  0  0  0
 16 35  1  0  0  0  0
M  CHG  1   8  -1
M  END
> <s_m_source_file>
AV-unprocessed.smi

> <i_m_source_file_index>
1961

> <i_lp_mmshare_version>
43012

> <i_f3d_flags>
0

> <s_epik_input>
W0NIM11bQ0hdKFtDSDNdKWMxbm5jKHMxKVtOSF1DKD1PKVtOSF1bQ0gyXVtDQEBIXTJbQ0gyXVtDSDJdW0NIMl1PMg==

> <s_epik_cmdline>
J2VwaWtfcHl0aG9uJywgJy1waCcsICc3LjAnLCAnLXRuJywgJzgnLCAnLW1hJywgJzIwMCcsICctbWV0YWxfYmluZGluZycsICctaW1hZScsICc8aW5maWxlLm1hZT4nLCAnLW9tYWUnLCAnPG91dGZpbGUubWFlPic=

> <r_lp_tautomer_probability>
1

> <r_epik_Ionization_Penalty>
4.36179

> <r_epik_Ionization_Penalty_Charging>
4.21437

> <r_epik_Ionization_Penalty_Neutral>
0.147417

> <r_epik_State_Penalty>
4.21389

> <r_epik_Charging_Adjusted_Penalty>
8.42826

> <i_epik_Tot_Q>
-1

> <i_epik_Tot_abs_Q>
1

> <r_epik_Metal_State_Penalty>
0.693772

> <b_epik_Metal_Only>
1

> <s_lp_Force_Field>
OPLS_2005

> <r_lp_Energy>
8.68115

> <b_lp_Chiralities_Consistent>
1

> <s_lp_Variant>
AV-unprocessed.smi:1961-3

> <Gold.Version>
5.8.1

> <Gold.Id.Protein>
6NUR|6NUR_protein|mol2

> <Gold.PLP.Fitness>
36.6815

> <Gold.PLP.PLP>
-31.0884

> <Gold.PLP.part.hbond>
-2.9980

> <Gold.PLP.part.metal>
0.0000

> <Gold.PLP.part.buried>
-4.2986

> <Gold.PLP.part.nonpolar>
-24.3550

> <Gold.PLP.part.repulsive>
0.3267

> <Gold.PLP.ligand.clash>
0.0000

> <Gold.PLP.ligand.torsion>
1.8308

> <Gold.PLP.Chemscore.Hbond>
3.0380

> <Gold.PLP.Chemscore.CHOScore>
0.0000

> <Gold.PLP.Chemscore.Metal>
0.0000

> <Gold.Chemscore.Hbonds>
donor molecule, donor type, donor heavy atom, donor atom, acceptor molecule, acceptor atom, score
      P1  H  7989  7998       L1    10  0.98
      P1  H  7997  8009       L1     8  1.80
      P1  H 10752 10765       L1     5  0.01

> <Gold.PLP.Chemscore.Internal.Correction>
0.1407

> <Gold.Rescore>
     Score         DG    S(hbond)    S(metal)    S(lipo)     H(rot)  DE(clash)    DE(int)     intcor
     13.68     -15.60       1.62        0.00      71.38       1.42       0.02       1.90       ----

> <Gold.Chemscore.Fitness>
13.6829

> <Gold.Chemscore.DG>
-15.6014

> <Gold.Chemscore.ZeroCoef>
-5.4800

> <Gold.Chemscore.Hbond>
1.6178

> <Gold.Chemscore.Metal>
0.0000

> <Gold.Chemscore.Lipo>
71.3780

> <Gold.Chemscore.Internal_Hbond>
0.0000

> <Gold.Chemscore.DEClash>
0.0183

> <Gold.Chemscore.DEInternal>
1.9002

> <Gold.Chemscore.Rot>
1.4193

> <Gold.Chemscore.Internal.Correction>
   9.000000E+99

> <Gold.Chemscore.Hbonds>
donor molecule, donor type, donor heavy atom, donor atom, acceptor molecule, acceptor atom, score
      P1  H  7989  7998       L1    10  0.92
      P1  H  7997  8009       L1     8  0.17

> <Gold.Chemscore.Hbond.Weighted>
-5.4035

> <Gold.Chemscore.Metal.Weighted>
-0.0000

> <Gold.Chemscore.Lipo.Weighted>
-8.3512

> <Gold.Chemscore.Internal_Hbond.Weighted>
0.0000

> <Gold.Chemscore.DEClash.Weighted>
0.0183

> <Gold.Chemscore.DEInternal.Weighted>
1.9002

> <Gold.Chemscore.Rot.Weighted>
3.6333

> <Gold.Chemscore.Internal.Correction.Weighted>
   9.000000E+99

> <Gold.Protein.RotatedTorsions>
[ 6907 6896 6895 6894 ] final  112.00 input  -60.11 | X-H torsion
[ 7974 7965 7964 7962 ] final  -50.34 input  175.53 | X-H torsion
[ 8008 7997 7996 7995 ] final -158.26 input   59.86 | X-H torsion
[ 10167 10162 10161 10158 ] final  118.39 input  -65.29 | X-H torsion
[ 10718 10713 10712 10709 ] final   50.58 input   66.30 | X-H torsion
[ 10763 10752 10751 10750 ] final -123.77 input  -60.55 | X-H torsion
[ 11005 11000 10999 10996 ] final    9.21 input  -57.11 | X-H torsion

> <Gold.Protein.ActiveResidues>
 VAL166  LYS551  ARG553  GLY616  TRP617  ASP618  TYR619  PRO620  LYS621  CYS622 
 ASP623  PHE694  ASN695  SER759  ASP760  ASP761  ALA762  ILE779  LEU786  VAL792 
 PHE793  MET794  SER795  GLU796  ALA797  LYS798  CYS799  TRP800  GLU811  SER814 

> <Gold.Protein.RotatedAtoms>
  152.4940  133.8578  159.7234 H   0  0  0  0  0  0  0  0  0  0  0  0  # atno 6907 bound_to 6896
  150.9097  133.7003  159.2864 H   0  0  0  0  0  0  0  0  0  0  0  0  # atno 6908 bound_to 6896
  151.4417  135.1025  159.9724 H   0  0  0  0  0  0  0  0  0  0  0  0  # atno 6909 bound_to 6896
  145.9309  140.7750  142.9600 H   0  0  0  0  0  0  0  0  0  0  0  0  # atno 7974 bound_to 7965
  155.7449  140.0819  157.2228 H   0  0  0  0  0  0  0  0  0  0  0  0  # atno 8008 bound_to 7997
  154.4018  140.1571  156.2714 H   0  0  0  0  0  0  0  0  0  0  0  0  # atno 8009 bound_to 7997
  155.8985  140.3411  155.6011 H   0  0  0  0  0  0  0  0  0  0  0  0  # atno 8010 bound_to 7997
  139.6115  144.7083  151.2834 H   0  0  0  0  0  0  0  0  0  0  0  0  # atno 10167 bound_to 10162
  157.4898  130.8368  149.8189 H   0  0  0  0  0  0  0  0  0  0  0  0  # atno 10718 bound_to 10713
  154.8713  135.4087  154.2997 H   0  0  0  0  0  0  0  0  0  0  0  0  # atno 10763 bound_to 10752
  153.3859  135.7013  153.6536 H   0  0  0  0  0  0  0  0  0  0  0  0  # atno 10764 bound_to 10752
  153.5339  135.3662  155.2659 H   0  0  0  0  0  0  0  0  0  0  0  0  # atno 10765 bound_to 10752
  140.5282  134.0492  155.7865 H   0  0  0  0  0  0  0  0  0  0  0  0  # atno 11005 bound_to 11000
  144.6765  140.2126  143.7375 LP  0  0  0  0  0  0  0  0  0  0  0  0  # atno 17320 bound_to 7965
  145.8427  139.2137  143.1818 LP  0  0  0  0  0  0  0  0  0  0  0  0  # atno 17321 bound_to 7965
  140.7322  143.6830  150.7985 LP  0  0  0  0  0  0  0  0  0  0  0  0  # atno 17342 bound_to 10162
  140.0425  143.5331  152.2711 LP  0  0  0  0  0  0  0  0  0  0  0  0  # atno 17343 bound_to 10162
  156.0167  130.3811  150.2089 LP  0  0  0  0  0  0  0  0  0  0  0  0  # atno 17370 bound_to 10713
  157.0277  130.9998  151.3321 LP  0  0  0  0  0  0  0  0  0  0  0  0  # atno 17371 bound_to 10713
  141.1296  133.9325  157.2563 LP  0  0  0  0  0  0  0  0  0  0  0  0  # atno 17394 bound_to 11000
  139.9568  135.0163  156.9151 LP  0  0  0  0  0  0  0  0  0  0  0  0  # atno 17395 bound_to 11000

$$$$
