AV-unprocessed.smi:204|AV-procd|sdf|1598|dock10
  -GOLD-   2262019503D 1   1.00000     0.00000
 Structure written by MMmdl.
 53 56  0  0  0  0  0  0  0  0  1 V2000
  156.6570  137.2504  158.1131 C   0  0  0  0  0  0  0  0  0  0  0  0
  156.2564  138.4599  158.9512 C   0  0  0  0  0  0  0  0  0  0  0  0
  156.6381  139.5861  158.6345 O   0  0  0  0  0  0  0  0  0  0  0  0
  155.4862  138.2117  160.0195 N   0  0  0  0  0  0  0  0  0  0  0  0
  155.0025  139.2301  160.9437 C   0  0  0  0  0  0  0  0  0  0  0  0
  154.3114  140.3875  160.1991 C   0  0  2  0  0  0  0  0  0  0  0  0
  153.4648  141.2751  161.1377 C   0  0  0  0  0  0  0  0  0  0  0  0
  152.7577  142.3866  160.3462 C   0  0  0  0  0  0  0  0  0  0  0  0
  151.9313  141.7993  159.1917 C   0  0  0  0  0  0  0  0  0  0  0  0
  152.7643  140.9474  158.3492 N   0  0  0  0  0  0  0  0  0  0  0  0
  152.1554  140.5750  157.2042 C   0  0  0  0  0  0  0  0  0  0  0  0
  152.8106  139.6899  156.4145 N   0  0  0  0  0  0  0  0  0  0  0  0
  152.2585  139.2853  155.2664 C   0  0  0  0  0  0  0  0  0  0  0  0
  151.0868  139.6385  154.7330 N   0  0  0  0  0  0  0  0  0  0  0  0
  150.4294  140.5351  155.5232 C   0  0  0  0  0  0  0  0  0  0  0  0
  150.8871  141.0514  156.7683 C   0  0  0  0  0  0  0  0  0  0  0  0
  149.9517  141.9379  157.2878 N   0  0  0  0  0  0  0  0  0  0  0  0
  148.9929  141.9411  156.4027 C   0  0  0  0  0  0  0  0  0  0  0  0
  149.2018  141.1362  155.3049 N   0  0  0  0  0  0  0  0  0  0  0  0
  148.3003  140.9608  154.1760 C   0  0  0  0  0  0  0  0  0  0  0  0
  147.6911  139.5471  154.0639 C   0  0  0  0  0  0  0  0  0  0  0  0
  146.8553  139.4083  152.7789 C   0  0  0  0  0  0  0  0  0  0  0  0
  147.5436  138.6671  151.7915 O   0  0  0  0  0  0  0  0  0  0  0  0
  148.6529  138.3774  154.3199 C   0  0  0  0  0  0  0  0  0  0  0  0
  147.7537  137.7748  155.2741 O   0  0  0  0  0  0  0  0  0  0  0  0
  147.0131  139.0121  155.3328 C   0  0  0  0  0  0  0  0  0  0  0  0
  153.4314  139.8538  159.0512 C   0  0  0  0  0  0  0  0  0  0  0  0
  157.2409  136.5497  158.7105 H   0  0  0  0  0  0  0  0  0  0  0  0
  157.2599  137.5535  157.2565 H   0  0  0  0  0  0  0  0  0  0  0  0
  155.7714  136.7345  157.7412 H   0  0  0  0  0  0  0  0  0  0  0  0
  155.2185  137.2561  160.2061 H   0  0  0  0  0  0  0  0  0  0  0  0
  154.3024  138.7653  161.6397 H   0  0  0  0  0  0  0  0  0  0  0  0
  155.8354  139.6115  161.5372 H   0  0  0  0  0  0  0  0  0  0  0  0
  155.0893  141.0114  159.7552 H   0  0  0  0  0  0  0  0  0  0  0  0
  152.7210  140.6644  161.6516 H   0  0  0  0  0  0  0  0  0  0  0  0
  154.0877  141.7237  161.9119 H   0  0  0  0  0  0  0  0  0  0  0  0
  152.1154  142.9681  161.0079 H   0  0  0  0  0  0  0  0  0  0  0  0
  153.5005  143.0783  159.9468 H   0  0  0  0  0  0  0  0  0  0  0  0
  151.0992  141.2170  159.5899 H   0  0  0  0  0  0  0  0  0  0  0  0
  151.5023  142.6059  158.5952 H   0  0  0  0  0  0  0  0  0  0  0  0
  152.8390  138.5782  154.6926 H   0  0  0  0  0  0  0  0  0  0  0  0
  148.1030  142.5422  156.5227 H   0  0  0  0  0  0  0  0  0  0  0  0
  147.5136  141.7118  154.2586 H   0  0  0  0  0  0  0  0  0  0  0  0
  148.8451  141.2118  153.2652 H   0  0  0  0  0  0  0  0  0  0  0  0
  145.8907  138.9392  152.9732 H   0  0  0  0  0  0  0  0  0  0  0  0
  146.6312  140.3905  152.3609 H   0  0  0  0  0  0  0  0  0  0  0  0
  148.4001  139.0490  151.6722 H   0  0  0  0  0  0  0  0  0  0  0  0
  148.8296  137.7465  153.4480 H   0  0  0  0  0  0  0  0  0  0  0  0
  149.5947  138.6646  154.7892 H   0  0  0  0  0  0  0  0  0  0  0  0
  147.2475  139.5810  156.2340 H   0  0  0  0  0  0  0  0  0  0  0  0
  145.9370  138.8630  155.2359 H   0  0  0  0  0  0  0  0  0  0  0  0
  154.0429  139.2892  158.3456 H   0  0  0  0  0  0  0  0  0  0  0  0
  152.6861  139.1647  159.4500 H   0  0  0  0  0  0  0  0  0  0  0  0
  1  2  1  0  0  0  0
  1 28  1  0  0  0  0
  1 29  1  0  0  0  0
  1 30  1  0  0  0  0
  2  3  2  0  0  0  0
  2  4  1  0  0  0  0
  4  5  1  0  0  0  0
  4 31  1  0  0  0  0
  5  6  1  0  0  0  0
  5 32  1  0  0  0  0
  5 33  1  0  0  0  0
  6 27  1  0  0  0  0
  6  7  1  0  0  0  0
  6 34  1  0  0  0  0
  7  8  1  0  0  0  0
  7 35  1  0  0  0  0
  7 36  1  0  0  0  0
  8  9  1  0  0  0  0
  8 37  1  0  0  0  0
  8 38  1  0  0  0  0
  9 10  1  0  0  0  0
  9 39  1  0  0  0  0
  9 40  1  0  0  0  0
 10 11  1  0  0  0  0
 10 27  1  0  0  0  0
 11 16  1  0  0  0  0
 11 12  2  0  0  0  0
 12 13  1  0  0  0  0
 13 14  2  0  0  0  0
 13 41  1  0  0  0  0
 14 15  1  0  0  0  0
 15 19  1  0  0  0  0
 15 16  2  0  0  0  0
 16 17  1  0  0  0  0
 17 18  2  0  0  0  0
 18 19  1  0  0  0  0
 18 42  1  0  0  0  0
 19 20  1  0  0  0  0
 20 21  1  0  0  0  0
 20 43  1  0  0  0  0
 20 44  1  0  0  0  0
 21 26  1  0  0  0  0
 21 22  1  0  0  0  0
 21 24  1  0  0  0  0
 22 23  1  0  0  0  0
 22 45  1  0  0  0  0
 22 46  1  0  0  0  0
 23 47  1  0  0  0  0
 24 25  1  0  0  0  0
 24 48  1  0  0  0  0
 24 49  1  0  0  0  0
 25 26  1  0  0  0  0
 26 50  1  0  0  0  0
 26 51  1  0  0  0  0
 27 52  1  0  0  0  0
 27 53  1  0  0  0  0
M  END
> <s_m_source_file>
AV-unprocessed.smi

> <i_m_source_file_index>
204

> <i_lp_mmshare_version>
43012

> <i_f3d_flags>
0

> <s_epik_input>
W0NIM11DKD1PKVtOSF1bQ0gyXVtDQEBIXTFbQ0gyXVtDSDJdW0NIMl1OKFtDSDJdMSljKG5bY0hdbjIpYyhjMjMpbltjSF1uM1tDSDJdQzQoW0NIMl1bT0hdKVtDSDJdT1tDSDJdNA==

> <s_epik_cmdline>
J2VwaWtfcHl0aG9uJywgJy1waCcsICc3LjAnLCAnLXRuJywgJzgnLCAnLW1hJywgJzIwMCcsICctbWV0YWxfYmluZGluZycsICctaW1hZScsICc8aW5maWxlLm1hZT4nLCAnLW9tYWUnLCAnPG91dGZpbGUubWFlPic=

> <r_lp_tautomer_probability>
1

> <r_epik_Ionization_Penalty>
0.00166599

> <r_epik_Ionization_Penalty_Charging>
0

> <r_epik_Ionization_Penalty_Neutral>
0.00166599

> <r_epik_State_Penalty>
0.000989951

> <r_epik_Charging_Adjusted_Penalty>
0.000989951

> <i_epik_Tot_Q>
0

> <i_epik_Tot_abs_Q>
0

> <r_epik_Metal_State_Penalty>
-0

> <b_epik_Metal_Only>
0

> <s_lp_Force_Field>
OPLS_2005

> <r_lp_Energy>
36.8691

> <b_lp_Chiralities_Consistent>
1

> <s_lp_Variant>
AV-unprocessed.smi:204-1

> <Gold.Version>
5.8.1

> <Gold.Id.Protein>
6NUR|6NUR_protein|mol2

> <Gold.PLP.Fitness>
50.6220

> <Gold.PLP.PLP>
-40.6212

> <Gold.PLP.part.hbond>
-6.3656

> <Gold.PLP.part.metal>
0.0000

> <Gold.PLP.part.buried>
-1.4934

> <Gold.PLP.part.nonpolar>
-32.9743

> <Gold.PLP.part.repulsive>
0.3317

> <Gold.PLP.ligand.clash>
0.2639

> <Gold.PLP.ligand.torsion>
1.4939

> <Gold.PLP.Chemscore.Hbond>
3.7500

> <Gold.PLP.Chemscore.CHOScore>
0.4720

> <Gold.PLP.Chemscore.Metal>
0.0000

> <Gold.Chemscore.Hbonds>
donor molecule, donor type, donor heavy atom, donor atom, acceptor molecule, acceptor atom, score
      L1  H    23    47       P1  7957  1.00
      P1  H  7989  7998       L1    14  0.80
      P1  H  7997  8009       L1     3  1.00
      P1  H  7997  8010       L1    12  1.00
      L1  C    18    42       P1  8028  0.44

> <Gold.PLP.Chemscore.Internal.Correction>
0.5866

> <Gold.Rescore>
     Score         DG    S(hbond)    S(metal)    S(lipo)     H(rot)  DE(clash)    DE(int)     intcor
      9.29     -15.74       2.85        0.00      79.17       3.33       0.93       5.52       ----

> <Gold.Chemscore.Fitness>
9.2927

> <Gold.Chemscore.DG>
-15.7426

> <Gold.Chemscore.ZeroCoef>
-5.4800

> <Gold.Chemscore.Hbond>
2.8487

> <Gold.Chemscore.Metal>
0.0000

> <Gold.Chemscore.Lipo>
79.1696

> <Gold.Chemscore.Internal_Hbond>
0.0000

> <Gold.Chemscore.DEClash>
0.9272

> <Gold.Chemscore.DEInternal>
5.5228

> <Gold.Chemscore.Rot>
3.3261

> <Gold.Chemscore.Internal.Correction>
   9.000000E+99

> <Gold.Chemscore.Hbonds>
donor molecule, donor type, donor heavy atom, donor atom, acceptor molecule, acceptor atom, score
      L1  H    23    47       P1  7957  0.87
      P1  H  7989  7998       L1    14  0.03
      P1  H  7997  8009       L1     3  0.85
      P1  H  7997  8010       L1    12  0.49

> <Gold.Chemscore.Hbond.Weighted>
-9.5147

> <Gold.Chemscore.Metal.Weighted>
-0.0000

> <Gold.Chemscore.Lipo.Weighted>
-9.2628

> <Gold.Chemscore.Internal_Hbond.Weighted>
0.0000

> <Gold.Chemscore.DEClash.Weighted>
0.9272

> <Gold.Chemscore.DEInternal.Weighted>
5.5228

> <Gold.Chemscore.Rot.Weighted>
8.5149

> <Gold.Chemscore.Internal.Correction.Weighted>
   9.000000E+99

> <Gold.Protein.RotatedTorsions>
[ 6907 6896 6895 6894 ] final  -57.27 input  -60.11 | X-H torsion
[ 7974 7965 7964 7962 ] final  -91.92 input  175.53 | X-H torsion
[ 8008 7997 7996 7995 ] final   65.53 input   59.86 | X-H torsion
[ 10167 10162 10161 10158 ] final  127.55 input  -65.29 | X-H torsion
[ 10718 10713 10712 10709 ] final  -69.82 input   66.30 | X-H torsion
[ 10763 10752 10751 10750 ] final -111.39 input  -60.55 | X-H torsion
[ 11005 11000 10999 10996 ] final  100.49 input  -57.11 | X-H torsion

> <Gold.Protein.ActiveResidues>
 VAL166  LYS551  ARG553  GLY616  TRP617  ASP618  TYR619  PRO620  LYS621  CYS622 
 ASP623  PHE694  ASN695  SER759  ASP760  ASP761  ALA762  ILE779  LEU786  VAL792 
 PHE793  MET794  SER795  GLU796  ALA797  LYS798  CYS799  TRP800  GLU811  SER814 

> <Gold.Protein.RotatedAtoms>
  150.8100  134.7248  159.6678 H   0  0  0  0  0  0  0  0  0  0  0  0  # atno 6907 bound_to 6896
  152.4220  134.5935  159.9990 H   0  0  0  0  0  0  0  0  0  0  0  0  # atno 6908 bound_to 6896
  151.6148  133.3307  159.3111 H   0  0  0  0  0  0  0  0  0  0  0  0  # atno 6909 bound_to 6896
  145.4067  140.9542  143.2257 H   0  0  0  0  0  0  0  0  0  0  0  0  # atno 7974 bound_to 7965
  155.6632  140.3497  155.4790 H   0  0  0  0  0  0  0  0  0  0  0  0  # atno 8008 bound_to 7997
  155.9751  140.1163  157.0800 H   0  0  0  0  0  0  0  0  0  0  0  0  # atno 8009 bound_to 7997
  154.4176  140.1149  156.5345 H   0  0  0  0  0  0  0  0  0  0  0  0  # atno 8010 bound_to 7997
  139.5572  144.6857  151.4147 H   0  0  0  0  0  0  0  0  0  0  0  0  # atno 10167 bound_to 10162
  156.0437  130.4320  150.2205 H   0  0  0  0  0  0  0  0  0  0  0  0  # atno 10718 bound_to 10713
  154.8297  135.4529  154.1031 H   0  0  0  0  0  0  0  0  0  0  0  0  # atno 10763 bound_to 10752
  153.2314  135.6906  153.7891 H   0  0  0  0  0  0  0  0  0  0  0  0  # atno 10764 bound_to 10752
  153.7273  135.3332  155.3255 H   0  0  0  0  0  0  0  0  0  0  0  0  # atno 10765 bound_to 10752
  139.8771  134.9142  156.4764 H   0  0  0  0  0  0  0  0  0  0  0  0  # atno 11005 bound_to 11000
  144.8336  139.5586  143.6932 LP  0  0  0  0  0  0  0  0  0  0  0  0  # atno 17320 bound_to 7965
  146.2725  139.6670  142.9286 LP  0  0  0  0  0  0  0  0  0  0  0  0  # atno 17321 bound_to 7965
  140.6847  143.8001  150.7169 LP  0  0  0  0  0  0  0  0  0  0  0  0  # atno 17342 bound_to 10162
  140.1465  143.4395  152.2159 LP  0  0  0  0  0  0  0  0  0  0  0  0  # atno 17343 bound_to 10162
  157.0297  131.0003  151.3316 LP  0  0  0  0  0  0  0  0  0  0  0  0  # atno 17370 bound_to 10713
  157.5286  130.8044  149.7891 LP  0  0  0  0  0  0  0  0  0  0  0  0  # atno 17371 bound_to 10713
  140.8759  133.7954  155.9414 LP  0  0  0  0  0  0  0  0  0  0  0  0  # atno 17394 bound_to 11000
  140.8905  134.2501  157.5097 LP  0  0  0  0  0  0  0  0  0  0  0  0  # atno 17395 bound_to 11000

$$$$
