#       Name:                AV-unprocessed.smi:338
#       Creating user name   scv26
#       Creation time:       Thu Mar 26 22:30:01 2020


#       File generated by GOLD software.
#

@<TRIPOS>MOLECULE
AV-unprocessed.smi:338
    48    50     1
SMALL
NO_CHARGES


@<TRIPOS>ATOM
      1 ****        -1.1485   7.0806  -0.3742 C.3            1 S1                 0.0000
      2 ****        -0.3539   5.7766  -0.4204 C.2            1 S1                 0.0000
      3 ****         0.8727   5.8361  -0.5008 O.2            1 S1                 0.0000
      4 ****        -1.1146   4.4953  -0.3619 C.ar           1 S1                 0.0000
      5 ****        -2.5279   4.4732  -0.3122 C.ar           1 S1                 0.0000
      6 ****        -3.2176   3.2483  -0.2599 C.ar           1 S1                 0.0000
      7 ****        -2.5047   2.0360  -0.2565 C.ar           1 S1                 0.0000
      8 ****        -1.0971   2.0303  -0.3056 C.ar           1 S1                 0.0000
      9 ****        -0.4788   0.7983  -0.2985 O.3            1 S1                 0.0000
     10 ****         0.9420   0.7552  -0.3176 C.3            1 S1                 0.0000
     11 ****         1.3917  -0.7122  -0.2818 C.3            1 S1                 0.0000
     12 ****         2.7875  -0.7656  -0.5019 O.3            1 S1                 0.0000
     13 ****         1.0521  -1.3995   1.0559 C.3            1 S1                 0.0000
     14 ****         1.4686  -2.8068   1.0930 N.pl3          1 S1                 0.0000
     15 ****         2.5651  -3.3814   1.6576 C.2            1 S1                 0.0000
     16 ****         2.4988  -4.7199   1.4133 N.pl3          1 S1                 1.0000
     17 ****         1.3431  -5.0039   0.6819 C.ar           1 S1                 0.0000
     18 ****         0.8421  -6.2084   0.1977 C.ar           1 S1                 0.0000
     19 ****        -0.3728  -6.1471  -0.5164 C.ar           1 S1                 0.0000
     20 ****        -1.0416  -4.9232  -0.7261 C.ar           1 S1                 0.0000
     21 ****        -0.5248  -3.7078  -0.2306 C.ar           1 S1                 0.0000
     22 ****         0.6763  -3.7782   0.4738 C.ar           1 S1                 0.0000
     23 ****        -0.4090   3.2690  -0.3595 C.ar           1 S1                 0.0000
     24 ****        -1.8171   7.1514  -1.2323 H              1 S1                 0.0000
     25 ****        -0.4757   7.9384  -0.3952 H              1 S1                 0.0000
     26 ****        -1.7407   7.1356   0.5393 H              1 S1                 0.0000
     27 ****        -3.1060   5.3851  -0.3143 H              1 S1                 0.0000
     28 ****        -4.2970   3.2386  -0.2224 H              1 S1                 0.0000
     29 ****        -3.0436   1.1008  -0.2153 H              1 S1                 0.0000
     30 ****         1.3052   1.2271  -1.2323 H              1 S1                 0.0000
     31 ****         1.3590   1.2966   0.5335 H              1 S1                 0.0000
     32 ****         0.9124  -1.2464  -1.1028 H              1 S1                 0.0000
     33 ****         2.9740  -0.3720  -1.3409 H              1 S1                 0.0000
     34 ****         1.5481  -0.8883   1.8822 H              1 S1                 0.0000
     35 ****        -0.0182  -1.3538   1.2615 H              1 S1                 0.0000
     36 ****         3.3474  -2.8677   2.1977 H              1 S1                 0.0000
     37 ****         1.3522  -7.1472   0.3561 H              1 S1                 0.0000
     38 ****        -0.8001  -7.0572  -0.9119 H              1 S1                 0.0000
     39 ****        -1.9700  -4.9159  -1.2786 H              1 S1                 0.0000
     40 ****        -1.0424  -2.7744  -0.3962 H              1 S1                 0.0000
     41 ****         0.6694   3.2925  -0.3992 H              1 S1                 0.0000
     42 ****         3.1934  -5.3874   1.7230 H              1 S1                 0.0000
     43 ****         1.3290   6.7253  -0.5345 LP             1 S1                 0.0000
     44 ****         1.4131   4.9953  -0.5324 LP             1 S1                 0.0000
     45 ****        -0.8006   0.3013  -1.1044 LP             1 S1                 0.0000
     46 ****        -0.7780   0.3220   0.5283 LP             1 S1                 0.0000
     47 ****         3.0931  -1.7178  -0.5006 LP             1 S1                 0.0000
     48 ****         3.2624  -0.2622   0.2199 LP             1 S1                 0.0000
@<TRIPOS>BOND
    1    1    2 1     
    2    1   24 1     
    3    1   25 1     
    4    1   26 1     
    5    2    3 2     
    6    2    4 1     
    7    4   23 ar    
    8    4    5 ar    
    9    5    6 ar    
   10    5   27 1     
   11    6    7 ar    
   12    6   28 1     
   13    7    8 ar    
   14    7   29 1     
   15    8    9 1     
   16    8   23 ar    
   17    9   10 1     
   18   10   11 1     
   19   10   30 1     
   20   10   31 1     
   21   11   12 1     
   22   11   13 1     
   23   11   32 1     
   24   12   33 1     
   25   13   14 1     
   26   13   34 1     
   27   13   35 1     
   28   14   22 1     
   29   14   15 1     
   30   15   16 2     
   31   15   36 1     
   32   16   17 1     
   33   16   42 1     
   34   17   22 ar    
   35   17   18 ar    
   36   18   19 ar    
   37   18   37 1     
   38   19   20 ar    
   39   19   38 1     
   40   20   21 ar    
   41   20   39 1     
   42   21   22 ar    
   43   21   40 1     
   44   23   41 1     
   45    3   43 1     
   46    3   44 1     
   47    9   45 1     
   48    9   46 1     
   49   12   47 1     
   50   12   48 1     
@<TRIPOS>SUBSTRUCTURE
      1 S1             1
@<TRIPOS>SET
LONE_PAIRS      STATIC     ATOMS    <user>   **** ""
6 43 44 45 46 47 48
DONOR_HYDROGENS      STATIC     ATOMS    <user>   **** ""
2 33 42
ATOM$BLUE        STATIC     ATOMS    COLORGROUP SYSTEM
6 43 44 45 46 47 48
ATOM$RED        STATIC     ATOMS    COLORGROUP SYSTEM
2 33 42
