AV-unprocessed.smi:1913|AV-procd|sdf|7753|dock9
  -GOLD-   22720 9493D 1   1.00000     0.00000
 Structure written by MMmdl.
 40 42  0  0  0  0  0  0  0  0  1 V2000
  154.8960  139.4582  161.8199 C   0  0  0  0  0  0  0  0  0  0  0  0
  154.1046  139.2848  160.6533 O   0  0  0  0  0  0  0  0  0  0  0  0
  153.5027  140.3978  160.1061 C   0  0  0  0  0  0  0  0  0  0  0  0
  153.6133  141.7044  160.6368 C   0  0  0  0  0  0  0  0  0  0  0  0
  152.9572  142.7841  160.0173 C   0  0  0  0  0  0  0  0  0  0  0  0
  152.1778  142.5876  158.8502 C   0  0  0  0  0  0  0  0  0  0  0  0
  151.4988  143.6052  158.2106 O   0  0  0  0  0  0  0  0  0  0  0  0
  151.6473  144.9302  158.6982 C   0  0  0  0  0  0  0  0  0  0  0  0
  152.0775  141.2834  158.3077 C   0  0  0  0  0  0  0  0  0  0  0  0
  151.2421  141.0403  157.0537 C   0  0  1  0  0  0  0  0  0  0  0  0
  151.3326  139.7107  156.5754 O   0  0  0  0  0  0  0  0  0  0  0  0
  149.7642  141.4037  157.2915 C   0  0  0  0  0  0  0  0  0  0  0  0
  149.0315  141.5689  156.0500 N   0  0  0  0  0  0  0  0  0  0  0  0
  149.4993  141.4173  154.7960 C   0  0  0  0  0  0  0  0  0  0  0  0
  148.6438  141.6237  153.7982 N   0  0  0  0  0  0  0  0  0  0  0  0
  147.4860  141.9471  154.4851 C   0  0  0  0  0  0  0  0  0  0  0  0
  146.1980  142.2807  154.0084 C   0  0  0  0  0  0  0  0  0  0  0  0
  145.1563  142.5774  154.9123 C   0  0  0  0  0  0  0  0  0  0  0  0
  145.3854  142.5469  156.3034 C   0  0  0  0  0  0  0  0  0  0  0  0
  146.6603  142.2175  156.8021 C   0  0  0  0  0  0  0  0  0  0  0  0
  147.6959  141.9209  155.8967 C   0  0  0  0  0  0  0  0  0  0  0  0
  152.7305  140.2043  158.9449 C   0  0  0  0  0  0  0  0  0  0  0  0
  155.2976  138.4933  162.1292 H   0  0  0  0  0  0  0  0  0  0  0  0
  154.3048  139.8496  162.6488 H   0  0  0  0  0  0  0  0  0  0  0  0
  155.7410  140.1223  161.6330 H   0  0  0  0  0  0  0  0  0  0  0  0
  154.1933  141.9062  161.5244 H   0  0  0  0  0  0  0  0  0  0  0  0
  153.0681  143.7601  160.4642 H   0  0  0  0  0  0  0  0  0  0  0  0
  151.0381  145.6034  158.0951 H   0  0  0  0  0  0  0  0  0  0  0  0
  152.6819  145.2682  158.6264 H   0  0  0  0  0  0  0  0  0  0  0  0
  151.3081  145.0156  159.7315 H   0  0  0  0  0  0  0  0  0  0  0  0
  151.6355  141.6653  156.2515 H   0  0  0  0  0  0  0  0  0  0  0  0
  152.0107  139.2648  157.0596 H   0  0  0  0  0  0  0  0  0  0  0  0
  149.2717  140.6426  157.8985 H   0  0  0  0  0  0  0  0  0  0  0  0
  149.6923  142.3399  157.8463 H   0  0  0  0  0  0  0  0  0  0  0  0
  150.5267  141.1436  154.6053 H   0  0  0  0  0  0  0  0  0  0  0  0
  146.0111  142.3082  152.9451 H   0  0  0  0  0  0  0  0  0  0  0  0
  144.1760  142.8303  154.5361 H   0  0  0  0  0  0  0  0  0  0  0  0
  144.5820  142.7767  156.9877 H   0  0  0  0  0  0  0  0  0  0  0  0
  146.8414  142.1933  157.8667 H   0  0  0  0  0  0  0  0  0  0  0  0
  152.6392  139.2054  158.5439 H   0  0  0  0  0  0  0  0  0  0  0  0
  1  2  1  0  0  0  0
  1 23  1  0  0  0  0
  1 24  1  0  0  0  0
  1 25  1  0  0  0  0
  2  3  1  0  0  0  0
  3 22  1  0  0  0  0
  3  4  2  0  0  0  0
  4  5  1  0  0  0  0
  4 26  1  0  0  0  0
  5  6  2  0  0  0  0
  5 27  1  0  0  0  0
  6  7  1  0  0  0  0
  6  9  1  0  0  0  0
  7  8  1  0  0  0  0
  8 28  1  0  0  0  0
  8 29  1  0  0  0  0
  8 30  1  0  0  0  0
  9 10  1  0  0  0  0
  9 22  2  0  0  0  0
 10 11  1  0  0  0  0
 10 12  1  0  0  0  0
 10 31  1  0  0  0  0
 11 32  1  0  0  0  0
 12 13  1  0  0  0  0
 12 33  1  0  0  0  0
 12 34  1  0  0  0  0
 13 21  1  0  0  0  0
 13 14  1  0  0  0  0
 14 15  2  0  0  0  0
 14 35  1  0  0  0  0
 15 16  1  0  0  0  0
 16 21  2  0  0  0  0
 16 17  1  0  0  0  0
 17 18  2  0  0  0  0
 17 36  1  0  0  0  0
 18 19  1  0  0  0  0
 18 37  1  0  0  0  0
 19 20  2  0  0  0  0
 19 38  1  0  0  0  0
 20 21  1  0  0  0  0
 20 39  1  0  0  0  0
 22 40  1  0  0  0  0
M  END
> <s_m_source_file>
AV-unprocessed.smi

> <i_m_source_file_index>
1913

> <i_lp_mmshare_version>
43012

> <i_f3d_flags>
0

> <s_epik_input>
W0NIM11PYzFbY0hdW2NIXWMoT1tDSDNdKWMoW2NIXTEpW0NASF0oW09IXSlbQ0gyXW4oW2NIXW4yKWMoYzIzKVtjSF1bY0hdW2NIXVtjSF0z

> <s_epik_cmdline>
J2VwaWtfcHl0aG9uJywgJy1waCcsICc3LjAnLCAnLXRuJywgJzgnLCAnLW1hJywgJzIwMCcsICctbWV0YWxfYmluZGluZycsICctaW1hZScsICc8aW5maWxlLm1hZT4nLCAnLW9tYWUnLCAnPG91dGZpbGUubWFlPic=

> <r_lp_tautomer_probability>
1

> <r_epik_Ionization_Penalty>
0.0696512

> <r_epik_Ionization_Penalty_Charging>
0

> <r_epik_Ionization_Penalty_Neutral>
0.0696512

> <r_epik_State_Penalty>
0.0610247

> <r_epik_Charging_Adjusted_Penalty>
0.0610247

> <i_epik_Tot_Q>
0

> <i_epik_Tot_abs_Q>
0

> <r_epik_Metal_State_Penalty>
6.42746e-05

> <b_epik_Metal_Only>
0

> <s_lp_Force_Field>
OPLS_2005

> <r_lp_Energy>
19.1382

> <b_lp_Chiralities_Consistent>
1

> <s_lp_Variant>
AV-unprocessed.smi:1913-2

> <Gold.Version>
5.8.1

> <Gold.Id.Protein>
6NUR|6NUR_protein|mol2

> <Gold.PLP.Fitness>
45.9442

> <Gold.PLP.PLP>
-44.1964

> <Gold.PLP.part.hbond>
-1.0000

> <Gold.PLP.part.metal>
0.0000

> <Gold.PLP.part.buried>
-4.1242

> <Gold.PLP.part.nonpolar>
-39.5589

> <Gold.PLP.part.repulsive>
0.2700

> <Gold.PLP.ligand.clash>
0.0000

> <Gold.PLP.ligand.torsion>
0.1529

> <Gold.PLP.Chemscore.Hbond>
0.6720

> <Gold.PLP.Chemscore.CHOScore>
0.0000

> <Gold.PLP.Chemscore.Metal>
0.0000

> <Gold.Chemscore.Hbonds>
donor molecule, donor type, donor heavy atom, donor atom, acceptor molecule, acceptor atom, score
      P1  H  8011  8017       L1    15  0.64

> <Gold.PLP.Chemscore.Internal.Correction>
0.0376

> <Gold.Rescore>
     Score         DG    S(hbond)    S(metal)    S(lipo)     H(rot)  DE(clash)    DE(int)     intcor
     13.34     -14.96       0.61        0.00     114.74       2.33       0.37       1.25       ----

> <Gold.Chemscore.Fitness>
13.3377

> <Gold.Chemscore.DG>
-14.9577

> <Gold.Chemscore.ZeroCoef>
-5.4800

> <Gold.Chemscore.Hbond>
0.6061

> <Gold.Chemscore.Metal>
0.0000

> <Gold.Chemscore.Lipo>
114.7357

> <Gold.Chemscore.Internal_Hbond>
0.0000

> <Gold.Chemscore.DEClash>
0.3741

> <Gold.Chemscore.DEInternal>
1.2459

> <Gold.Chemscore.Rot>
2.3323

> <Gold.Chemscore.Internal.Correction>
   9.000000E+99

> <Gold.Chemscore.Hbonds>
donor molecule, donor type, donor heavy atom, donor atom, acceptor molecule, acceptor atom, score
      P1  H  8011  8017       L1    15  0.27

> <Gold.Chemscore.Hbond.Weighted>
-2.0244

> <Gold.Chemscore.Metal.Weighted>
-0.0000

> <Gold.Chemscore.Lipo.Weighted>
-13.4241

> <Gold.Chemscore.Internal_Hbond.Weighted>
0.0000

> <Gold.Chemscore.DEClash.Weighted>
0.3741

> <Gold.Chemscore.DEInternal.Weighted>
1.2459

> <Gold.Chemscore.Rot.Weighted>
5.9708

> <Gold.Chemscore.Internal.Correction.Weighted>
   9.000000E+99

> <Gold.Protein.RotatedTorsions>
[ 6907 6896 6895 6894 ] final   39.17 input  -60.11 | X-H torsion
[ 7974 7965 7964 7962 ] final  -97.07 input  175.53 | X-H torsion
[ 8008 7997 7996 7995 ] final  -62.99 input   59.86 | X-H torsion
[ 10167 10162 10161 10158 ] final  156.93 input  -65.29 | X-H torsion
[ 10718 10713 10712 10709 ] final -169.84 input   66.30 | X-H torsion
[ 10763 10752 10751 10750 ] final   48.22 input  -60.55 | X-H torsion
[ 11005 11000 10999 10996 ] final  -56.24 input  -57.11 | X-H torsion

> <Gold.Protein.ActiveResidues>
 VAL166  LYS551  ARG553  GLY616  TRP617  ASP618  TYR619  PRO620  LYS621  CYS622 
 ASP623  PHE694  ASN695  SER759  ASP760  ASP761  ALA762  ILE779  LEU786  VAL792 
 PHE793  MET794  SER795  GLU796  ALA797  LYS798  CYS799  TRP800  GLU811  SER814 

> <Gold.Protein.RotatedAtoms>
  152.1661  134.8873  160.0537 H   0  0  0  0  0  0  0  0  0  0  0  0  # atno 6907 bound_to 6896
  151.9850  133.3766  159.4130 H   0  0  0  0  0  0  0  0  0  0  0  0  # atno 6908 bound_to 6896
  150.6894  134.3920  159.5124 H   0  0  0  0  0  0  0  0  0  0  0  0  # atno 6909 bound_to 6896
  145.3386  140.9455  143.2621 H   0  0  0  0  0  0  0  0  0  0  0  0  # atno 7974 bound_to 7965
  154.4530  140.0984  156.6674 H   0  0  0  0  0  0  0  0  0  0  0  0  # atno 8008 bound_to 7997
  155.5226  140.3479  155.4391 H   0  0  0  0  0  0  0  0  0  0  0  0  # atno 8009 bound_to 7997
  156.0720  140.1351  156.9806 H   0  0  0  0  0  0  0  0  0  0  0  0  # atno 8010 bound_to 7997
  139.4822  144.4964  151.8233 H   0  0  0  0  0  0  0  0  0  0  0  0  # atno 10167 bound_to 10162
  156.7175  130.9257  151.3094 H   0  0  0  0  0  0  0  0  0  0  0  0  # atno 10718 bound_to 10713
  152.9793  135.5951  154.3891 H   0  0  0  0  0  0  0  0  0  0  0  0  # atno 10763 bound_to 10752
  154.3548  135.2767  155.2354 H   0  0  0  0  0  0  0  0  0  0  0  0  # atno 10764 bound_to 10752
  154.4377  135.6021  153.6164 H   0  0  0  0  0  0  0  0  0  0  0  0  # atno 10765 bound_to 10752
  141.1111  133.6610  156.4590 H   0  0  0  0  0  0  0  0  0  0  0  0  # atno 11005 bound_to 11000
  144.8808  139.4907  143.6724 LP  0  0  0  0  0  0  0  0  0  0  0  0  # atno 17320 bound_to 7965
  146.3017  139.7447  142.9086 LP  0  0  0  0  0  0  0  0  0  0  0  0  # atno 17321 bound_to 7965
  140.4453  144.1930  150.5893 LP  0  0  0  0  0  0  0  0  0  0  0  0  # atno 17342 bound_to 10162
  140.4641  143.2437  151.9180 LP  0  0  0  0  0  0  0  0  0  0  0  0  # atno 17343 bound_to 10162
  157.6911  130.9235  150.0517 LP  0  0  0  0  0  0  0  0  0  0  0  0  # atno 17370 bound_to 10713
  156.1618  130.3644  149.9289 LP  0  0  0  0  0  0  0  0  0  0  0  0  # atno 17371 bound_to 10713
  140.4772  134.6698  157.5155 LP  0  0  0  0  0  0  0  0  0  0  0  0  # atno 17394 bound_to 11000
  140.0006  134.6843  155.9537 LP  0  0  0  0  0  0  0  0  0  0  0  0  # atno 17395 bound_to 11000

$$$$
