AV-unprocessed.smi:7|AV-procd|sdf|43|dock6
  -GOLD-   2262015163D 1   1.00000     0.00000
 Structure written by MMmdl.
 45 48  0  0  0  0  0  0  0  0  1 V2000
  149.9913  138.2315  154.1636 O   0  0  0  0  0  0  0  0  0  0  0  0
  150.1128  139.2807  154.7968 C   0  0  0  0  0  0  0  0  0  0  0  0
  150.9177  139.3701  156.0376 C   0  0  0  0  0  0  0  0  0  0  0  0
  151.6388  138.3932  156.7234 N   0  0  0  0  0  0  0  0  0  0  0  0
  152.1445  139.0684  157.7551 C   0  0  0  0  0  0  0  0  0  0  0  0
  151.8034  140.3705  157.7723 N   0  0  0  0  0  0  0  0  0  0  0  0
  152.2750  141.2265  158.7936 C   0  0  0  0  0  0  0  0  0  0  0  0
  152.1602  142.6294  158.6698 C   0  0  0  0  0  0  0  0  0  0  0  0
  152.6399  143.4711  159.6926 C   0  0  0  0  0  0  0  0  0  0  0  0
  153.2356  142.9160  160.8417 C   0  0  0  0  0  0  0  0  0  0  0  0
  153.3535  141.5184  160.9678 C   0  0  0  0  0  0  0  0  0  0  0  0
  152.8758  140.6752  159.9457 C   0  0  0  0  0  0  0  0  0  0  0  0
  151.0043  140.5859  156.6586 C   0  0  0  0  0  0  0  0  0  0  0  0
  150.4290  141.7808  156.2914 N   0  0  0  0  0  0  0  0  0  0  0  0
  149.7202  141.6680  155.1982 C   0  0  0  0  0  0  0  0  0  0  0  0
  149.5350  140.4689  154.4459 N   0  0  0  0  0  0  0  0  0  0  0  0
  148.6903  140.5725  153.2456 C   0  0  0  0  0  0  0  0  0  0  0  0
  147.2570  140.0380  153.4947 C   0  0  2  0  0  0  0  0  0  0  0  0
  146.6101  139.9563  152.2374 O   0  0  0  0  0  0  0  0  0  0  0  0
  146.4116  140.9364  154.4399 C   0  0  0  0  0  0  0  0  0  0  0  0
  145.0839  140.4404  154.4359 O   0  0  0  0  0  0  0  0  0  0  0  0
  146.8892  140.9674  155.9041 C   0  0  0  0  0  0  0  0  0  0  0  0
  146.3632  142.2916  156.4548 C   0  0  0  0  0  0  0  0  0  0  0  0
  146.5005  143.2639  155.2833 C   0  0  0  0  0  0  0  0  0  0  0  0
  146.3279  142.4222  154.0092 C   0  0  0  0  0  0  0  0  0  0  0  0
  152.7770  138.6036  158.4976 H   0  0  0  0  0  0  0  0  0  0  0  0
  151.7112  143.0660  157.7897 H   0  0  0  0  0  0  0  0  0  0  0  0
  152.5522  144.5431  159.5944 H   0  0  0  0  0  0  0  0  0  0  0  0
  153.6031  143.5622  161.6254 H   0  0  0  0  0  0  0  0  0  0  0  0
  153.8103  141.0920  161.8489 H   0  0  0  0  0  0  0  0  0  0  0  0
  152.9680  139.6042  160.0513 H   0  0  0  0  0  0  0  0  0  0  0  0
  149.2058  142.5325  154.7752 H   0  0  0  0  0  0  0  0  0  0  0  0
  148.6544  141.6224  152.9509 H   0  0  0  0  0  0  0  0  0  0  0  0
  149.1437  140.0756  152.3853 H   0  0  0  0  0  0  0  0  0  0  0  0
  147.2971  139.0330  153.9180 H   0  0  0  0  0  0  0  0  0  0  0  0
  145.7297  140.2866  152.3317 H   0  0  0  0  0  0  0  0  0  0  0  0
  144.7093  140.5930  153.5820 H   0  0  0  0  0  0  0  0  0  0  0  0
  146.5516  140.1077  156.4846 H   0  0  0  0  0  0  0  0  0  0  0  0
  147.9786  140.9789  155.9506 H   0  0  0  0  0  0  0  0  0  0  0  0
  145.3122  142.1874  156.7276 H   0  0  0  0  0  0  0  0  0  0  0  0
  146.9055  142.6233  157.3407 H   0  0  0  0  0  0  0  0  0  0  0  0
  145.7830  144.0831  155.3412 H   0  0  0  0  0  0  0  0  0  0  0  0
  147.4989  143.7034  155.2932 H   0  0  0  0  0  0  0  0  0  0  0  0
  147.1047  142.6898  153.2925 H   0  0  0  0  0  0  0  0  0  0  0  0
  145.3787  142.6485  153.5204 H   0  0  0  0  0  0  0  0  0  0  0  0
  1  2  2  0  0  0  0
  2 16  1  0  0  0  0
  2  3  1  0  0  0  0
  3 13  2  0  0  0  0
  3  4  1  0  0  0  0
  4  5  2  0  0  0  0
  5  6  1  0  0  0  0
  5 26  1  0  0  0  0
  6  7  1  0  0  0  0
  6 13  1  0  0  0  0
  7 12  1  0  0  0  0
  7  8  2  0  0  0  0
  8  9  1  0  0  0  0
  8 27  1  0  0  0  0
  9 10  2  0  0  0  0
  9 28  1  0  0  0  0
 10 11  1  0  0  0  0
 10 29  1  0  0  0  0
 11 12  2  0  0  0  0
 11 30  1  0  0  0  0
 12 31  1  0  0  0  0
 13 14  1  0  0  0  0
 14 15  2  0  0  0  0
 15 16  1  0  0  0  0
 15 32  1  0  0  0  0
 16 17  1  0  0  0  0
 17 18  1  0  0  0  0
 17 33  1  0  0  0  0
 17 34  1  0  0  0  0
 18 19  1  0  0  0  0
 18 20  1  0  0  0  0
 18 35  1  0  0  0  0
 19 36  1  0  0  0  0
 20 25  1  0  0  0  0
 20 21  1  0  0  0  0
 20 22  1  0  0  0  0
 21 37  1  0  0  0  0
 22 23  1  0  0  0  0
 22 38  1  0  0  0  0
 22 39  1  0  0  0  0
 23 24  1  0  0  0  0
 23 40  1  0  0  0  0
 23 41  1  0  0  0  0
 24 25  1  0  0  0  0
 24 42  1  0  0  0  0
 24 43  1  0  0  0  0
 25 44  1  0  0  0  0
 25 45  1  0  0  0  0
M  END
> <s_m_source_file>
AV-unprocessed.smi

> <i_m_source_file_index>
7

> <i_lp_mmshare_version>
43012

> <i_f3d_flags>
0

> <s_epik_input>
W0NIMl0xW0NIMl1bQ0gyXVtDSDJdQzEoW09IXSlbQ0BASF0oW09IXSlbQ0gyXW4oYzI9TylbY0hdbmMoYzIzKW4oW2NIXW4zKS1jNFtjSF1bY0hdW2NIXVtjSF1bY0hdNA==

> <s_epik_cmdline>
J2VwaWtfcHl0aG9uJywgJy1waCcsICc3LjAnLCAnLXRuJywgJzgnLCAnLW1hJywgJzIwMCcsICctbWV0YWxfYmluZGluZycsICctaW1hZScsICc8aW5maWxlLm1hZT4nLCAnLW9tYWUnLCAnPG91dGZpbGUubWFlPic=

> <r_lp_tautomer_probability>
1

> <r_epik_Ionization_Penalty>
0.000116694

> <r_epik_Ionization_Penalty_Charging>
6.60428e-09

> <r_epik_Ionization_Penalty_Neutral>
0.000116688

> <r_epik_State_Penalty>
-0

> <r_epik_Charging_Adjusted_Penalty>
6.60428e-09

> <i_epik_Tot_Q>
0

> <i_epik_Tot_abs_Q>
0

> <r_epik_Metal_State_Penalty>
-0

> <b_epik_Metal_Only>
0

> <s_lp_Force_Field>
OPLS_2005

> <r_lp_Energy>
55.7438

> <b_lp_Chiralities_Consistent>
1

> <s_lp_Variant>
AV-unprocessed.smi:7-1

> <Gold.Version>
5.8.1

> <Gold.Id.Protein>
6NUR|6NUR_protein|mol2

> <Gold.PLP.Fitness>
51.4572

> <Gold.PLP.PLP>
-43.3910

> <Gold.PLP.part.hbond>
-2.4871

> <Gold.PLP.part.metal>
0.0000

> <Gold.PLP.part.buried>
2.1750

> <Gold.PLP.part.nonpolar>
-42.7078

> <Gold.PLP.part.repulsive>
0.3617

> <Gold.PLP.ligand.clash>
0.0000

> <Gold.PLP.ligand.torsion>
0.4730

> <Gold.PLP.Chemscore.Hbond>
2.0000

> <Gold.PLP.Chemscore.CHOScore>
1.0000

> <Gold.PLP.Chemscore.Metal>
0.0000

> <Gold.Chemscore.Hbonds>
donor molecule, donor type, donor heavy atom, donor atom, acceptor molecule, acceptor atom, score
      L1  H    19    36       P1 10175  0.96
      L1  H    21    37       P1 10175  0.94
      L1  C    15    32       P1  8028  1.00

> <Gold.PLP.Chemscore.Internal.Correction>
0.0123

> <Gold.Rescore>
     Score         DG    S(hbond)    S(metal)    S(lipo)     H(rot)  DE(clash)    DE(int)     intcor
     11.01     -13.70       1.00        0.00     102.73       2.79       1.84       0.84       ----

> <Gold.Chemscore.Fitness>
11.0149

> <Gold.Chemscore.DG>
-13.7011

> <Gold.Chemscore.ZeroCoef>
-5.4800

> <Gold.Chemscore.Hbond>
0.9981

> <Gold.Chemscore.Metal>
0.0000

> <Gold.Chemscore.Lipo>
102.7307

> <Gold.Chemscore.Internal_Hbond>
0.0000

> <Gold.Chemscore.DEClash>
1.8448

> <Gold.Chemscore.DEInternal>
0.8414

> <Gold.Chemscore.Rot>
2.7860

> <Gold.Chemscore.Internal.Correction>
   9.000000E+99

> <Gold.Chemscore.Hbonds>
donor molecule, donor type, donor heavy atom, donor atom, acceptor molecule, acceptor atom, score
      L1  H    19    36       P1 10175  0.54
      L1  H    21    37       P1 10175  0.88

> <Gold.Chemscore.Hbond.Weighted>
-3.3337

> <Gold.Chemscore.Metal.Weighted>
-0.0000

> <Gold.Chemscore.Lipo.Weighted>
-12.0195

> <Gold.Chemscore.Internal_Hbond.Weighted>
0.0000

> <Gold.Chemscore.DEClash.Weighted>
1.8448

> <Gold.Chemscore.DEInternal.Weighted>
0.8414

> <Gold.Chemscore.Rot.Weighted>
7.1322

> <Gold.Chemscore.Internal.Correction.Weighted>
   9.000000E+99

> <Gold.Protein.RotatedTorsions>
[ 6907 6896 6895 6894 ] final  -36.81 input  -60.11 | X-H torsion
[ 7974 7965 7964 7962 ] final  -10.22 input  175.53 | X-H torsion
[ 8008 7997 7996 7995 ] final  -99.74 input   59.86 | X-H torsion
[ 10167 10162 10161 10158 ] final   -6.45 input  -65.29 | X-H torsion
[ 10718 10713 10712 10709 ] final  -50.32 input   66.30 | X-H torsion
[ 10763 10752 10751 10750 ] final   61.78 input  -60.55 | X-H torsion
[ 11005 11000 10999 10996 ] final -145.80 input  -57.11 | X-H torsion

> <Gold.Protein.ActiveResidues>
 VAL166  LYS551  ARG553  GLY616  TRP617  ASP618  TYR619  PRO620  LYS621  CYS622 
 ASP623  PHE694  ASN695  SER759  ASP760  ASP761  ALA762  ILE779  LEU786  VAL792 
 PHE793  MET794  SER795  GLU796  ALA797  LYS798  CYS799  TRP800  GLU811  SER814 

> <Gold.Protein.RotatedAtoms>
  151.0225  134.9480  159.8067 H   0  0  0  0  0  0  0  0  0  0  0  0  # atno 6907 bound_to 6896
  152.5328  134.2885  159.9044 H   0  0  0  0  0  0  0  0  0  0  0  0  # atno 6908 bound_to 6896
  151.2892  133.4131  159.2666 H   0  0  0  0  0  0  0  0  0  0  0  0  # atno 6909 bound_to 6896
  146.2227  140.2732  142.8358 H   0  0  0  0  0  0  0  0  0  0  0  0  # atno 7974 bound_to 7965
  154.8190  140.0445  157.1397 H   0  0  0  0  0  0  0  0  0  0  0  0  # atno 8008 bound_to 7997
  154.9281  140.3036  155.5161 H   0  0  0  0  0  0  0  0  0  0  0  0  # atno 8009 bound_to 7997
  156.2978  140.2328  156.4338 H   0  0  0  0  0  0  0  0  0  0  0  0  # atno 8010 bound_to 7997
  140.6997  143.6193  150.8628 H   0  0  0  0  0  0  0  0  0  0  0  0  # atno 10167 bound_to 10162
  156.1811  130.4150  149.9505 H   0  0  0  0  0  0  0  0  0  0  0  0  # atno 10718 bound_to 10713
  152.9961  135.5488  154.6089 H   0  0  0  0  0  0  0  0  0  0  0  0  # atno 10763 bound_to 10752
  154.5414  135.2820  155.1094 H   0  0  0  0  0  0  0  0  0  0  0  0  # atno 10764 bound_to 10752
  154.2370  135.6423  153.5247 H   0  0  0  0  0  0  0  0  0  0  0  0  # atno 10765 bound_to 10752
  140.7886  134.2995  157.5021 H   0  0  0  0  0  0  0  0  0  0  0  0  # atno 11005 bound_to 11000
  144.9252  140.7913  143.5723 LP  0  0  0  0  0  0  0  0  0  0  0  0  # atno 17320 bound_to 7965
  145.2672  139.1969  143.4861 LP  0  0  0  0  0  0  0  0  0  0  0  0  # atno 17321 bound_to 7965
  139.9914  143.5843  152.2909 LP  0  0  0  0  0  0  0  0  0  0  0  0  # atno 17342 bound_to 10162
  139.6500  144.7660  151.2168 LP  0  0  0  0  0  0  0  0  0  0  0  0  # atno 17343 bound_to 10162
  156.7276  130.9031  151.3623 LP  0  0  0  0  0  0  0  0  0  0  0  0  # atno 17370 bound_to 10713
  157.6869  130.9194  150.0409 LP  0  0  0  0  0  0  0  0  0  0  0  0  # atno 17371 bound_to 10713
  139.8734  134.9361  156.3651 LP  0  0  0  0  0  0  0  0  0  0  0  0  # atno 17394 bound_to 11000
  140.9412  133.7513  156.0149 LP  0  0  0  0  0  0  0  0  0  0  0  0  # atno 17395 bound_to 11000

$$$$
