AV-unprocessed.smi:2982|AV-procd|sdf|11376|dock5
  -GOLD-   2272016293D 1   1.00000     0.00000
 Structure written by MMmdl.
 36 37  0  0  0  0  0  0  0  0  1 V2000
  153.2895  142.3487  162.1038 C   0  0  0  0  0  0  0  0  0  0  0  0
  152.5176  142.7308  160.8341 C   0  0  0  0  0  0  0  0  0  0  0  0
  153.1573  142.2328  159.5222 C   0  0  0  0  0  0  0  0  0  0  0  0
  152.2075  142.0232  158.4438 N   0  0  0  0  0  0  0  0  0  0  0  0
  152.0300  140.7888  157.8122 C   0  0  0  0  0  0  0  0  0  0  0  0
  152.8039  139.7204  158.2363 N   0  0  0  0  0  0  0  0  0  0  0  0
  151.1292  140.6172  156.8022 C   0  0  0  0  0  0  0  0  0  0  0  0
  150.9239  139.4083  156.1475 N   0  0  0  0  0  0  0  0  0  0  0  0
  151.1507  139.2232  154.7206 C   0  0  0  0  0  0  0  0  0  0  0  0
  152.2381  138.1600  154.4824 C   0  0  0  0  0  0  0  0  0  0  0  0
  151.8839  136.9524  155.1507 O   0  0  0  0  0  0  0  0  0  0  0  0
  151.7568  137.1327  156.5583 C   0  0  0  0  0  0  0  0  0  0  0  0
  150.6494  138.1611  156.8476 C   0  0  0  0  0  0  0  0  0  0  0  0
  150.3073  141.7396  156.3397 C   0  0  0  0  0  0  0  0  0  0  0  0
  149.4653  141.6912  155.4436 O   0  0  0  0  0  0  0  0  0  0  0  0
  150.5358  142.9451  156.9985 N   0  0  0  0  0  0  0  0  0  0  0  0
  151.4502  143.1456  158.0264 C   0  0  0  0  0  0  0  0  0  0  0  0
  151.5651  144.2692  158.5165 O   0  0  0  0  0  0  0  0  0  0  0  0
  149.9931  143.7429  156.7015 H   0  0  0  0  0  0  0  0  0  0  0  0
  152.8253  142.7904  162.9856 H   0  0  0  0  0  0  0  0  0  0  0  0
  154.3204  142.7006  162.0592 H   0  0  0  0  0  0  0  0  0  0  0  0
  153.3065  141.2686  162.2494 H   0  0  0  0  0  0  0  0  0  0  0  0
  151.4954  142.3598  160.9126 H   0  0  0  0  0  0  0  0  0  0  0  0
  152.4388  143.8173  160.7890 H   0  0  0  0  0  0  0  0  0  0  0  0
  153.8802  142.9565  159.1449 H   0  0  0  0  0  0  0  0  0  0  0  0
  153.7342  141.3197  159.6745 H   0  0  0  0  0  0  0  0  0  0  0  0
  153.4799  139.8201  158.9799 H   0  0  0  0  0  0  0  0  0  0  0  0
  152.7235  138.8034  157.8212 H   0  0  0  0  0  0  0  0  0  0  0  0
  150.2144  138.9179  154.2517 H   0  0  0  0  0  0  0  0  0  0  0  0
  151.4415  140.1681  154.2595 H   0  0  0  0  0  0  0  0  0  0  0  0
  152.3385  137.9593  153.4156 H   0  0  0  0  0  0  0  0  0  0  0  0
  153.2110  138.5077  154.8315 H   0  0  0  0  0  0  0  0  0  0  0  0
  151.5105  136.1756  157.0181 H   0  0  0  0  0  0  0  0  0  0  0  0
  152.7096  137.4528  156.9821 H   0  0  0  0  0  0  0  0  0  0  0  0
  150.5735  138.3403  157.9209 H   0  0  0  0  0  0  0  0  0  0  0  0
  149.6817  137.7780  156.5218 H   0  0  0  0  0  0  0  0  0  0  0  0
  1  2  1  0  0  0  0
  1 20  1  0  0  0  0
  1 21  1  0  0  0  0
  1 22  1  0  0  0  0
  2  3  1  0  0  0  0
  2 23  1  0  0  0  0
  2 24  1  0  0  0  0
  3  4  1  0  0  0  0
  3 25  1  0  0  0  0
  3 26  1  0  0  0  0
  4 17  1  0  0  0  0
  4  5  1  0  0  0  0
  5  6  1  0  0  0  0
  5  7  2  0  0  0  0
  6 27  1  0  0  0  0
  6 28  1  0  0  0  0
  7  8  1  0  0  0  0
  7 14  1  0  0  0  0
  8 13  1  0  0  0  0
  8  9  1  0  0  0  0
  9 10  1  0  0  0  0
  9 29  1  0  0  0  0
  9 30  1  0  0  0  0
 10 11  1  0  0  0  0
 10 31  1  0  0  0  0
 10 32  1  0  0  0  0
 11 12  1  0  0  0  0
 12 13  1  0  0  0  0
 12 33  1  0  0  0  0
 12 34  1  0  0  0  0
 13 35  1  0  0  0  0
 13 36  1  0  0  0  0
 14 15  2  0  0  0  0
 14 16  1  0  0  0  0
 16 19  1  0  0  0  0
 16 17  1  0  0  0  0
 17 18  2  0  0  0  0
M  END
> <s_m_source_file>
AV-unprocessed.smi

> <i_m_source_file_index>
2982

> <i_lp_mmshare_version>
43012

> <i_f3d_flags>
0

> <s_epik_input>
W0NIM11bQ0gyXVtDSDJdbjFjKFtOSDJdKWMoYyg9TylbbkhdYzE9TylOMltDSDJdW0NIMl1PW0NIMl1bQ0gyXTI=

> <s_epik_cmdline>
J2VwaWtfcHl0aG9uJywgJy1waCcsICc3LjAnLCAnLXRuJywgJzgnLCAnLW1hJywgJzIwMCcsICctbWV0YWxfYmluZGluZycsICctaW1hZScsICc8aW5maWxlLm1hZT4nLCAnLW9tYWUnLCAnPG91dGZpbGUubWFlPic=

> <r_lp_tautomer_probability>
1

> <r_epik_Ionization_Penalty>
1.08155e-05

> <r_epik_Ionization_Penalty_Charging>
2.81443e-06

> <r_epik_Ionization_Penalty_Neutral>
8.00112e-06

> <r_epik_State_Penalty>
-0

> <r_epik_Charging_Adjusted_Penalty>
2.81443e-06

> <i_epik_Tot_Q>
0

> <i_epik_Tot_abs_Q>
0

> <r_epik_Metal_State_Penalty>
-0

> <b_epik_Metal_Only>
0

> <s_epik_Chemistry_Notes>
This compound has an imine and may undergo hydrolysis.

> <s_lp_Force_Field>
OPLS_2005

> <r_lp_Energy>
28.8877

> <b_lp_Chiralities_Consistent>
1

> <s_lp_Variant>
AV-unprocessed.smi:2982-1

> <Gold.Version>
5.8.1

> <Gold.Id.Protein>
6NUR|6NUR_protein|mol2

> <Gold.PLP.Fitness>
40.2197

> <Gold.PLP.PLP>
-35.0124

> <Gold.PLP.part.hbond>
-2.0000

> <Gold.PLP.part.metal>
0.0000

> <Gold.PLP.part.buried>
-5.7209

> <Gold.PLP.part.nonpolar>
-28.1598

> <Gold.PLP.part.repulsive>
0.7495

> <Gold.PLP.ligand.clash>
0.0000

> <Gold.PLP.ligand.torsion>
1.2019

> <Gold.PLP.Chemscore.Hbond>
1.9920

> <Gold.PLP.Chemscore.CHOScore>
0.0000

> <Gold.PLP.Chemscore.Metal>
0.0000

> <Gold.Chemscore.Hbonds>
donor molecule, donor type, donor heavy atom, donor atom, acceptor molecule, acceptor atom, score
      L1  H    16    19       P1  8028  1.00
      P1  H 10752 10763       L1    11  0.99

> <Gold.PLP.Chemscore.Internal.Correction>
1.6351

> <Gold.Rescore>
     Score         DG    S(hbond)    S(metal)    S(lipo)     H(rot)  DE(clash)    DE(int)     intcor
     12.07     -15.98       1.77        0.00      66.29       1.24       0.66       3.25       ----

> <Gold.Chemscore.Fitness>
12.0691

> <Gold.Chemscore.DG>
-15.9761

> <Gold.Chemscore.ZeroCoef>
-5.4800

> <Gold.Chemscore.Hbond>
1.7687

> <Gold.Chemscore.Metal>
0.0000

> <Gold.Chemscore.Lipo>
66.2863

> <Gold.Chemscore.Internal_Hbond>
0.0000

> <Gold.Chemscore.DEClash>
0.6585

> <Gold.Chemscore.DEInternal>
3.2485

> <Gold.Chemscore.Rot>
1.2371

> <Gold.Chemscore.Internal.Correction>
   9.000000E+99

> <Gold.Chemscore.Hbonds>
donor molecule, donor type, donor heavy atom, donor atom, acceptor molecule, acceptor atom, score
      L1  H    16    19       P1  8028  0.99
      P1  H 10752 10763       L1    11  0.56

> <Gold.Chemscore.Hbond.Weighted>
-5.9075

> <Gold.Chemscore.Metal.Weighted>
-0.0000

> <Gold.Chemscore.Lipo.Weighted>
-7.7555

> <Gold.Chemscore.Internal_Hbond.Weighted>
0.0000

> <Gold.Chemscore.DEClash.Weighted>
0.6585

> <Gold.Chemscore.DEInternal.Weighted>
3.2485

> <Gold.Chemscore.Rot.Weighted>
3.1669

> <Gold.Chemscore.Internal.Correction.Weighted>
   9.000000E+99

> <Gold.Protein.RotatedTorsions>
[ 6907 6896 6895 6894 ] final   76.63 input  -60.11 | X-H torsion
[ 7974 7965 7964 7962 ] final -144.21 input  175.53 | X-H torsion
[ 8008 7997 7996 7995 ] final -167.55 input   59.86 | X-H torsion
[ 10167 10162 10161 10158 ] final  -70.58 input  -65.29 | X-H torsion
[ 10718 10713 10712 10709 ] final -116.37 input   66.30 | X-H torsion
[ 10763 10752 10751 10750 ] final   51.72 input  -60.55 | X-H torsion
[ 11005 11000 10999 10996 ] final -142.80 input  -57.11 | X-H torsion

> <Gold.Protein.ActiveResidues>
 VAL166  LYS551  ARG553  GLY616  TRP617  ASP618  TYR619  PRO620  LYS621  CYS622 
 ASP623  PHE694  ASN695  SER759  ASP760  ASP761  ALA762  ILE779  LEU786  VAL792 
 PHE793  MET794  SER795  GLU796  ALA797  LYS798  CYS799  TRP800  GLU811  SER814 

> <Gold.Protein.RotatedAtoms>
  152.5082  134.3939  159.9393 H   0  0  0  0  0  0  0  0  0  0  0  0  # atno 6907 bound_to 6896
  151.3900  133.3786  159.2727 H   0  0  0  0  0  0  0  0  0  0  0  0  # atno 6908 bound_to 6896
  150.9439  134.8867  159.7689 H   0  0  0  0  0  0  0  0  0  0  0  0  # atno 6909 bound_to 6896
  144.8314  140.5739  143.5513 H   0  0  0  0  0  0  0  0  0  0  0  0  # atno 7974 bound_to 7965
  155.8792  140.1006  157.1497 H   0  0  0  0  0  0  0  0  0  0  0  0  # atno 8008 bound_to 7997
  154.4003  140.1332  156.4238 H   0  0  0  0  0  0  0  0  0  0  0  0  # atno 8009 bound_to 7997
  155.7662  140.3462  155.5226 H   0  0  0  0  0  0  0  0  0  0  0  0  # atno 8010 bound_to 7997
  140.5341  143.2319  151.7208 H   0  0  0  0  0  0  0  0  0  0  0  0  # atno 10167 bound_to 10162
  156.0959  130.6131  150.9027 H   0  0  0  0  0  0  0  0  0  0  0  0  # atno 10718 bound_to 10713
  152.9786  135.5836  154.4462 H   0  0  0  0  0  0  0  0  0  0  0  0  # atno 10763 bound_to 10752
  154.4056  135.2769  155.2071 H   0  0  0  0  0  0  0  0  0  0  0  0  # atno 10764 bound_to 10752
  154.3883  135.6131  153.5883 H   0  0  0  0  0  0  0  0  0  0  0  0  # atno 10765 bound_to 10752
  140.8189  134.2655  157.4909 H   0  0  0  0  0  0  0  0  0  0  0  0  # atno 11005 bound_to 11000
  145.4888  139.1490  143.3721 LP  0  0  0  0  0  0  0  0  0  0  0  0  # atno 17320 bound_to 7965
  146.2616  140.5025  142.8851 LP  0  0  0  0  0  0  0  0  0  0  0  0  # atno 17321 bound_to 7965
  139.4964  144.4069  152.0122 LP  0  0  0  0  0  0  0  0  0  0  0  0  # atno 17342 bound_to 10162
  140.3173  144.3468  150.6018 LP  0  0  0  0  0  0  0  0  0  0  0  0  # atno 17343 bound_to 10162
  157.6119  131.0936  150.8779 LP  0  0  0  0  0  0  0  0  0  0  0  0  # atno 17370 bound_to 10713
  156.8917  130.5215  149.5286 LP  0  0  0  0  0  0  0  0  0  0  0  0  # atno 17371 bound_to 10713
  139.8709  134.9524  156.4115 LP  0  0  0  0  0  0  0  0  0  0  0  0  # atno 17394 bound_to 11000
  140.9120  133.7705  155.9803 LP  0  0  0  0  0  0  0  0  0  0  0  0  # atno 17395 bound_to 11000

$$$$
