AV-unprocessed.smi:1299|AV-procd|sdf|5418|dock1
  -GOLD-   22720 4573D 1   1.00000     0.00000
 Structure written by MMmdl.
 39 40  0  0  0  0  0  0  0  0  1 V2000
  148.2840  139.5805  154.0062 C   0  0  0  0  0  0  0  0  0  0  0  0
  149.4012  140.1188  154.8833 C   0  0  0  0  0  0  0  0  0  0  0  0
  149.4293  141.3300  155.4489 C   0  0  0  0  0  0  0  0  0  0  0  0
  150.8555  141.5885  156.4231 S   0  0  0  0  0  0  0  0  0  0  0  0
  151.4365  139.9314  156.0273 C   0  0  0  0  0  0  0  0  0  0  0  0
  152.4925  139.4736  156.4610 O   0  0  0  0  0  0  0  0  0  0  0  0
  150.5110  139.3163  155.1842 N   0  0  0  0  0  0  0  0  0  0  0  0
  150.6952  137.9548  154.6639 C   0  0  0  0  0  0  0  0  0  0  0  0
  149.8785  136.8999  155.4229 C   0  0  0  0  0  0  0  0  0  0  0  0
  149.9392  136.8106  156.6501 O   0  0  0  0  0  0  0  0  0  0  0  0
  149.1009  136.1083  154.6688 N   0  0  0  0  0  0  0  0  0  0  0  0
  148.2444  135.0435  155.1791 C   0  0  0  0  0  0  0  0  0  0  0  0
  146.9887  134.8567  154.3034 C   0  0  0  0  0  0  0  0  0  0  0  0
  146.9445  133.5092  153.5636 C   0  0  0  0  0  0  0  0  0  0  0  0
  147.5744  132.5462  154.0033 O   0  0  0  0  0  0  0  0  0  0  0  0
  146.2058  133.4265  152.4374 N   0  0  0  0  0  0  0  0  0  0  0  0
  145.4228  134.5121  151.8474 C   0  0  0  0  0  0  0  0  0  0  0  0
  144.5867  133.8657  150.7425 C   0  0  0  0  0  0  0  0  0  0  0  0
  145.3827  132.6303  150.3456 C   0  0  0  0  0  0  0  0  0  0  0  0
  146.0891  132.2104  151.6348 C   0  0  0  0  0  0  0  0  0  0  0  0
  147.3742  140.1629  154.1535 H   0  0  0  0  0  0  0  0  0  0  0  0
  148.0472  138.5431  154.2422 H   0  0  0  0  0  0  0  0  0  0  0  0
  148.5627  139.6483  152.9546 H   0  0  0  0  0  0  0  0  0  0  0  0
  148.6748  142.0972  155.3568 H   0  0  0  0  0  0  0  0  0  0  0  0
  150.4528  137.9063  153.6024 H   0  0  0  0  0  0  0  0  0  0  0  0
  151.7506  137.6850  154.7294 H   0  0  0  0  0  0  0  0  0  0  0  0
  149.1067  136.2489  153.6689 H   0  0  0  0  0  0  0  0  0  0  0  0
  148.8314  134.1244  155.1957 H   0  0  0  0  0  0  0  0  0  0  0  0
  147.9681  135.2563  156.2137 H   0  0  0  0  0  0  0  0  0  0  0  0
  146.0970  134.9364  154.9262 H   0  0  0  0  0  0  0  0  0  0  0  0
  146.9378  135.6613  153.5689 H   0  0  0  0  0  0  0  0  0  0  0  0
  144.7830  135.0098  152.5772 H   0  0  0  0  0  0  0  0  0  0  0  0
  146.1030  135.2536  151.4258 H   0  0  0  0  0  0  0  0  0  0  0  0
  143.6206  133.5613  151.1473 H   0  0  0  0  0  0  0  0  0  0  0  0
  144.4006  134.5375  149.9043 H   0  0  0  0  0  0  0  0  0  0  0  0
  144.7581  131.8398  149.9285 H   0  0  0  0  0  0  0  0  0  0  0  0
  146.1249  132.9014  149.5937 H   0  0  0  0  0  0  0  0  0  0  0  0
  147.0610  131.7607  151.4252 H   0  0  0  0  0  0  0  0  0  0  0  0
  145.4885  131.4813  152.1810 H   0  0  0  0  0  0  0  0  0  0  0  0
  1  2  1  0  0  0  0
  1 21  1  0  0  0  0
  1 22  1  0  0  0  0
  1 23  1  0  0  0  0
  2  7  1  0  0  0  0
  2  3  2  0  0  0  0
  3  4  1  0  0  0  0
  3 24  1  0  0  0  0
  4  5  1  0  0  0  0
  5  6  2  0  0  0  0
  5  7  1  0  0  0  0
  7  8  1  0  0  0  0
  8  9  1  0  0  0  0
  8 25  1  0  0  0  0
  8 26  1  0  0  0  0
  9 10  2  0  0  0  0
  9 11  1  0  0  0  0
 11 12  1  0  0  0  0
 11 27  1  0  0  0  0
 12 13  1  0  0  0  0
 12 28  1  0  0  0  0
 12 29  1  0  0  0  0
 13 14  1  0  0  0  0
 13 30  1  0  0  0  0
 13 31  1  0  0  0  0
 14 15  2  0  0  0  0
 14 16  1  0  0  0  0
 16 20  1  0  0  0  0
 16 17  1  0  0  0  0
 17 18  1  0  0  0  0
 17 32  1  0  0  0  0
 17 33  1  0  0  0  0
 18 19  1  0  0  0  0
 18 34  1  0  0  0  0
 18 35  1  0  0  0  0
 19 20  1  0  0  0  0
 19 36  1  0  0  0  0
 19 37  1  0  0  0  0
 20 38  1  0  0  0  0
 20 39  1  0  0  0  0
M  END
> <s_m_source_file>
AV-unprocessed.smi

> <i_m_source_file_index>
1299

> <i_lp_mmshare_version>
43012

> <i_f3d_flags>
0

> <s_epik_input>
W0NIM11jMVtjSF1zYyg9TyluMVtDSDJdQyg9TylbTkhdW0NIMl1bQ0gyXUMoPU8pTjJbQ0gyXVtDSDJdW0NIMl1bQ0gyXTI=

> <s_epik_cmdline>
J2VwaWtfcHl0aG9uJywgJy1waCcsICc3LjAnLCAnLXRuJywgJzgnLCAnLW1hJywgJzIwMCcsICctbWV0YWxfYmluZGluZycsICctaW1hZScsICc8aW5maWxlLm1hZT4nLCAnLW9tYWUnLCAnPG91dGZpbGUubWFlPic=

> <r_lp_tautomer_probability>
1

> <r_epik_Ionization_Penalty>
1.42672e-06

> <r_epik_Ionization_Penalty_Charging>
1.08064e-06

> <r_epik_Ionization_Penalty_Neutral>
3.46085e-07

> <r_epik_State_Penalty>
-0

> <r_epik_Charging_Adjusted_Penalty>
1.08064e-06

> <i_epik_Tot_Q>
0

> <i_epik_Tot_abs_Q>
0

> <r_epik_Metal_State_Penalty>
-0

> <b_epik_Metal_Only>
0

> <s_lp_Force_Field>
OPLS_2005

> <r_lp_Energy>
30.8751

> <b_lp_Chiralities_Consistent>
1

> <s_lp_Variant>
AV-unprocessed.smi:1299-1

> <Gold.Version>
5.8.1

> <Gold.Id.Protein>
6NUR|6NUR_protein|mol2

> <Gold.PLP.Fitness>
41.3893

> <Gold.PLP.PLP>
-34.8366

> <Gold.PLP.part.hbond>
-2.0000

> <Gold.PLP.part.metal>
0.0000

> <Gold.PLP.part.buried>
-1.8900

> <Gold.PLP.part.nonpolar>
-30.7334

> <Gold.PLP.part.repulsive>
0.1174

> <Gold.PLP.ligand.clash>
0.0000

> <Gold.PLP.ligand.torsion>
1.2159

> <Gold.PLP.Chemscore.Hbond>
2.0000

> <Gold.PLP.Chemscore.CHOScore>
0.9846

> <Gold.PLP.Chemscore.Metal>
0.0000

> <Gold.Chemscore.Hbonds>
donor molecule, donor type, donor heavy atom, donor atom, acceptor molecule, acceptor atom, score
      L1  H    11    27       P1  7948  1.00
      P1  H  7997  8009       L1     6  1.00
      L1  C     3    24       P1  8028  0.73

> <Gold.PLP.Chemscore.Internal.Correction>
0.0308

> <Gold.Rescore>
     Score         DG    S(hbond)    S(metal)    S(lipo)     H(rot)  DE(clash)    DE(int)     intcor
     13.43     -14.73       1.88        0.00      69.60       2.02       0.14       1.16       ----

> <Gold.Chemscore.Fitness>
13.4304

> <Gold.Chemscore.DG>
-14.7332

> <Gold.Chemscore.ZeroCoef>
-5.4800

> <Gold.Chemscore.Hbond>
1.8776

> <Gold.Chemscore.Metal>
0.0000

> <Gold.Chemscore.Lipo>
69.6026

> <Gold.Chemscore.Internal_Hbond>
0.0000

> <Gold.Chemscore.DEClash>
0.1431

> <Gold.Chemscore.DEInternal>
1.1597

> <Gold.Chemscore.Rot>
2.0162

> <Gold.Chemscore.Internal.Correction>
   9.000000E+99

> <Gold.Chemscore.Hbonds>
donor molecule, donor type, donor heavy atom, donor atom, acceptor molecule, acceptor atom, score
      L1  H    11    27       P1  7948  0.97
      P1  H  7997  8009       L1     6  0.99

> <Gold.Chemscore.Hbond.Weighted>
-6.2711

> <Gold.Chemscore.Metal.Weighted>
-0.0000

> <Gold.Chemscore.Lipo.Weighted>
-8.1435

> <Gold.Chemscore.Internal_Hbond.Weighted>
0.0000

> <Gold.Chemscore.DEClash.Weighted>
0.1431

> <Gold.Chemscore.DEInternal.Weighted>
1.1597

> <Gold.Chemscore.Rot.Weighted>
5.1614

> <Gold.Chemscore.Internal.Correction.Weighted>
   9.000000E+99

> <Gold.Protein.RotatedTorsions>
[ 6907 6896 6895 6894 ] final -159.86 input  -60.11 | X-H torsion
[ 7974 7965 7964 7962 ] final  -23.20 input  175.53 | X-H torsion
[ 8008 7997 7996 7995 ] final -173.94 input   59.86 | X-H torsion
[ 10167 10162 10161 10158 ] final  -35.15 input  -65.29 | X-H torsion
[ 10718 10713 10712 10709 ] final   73.99 input   66.30 | X-H torsion
[ 10763 10752 10751 10750 ] final -133.43 input  -60.55 | X-H torsion
[ 11005 11000 10999 10996 ] final   52.19 input  -57.11 | X-H torsion

> <Gold.Protein.ActiveResidues>
 VAL166  LYS551  ARG553  GLY616  TRP617  ASP618  TYR619  PRO620  LYS621  CYS622 
 ASP623  PHE694  ASN695  SER759  ASP760  ASP761  ALA762  ILE779  LEU786  VAL792 
 PHE793  MET794  SER795  GLU796  ALA797  LYS798  CYS799  TRP800  GLU811  SER814 

> <Gold.Protein.RotatedAtoms>
  151.3401  133.3965  159.2670 H   0  0  0  0  0  0  0  0  0  0  0  0  # atno 6907 bound_to 6896
  150.9884  134.9225  159.7896 H   0  0  0  0  0  0  0  0  0  0  0  0  # atno 6908 bound_to 6896
  152.5239  134.3366  159.9254 H   0  0  0  0  0  0  0  0  0  0  0  0  # atno 6909 bound_to 6896
  146.1630  140.4583  142.8563 H   0  0  0  0  0  0  0  0  0  0  0  0  # atno 7974 bound_to 7965
  155.9638  140.1149  157.0873 H   0  0  0  0  0  0  0  0  0  0  0  0  # atno 8008 bound_to 7997
  154.4138  140.1177  156.5281 H   0  0  0  0  0  0  0  0  0  0  0  0  # atno 8009 bound_to 7997
  155.6686  140.3473  155.4812 H   0  0  0  0  0  0  0  0  0  0  0  0  # atno 8010 bound_to 7997
  140.7171  143.3497  151.2181 H   0  0  0  0  0  0  0  0  0  0  0  0  # atno 10167 bound_to 10162
  157.6573  130.9656  150.1148 H   0  0  0  0  0  0  0  0  0  0  0  0  # atno 10718 bound_to 10713
  154.8732  135.3766  154.4571 H   0  0  0  0  0  0  0  0  0  0  0  0  # atno 10763 bound_to 10752
  153.5242  135.7028  153.5721 H   0  0  0  0  0  0  0  0  0  0  0  0  # atno 10764 bound_to 10752
  153.3954  135.3961  155.1917 H   0  0  0  0  0  0  0  0  0  0  0  0  # atno 10765 bound_to 10752
  140.0870  134.5261  155.8889 H   0  0  0  0  0  0  0  0  0  0  0  0  # atno 11005 bound_to 11000
  144.8053  140.6289  143.6451 LP  0  0  0  0  0  0  0  0  0  0  0  0  # atno 17320 bound_to 7965
  145.4539  139.1520  143.3903 LP  0  0  0  0  0  0  0  0  0  0  0  0  # atno 17321 bound_to 7965
  139.7025  143.9509  152.2912 LP  0  0  0  0  0  0  0  0  0  0  0  0  # atno 17342 bound_to 10162
  139.9207  144.6801  150.8464 LP  0  0  0  0  0  0  0  0  0  0  0  0  # atno 17343 bound_to 10162
  156.2035  130.3662  149.8759 LP  0  0  0  0  0  0  0  0  0  0  0  0  # atno 17370 bound_to 10713
  156.6656  130.8799  151.3554 LP  0  0  0  0  0  0  0  0  0  0  0  0  # atno 17371 bound_to 10713
  141.2066  133.6656  156.6250 LP  0  0  0  0  0  0  0  0  0  0  0  0  # atno 17394 bound_to 11000
  140.3406  134.7852  157.4395 LP  0  0  0  0  0  0  0  0  0  0  0  0  # atno 17395 bound_to 11000

$$$$
