AV-unprocessed.smi:761|AV-procd|sdf|3632|dock7
  -GOLD-   22720 1 23D 1   1.00000     0.00000
 Structure written by MMmdl.
 34 35  0  0  0  0  0  0  0  0  4 V2000
  153.3989  140.3350  158.8744 O   0  0  0  0  0  0  0  0  0  0  0  0
  153.9752  141.0391  159.7115 C   0  0  0  0  0  0  0  0  0  0  0  0
  155.0628  140.7150  160.4615 N   0  5  0  0  0  0  0  0  0  0  0  0
  155.6390  139.3753  160.5689 C   0  0  0  0  0  0  0  0  0  0  0  0
  154.5893  138.4083  161.1512 C   0  0  0  0  0  0  0  0  0  0  0  0
  155.0520  137.7420  162.3962 N   0  3  0  0  0  0  0  0  0  0  0  0
  154.1470  136.6855  162.9462 C   0  0  0  0  0  0  0  0  0  0  0  0
  154.2494  136.8807  164.4321 C   0  0  0  0  0  0  0  0  0  0  0  0
  154.9374  137.9764  164.7315 C   0  0  0  0  0  0  0  0  0  0  0  0
  155.4029  138.6888  163.4934 C   0  0  0  0  0  0  0  0  0  0  0  0
  153.5520  142.2939  159.9480 N   0  0  0  0  0  0  0  0  0  0  0  0
  152.4229  142.9725  159.4149 C   0  0  0  0  0  0  0  0  0  0  0  0
  152.4431  144.3846  159.4181 C   0  0  0  0  0  0  0  0  0  0  0  0
  151.3320  145.0962  158.9222 C   0  0  0  0  0  0  0  0  0  0  0  0
  150.2549  144.4252  158.4606 N   0  3  0  0  0  0  0  0  0  0  0  0
  150.1827  143.0767  158.4529 C   0  0  0  0  0  0  0  0  0  0  0  0
  151.2633  142.3115  158.9364 C   0  0  0  0  0  0  0  0  0  0  0  0
  155.9767  138.9843  159.6083 H   0  0  0  0  0  0  0  0  0  0  0  0
  156.5186  139.3722  161.2131 H   0  0  0  0  0  0  0  0  0  0  0  0
  153.6913  138.9848  161.3808 H   0  0  0  0  0  0  0  0  0  0  0  0
  154.2931  137.6571  160.4172 H   0  0  0  0  0  0  0  0  0  0  0  0
  153.1107  136.8203  162.6331 H   0  0  0  0  0  0  0  0  0  0  0  0
  154.4831  135.6912  162.6515 H   0  0  0  0  0  0  0  0  0  0  0  0
  153.7913  136.2084  165.1426 H   0  0  0  0  0  0  0  0  0  0  0  0
  155.1323  138.3467  165.7272 H   0  0  0  0  0  0  0  0  0  0  0  0
  156.4764  138.8773  163.5171 H   0  0  0  0  0  0  0  0  0  0  0  0
  154.8730  139.6386  163.4039 H   0  0  0  0  0  0  0  0  0  0  0  0
  154.1456  142.8427  160.5527 H   0  0  0  0  0  0  0  0  0  0  0  0
  153.3046  144.9196  159.7912 H   0  0  0  0  0  0  0  0  0  0  0  0
  151.2721  146.1740  158.8841 H   0  0  0  0  0  0  0  0  0  0  0  0
  149.2663  142.6521  158.0700 H   0  0  0  0  0  0  0  0  0  0  0  0
  151.1807  141.2351  158.9452 H   0  0  0  0  0  0  0  0  0  0  0  0
  155.9167  137.2747  162.1638 H   0  0  0  0  0  0  0  0  0  0  0  0
  149.4600  144.9590  158.1085 H   0  0  0  0  0  0  0  0  0  0  0  0
  1  2  2  0  0  0  0
  2  3  1  0  0  0  0
  2 11  1  0  0  0  0
  3  4  1  0  0  0  0
  4  5  1  0  0  0  0
  4 18  1  0  0  0  0
  4 19  1  0  0  0  0
  5  6  1  0  0  0  0
  5 20  1  0  0  0  0
  5 21  1  0  0  0  0
  6 10  1  0  0  0  0
  6  7  1  0  0  0  0
  6 33  1  0  0  0  0
  7  8  1  0  0  0  0
  7 22  1  0  0  0  0
  7 23  1  0  0  0  0
  8  9  2  0  0  0  0
  8 24  1  0  0  0  0
  9 10  1  0  0  0  0
  9 25  1  0  0  0  0
 10 26  1  0  0  0  0
 10 27  1  0  0  0  0
 11 12  1  0  0  0  0
 11 28  1  0  0  0  0
 12 17  1  0  0  0  0
 12 13  2  0  0  0  0
 13 14  1  0  0  0  0
 13 29  1  0  0  0  0
 14 15  2  0  0  0  0
 14 30  1  0  0  0  0
 15 16  1  0  0  0  0
 15 34  1  0  0  0  0
 16 17  2  0  0  0  0
 16 31  1  0  0  0  0
 17 32  1  0  0  0  0
M  CHG  1   3  -1
M  CHG  1   6   1
M  CHG  1  15   1
M  END
> <s_m_source_file>
AV-unprocessed.smi

> <i_m_source_file_index>
761

> <i_lp_mmshare_version>
43012

> <i_f3d_flags>
0

> <s_epik_input>
W2NIXTFbY0hdbltjSF1bY0hdYzFbTkhdQyg9TylbTkhdW0NIMl1bQ0gyXU4yW0NIMl1bQ0hdPVtDSF1bQ0gyXTI=

> <s_epik_cmdline>
J2VwaWtfcHl0aG9uJywgJy1waCcsICc3LjAnLCAnLXRuJywgJzgnLCAnLW1hJywgJzIwMCcsICctbWV0YWxfYmluZGluZycsICctaW1hZScsICc8aW5maWxlLm1hZT4nLCAnLW9tYWUnLCAnPG91dGZpbGUubWFlPic=

> <r_epik_Ionization_Penalty>
8.30346

> <r_epik_Ionization_Penalty_Charging>
8.30346

> <r_epik_Ionization_Penalty_Neutral>
3.3887e-06

> <r_epik_State_Penalty>
7.87421

> <r_epik_Charging_Adjusted_Penalty>
16.1777

> <i_epik_Tot_Q>
1

> <i_epik_Tot_abs_Q>
3

> <r_epik_Metal_State_Penalty>
3.87237

> <b_epik_Metal_Only>
1

> <s_lp_Force_Field>
OPLS_2005

> <r_lp_Energy>
27.0573

> <b_lp_Chiralities_Consistent>
1

> <s_lp_Variant>
AV-unprocessed.smi:761-3

> <Gold.Version>
5.8.1

> <Gold.Id.Protein>
6NUR|6NUR_protein|mol2

> <Gold.PLP.Fitness>
43.1826

> <Gold.PLP.PLP>
-35.9460

> <Gold.PLP.part.hbond>
-2.7391

> <Gold.PLP.part.metal>
0.0000

> <Gold.PLP.part.buried>
-4.8090

> <Gold.PLP.part.nonpolar>
-28.4630

> <Gold.PLP.part.repulsive>
0.1663

> <Gold.PLP.ligand.clash>
0.0000

> <Gold.PLP.ligand.torsion>
0.5256

> <Gold.PLP.Chemscore.Hbond>
2.7441

> <Gold.PLP.Chemscore.CHOScore>
0.0000

> <Gold.PLP.Chemscore.Metal>
0.0000

> <Gold.Chemscore.Hbonds>
donor molecule, donor type, donor heavy atom, donor atom, acceptor molecule, acceptor atom, score
      L1  H    15    34       P1  8029  1.90
      P1  H  7997  8009       L1     1  0.53

> <Gold.PLP.Chemscore.Internal.Correction>
0.0553

> <Gold.Rescore>
     Score         DG    S(hbond)    S(metal)    S(lipo)     H(rot)  DE(clash)    DE(int)     intcor
     14.68     -16.46       1.23        0.00      91.92       1.51       0.01       1.77       ----

> <Gold.Chemscore.Fitness>
14.6798

> <Gold.Chemscore.DG>
-16.4618

> <Gold.Chemscore.ZeroCoef>
-5.4800

> <Gold.Chemscore.Hbond>
1.2266

> <Gold.Chemscore.Metal>
0.0000

> <Gold.Chemscore.Lipo>
91.9223

> <Gold.Chemscore.Internal_Hbond>
0.0000

> <Gold.Chemscore.DEClash>
0.0126

> <Gold.Chemscore.DEInternal>
1.7694

> <Gold.Chemscore.Rot>
1.5117

> <Gold.Chemscore.Internal.Correction>
   9.000000E+99

> <Gold.Chemscore.Hbonds>
donor molecule, donor type, donor heavy atom, donor atom, acceptor molecule, acceptor atom, score
      L1  H    15    34       P1  8029  0.20
      P1  H  7997  8009       L1     1  0.37

> <Gold.Chemscore.Hbond.Weighted>
-4.0970

> <Gold.Chemscore.Metal.Weighted>
-0.0000

> <Gold.Chemscore.Lipo.Weighted>
-10.7549

> <Gold.Chemscore.Internal_Hbond.Weighted>
0.0000

> <Gold.Chemscore.DEClash.Weighted>
0.0126

> <Gold.Chemscore.DEInternal.Weighted>
1.7694

> <Gold.Chemscore.Rot.Weighted>
3.8700

> <Gold.Chemscore.Internal.Correction.Weighted>
   9.000000E+99

> <Gold.Protein.RotatedTorsions>
[ 6907 6896 6895 6894 ] final   36.17 input  -60.11 | X-H torsion
[ 7974 7965 7964 7962 ] final  110.94 input  175.53 | X-H torsion
[ 8008 7997 7996 7995 ] final  146.27 input   59.86 | X-H torsion
[ 10167 10162 10161 10158 ] final -177.12 input  -65.29 | X-H torsion
[ 10718 10713 10712 10709 ] final   83.36 input   66.30 | X-H torsion
[ 10763 10752 10751 10750 ] final  134.05 input  -60.55 | X-H torsion
[ 11005 11000 10999 10996 ] final  -99.52 input  -57.11 | X-H torsion

> <Gold.Protein.ActiveResidues>
 VAL166  LYS551  ARG553  GLY616  TRP617  ASP618  TYR619  PRO620  LYS621  CYS622 
 ASP623  PHE694  ASN695  SER759  ASP760  ASP761  ALA762  ILE779  LEU786  VAL792 
 PHE793  MET794  SER795  GLU796  ALA797  LYS798  CYS799  TRP800  GLU811  SER814 

> <Gold.Protein.RotatedAtoms>
  152.1261  134.9170  160.0560 H   0  0  0  0  0  0  0  0  0  0  0  0  # atno 6907 bound_to 6896
  152.0292  133.3925  159.4298 H   0  0  0  0  0  0  0  0  0  0  0  0  # atno 6908 bound_to 6896
  150.6852  134.3461  159.4932 H   0  0  0  0  0  0  0  0  0  0  0  0  # atno 6909 bound_to 6896
  145.2486  139.2749  143.4079 H   0  0  0  0  0  0  0  0  0  0  0  0  # atno 7974 bound_to 7965
  156.2860  140.2187  156.5350 H   0  0  0  0  0  0  0  0  0  0  0  0  # atno 8008 bound_to 7997
  154.7417  140.0487  157.0839 H   0  0  0  0  0  0  0  0  0  0  0  0  # atno 8009 bound_to 7997
  155.0222  140.3125  155.4792 H   0  0  0  0  0  0  0  0  0  0  0  0  # atno 8010 bound_to 7997
  139.5496  144.2145  152.1052 H   0  0  0  0  0  0  0  0  0  0  0  0  # atno 10167 bound_to 10162
  157.6877  131.0087  150.2511 H   0  0  0  0  0  0  0  0  0  0  0  0  # atno 10718 bound_to 10713
  153.8172  135.3121  155.3406 H   0  0  0  0  0  0  0  0  0  0  0  0  # atno 10763 bound_to 10752
  154.8027  135.4716  154.0319 H   0  0  0  0  0  0  0  0  0  0  0  0  # atno 10764 bound_to 10752
  153.1716  135.6879  153.8689 H   0  0  0  0  0  0  0  0  0  0  0  0  # atno 10765 bound_to 10752
  141.1305  133.8328  157.0983 H   0  0  0  0  0  0  0  0  0  0  0  0  # atno 11005 bound_to 11000
  146.3309  140.2870  142.8613 LP  0  0  0  0  0  0  0  0  0  0  0  0  # atno 17320 bound_to 7965
  144.9523  140.8191  143.5564 LP  0  0  0  0  0  0  0  0  0  0  0  0  # atno 17321 bound_to 7965
  140.1638  144.5000  150.6617 LP  0  0  0  0  0  0  0  0  0  0  0  0  # atno 17342 bound_to 10162
  140.6754  143.2303  151.5520 LP  0  0  0  0  0  0  0  0  0  0  0  0  # atno 17343 bound_to 10162
  156.3108  130.3771  149.7664 LP  0  0  0  0  0  0  0  0  0  0  0  0  # atno 17370 bound_to 10713
  156.5265  130.8238  151.3222 LP  0  0  0  0  0  0  0  0  0  0  0  0  # atno 17371 bound_to 10713
  140.0349  134.9883  157.0852 LP  0  0  0  0  0  0  0  0  0  0  0  0  # atno 17394 bound_to 11000
  140.4226  134.1865  155.7165 LP  0  0  0  0  0  0  0  0  0  0  0  0  # atno 17395 bound_to 11000

$$$$
