AV-unprocessed.smi:1871|AV-procd|sdf|7602|dock3
  -GOLD-   22720 9323D 1   1.00000     0.00000
 Structure written by MMmdl.
 41 43  0  0  0  0  0  0  0  0  2 V2000
  145.7761  143.2333  155.0948 O   0  0  0  0  0  0  0  0  0  0  0  0
  146.5396  142.8573  153.9679 C   0  0  0  0  0  0  0  0  0  0  0  0
  147.7118  141.9929  154.3112 C   0  0  0  0  0  0  0  0  0  0  0  0
  148.7572  142.3376  155.1165 N   0  3  0  0  0  0  0  0  0  0  0  0
  149.6649  141.2814  155.1954 C   0  0  0  0  0  0  0  0  0  0  0  0
  150.8680  141.1623  155.8839 C   0  0  0  0  0  0  0  0  0  0  0  0
  151.5553  139.9380  155.7493 C   0  0  0  0  0  0  0  0  0  0  0  0
  151.0421  138.8912  154.9559 C   0  0  0  0  0  0  0  0  0  0  0  0
  149.8214  139.0244  154.2618 C   0  0  0  0  0  0  0  0  0  0  0  0
  149.1494  140.2386  154.3998 C   0  0  0  0  0  0  0  0  0  0  0  0
  147.9484  140.7228  153.8697 N   0  0  0  0  0  0  0  0  0  0  0  0
  147.1668  139.8621  152.9676 C   0  0  0  0  0  0  0  0  0  0  0  0
  146.2949  138.8405  153.7261 C   0  0  1  0  0  0  0  0  0  0  0  0
  145.2311  139.5395  154.3384 O   0  0  0  0  0  0  0  0  0  0  0  0
  145.8065  137.7175  152.8220 C   0  0  0  0  0  0  0  0  0  0  0  0
  144.8812  136.7615  153.2926 C   0  0  0  0  0  0  0  0  0  0  0  0
  144.4162  135.7438  152.4380 C   0  0  0  0  0  0  0  0  0  0  0  0
  144.8709  135.6605  151.1065 C   0  0  0  0  0  0  0  0  0  0  0  0
  144.3644  134.6538  150.3161 O   0  0  0  0  0  0  0  0  0  0  0  0
  144.5530  133.3584  150.6840 C   0  0  0  0  0  0  0  0  0  0  0  0
  143.9811  132.5355  149.7720 F   0  0  0  0  0  0  0  0  0  0  0  0
  145.8761  133.0656  150.7257 F   0  0  0  0  0  0  0  0  0  0  0  0
  145.7907  136.6269  150.6332 C   0  0  0  0  0  0  0  0  0  0  0  0
  146.2566  137.6446  151.4873 C   0  0  0  0  0  0  0  0  0  0  0  0
  146.2767  143.8536  155.6032 H   0  0  0  0  0  0  0  0  0  0  0  0
  145.8922  142.3296  153.2673 H   0  0  0  0  0  0  0  0  0  0  0  0
  146.8949  143.7589  153.4696 H   0  0  0  0  0  0  0  0  0  0  0  0
  151.2623  141.9635  156.4918 H   0  0  0  0  0  0  0  0  0  0  0  0
  152.4944  139.7988  156.2651 H   0  0  0  0  0  0  0  0  0  0  0  0
  151.5960  137.9668  154.8777 H   0  0  0  0  0  0  0  0  0  0  0  0
  149.4372  138.2174  153.6556 H   0  0  0  0  0  0  0  0  0  0  0  0
  146.5523  140.5063  152.3371 H   0  0  0  0  0  0  0  0  0  0  0  0
  147.8598  139.3520  152.2980 H   0  0  0  0  0  0  0  0  0  0  0  0
  146.8768  138.4008  154.5367 H   0  0  0  0  0  0  0  0  0  0  0  0
  144.8115  140.0797  153.6859 H   0  0  0  0  0  0  0  0  0  0  0  0
  144.5162  136.8098  154.3083 H   0  0  0  0  0  0  0  0  0  0  0  0
  143.7040  135.0206  152.8077 H   0  0  0  0  0  0  0  0  0  0  0  0
  144.1026  133.1449  151.6537 H   0  0  0  0  0  0  0  0  0  0  0  0
  146.1417  136.6049  149.6123 H   0  0  0  0  0  0  0  0  0  0  0  0
  146.9528  138.3787  151.1085 H   0  0  0  0  0  0  0  0  0  0  0  0
  148.8360  143.2354  155.5770 H   0  0  0  0  0  0  0  0  0  0  0  0
  1  2  1  0  0  0  0
  1 25  1  0  0  0  0
  2  3  1  0  0  0  0
  2 26  1  0  0  0  0
  2 27  1  0  0  0  0
  3 11  1  0  0  0  0
  3  4  2  0  0  0  0
  4  5  1  0  0  0  0
  4 41  1  0  0  0  0
  5 10  2  0  0  0  0
  5  6  1  0  0  0  0
  6  7  2  0  0  0  0
  6 28  1  0  0  0  0
  7  8  1  0  0  0  0
  7 29  1  0  0  0  0
  8  9  2  0  0  0  0
  8 30  1  0  0  0  0
  9 10  1  0  0  0  0
  9 31  1  0  0  0  0
 10 11  1  0  0  0  0
 11 12  1  0  0  0  0
 12 13  1  0  0  0  0
 12 32  1  0  0  0  0
 12 33  1  0  0  0  0
 13 14  1  0  0  0  0
 13 15  1  0  0  0  0
 13 34  1  0  0  0  0
 14 35  1  0  0  0  0
 15 24  1  0  0  0  0
 15 16  2  0  0  0  0
 16 17  1  0  0  0  0
 16 36  1  0  0  0  0
 17 18  2  0  0  0  0
 17 37  1  0  0  0  0
 18 19  1  0  0  0  0
 18 23  1  0  0  0  0
 19 20  1  0  0  0  0
 20 21  1  0  0  0  0
 20 22  1  0  0  0  0
 20 38  1  0  0  0  0
 23 24  2  0  0  0  0
 23 39  1  0  0  0  0
 24 40  1  0  0  0  0
M  CHG  1   4   1
M  END
> <s_m_source_file>
AV-unprocessed.smi

> <i_m_source_file_index>
1871

> <i_lp_mmshare_version>
43012

> <i_f3d_flags>
0

> <s_epik_input>
W2NIXTFbY0hdW2NIXVtjSF1jKGMxMiluKGMobjIpW0NIMl1bT0hdKVtDSDJdW0NASF0oW09IXSljM1tjSF1bY0hdYyhPW0NIXShGKUYpW2NIXVtjSF0z

> <s_epik_cmdline>
J2VwaWtfcHl0aG9uJywgJy1waCcsICc3LjAnLCAnLXRuJywgJzgnLCAnLW1hJywgJzIwMCcsICctbWV0YWxfYmluZGluZycsICctaW1hZScsICc8aW5maWxlLm1hZT4nLCAnLW9tYWUnLCAnPG91dGZpbGUubWFlPic=

> <r_lp_tautomer_probability>
1

> <r_epik_Ionization_Penalty>
1.35642

> <r_epik_Ionization_Penalty_Charging>
1.35557

> <r_epik_Ionization_Penalty_Neutral>
0.000856035

> <r_epik_State_Penalty>
1.43401

> <r_epik_Charging_Adjusted_Penalty>
2.78958

> <i_epik_Tot_Q>
1

> <i_epik_Tot_abs_Q>
1

> <r_epik_Metal_State_Penalty>
5.47166

> <b_epik_Metal_Only>
0

> <s_lp_Force_Field>
OPLS_2005

> <r_lp_Energy>
14.8195

> <b_lp_Chiralities_Consistent>
1

> <s_lp_Variant>
AV-unprocessed.smi:1871-4

> <Gold.Version>
5.8.1

> <Gold.Id.Protein>
6NUR|6NUR_protein|mol2

> <Gold.PLP.Fitness>
58.7355

> <Gold.PLP.PLP>
-50.6643

> <Gold.PLP.part.hbond>
-1.8460

> <Gold.PLP.part.metal>
0.0000

> <Gold.PLP.part.buried>
-0.6205

> <Gold.PLP.part.nonpolar>
-49.6646

> <Gold.PLP.part.repulsive>
0.7903

> <Gold.PLP.ligand.clash>
0.0000

> <Gold.PLP.ligand.torsion>
0.5028

> <Gold.PLP.Chemscore.Hbond>
3.0000

> <Gold.PLP.Chemscore.CHOScore>
0.0000

> <Gold.PLP.Chemscore.Metal>
0.0000

> <Gold.Chemscore.Hbonds>
donor molecule, donor type, donor heavy atom, donor atom, acceptor molecule, acceptor atom, score
      L1  H     4    41       P1  8028  1.76
      L1  H    14    35       P1 10175  1.00

> <Gold.PLP.Chemscore.Internal.Correction>
0.0768

> <Gold.Rescore>
     Score         DG    S(hbond)    S(metal)    S(lipo)     H(rot)  DE(clash)    DE(int)     intcor
     13.47     -15.75       1.98        0.00     105.06       3.37       1.54       0.75       ----

> <Gold.Chemscore.Fitness>
13.4734

> <Gold.Chemscore.DG>
-15.7549

> <Gold.Chemscore.ZeroCoef>
-5.4800

> <Gold.Chemscore.Hbond>
1.9758

> <Gold.Chemscore.Metal>
0.0000

> <Gold.Chemscore.Lipo>
105.0642

> <Gold.Chemscore.Internal_Hbond>
0.0000

> <Gold.Chemscore.DEClash>
1.5362

> <Gold.Chemscore.DEInternal>
0.7454

> <Gold.Chemscore.Rot>
3.3659

> <Gold.Chemscore.Internal.Correction>
   9.000000E+99

> <Gold.Chemscore.Hbonds>
donor molecule, donor type, donor heavy atom, donor atom, acceptor molecule, acceptor atom, score
      L1  H     4    41       P1  8028  0.84
      L1  H    14    35       P1 10175  0.99

> <Gold.Chemscore.Hbond.Weighted>
-6.5991

> <Gold.Chemscore.Metal.Weighted>
-0.0000

> <Gold.Chemscore.Lipo.Weighted>
-12.2925

> <Gold.Chemscore.Internal_Hbond.Weighted>
0.0000

> <Gold.Chemscore.DEClash.Weighted>
1.5362

> <Gold.Chemscore.DEInternal.Weighted>
0.7454

> <Gold.Chemscore.Rot.Weighted>
8.6167

> <Gold.Chemscore.Internal.Correction.Weighted>
   9.000000E+99

> <Gold.Protein.RotatedTorsions>
[ 6907 6896 6895 6894 ] final   62.52 input  -60.11 | X-H torsion
[ 7974 7965 7964 7962 ] final  -34.24 input  175.53 | X-H torsion
[ 8008 7997 7996 7995 ] final  -26.67 input   59.86 | X-H torsion
[ 10167 10162 10161 10158 ] final  -92.86 input  -65.29 | X-H torsion
[ 10718 10713 10712 10709 ] final   73.35 input   66.30 | X-H torsion
[ 10763 10752 10751 10750 ] final  165.33 input  -60.55 | X-H torsion
[ 11005 11000 10999 10996 ] final -117.31 input  -57.11 | X-H torsion

> <Gold.Protein.ActiveResidues>
 VAL166  LYS551  ARG553  GLY616  TRP617  ASP618  TYR619  PRO620  LYS621  CYS622 
 ASP623  PHE694  ASN695  SER759  ASP760  ASP761  ALA762  ILE779  LEU786  VAL792 
 PHE793  MET794  SER795  GLU796  ALA797  LYS798  CYS799  TRP800  GLU811  SER814 

> <Gold.Protein.RotatedAtoms>
  152.4179  134.6008  159.9999 H   0  0  0  0  0  0  0  0  0  0  0  0  # atno 6907 bound_to 6896
  151.6167  133.3337  159.3087 H   0  0  0  0  0  0  0  0  0  0  0  0  # atno 6908 bound_to 6896
  150.8067  134.7236  159.6717 H   0  0  0  0  0  0  0  0  0  0  0  0  # atno 6909 bound_to 6896
  146.0845  140.6015  142.8893 H   0  0  0  0  0  0  0  0  0  0  0  0  # atno 7974 bound_to 7965
  154.4414  140.1893  156.0812 H   0  0  0  0  0  0  0  0  0  0  0  0  # atno 8008 bound_to 7997
  156.0437  140.3317  155.7246 H   0  0  0  0  0  0  0  0  0  0  0  0  # atno 8009 bound_to 7997
  155.5661  140.0608  157.2808 H   0  0  0  0  0  0  0  0  0  0  0  0  # atno 8010 bound_to 7997
  140.3305  143.2997  151.9947 H   0  0  0  0  0  0  0  0  0  0  0  0  # atno 10167 bound_to 10162
  157.6544  130.9624  150.1057 H   0  0  0  0  0  0  0  0  0  0  0  0  # atno 10718 bound_to 10713
  154.3224  135.2756  155.2513 H   0  0  0  0  0  0  0  0  0  0  0  0  # atno 10763 bound_to 10752
  154.4860  135.5846  153.6428 H   0  0  0  0  0  0  0  0  0  0  0  0  # atno 10764 bound_to 10752
  152.9875  135.6123  154.3410 H   0  0  0  0  0  0  0  0  0  0  0  0  # atno 10765 bound_to 10752
  141.0363  133.9904  157.3065 H   0  0  0  0  0  0  0  0  0  0  0  0  # atno 11005 bound_to 11000
  144.7316  140.4688  143.6933 LP  0  0  0  0  0  0  0  0  0  0  0  0  # atno 17320 bound_to 7965
  145.6155  139.1518  143.3051 LP  0  0  0  0  0  0  0  0  0  0  0  0  # atno 17321 bound_to 7965
  139.4857  144.6239  151.7203 LP  0  0  0  0  0  0  0  0  0  0  0  0  # atno 17342 bound_to 10162
  140.5401  144.0592  150.6085 LP  0  0  0  0  0  0  0  0  0  0  0  0  # atno 17343 bound_to 10162
  156.1967  130.3658  149.8840 LP  0  0  0  0  0  0  0  0  0  0  0  0  # atno 17370 bound_to 10713
  156.6754  130.8837  151.3568 LP  0  0  0  0  0  0  0  0  0  0  0  0  # atno 17371 bound_to 10713
  139.9243  135.0201  156.8178 LP  0  0  0  0  0  0  0  0  0  0  0  0  # atno 17394 bound_to 11000
  140.6316  133.9901  155.7664 LP  0  0  0  0  0  0  0  0  0  0  0  0  # atno 17395 bound_to 11000

$$$$
