AV-unprocessed.smi:2775|AV-procd|sdf|10698|dock7
  -GOLD-   2272015133D 1   1.00000     0.00000
 Structure written by MMmdl.
 43 46  0  0  0  0  0  0  0  0  2 V2000
  144.0278  141.7248  155.5682 C   0  0  0  0  0  0  0  0  0  0  0  0
  145.5049  141.4632  155.3451 C   0  0  0  0  0  0  0  0  0  0  0  0
  145.9044  141.1390  154.0957 N   0  3  0  0  0  0  0  0  0  0  0  0
  147.1898  140.8793  153.7791 C   0  0  0  0  0  0  0  0  0  0  0  0
  148.1862  140.9463  154.7723 C   0  0  0  0  0  0  0  0  0  0  0  0
  147.8251  141.2965  156.0983 C   0  0  0  0  0  0  0  0  0  0  0  0
  148.7547  141.3784  157.1717 N   0  0  0  0  0  0  0  0  0  0  0  0
  150.0999  141.4432  157.1421 C   0  0  0  0  0  0  0  0  0  0  0  0
  150.7829  141.4330  156.1209 O   0  0  0  0  0  0  0  0  0  0  0  0
  150.6644  141.5326  158.3590 N   0  0  0  0  0  0  0  0  0  0  0  0
  152.0924  141.6187  158.6695 C   0  0  2  0  0  0  0  0  0  0  0  0
  152.4609  140.8582  159.9572 C   0  0  1  0  0  0  0  0  0  0  0  0
  153.3923  139.6779  159.8882 C   0  0  0  0  0  0  0  0  0  0  0  0
  154.7446  140.2868  160.2685 C   0  0  0  0  0  0  0  0  0  0  0  0
  154.6078  141.6757  159.9773 O   0  0  0  0  0  0  0  0  0  0  0  0
  153.2948  142.0673  160.3667 C   0  0  1  0  0  0  0  0  0  0  0  0
  152.5310  142.9303  159.3551 C   0  0  0  0  0  0  0  0  0  0  0  0
  151.5321  143.9928  159.8522 C   0  0  0  0  0  0  0  0  0  0  0  0
  151.9654  144.8896  158.6894 C   0  0  0  0  0  0  0  0  0  0  0  0
  153.2366  144.0439  158.5684 C   0  0  0  0  0  0  0  0  0  0  0  0
  146.4599  141.5450  156.3856 C   0  0  0  0  0  0  0  0  0  0  0  0
  145.9596  141.9499  157.9940 Cl  0  0  0  0  0  0  0  0  0  0  0  0
  143.8758  142.7294  155.9642 H   0  0  0  0  0  0  0  0  0  0  0  0
  143.6192  141.0078  156.2808 H   0  0  0  0  0  0  0  0  0  0  0  0
  143.4625  141.6391  154.6393 H   0  0  0  0  0  0  0  0  0  0  0  0
  147.3819  140.6226  152.7474 H   0  0  0  0  0  0  0  0  0  0  0  0
  149.2031  140.7167  154.4956 H   0  0  0  0  0  0  0  0  0  0  0  0
  148.3395  141.4572  158.0889 H   0  0  0  0  0  0  0  0  0  0  0  0
  150.0389  141.5319  159.1520 H   0  0  0  0  0  0  0  0  0  0  0  0
  152.7545  141.3447  157.8451 H   0  0  0  0  0  0  0  0  0  0  0  0
  151.6070  140.7247  160.6239 H   0  0  0  0  0  0  0  0  0  0  0  0
  153.1067  138.8761  160.5696 H   0  0  0  0  0  0  0  0  0  0  0  0
  153.4237  139.2649  158.8795 H   0  0  0  0  0  0  0  0  0  0  0  0
  154.9324  140.1652  161.3363 H   0  0  0  0  0  0  0  0  0  0  0  0
  155.5761  139.8410  159.7225 H   0  0  0  0  0  0  0  0  0  0  0  0
  153.1995  142.3444  161.4174 H   0  0  0  0  0  0  0  0  0  0  0  0
  150.4801  143.7084  159.8391 H   0  0  0  0  0  0  0  0  0  0  0  0
  151.8138  144.4099  160.8201 H   0  0  0  0  0  0  0  0  0  0  0  0
  151.3122  144.8022  157.8208 H   0  0  0  0  0  0  0  0  0  0  0  0
  152.1380  145.9315  158.9605 H   0  0  0  0  0  0  0  0  0  0  0  0
  154.0796  144.4729  159.1120 H   0  0  0  0  0  0  0  0  0  0  0  0
  153.5092  143.7797  157.5464 H   0  0  0  0  0  0  0  0  0  0  0  0
  145.2012  141.0838  153.3585 H   0  0  0  0  0  0  0  0  0  0  0  0
  1  2  1  0  0  0  0
  1 23  1  0  0  0  0
  1 24  1  0  0  0  0
  1 25  1  0  0  0  0
  2 21  1  0  0  0  0
  2  3  2  0  0  0  0
  3  4  1  0  0  0  0
  3 43  1  0  0  0  0
  4  5  2  0  0  0  0
  4 26  1  0  0  0  0
  5  6  1  0  0  0  0
  5 27  1  0  0  0  0
  6  7  1  0  0  0  0
  6 21  2  0  0  0  0
  7  8  1  0  0  0  0
  7 28  1  0  0  0  0
  8  9  2  0  0  0  0
  8 10  1  0  0  0  0
 10 11  1  0  0  0  0
 10 29  1  0  0  0  0
 11 17  1  0  0  0  0
 11 12  1  0  0  0  0
 11 30  1  0  0  0  0
 12 16  1  0  0  0  0
 12 13  1  0  0  0  0
 12 31  1  0  0  0  0
 13 14  1  0  0  0  0
 13 32  1  0  0  0  0
 13 33  1  0  0  0  0
 14 15  1  0  0  0  0
 14 34  1  0  0  0  0
 14 35  1  0  0  0  0
 15 16  1  0  0  0  0
 16 17  1  0  0  0  0
 16 36  1  0  0  0  0
 17 20  1  0  0  0  0
 17 18  1  0  0  0  0
 18 19  1  0  0  0  0
 18 37  1  0  0  0  0
 18 38  1  0  0  0  0
 19 20  1  0  0  0  0
 19 39  1  0  0  0  0
 19 40  1  0  0  0  0
 20 41  1  0  0  0  0
 20 42  1  0  0  0  0
 21 22  1  0  0  0  0
M  CHG  1   3   1
M  END
> <s_m_source_file>
AV-unprocessed.smi

> <i_m_source_file_index>
2775

> <i_lp_mmshare_version>
43012

> <i_f3d_flags>
0

> <s_epik_input>
W0NIM11jMW5bY0hdW2NIXWMoYzFDbClbTkhdQyg9TylbTkhdW0NAQEhdMltDQEhdKFtDSDJdW0NIMl1PMylbQ0BASF0zQzI0W0NIMl1bQ0gyXVtDSDJdNA==

> <s_epik_cmdline>
J2VwaWtfcHl0aG9uJywgJy1waCcsICc3LjAnLCAnLXRuJywgJzgnLCAnLW1hJywgJzIwMCcsICctbWV0YWxfYmluZGluZycsICctaW1hZScsICc8aW5maWxlLm1hZT4nLCAnLW9tYWUnLCAnPG91dGZpbGUubWFlPic=

> <r_epik_Ionization_Penalty>
2.4104

> <r_epik_Ionization_Penalty_Charging>
2.41038

> <r_epik_Ionization_Penalty_Neutral>
1.9872e-05

> <r_epik_State_Penalty>
2.56896

> <r_epik_Charging_Adjusted_Penalty>
4.97934

> <i_epik_Tot_Q>
1

> <i_epik_Tot_abs_Q>
1

> <r_epik_Metal_State_Penalty>
2.57906

> <b_epik_Metal_Only>
0

> <s_lp_Force_Field>
OPLS_2005

> <r_lp_Energy>
60.4392

> <b_lp_Chiralities_Consistent>
1

> <s_lp_Variant>
AV-unprocessed.smi:2775-11

> <Gold.Version>
5.8.1

> <Gold.Id.Protein>
6NUR|6NUR_protein|mol2

> <Gold.PLP.Fitness>
44.4102

> <Gold.PLP.PLP>
-38.6651

> <Gold.PLP.part.hbond>
-1.0006

> <Gold.PLP.part.metal>
0.0000

> <Gold.PLP.part.buried>
-6.1959

> <Gold.PLP.part.nonpolar>
-32.8539

> <Gold.PLP.part.repulsive>
0.2537

> <Gold.PLP.ligand.clash>
0.0000

> <Gold.PLP.ligand.torsion>
0.2240

> <Gold.PLP.Chemscore.Hbond>
2.0000

> <Gold.PLP.Chemscore.CHOScore>
0.0000

> <Gold.PLP.Chemscore.Metal>
0.0000

> <Gold.Chemscore.Hbonds>
donor molecule, donor type, donor heavy atom, donor atom, acceptor molecule, acceptor atom, score
      L1  H     3    43       P1 10175  2.00

> <Gold.PLP.Chemscore.Internal.Correction>
0.1932

> <Gold.Rescore>
     Score         DG    S(hbond)    S(metal)    S(lipo)     H(rot)  DE(clash)    DE(int)     intcor
     18.85     -20.04       0.98        0.00     118.46       1.00       0.20       0.99       ----

> <Gold.Chemscore.Fitness>
18.8516

> <Gold.Chemscore.DG>
-20.0409

> <Gold.Chemscore.ZeroCoef>
-5.4800

> <Gold.Chemscore.Hbond>
0.9765

> <Gold.Chemscore.Metal>
0.0000

> <Gold.Chemscore.Lipo>
118.4570

> <Gold.Chemscore.Internal_Hbond>
0.0000

> <Gold.Chemscore.DEClash>
0.2015

> <Gold.Chemscore.DEInternal>
0.9878

> <Gold.Chemscore.Rot>
1.0000

> <Gold.Chemscore.Internal.Correction>
   9.000000E+99

> <Gold.Chemscore.Hbonds>
donor molecule, donor type, donor heavy atom, donor atom, acceptor molecule, acceptor atom, score
      L1  H     3    43       P1 10175  0.44

> <Gold.Chemscore.Hbond.Weighted>
-3.2614

> <Gold.Chemscore.Metal.Weighted>
-0.0000

> <Gold.Chemscore.Lipo.Weighted>
-13.8595

> <Gold.Chemscore.Internal_Hbond.Weighted>
0.0000

> <Gold.Chemscore.DEClash.Weighted>
0.2015

> <Gold.Chemscore.DEInternal.Weighted>
0.9878

> <Gold.Chemscore.Rot.Weighted>
2.5600

> <Gold.Chemscore.Internal.Correction.Weighted>
   9.000000E+99

> <Gold.Protein.RotatedTorsions>
[ 6907 6896 6895 6894 ] final   92.76 input  -60.11 | X-H torsion
[ 7974 7965 7964 7962 ] final  -62.83 input  175.53 | X-H torsion
[ 8008 7997 7996 7995 ] final   72.22 input   59.86 | X-H torsion
[ 10167 10162 10161 10158 ] final   32.04 input  -65.29 | X-H torsion
[ 10718 10713 10712 10709 ] final   39.75 input   66.30 | X-H torsion
[ 10763 10752 10751 10750 ] final  -77.45 input  -60.55 | X-H torsion
[ 11005 11000 10999 10996 ] final  -83.20 input  -57.11 | X-H torsion

> <Gold.Protein.ActiveResidues>
 VAL166  LYS551  ARG553  GLY616  TRP617  ASP618  TYR619  PRO620  LYS621  CYS622 
 ASP623  PHE694  ASN695  SER759  ASP760  ASP761  ALA762  ILE779  LEU786  VAL792 
 PHE793  MET794  SER795  GLU796  ALA797  LYS798  CYS799  TRP800  GLU811  SER814 

> <Gold.Protein.RotatedAtoms>
  152.5453  134.1452  159.8495 H   0  0  0  0  0  0  0  0  0  0  0  0  # atno 6907 bound_to 6896
  151.1484  133.4917  159.2603 H   0  0  0  0  0  0  0  0  0  0  0  0  # atno 6908 bound_to 6896
  151.1498  135.0232  159.8718 H   0  0  0  0  0  0  0  0  0  0  0  0  # atno 6909 bound_to 6896
  145.7865  140.8733  143.0303 H   0  0  0  0  0  0  0  0  0  0  0  0  # atno 7974 bound_to 7965
  155.7656  140.3485  155.5220 H   0  0  0  0  0  0  0  0  0  0  0  0  # atno 8008 bound_to 7997
  155.8872  140.1012  157.1465 H   0  0  0  0  0  0  0  0  0  0  0  0  # atno 8009 bound_to 7997
  154.4030  140.1311  156.4257 H   0  0  0  0  0  0  0  0  0  0  0  0  # atno 8010 bound_to 7997
  140.4534  144.1014  150.6196 H   0  0  0  0  0  0  0  0  0  0  0  0  # atno 10167 bound_to 10162
  157.3742  130.7718  149.7142 H   0  0  0  0  0  0  0  0  0  0  0  0  # atno 10718 bound_to 10713
  154.5132  135.5763  153.6621 H   0  0  0  0  0  0  0  0  0  0  0  0  # atno 10763 bound_to 10752
  152.9901  135.6163  154.2852 H   0  0  0  0  0  0  0  0  0  0  0  0  # atno 10764 bound_to 10752
  154.2768  135.2852  155.2694 H   0  0  0  0  0  0  0  0  0  0  0  0  # atno 10765 bound_to 10752
  141.1659  133.7283  156.8685 H   0  0  0  0  0  0  0  0  0  0  0  0  # atno 11005 bound_to 11000
  144.6788  140.0063  143.7484 LP  0  0  0  0  0  0  0  0  0  0  0  0  # atno 17320 bound_to 7965
  146.0020  139.3099  143.0922 LP  0  0  0  0  0  0  0  0  0  0  0  0  # atno 17321 bound_to 7965
  140.4180  143.2625  151.9751 LP  0  0  0  0  0  0  0  0  0  0  0  0  # atno 17342 bound_to 10162
  139.4799  144.5856  151.7858 LP  0  0  0  0  0  0  0  0  0  0  0  0  # atno 17343 bound_to 10162
  155.9762  130.4079  150.3797 LP  0  0  0  0  0  0  0  0  0  0  0  0  # atno 17370 bound_to 10713
  157.1892  131.0411  151.2709 LP  0  0  0  0  0  0  0  0  0  0  0  0  # atno 17371 bound_to 10713
  140.1798  134.9041  157.2934 LP  0  0  0  0  0  0  0  0  0  0  0  0  # atno 17394 bound_to 11000
  140.2408  134.3798  155.7481 LP  0  0  0  0  0  0  0  0  0  0  0  0  # atno 17395 bound_to 11000

$$$$
