AV-unprocessed.smi:1066|AV-procd|sdf|4669|dock4
  -GOLD-   22720 3183D 1   1.00000     0.00000
 Structure written by MMmdl.
 38 40  0  0  0  0  0  0  0  0  2 V2000
  150.4275  130.3728  154.5899 C   0  0  0  0  0  0  0  0  0  0  0  0
  150.6497  131.5728  155.4653 C   0  0  0  0  0  0  0  0  0  0  0  0
  151.1925  131.4045  156.6639 N   0  0  0  0  0  0  0  0  0  0  0  0
  151.2669  132.6750  157.2463 O   0  0  0  0  0  0  0  0  0  0  0  0
  150.7576  133.5509  156.3507 C   0  0  0  0  0  0  0  0  0  0  0  0
  150.6387  135.2349  156.6763 Cl  0  0  0  0  0  0  0  0  0  0  0  0
  150.3452  132.9411  155.2010 C   0  0  0  0  0  0  0  0  0  0  0  0
  149.7181  133.5451  153.9696 C   0  0  0  0  0  0  0  0  0  0  0  0
  148.2579  133.1050  153.8713 C   0  0  0  0  0  0  0  0  0  0  0  0
  147.9768  131.9088  153.8077 O   0  0  0  0  0  0  0  0  0  0  0  0
  147.3369  134.0809  153.8719 N   0  0  0  0  0  0  0  0  0  0  0  0
  145.8955  133.8633  153.8418 C   0  0  1  0  0  0  0  0  0  0  0  0
  145.0688  135.1431  153.6894 C   0  0  0  0  0  0  0  0  0  0  0  0
  143.8046  134.7002  152.9339 C   0  0  0  0  0  0  0  0  0  0  0  0
  144.0262  133.2983  152.5091 N   0  3  1  0  0  0  0  0  0  0  0  0
  143.4579  132.9689  151.1849 C   0  0  0  0  0  0  0  0  0  0  0  0
  144.2215  131.8917  150.4523 C   0  0  0  0  0  0  0  0  0  0  0  0
  144.3587  133.3387  150.0311 C   0  0  0  0  0  0  0  0  0  0  0  0
  145.4734  133.0463  152.6244 C   0  0  0  0  0  0  0  0  0  0  0  0
  149.9146  130.6399  153.6662 H   0  0  0  0  0  0  0  0  0  0  0  0
  149.8188  129.6243  155.0976 H   0  0  0  0  0  0  0  0  0  0  0  0
  151.3743  129.9051  154.3191 H   0  0  0  0  0  0  0  0  0  0  0  0
  149.7605  134.6347  153.9893 H   0  0  0  0  0  0  0  0  0  0  0  0
  150.2472  133.2410  153.0659 H   0  0  0  0  0  0  0  0  0  0  0  0
  147.6592  135.0368  153.9228 H   0  0  0  0  0  0  0  0  0  0  0  0
  145.5839  133.3352  154.7454 H   0  0  0  0  0  0  0  0  0  0  0  0
  144.8406  135.6037  154.6512 H   0  0  0  0  0  0  0  0  0  0  0  0
  145.6105  135.8783  153.0918 H   0  0  0  0  0  0  0  0  0  0  0  0
  142.9190  134.7490  153.5681 H   0  0  0  0  0  0  0  0  0  0  0  0
  143.6343  135.3520  152.0754 H   0  0  0  0  0  0  0  0  0  0  0  0
  142.3758  133.0407  151.0886 H   0  0  0  0  0  0  0  0  0  0  0  0
  145.0715  131.4310  150.9528 H   0  0  0  0  0  0  0  0  0  0  0  0
  143.6562  131.2332  149.7958 H   0  0  0  0  0  0  0  0  0  0  0  0
  143.8835  133.6322  149.0972 H   0  0  0  0  0  0  0  0  0  0  0  0
  145.3004  133.8390  150.2512 H   0  0  0  0  0  0  0  0  0  0  0  0
  145.9827  133.4039  151.7270 H   0  0  0  0  0  0  0  0  0  0  0  0
  145.6877  131.9829  152.7376 H   0  0  0  0  0  0  0  0  0  0  0  0
  143.5753  132.7123  153.1972 H   0  0  0  0  0  0  0  0  0  0  0  0
  1  2  1  0  0  0  0
  1 20  1  0  0  0  0
  1 21  1  0  0  0  0
  1 22  1  0  0  0  0
  2  7  1  0  0  0  0
  2  3  2  0  0  0  0
  3  4  1  0  0  0  0
  4  5  1  0  0  0  0
  5  6  1  0  0  0  0
  5  7  2  0  0  0  0
  7  8  1  0  0  0  0
  8  9  1  0  0  0  0
  8 23  1  0  0  0  0
  8 24  1  0  0  0  0
  9 10  2  0  0  0  0
  9 11  1  0  0  0  0
 11 12  1  0  0  0  0
 11 25  1  0  0  0  0
 12 19  1  0  0  0  0
 12 13  1  0  0  0  0
 12 26  1  0  0  0  0
 13 14  1  0  0  0  0
 13 27  1  0  0  0  0
 13 28  1  0  0  0  0
 14 15  1  0  0  0  0
 14 29  1  0  0  0  0
 14 30  1  0  0  0  0
 15 16  1  0  0  0  0
 15 19  1  0  0  0  0
 15 38  1  0  0  0  0
 16 18  1  0  0  0  0
 16 17  1  0  0  0  0
 16 31  1  0  0  0  0
 17 18  1  0  0  0  0
 17 32  1  0  0  0  0
 17 33  1  0  0  0  0
 18 34  1  0  0  0  0
 18 35  1  0  0  0  0
 19 36  1  0  0  0  0
 19 37  1  0  0  0  0
M  CHG  1  15   1
M  END
> <s_m_source_file>
AV-unprocessed.smi

> <i_m_source_file_index>
1066

> <i_lp_mmshare_version>
43012

> <i_f3d_flags>
0

> <s_epik_input>
W0NIM11jMW5vYyhDbCljMVtDSDJdQyg9TylbTkhdW0NAQEhdMltDSDJdW0NIMl1OKFtDSDJdMilbQ0hdM1tDSDJdW0NIMl0z

> <s_epik_cmdline>
J2VwaWtfcHl0aG9uJywgJy1waCcsICc3LjAnLCAnLXRuJywgJzgnLCAnLW1hJywgJzIwMCcsICctbWV0YWxfYmluZGluZycsICctaW1hZScsICc8aW5maWxlLm1hZT4nLCAnLW9tYWUnLCAnPG91dGZpbGUubWFlPic=

> <r_epik_Ionization_Penalty>
0.00108138

> <r_epik_Ionization_Penalty_Charging>
0.00108128

> <r_epik_Ionization_Penalty_Neutral>
9.66632e-08

> <r_epik_State_Penalty>
0.000708577

> <r_epik_Charging_Adjusted_Penalty>
0.00178986

> <i_epik_Tot_Q>
1

> <i_epik_Tot_abs_Q>
1

> <r_epik_Metal_State_Penalty>
-0

> <b_epik_Metal_Only>
0

> <s_lp_Force_Field>
OPLS_2005

> <r_lp_Energy>
30.6816

> <b_lp_Chiralities_Consistent>
1

> <s_lp_Variant>
AV-unprocessed.smi:1066-2

> <Gold.Version>
5.8.1

> <Gold.Id.Protein>
6NUR|6NUR_protein|mol2

> <Gold.PLP.Fitness>
39.1934

> <Gold.PLP.PLP>
-30.4098

> <Gold.PLP.part.hbond>
-2.0088

> <Gold.PLP.part.metal>
0.0000

> <Gold.PLP.part.buried>
-6.1381

> <Gold.PLP.part.nonpolar>
-22.5402

> <Gold.PLP.part.repulsive>
0.0662

> <Gold.PLP.ligand.clash>
0.0000

> <Gold.PLP.ligand.torsion>
0.7325

> <Gold.PLP.Chemscore.Hbond>
2.9920

> <Gold.PLP.Chemscore.CHOScore>
0.0000

> <Gold.PLP.Chemscore.Metal>
0.0000

> <Gold.Chemscore.Hbonds>
donor molecule, donor type, donor heavy atom, donor atom, acceptor molecule, acceptor atom, score
      L1  H    15    38       P1 10957  1.92
      P1  H  6896  6907       L1     4  0.86

> <Gold.PLP.Chemscore.Internal.Correction>
1.2727

> <Gold.Rescore>
     Score         DG    S(hbond)    S(metal)    S(lipo)     H(rot)  DE(clash)    DE(int)     intcor
     13.55     -15.31       1.89        0.00      64.40       1.57       0.00       1.76       ----

> <Gold.Chemscore.Fitness>
13.5513

> <Gold.Chemscore.DG>
-15.3107

> <Gold.Chemscore.ZeroCoef>
-5.4800

> <Gold.Chemscore.Hbond>
1.8917

> <Gold.Chemscore.Metal>
0.0000

> <Gold.Chemscore.Lipo>
64.3968

> <Gold.Chemscore.Internal_Hbond>
0.0000

> <Gold.Chemscore.DEClash>
0.0000

> <Gold.Chemscore.DEInternal>
1.7595

> <Gold.Chemscore.Rot>
1.5711

> <Gold.Chemscore.Internal.Correction>
   9.000000E+99

> <Gold.Chemscore.Hbonds>
donor molecule, donor type, donor heavy atom, donor atom, acceptor molecule, acceptor atom, score
      L1  H    15    38       P1 10957  0.32
      P1  H  6896  6907       L1     4  0.76

> <Gold.Chemscore.Hbond.Weighted>
-6.3184

> <Gold.Chemscore.Metal.Weighted>
-0.0000

> <Gold.Chemscore.Lipo.Weighted>
-7.5344

> <Gold.Chemscore.Internal_Hbond.Weighted>
0.0000

> <Gold.Chemscore.DEClash.Weighted>
0.0000

> <Gold.Chemscore.DEInternal.Weighted>
1.7595

> <Gold.Chemscore.Rot.Weighted>
4.0221

> <Gold.Chemscore.Internal.Correction.Weighted>
   9.000000E+99

> <Gold.Protein.RotatedTorsions>
[ 6907 6896 6895 6894 ] final -167.76 input  -60.11 | X-H torsion
[ 7974 7965 7964 7962 ] final   85.92 input  175.53 | X-H torsion
[ 8008 7997 7996 7995 ] final -146.00 input   59.86 | X-H torsion
[ 10167 10162 10161 10158 ] final   49.74 input  -65.29 | X-H torsion
[ 10718 10713 10712 10709 ] final -141.51 input   66.30 | X-H torsion
[ 10763 10752 10751 10750 ] final  -23.87 input  -60.55 | X-H torsion
[ 11005 11000 10999 10996 ] final -146.86 input  -57.11 | X-H torsion

> <Gold.Protein.ActiveResidues>
 VAL166  LYS551  ARG553  GLY616  TRP617  ASP618  TYR619  PRO620  LYS621  CYS622 
 ASP623  PHE694  ASN695  SER759  ASP760  ASP761  ALA762  ILE779  LEU786  VAL792 
 PHE793  MET794  SER795  GLU796  ALA797  LYS798  CYS799  TRP800  GLU811  SER814 

> <Gold.Protein.RotatedAtoms>
  151.4646  133.3584  159.2814 H   0  0  0  0  0  0  0  0  0  0  0  0  # atno 6907 bound_to 6896
  150.9002  134.8415  159.7365 H   0  0  0  0  0  0  0  0  0  0  0  0  # atno 6908 bound_to 6896
  152.4875  134.4566  159.9643 H   0  0  0  0  0  0  0  0  0  0  0  0  # atno 6909 bound_to 6896
  145.5791  139.2323  143.2363 H   0  0  0  0  0  0  0  0  0  0  0  0  # atno 7974 bound_to 7965
  155.5522  140.0617  157.2847 H   0  0  0  0  0  0  0  0  0  0  0  0  # atno 8008 bound_to 7997
  154.4417  140.1900  156.0743 H   0  0  0  0  0  0  0  0  0  0  0  0  # atno 8009 bound_to 7997
  156.0508  140.3284  155.7352 H   0  0  0  0  0  0  0  0  0  0  0  0  # atno 8010 bound_to 7997
  140.2797  144.3170  150.6267 H   0  0  0  0  0  0  0  0  0  0  0  0  # atno 10167 bound_to 10162
  156.3349  130.7606  151.1731 H   0  0  0  0  0  0  0  0  0  0  0  0  # atno 10718 bound_to 10713
  153.6748  135.6970  153.5136 H   0  0  0  0  0  0  0  0  0  0  0  0  # atno 10763 bound_to 10752
  153.2530  135.4269  155.0816 H   0  0  0  0  0  0  0  0  0  0  0  0  # atno 10764 bound_to 10752
  154.8416  135.3536  154.6292 H   0  0  0  0  0  0  0  0  0  0  0  0  # atno 10765 bound_to 10752
  140.7776  134.3117  157.5056 H   0  0  0  0  0  0  0  0  0  0  0  0  # atno 11005 bound_to 11000
  146.1729  140.6618  142.9225 LP  0  0  0  0  0  0  0  0  0  0  0  0  # atno 17320 bound_to 7965
  144.7402  140.4921  143.6875 LP  0  0  0  0  0  0  0  0  0  0  0  0  # atno 17321 bound_to 7965
  140.5821  143.2172  151.7408 LP  0  0  0  0  0  0  0  0  0  0  0  0  # atno 17342 bound_to 10162
  139.4966  144.4064  152.0127 LP  0  0  0  0  0  0  0  0  0  0  0  0  # atno 17343 bound_to 10162
  157.7437  131.0471  150.4926 LP  0  0  0  0  0  0  0  0  0  0  0  0  # atno 17370 bound_to 10713
  156.5098  130.4136  149.6307 LP  0  0  0  0  0  0  0  0  0  0  0  0  # atno 17371 bound_to 10713
  139.8747  134.9299  156.3487 LP  0  0  0  0  0  0  0  0  0  0  0  0  # atno 17394 bound_to 11000
  140.9514  133.7448  156.0277 LP  0  0  0  0  0  0  0  0  0  0  0  0  # atno 17395 bound_to 11000

$$$$
