AV-unprocessed.smi:2527|AV-procd|sdf|9944|dock4
  -GOLD-   2272013583D 1   1.00000     0.00000
 Structure written by MMmdl.
 37 39  0  0  0  0  0  0  0  0  2 V2000
  150.8459  137.9547  154.3530 C   0  0  0  0  0  0  0  0  0  0  0  0
  151.7572  139.0388  154.3356 O   0  0  0  0  0  0  0  0  0  0  0  0
  152.5455  139.1067  155.5127 C   0  0  0  0  0  0  0  0  0  0  0  0
  151.6523  139.4144  156.7229 C   0  0  0  0  0  0  0  0  0  0  0  0
  151.1737  140.8049  156.7245 N   0  0  0  0  0  0  0  0  0  0  0  0
  150.3466  141.4506  155.8559 C   0  0  0  0  0  0  0  0  0  0  0  0
  149.5909  140.7504  154.4229 S   0  0  0  0  0  0  0  0  0  0  0  0
  147.8223  140.6265  154.8030 C   0  0  0  0  0  0  0  0  0  0  0  0
  147.0448  139.7558  153.8391 C   0  0  0  0  0  0  0  0  0  0  0  0
  147.5566  139.5863  152.5776 N   0  0  0  0  0  0  0  0  0  0  0  0
  146.7069  138.7917  151.9380 C   0  0  0  0  0  0  0  0  0  0  0  0
  146.7827  138.3844  150.7813 O   0  0  0  0  0  0  0  0  0  0  0  0
  145.7501  138.5343  152.8379 N   0  0  0  0  0  0  0  0  0  0  0  0
  145.9402  139.1278  154.0426 N   0  0  0  0  0  0  0  0  0  0  0  0
  150.2058  142.7323  156.2946 N   0  3  0  0  0  0  0  0  0  0  0  0
  150.9475  142.9088  157.4641 C   0  0  0  0  0  0  0  0  0  0  0  0
  151.1148  144.0262  158.2763 C   0  0  0  0  0  0  0  0  0  0  0  0
  151.9395  143.8698  159.4099 C   0  0  0  0  0  0  0  0  0  0  0  0
  152.1910  145.2121  160.4638 Cl  0  0  0  0  0  0  0  0  0  0  0  0
  152.5604  142.6368  159.6982 C   0  0  0  0  0  0  0  0  0  0  0  0
  152.3862  141.5109  158.8669 C   0  0  0  0  0  0  0  0  0  0  0  0
  151.5702  141.6747  157.7477 C   0  0  0  0  0  0  0  0  0  0  0  0
  144.9336  137.9570  152.6957 H   0  0  0  0  0  0  0  0  0  0  0  0
  148.4084  139.9911  152.2179 H   0  0  0  0  0  0  0  0  0  0  0  0
  150.2630  137.9517  153.4322 H   0  0  0  0  0  0  0  0  0  0  0  0
  150.1521  138.0354  155.1908 H   0  0  0  0  0  0  0  0  0  0  0  0
  151.3702  137.0008  154.4226 H   0  0  0  0  0  0  0  0  0  0  0  0
  153.0641  138.1598  155.6693 H   0  0  0  0  0  0  0  0  0  0  0  0
  153.3067  139.8816  155.4078 H   0  0  0  0  0  0  0  0  0  0  0  0
  150.7974  138.7391  156.7607 H   0  0  0  0  0  0  0  0  0  0  0  0
  152.2087  139.2537  157.6468 H   0  0  0  0  0  0  0  0  0  0  0  0
  147.7143  140.2428  155.8182 H   0  0  0  0  0  0  0  0  0  0  0  0
  147.3904  141.6276  154.7965 H   0  0  0  0  0  0  0  0  0  0  0  0
  150.6381  144.9707  158.0581 H   0  0  0  0  0  0  0  0  0  0  0  0
  153.1833  142.5507  160.5767 H   0  0  0  0  0  0  0  0  0  0  0  0
  152.8629  140.5709  159.1029 H   0  0  0  0  0  0  0  0  0  0  0  0
  149.6422  143.4315  155.8290 H   0  0  0  0  0  0  0  0  0  0  0  0
  1  2  1  0  0  0  0
  1 25  1  0  0  0  0
  1 26  1  0  0  0  0
  1 27  1  0  0  0  0
  2  3  1  0  0  0  0
  3  4  1  0  0  0  0
  3 28  1  0  0  0  0
  3 29  1  0  0  0  0
  4  5  1  0  0  0  0
  4 30  1  0  0  0  0
  4 31  1  0  0  0  0
  5 22  1  0  0  0  0
  5  6  1  0  0  0  0
  6  7  1  0  0  0  0
  6 15  2  0  0  0  0
  7  8  1  0  0  0  0
  8 32  1  0  0  0  0
  8 33  1  0  0  0  0
  8  9  1  0  0  0  0
  9 14  2  0  0  0  0
  9 10  1  0  0  0  0
 10 11  1  0  0  0  0
 10 24  1  0  0  0  0
 11 13  1  0  0  0  0
 11 12  2  0  0  0  0
 13 14  1  0  0  0  0
 13 23  1  0  0  0  0
 15 16  1  0  0  0  0
 15 37  1  0  0  0  0
 16 22  2  0  0  0  0
 16 17  1  0  0  0  0
 17 18  2  0  0  0  0
 17 34  1  0  0  0  0
 18 19  1  0  0  0  0
 18 20  1  0  0  0  0
 20 21  2  0  0  0  0
 20 35  1  0  0  0  0
 21 22  1  0  0  0  0
 21 36  1  0  0  0  0
M  CHG  1  15   1
M  END
> <s_m_source_file>
AV-unprocessed.smi

> <i_m_source_file_index>
2527

> <i_lp_mmshare_version>
43012

> <i_f3d_flags>
0

> <s_epik_input>
W2NIXTFjKENsKVtjSF1bY0hdYyhjMTIpbihbQ0gyXVtDSDJdT1tDSDNdKWMobjIpU1tDSDJdYzNuYyg9TylbbkhdW25IXTM=

> <s_epik_cmdline>
J2VwaWtfcHl0aG9uJywgJy1waCcsICc3LjAnLCAnLXRuJywgJzgnLCAnLW1hJywgJzIwMCcsICctbWV0YWxfYmluZGluZycsICctaW1hZScsICc8aW5maWxlLm1hZT4nLCAnLW9tYWUnLCAnPG91dGZpbGUubWFlPic=

> <r_lp_tautomer_probability>
0.999897

> <r_epik_Ionization_Penalty>
2.55529

> <r_epik_Ionization_Penalty_Charging>
2.55529

> <r_epik_Ionization_Penalty_Neutral>
1.25843e-08

> <r_epik_State_Penalty>
2.65345

> <r_epik_Charging_Adjusted_Penalty>
5.20874

> <i_epik_Tot_Q>
1

> <i_epik_Tot_abs_Q>
1

> <r_epik_Metal_State_Penalty>
3.01692

> <b_epik_Metal_Only>
0

> <s_lp_Force_Field>
OPLS_2005

> <r_lp_Energy>
34.0124

> <b_lp_Chiralities_Consistent>
1

> <s_lp_Variant>
AV-unprocessed.smi:2527-3

> <Gold.Version>
5.8.1

> <Gold.Id.Protein>
6NUR|6NUR_protein|mol2

> <Gold.PLP.Fitness>
59.7882

> <Gold.PLP.PLP>
-46.0044

> <Gold.PLP.part.hbond>
-4.8566

> <Gold.PLP.part.metal>
0.0000

> <Gold.PLP.part.buried>
-4.1890

> <Gold.PLP.part.nonpolar>
-39.3232

> <Gold.PLP.part.repulsive>
1.2051

> <Gold.PLP.ligand.clash>
0.0000

> <Gold.PLP.ligand.torsion>
0.5524

> <Gold.PLP.Chemscore.Hbond>
4.9341

> <Gold.PLP.Chemscore.CHOScore>
0.0000

> <Gold.PLP.Chemscore.Metal>
0.0000

> <Gold.Chemscore.Hbonds>
donor molecule, donor type, donor heavy atom, donor atom, acceptor molecule, acceptor atom, score
      L1  H    10    24       P1  7957  1.00
      L1  H    15    37       P1  8028  1.85
      P1  H  7954  7966       L1    12  1.00
      P1  H  7989  7998       L1     2  0.96

> <Gold.PLP.Chemscore.Internal.Correction>
0.0863

> <Gold.Rescore>
     Score         DG    S(hbond)    S(metal)    S(lipo)     H(rot)  DE(clash)    DE(int)     intcor
     19.35     -22.08       3.73        0.00      99.52       2.93       0.78       1.95       ----

> <Gold.Chemscore.Fitness>
19.3492

> <Gold.Chemscore.DG>
-22.0772

> <Gold.Chemscore.ZeroCoef>
-5.4800

> <Gold.Chemscore.Hbond>
3.7265

> <Gold.Chemscore.Metal>
0.0000

> <Gold.Chemscore.Lipo>
99.5214

> <Gold.Chemscore.Internal_Hbond>
0.0000

> <Gold.Chemscore.DEClash>
0.7780

> <Gold.Chemscore.DEInternal>
1.9501

> <Gold.Chemscore.Rot>
2.9270

> <Gold.Chemscore.Internal.Correction>
   9.000000E+99

> <Gold.Chemscore.Hbonds>
donor molecule, donor type, donor heavy atom, donor atom, acceptor molecule, acceptor atom, score
      L1  H    10    24       P1  7957  0.93
      L1  H    15    37       P1  8028  0.88
      P1  H  7954  7966       L1    12  0.94
      P1  H  7989  7998       L1     2  0.66

> <Gold.Chemscore.Hbond.Weighted>
-12.4464

> <Gold.Chemscore.Metal.Weighted>
-0.0000

> <Gold.Chemscore.Lipo.Weighted>
-11.6440

> <Gold.Chemscore.Internal_Hbond.Weighted>
0.0000

> <Gold.Chemscore.DEClash.Weighted>
0.7780

> <Gold.Chemscore.DEInternal.Weighted>
1.9501

> <Gold.Chemscore.Rot.Weighted>
7.4932

> <Gold.Chemscore.Internal.Correction.Weighted>
   9.000000E+99

> <Gold.Protein.RotatedTorsions>
[ 6907 6896 6895 6894 ] final  -75.16 input  -60.11 | X-H torsion
[ 7974 7965 7964 7962 ] final  -50.80 input  175.53 | X-H torsion
[ 8008 7997 7996 7995 ] final -130.06 input   59.86 | X-H torsion
[ 10167 10162 10161 10158 ] final  153.63 input  -65.29 | X-H torsion
[ 10718 10713 10712 10709 ] final -144.41 input   66.30 | X-H torsion
[ 10763 10752 10751 10750 ] final  138.71 input  -60.55 | X-H torsion
[ 11005 11000 10999 10996 ] final  172.88 input  -57.11 | X-H torsion

> <Gold.Protein.ActiveResidues>
 VAL166  LYS551  ARG553  GLY616  TRP617  ASP618  TYR619  PRO620  LYS621  CYS622 
 ASP623  PHE694  ASN695  SER759  ASP760  ASP761  ALA762  ILE779  LEU786  VAL792 
 PHE793  MET794  SER795  GLU796  ALA797  LYS798  CYS799  TRP800  GLU811  SER814 

> <Gold.Protein.RotatedAtoms>
  150.7068  134.4762  159.5448 H   0  0  0  0  0  0  0  0  0  0  0  0  # atno 6907 bound_to 6896
  152.2408  134.8227  160.0469 H   0  0  0  0  0  0  0  0  0  0  0  0  # atno 6908 bound_to 6896
  151.9010  133.3503  159.3867 H   0  0  0  0  0  0  0  0  0  0  0  0  # atno 6909 bound_to 6896
  145.9259  140.7792  142.9624 H   0  0  0  0  0  0  0  0  0  0  0  0  # atno 7974 bound_to 7965
  155.2896  140.0447  157.3022 H   0  0  0  0  0  0  0  0  0  0  0  0  # atno 8008 bound_to 7997
  154.5549  140.2328  155.8394 H   0  0  0  0  0  0  0  0  0  0  0  0  # atno 8009 bound_to 7997
  156.1999  140.3028  155.9511 H   0  0  0  0  0  0  0  0  0  0  0  0  # atno 8010 bound_to 7997
  139.4826  144.5256  151.7806 H   0  0  0  0  0  0  0  0  0  0  0  0  # atno 10167 bound_to 10162
  156.3698  130.7782  151.1961 H   0  0  0  0  0  0  0  0  0  0  0  0  # atno 10718 bound_to 10713
  153.8941  135.3029  155.3448 H   0  0  0  0  0  0  0  0  0  0  0  0  # atno 10763 bound_to 10752
  154.7702  135.4890  153.9637 H   0  0  0  0  0  0  0  0  0  0  0  0  # atno 10764 bound_to 10752
  153.1281  135.6797  153.9322 H   0  0  0  0  0  0  0  0  0  0  0  0  # atno 10765 bound_to 10752
  140.3344  134.7330  157.4158 H   0  0  0  0  0  0  0  0  0  0  0  0  # atno 11005 bound_to 11000
  144.6758  140.2050  143.7383 LP  0  0  0  0  0  0  0  0  0  0  0  0  # atno 17320 bound_to 7965
  145.8489  139.2166  143.1783 LP  0  0  0  0  0  0  0  0  0  0  0  0  # atno 17321 bound_to 7965
  140.4776  144.1497  150.5927 LP  0  0  0  0  0  0  0  0  0  0  0  0  # atno 17342 bound_to 10162
  140.4314  143.2566  151.9591 LP  0  0  0  0  0  0  0  0  0  0  0  0  # atno 17343 bound_to 10162
  157.7483  131.0375  150.4461 LP  0  0  0  0  0  0  0  0  0  0  0  0  # atno 17370 bound_to 10713
  156.4686  130.4047  149.6532 LP  0  0  0  0  0  0  0  0  0  0  0  0  # atno 17371 bound_to 10713
  140.0833  134.5701  155.8518 LP  0  0  0  0  0  0  0  0  0  0  0  0  # atno 17394 bound_to 11000
  141.2055  133.6647  156.6184 LP  0  0  0  0  0  0  0  0  0  0  0  0  # atno 17395 bound_to 11000

$$$$
