AV-unprocessed.smi:1662|AV-procd|sdf|6660|dock7
  -GOLD-   22720 7373D 1   1.00000     0.00000
 Structure written by MMmdl.
 47 48  0  0  0  0  0  0  0  0  1 V2000
  146.9344  136.9580  162.9459 C   0  0  0  0  0  0  0  0  0  0  0  0
  147.4465  136.2024  161.7496 C   0  0  0  0  0  0  0  0  0  0  0  0
  148.3828  136.7692  161.0625 N   0  0  0  0  0  0  0  0  0  0  0  0
  148.9326  136.1569  159.9526 N   0  0  0  0  0  0  0  0  0  0  0  0
  150.0465  136.9068  159.3457 C   0  0  0  0  0  0  0  0  0  0  0  0
  149.7203  137.5227  157.9731 C   0  0  0  0  0  0  0  0  0  0  0  0
  149.6829  136.8000  156.9783 O   0  0  0  0  0  0  0  0  0  0  0  0
  149.4850  138.8437  157.9273 N   0  0  0  0  0  0  0  0  0  0  0  0
  149.1650  139.6394  156.7460 C   0  0  1  0  0  0  0  0  0  0  0  0
  147.7667  140.2728  156.8829 C   0  0  0  0  0  0  0  0  0  0  0  0
  147.7325  141.3413  157.9857 C   0  0  0  0  0  0  0  0  0  0  0  0
  148.8025  142.4141  157.7433 C   0  0  0  0  0  0  0  0  0  0  0  0
  150.2174  141.8108  157.6205 C   0  0  2  0  0  0  0  0  0  0  0  0
  151.2442  142.9339  157.3908 C   0  0  0  0  0  0  0  0  0  0  0  0
  150.2545  140.7185  156.5137 C   0  0  1  0  0  0  0  0  0  0  0  0
  151.6477  140.0760  156.3507 C   0  0  0  0  0  0  0  0  0  0  0  0
  148.5521  134.9385  159.4700 C   0  0  0  0  0  0  0  0  0  0  0  0
  149.0800  134.4227  158.4839 O   0  0  0  0  0  0  0  0  0  0  0  0
  147.4864  134.3054  160.2493 C   0  0  0  0  0  0  0  0  0  0  0  0
  147.0646  133.0242  159.7826 C   0  0  0  0  0  0  0  0  0  0  0  0
  146.7065  131.9858  159.4174 N   0  0  0  0  0  0  0  0  0  0  0  0
  146.9464  134.8920  161.3468 C   0  0  0  0  0  0  0  0  0  0  0  0
  145.8447  134.2725  162.1953 C   0  0  0  0  0  0  0  0  0  0  0  0
  145.8607  137.1277  162.8677 H   0  0  0  0  0  0  0  0  0  0  0  0
  147.4144  137.9325  163.0476 H   0  0  0  0  0  0  0  0  0  0  0  0
  147.1236  136.4016  163.8637 H   0  0  0  0  0  0  0  0  0  0  0  0
  150.3846  137.6996  160.0151 H   0  0  0  0  0  0  0  0  0  0  0  0
  150.9083  136.2485  159.2217 H   0  0  0  0  0  0  0  0  0  0  0  0
  149.5371  139.3491  158.7998 H   0  0  0  0  0  0  0  0  0  0  0  0
  149.1553  138.9767  155.8786 H   0  0  0  0  0  0  0  0  0  0  0  0
  147.4847  140.7286  155.9330 H   0  0  0  0  0  0  0  0  0  0  0  0
  147.0181  139.5053  157.0834 H   0  0  0  0  0  0  0  0  0  0  0  0
  146.7456  141.8031  158.0223 H   0  0  0  0  0  0  0  0  0  0  0  0
  147.8900  140.8771  158.9603 H   0  0  0  0  0  0  0  0  0  0  0  0
  148.5594  142.9661  156.8342 H   0  0  0  0  0  0  0  0  0  0  0  0
  148.7757  143.1388  158.5578 H   0  0  0  0  0  0  0  0  0  0  0  0
  150.4615  141.3422  158.5753 H   0  0  0  0  0  0  0  0  0  0  0  0
  151.1068  143.4048  156.4171 H   0  0  0  0  0  0  0  0  0  0  0  0
  152.2675  142.5637  157.4441 H   0  0  0  0  0  0  0  0  0  0  0  0
  151.1500  143.7108  158.1500 H   0  0  0  0  0  0  0  0  0  0  0  0
  150.0204  141.2049  155.5654 H   0  0  0  0  0  0  0  0  0  0  0  0
  152.0245  139.6815  157.2950 H   0  0  0  0  0  0  0  0  0  0  0  0
  152.3785  140.7915  155.9752 H   0  0  0  0  0  0  0  0  0  0  0  0
  151.6167  139.2526  155.6369 H   0  0  0  0  0  0  0  0  0  0  0  0
  145.5489  133.2881  161.8337 H   0  0  0  0  0  0  0  0  0  0  0  0
  144.9562  134.9047  162.1885 H   0  0  0  0  0  0  0  0  0  0  0  0
  146.1764  134.1551  163.2276 H   0  0  0  0  0  0  0  0  0  0  0  0
  1  2  1  0  0  0  0
  1 24  1  0  0  0  0
  1 25  1  0  0  0  0
  1 26  1  0  0  0  0
  2 22  1  0  0  0  0
  2  3  2  0  0  0  0
  3  4  1  0  0  0  0
  4  5  1  0  0  0  0
  4 17  1  0  0  0  0
  5  6  1  0  0  0  0
  5 27  1  0  0  0  0
  5 28  1  0  0  0  0
  6  7  2  0  0  0  0
  6  8  1  0  0  0  0
  8  9  1  0  0  0  0
  8 29  1  0  0  0  0
  9 15  1  0  0  0  0
  9 10  1  0  0  0  0
  9 30  1  0  0  0  0
 10 11  1  0  0  0  0
 10 31  1  0  0  0  0
 10 32  1  0  0  0  0
 11 12  1  0  0  0  0
 11 33  1  0  0  0  0
 11 34  1  0  0  0  0
 12 13  1  0  0  0  0
 12 35  1  0  0  0  0
 12 36  1  0  0  0  0
 13 14  1  0  0  0  0
 13 15  1  0  0  0  0
 13 37  1  0  0  0  0
 14 38  1  0  0  0  0
 14 39  1  0  0  0  0
 14 40  1  0  0  0  0
 15 16  1  0  0  0  0
 15 41  1  0  0  0  0
 16 42  1  0  0  0  0
 16 43  1  0  0  0  0
 16 44  1  0  0  0  0
 17 18  2  0  0  0  0
 17 19  1  0  0  0  0
 19 20  1  0  0  0  0
 19 22  2  0  0  0  0
 20 21  3  0  0  0  0
 22 23  1  0  0  0  0
 23 45  1  0  0  0  0
 23 46  1  0  0  0  0
 23 47  1  0  0  0  0
M  END
> <s_m_source_file>
AV-unprocessed.smi

> <i_m_source_file_index>
1662

> <i_lp_mmshare_version>
43012

> <i_f3d_flags>
0

> <s_epik_input>
TiNDYyhjMVtDSDNdKWMoPU8pbihuYzFbQ0gzXSlbQ0gyXUMoPU8pW05IXVtDQEBIXTJbQ0gyXVtDSDJdW0NIMl1bQ0BASF0oW0NIM10pW0NASF0yW0NIM10=

> <s_epik_cmdline>
J2VwaWtfcHl0aG9uJywgJy1waCcsICc3LjAnLCAnLXRuJywgJzgnLCAnLW1hJywgJzIwMCcsICctbWV0YWxfYmluZGluZycsICctaW1hZScsICc8aW5maWxlLm1hZT4nLCAnLW9tYWUnLCAnPG91dGZpbGUubWFlPic=

> <r_lp_tautomer_probability>
1

> <r_epik_Ionization_Penalty>
1.90709e-08

> <r_epik_Ionization_Penalty_Charging>
2.37982e-11

> <r_epik_Ionization_Penalty_Neutral>
1.90471e-08

> <r_epik_State_Penalty>
-0

> <r_epik_Charging_Adjusted_Penalty>
2.37982e-11

> <i_epik_Tot_Q>
0

> <i_epik_Tot_abs_Q>
0

> <r_epik_Metal_State_Penalty>
-0

> <b_epik_Metal_Only>
0

> <s_lp_Force_Field>
OPLS_2005

> <r_lp_Energy>
25.169

> <b_lp_Chiralities_Consistent>
1

> <s_lp_Variant>
AV-unprocessed.smi:1662-4

> <Gold.Version>
5.8.1

> <Gold.Id.Protein>
6NUR|6NUR_protein|mol2

> <Gold.PLP.Fitness>
36.1612

> <Gold.PLP.PLP>
-30.3391

> <Gold.PLP.part.hbond>
-2.8765

> <Gold.PLP.part.metal>
0.0000

> <Gold.PLP.part.buried>
-1.3545

> <Gold.PLP.part.nonpolar>
-27.6631

> <Gold.PLP.part.repulsive>
0.1507

> <Gold.PLP.ligand.clash>
0.0000

> <Gold.PLP.ligand.torsion>
0.3296

> <Gold.PLP.Chemscore.Hbond>
2.1563

> <Gold.PLP.Chemscore.CHOScore>
0.0000

> <Gold.PLP.Chemscore.Metal>
0.0000

> <Gold.Chemscore.Hbonds>
donor molecule, donor type, donor heavy atom, donor atom, acceptor molecule, acceptor atom, score
      P1  H  6896  6908       L1    18  0.75
      P1  H  6931  6943       L1     3  1.00

> <Gold.PLP.Chemscore.Internal.Correction>
0.0123

> <Gold.Rescore>
     Score         DG    S(hbond)    S(metal)    S(lipo)     H(rot)  DE(clash)    DE(int)     intcor
     14.61     -16.34       1.61        0.00      78.48       1.45       0.14       1.59       ----

> <Gold.Chemscore.Fitness>
14.6098

> <Gold.Chemscore.DG>
-16.3431

> <Gold.Chemscore.ZeroCoef>
-5.4800

> <Gold.Chemscore.Hbond>
1.6149

> <Gold.Chemscore.Metal>
0.0000

> <Gold.Chemscore.Lipo>
78.4801

> <Gold.Chemscore.Internal_Hbond>
0.0000

> <Gold.Chemscore.DEClash>
0.1419

> <Gold.Chemscore.DEInternal>
1.5915

> <Gold.Chemscore.Rot>
1.4504

> <Gold.Chemscore.Internal.Correction>
   9.000000E+99

> <Gold.Chemscore.Hbonds>
donor molecule, donor type, donor heavy atom, donor atom, acceptor molecule, acceptor atom, score
      P1  H  6896  6908       L1    18  0.09
      P1  H  6931  6943       L1     3  0.81

> <Gold.Chemscore.Hbond.Weighted>
-5.3939

> <Gold.Chemscore.Metal.Weighted>
-0.0000

> <Gold.Chemscore.Lipo.Weighted>
-9.1822

> <Gold.Chemscore.Internal_Hbond.Weighted>
0.0000

> <Gold.Chemscore.DEClash.Weighted>
0.1419

> <Gold.Chemscore.DEInternal.Weighted>
1.5915

> <Gold.Chemscore.Rot.Weighted>
3.7129

> <Gold.Chemscore.Internal.Correction.Weighted>
   9.000000E+99

> <Gold.Protein.RotatedTorsions>
[ 6907 6896 6895 6894 ] final  134.92 input  -60.11 | X-H torsion
[ 7974 7965 7964 7962 ] final  -59.86 input  175.53 | X-H torsion
[ 8008 7997 7996 7995 ] final -123.34 input   59.86 | X-H torsion
[ 10167 10162 10161 10158 ] final -163.39 input  -65.29 | X-H torsion
[ 10718 10713 10712 10709 ] final -133.31 input   66.30 | X-H torsion
[ 10763 10752 10751 10750 ] final -148.33 input  -60.55 | X-H torsion
[ 11005 11000 10999 10996 ] final -129.00 input  -57.11 | X-H torsion

> <Gold.Protein.ActiveResidues>
 VAL166  LYS551  ARG553  GLY616  TRP617  ASP618  TYR619  PRO620  LYS621  CYS622 
 ASP623  PHE694  ASN695  SER759  ASP760  ASP761  ALA762  ILE779  LEU786  VAL792 
 PHE793  MET794  SER795  GLU796  ALA797  LYS798  CYS799  TRP800  GLU811  SER814 

> <Gold.Protein.RotatedAtoms>
  152.3061  133.5705  159.5649 H   0  0  0  0  0  0  0  0  0  0  0  0  # atno 6907 bound_to 6896
  150.7300  134.0220  159.3713 H   0  0  0  0  0  0  0  0  0  0  0  0  # atno 6908 bound_to 6896
  151.8117  135.0679  160.0464 H   0  0  0  0  0  0  0  0  0  0  0  0  # atno 6909 bound_to 6896
  145.8225  140.8531  143.0125 H   0  0  0  0  0  0  0  0  0  0  0  0  # atno 7974 bound_to 7965
  155.1790  140.0410  157.2878 H   0  0  0  0  0  0  0  0  0  0  0  0  # atno 8008 bound_to 7997
  154.6217  140.2502  155.7514 H   0  0  0  0  0  0  0  0  0  0  0  0  # atno 8009 bound_to 7997
  156.2437  140.2893  156.0527 H   0  0  0  0  0  0  0  0  0  0  0  0  # atno 8010 bound_to 7997
  139.6324  144.0414  152.2027 H   0  0  0  0  0  0  0  0  0  0  0  0  # atno 10167 bound_to 10162
  156.2436  130.7111  151.0982 H   0  0  0  0  0  0  0  0  0  0  0  0  # atno 10718 bound_to 10713
  154.8238  135.3337  154.6958 H   0  0  0  0  0  0  0  0  0  0  0  0  # atno 10763 bound_to 10752
  153.7586  135.6934  153.4934 H   0  0  0  0  0  0  0  0  0  0  0  0  # atno 10764 bound_to 10752
  153.2126  135.4477  155.0346 H   0  0  0  0  0  0  0  0  0  0  0  0  # atno 10765 bound_to 10752
  140.9468  134.1118  157.4099 H   0  0  0  0  0  0  0  0  0  0  0  0  # atno 11005 bound_to 11000
  144.6746  140.0554  143.7477 LP  0  0  0  0  0  0  0  0  0  0  0  0  # atno 17320 bound_to 7965
  145.9660  139.2835  143.1127 LP  0  0  0  0  0  0  0  0  0  0  0  0  # atno 17321 bound_to 7965
  140.0082  144.6243  150.7670 LP  0  0  0  0  0  0  0  0  0  0  0  0  # atno 17342 bound_to 10162
  140.7447  143.2864  151.3452 LP  0  0  0  0  0  0  0  0  0  0  0  0  # atno 17343 bound_to 10162
  157.7186  131.0695  150.6229 LP  0  0  0  0  0  0  0  0  0  0  0  0  # atno 17370 bound_to 10713
  156.6304  130.4430  149.5789 LP  0  0  0  0  0  0  0  0  0  0  0  0  # atno 17371 bound_to 10713
  139.8836  135.0054  156.6310 LP  0  0  0  0  0  0  0  0  0  0  0  0  # atno 17394 bound_to 11000
  140.7657  133.8780  155.8453 LP  0  0  0  0  0  0  0  0  0  0  0  0  # atno 17395 bound_to 11000

$$$$
