AV-unprocessed.smi:16|AV-procd|sdf|89|dock4
  -GOLD-   2262015233D 1   1.00000     0.00000
 Structure written by MMmdl.
 60 64  0  0  0  0  0  0  0  0  2 V2000
  145.5688  132.0928  149.6886 C   0  0  0  0  0  0  0  0  0  0  0  0
  144.7356  131.5081  150.8386 C   0  0  0  0  0  0  0  0  0  0  0  0
  145.5748  130.9883  151.9482 N   0  3  1  0  0  0  0  0  0  0  0  0
  146.1908  129.6774  151.6137 C   0  0  0  0  0  0  0  0  0  0  0  0
  146.9571  129.0960  152.8126 C   0  0  0  0  0  0  0  0  0  0  0  0
  148.0189  130.0872  153.3003 C   0  0  2  0  0  0  0  0  0  0  0  0
  148.6791  129.5574  154.4442 O   0  0  0  0  0  0  0  0  0  0  0  0
  149.7195  130.4181  154.8962 C   0  0  0  0  0  0  0  0  0  0  0  0
  149.1206  131.7767  155.2932 C   0  0  0  0  0  0  0  0  0  0  0  0
  148.3691  132.3482  154.1779 N   0  0  0  0  0  0  0  0  0  0  0  0
  147.9273  133.6021  154.4272 C   0  0  0  0  0  0  0  0  0  0  0  0
  146.5953  133.8723  154.4177 N   0  0  0  0  0  0  0  0  0  0  0  0
  146.1669  135.1185  154.6409 C   0  0  0  0  0  0  0  0  0  0  0  0
  146.8859  136.2189  154.8746 N   0  0  0  0  0  0  0  0  0  0  0  0
  148.2234  135.9501  154.8697 C   0  0  0  0  0  0  0  0  0  0  0  0
  148.8231  134.6774  154.6621 C   0  0  0  0  0  0  0  0  0  0  0  0
  150.2058  134.7813  154.7334 N   0  0  0  0  0  0  0  0  0  0  0  0
  150.4130  136.0466  154.9804 C   0  0  0  0  0  0  0  0  0  0  0  0
  149.2794  136.8262  155.0471 N   0  0  0  0  0  0  0  0  0  0  0  0
  149.2161  138.2284  155.3374 C   0  0  0  0  0  0  0  0  0  0  0  0
  150.0741  139.2345  154.5637 C   0  0  0  0  0  0  0  0  0  0  0  0
  150.1693  140.1104  155.8337 C   0  0  0  0  0  0  0  0  0  0  0  0
  151.5294  140.7822  156.1070 C   0  0  0  0  0  0  0  0  0  0  0  0
  152.6009  139.8599  156.1114 O   0  0  0  0  0  0  0  0  0  0  0  0
  149.0928  141.2092  155.9202 C   0  0  0  0  0  0  0  0  0  0  0  0
  149.2030  142.1291  154.8530 O   0  0  0  0  0  0  0  0  0  0  0  0
  149.8526  138.8076  156.6047 C   0  0  0  0  0  0  0  0  0  0  0  0
  147.3500  131.4297  153.6627 C   0  0  1  0  0  0  0  0  0  0  0  0
  146.5864  131.9686  152.4280 C   0  0  0  0  0  0  0  0  0  0  0  0
  148.7516  130.2364  152.5043 H   0  0  0  0  0  0  0  0  0  0  0  0
  146.6284  131.2542  154.4629 H   0  0  0  0  0  0  0  0  0  0  0  0
  144.9199  132.5579  148.9460 H   0  0  0  0  0  0  0  0  0  0  0  0
  146.1502  131.3301  149.1715 H   0  0  0  0  0  0  0  0  0  0  0  0
  146.2578  132.8571  150.0490 H   0  0  0  0  0  0  0  0  0  0  0  0
  144.0951  132.3050  151.2188 H   0  0  0  0  0  0  0  0  0  0  0  0
  144.0697  130.7253  150.4728 H   0  0  0  0  0  0  0  0  0  0  0  0
  145.4162  128.9721  151.3105 H   0  0  0  0  0  0  0  0  0  0  0  0
  146.8618  129.7976  150.7616 H   0  0  0  0  0  0  0  0  0  0  0  0
  146.2611  128.8690  153.6214 H   0  0  0  0  0  0  0  0  0  0  0  0
  147.4274  128.1528  152.5324 H   0  0  0  0  0  0  0  0  0  0  0  0
  150.2135  129.9602  155.7532 H   0  0  0  0  0  0  0  0  0  0  0  0
  150.4754  130.5372  154.1183 H   0  0  0  0  0  0  0  0  0  0  0  0
  148.4654  131.6444  156.1554 H   0  0  0  0  0  0  0  0  0  0  0  0
  149.9158  132.4604  155.5936 H   0  0  0  0  0  0  0  0  0  0  0  0
  145.0956  135.2557  154.6259 H   0  0  0  0  0  0  0  0  0  0  0  0
  151.4069  136.4493  155.1132 H   0  0  0  0  0  0  0  0  0  0  0  0
  148.1601  138.4980  155.2801 H   0  0  0  0  0  0  0  0  0  0  0  0
  151.0268  138.8056  154.2487 H   0  0  0  0  0  0  0  0  0  0  0  0
  149.5650  139.7028  153.7206 H   0  0  0  0  0  0  0  0  0  0  0  0
  151.7448  141.5407  155.3540 H   0  0  0  0  0  0  0  0  0  0  0  0
  151.5300  141.2883  157.0727 H   0  0  0  0  0  0  0  0  0  0  0  0
  152.3622  139.1208  155.5732 H   0  0  0  0  0  0  0  0  0  0  0  0
  148.0908  140.7789  155.9098 H   0  0  0  0  0  0  0  0  0  0  0  0
  149.1717  141.7705  156.8515 H   0  0  0  0  0  0  0  0  0  0  0  0
  148.8690  142.9649  155.1410 H   0  0  0  0  0  0  0  0  0  0  0  0
  149.1622  138.9213  157.4411 H   0  0  0  0  0  0  0  0  0  0  0  0
  150.7433  138.2567  156.9112 H   0  0  0  0  0  0  0  0  0  0  0  0
  147.2834  132.2027  151.6214 H   0  0  0  0  0  0  0  0  0  0  0  0
  146.0796  132.8968  152.6874 H   0  0  0  0  0  0  0  0  0  0  0  0
  144.9479  130.8142  152.7210 H   0  0  0  0  0  0  0  0  0  0  0  0
  1  2  1  0  0  0  0
  1 32  1  0  0  0  0
  1 33  1  0  0  0  0
  1 34  1  0  0  0  0
  2  3  1  0  0  0  0
  2 35  1  0  0  0  0
  2 36  1  0  0  0  0
  3 29  1  0  0  0  0
  3  4  1  0  0  0  0
  3 60  1  0  0  0  0
  4  5  1  0  0  0  0
  4 37  1  0  0  0  0
  4 38  1  0  0  0  0
  5  6  1  0  0  0  0
  5 39  1  0  0  0  0
  5 40  1  0  0  0  0
  6 30  1  0  0  0  0
  6 28  1  0  0  0  0
  6  7  1  0  0  0  0
  7  8  1  0  0  0  0
  8  9  1  0  0  0  0
  8 41  1  0  0  0  0
  8 42  1  0  0  0  0
  9 10  1  0  0  0  0
  9 43  1  0  0  0  0
  9 44  1  0  0  0  0
 10 11  1  0  0  0  0
 10 28  1  0  0  0  0
 11 16  1  0  0  0  0
 11 12  2  0  0  0  0
 12 13  1  0  0  0  0
 13 14  2  0  0  0  0
 13 45  1  0  0  0  0
 14 15  1  0  0  0  0
 15 19  1  0  0  0  0
 15 16  2  0  0  0  0
 16 17  1  0  0  0  0
 17 18  2  0  0  0  0
 18 19  1  0  0  0  0
 18 46  1  0  0  0  0
 19 20  1  0  0  0  0
 20 27  1  0  0  0  0
 20 21  1  0  0  0  0
 20 47  1  0  0  0  0
 21 22  1  0  0  0  0
 21 48  1  0  0  0  0
 21 49  1  0  0  0  0
 22 23  1  0  0  0  0
 22 25  1  0  0  0  0
 22 27  1  0  0  0  0
 23 24  1  0  0  0  0
 23 50  1  0  0  0  0
 23 51  1  0  0  0  0
 24 52  1  0  0  0  0
 25 26  1  0  0  0  0
 25 53  1  0  0  0  0
 25 54  1  0  0  0  0
 26 55  1  0  0  0  0
 27 56  1  0  0  0  0
 27 57  1  0  0  0  0
 28 31  1  0  0  0  0
 28 29  1  0  0  0  0
 29 58  1  0  0  0  0
 29 59  1  0  0  0  0
M  CHG  1   3   1
M  END
> <s_m_source_file>
AV-unprocessed.smi

> <i_m_source_file_index>
16

> <i_lp_mmshare_version>
43012

> <i_f3d_flags>
0

> <s_epik_input>
W0NIM11bQ0gyXU4oW0NIMl1bQ0gyXTEpW0NIMl1bQ0BASF0oW0NAQEhdMTIpTihbQ0gyXVtDSDJdTzIpYyhuW2NIXW4zKWMoYzM0KW5bY0hdbjRbQ0hdKFtDSDJdNSlbQ0gyXUM1KFtDSDJdW09IXSlbQ0gyXVtPSF0=

> <s_epik_cmdline>
J2VwaWtfcHl0aG9uJywgJy1waCcsICc3LjAnLCAnLXRuJywgJzgnLCAnLW1hJywgJzIwMCcsICctbWV0YWxfYmluZGluZycsICctaW1hZScsICc8aW5maWxlLm1hZT4nLCAnLW9tYWUnLCAnPG91dGZpbGUubWFlPic=

> <r_lp_tautomer_probability>
1

> <r_epik_Ionization_Penalty>
0.0135603

> <r_epik_Ionization_Penalty_Charging>
0.0131385

> <r_epik_Ionization_Penalty_Neutral>
0.000421734

> <r_epik_State_Penalty>
0.0102091

> <r_epik_Charging_Adjusted_Penalty>
0.0233476

> <i_epik_Tot_Q>
1

> <i_epik_Tot_abs_Q>
1

> <r_epik_Metal_State_Penalty>
0.0103746

> <b_epik_Metal_Only>
0

> <s_lp_Force_Field>
OPLS_2005

> <r_lp_Energy>
54.8635

> <b_lp_Chiralities_Consistent>
1

> <s_lp_Variant>
AV-unprocessed.smi:16-3

> <Gold.Version>
5.8.1

> <Gold.Id.Protein>
6NUR|6NUR_protein|mol2

> <Gold.PLP.Fitness>
42.5015

> <Gold.PLP.PLP>
-36.9579

> <Gold.PLP.part.hbond>
-2.6860

> <Gold.PLP.part.metal>
0.0000

> <Gold.PLP.part.buried>
-3.9598

> <Gold.PLP.part.nonpolar>
-30.2843

> <Gold.PLP.part.repulsive>
0.4355

> <Gold.PLP.ligand.clash>
0.0000

> <Gold.PLP.ligand.torsion>
0.5312

> <Gold.PLP.Chemscore.Hbond>
2.0000

> <Gold.PLP.Chemscore.CHOScore>
0.0000

> <Gold.PLP.Chemscore.Metal>
0.0000

> <Gold.Chemscore.Hbonds>
donor molecule, donor type, donor heavy atom, donor atom, acceptor molecule, acceptor atom, score
      L1  H    26    55       P1  8028  1.00
      P1  H  7997  8009       L1    24  1.00

> <Gold.PLP.Chemscore.Internal.Correction>
0.6059

> <Gold.Rescore>
     Score         DG    S(hbond)    S(metal)    S(lipo)     H(rot)  DE(clash)    DE(int)     intcor
     13.19     -15.60       1.98        0.00     102.82       3.33       0.42       1.98       ----

> <Gold.Chemscore.Fitness>
13.1919

> <Gold.Chemscore.DG>
-15.5953

> <Gold.Chemscore.ZeroCoef>
-5.4800

> <Gold.Chemscore.Hbond>
1.9752

> <Gold.Chemscore.Metal>
0.0000

> <Gold.Chemscore.Lipo>
102.8224

> <Gold.Chemscore.Internal_Hbond>
0.0000

> <Gold.Chemscore.DEClash>
0.4221

> <Gold.Chemscore.DEInternal>
1.9812

> <Gold.Chemscore.Rot>
3.3251

> <Gold.Chemscore.Internal.Correction>
   9.000000E+99

> <Gold.Chemscore.Hbonds>
donor molecule, donor type, donor heavy atom, donor atom, acceptor molecule, acceptor atom, score
      L1  H    26    55       P1  8028  0.99
      P1  H  7997  8009       L1    24  0.93

> <Gold.Chemscore.Hbond.Weighted>
-6.5972

> <Gold.Chemscore.Metal.Weighted>
-0.0000

> <Gold.Chemscore.Lipo.Weighted>
-12.0302

> <Gold.Chemscore.Internal_Hbond.Weighted>
0.0000

> <Gold.Chemscore.DEClash.Weighted>
0.4221

> <Gold.Chemscore.DEInternal.Weighted>
1.9812

> <Gold.Chemscore.Rot.Weighted>
8.5122

> <Gold.Chemscore.Internal.Correction.Weighted>
   9.000000E+99

> <Gold.Protein.RotatedTorsions>
[ 6907 6896 6895 6894 ] final -113.33 input  -60.11 | X-H torsion
[ 7974 7965 7964 7962 ] final   78.98 input  175.53 | X-H torsion
[ 8008 7997 7996 7995 ] final -176.28 input   59.86 | X-H torsion
[ 10167 10162 10161 10158 ] final  -93.26 input  -65.29 | X-H torsion
[ 10718 10713 10712 10709 ] final  -12.32 input   66.30 | X-H torsion
[ 10763 10752 10751 10750 ] final  172.76 input  -60.55 | X-H torsion
[ 11005 11000 10999 10996 ] final  107.83 input  -57.11 | X-H torsion

> <Gold.Protein.ActiveResidues>
 VAL166  LYS551  ARG553  GLY616  TRP617  ASP618  TYR619  PRO620  LYS621  CYS622 
 ASP623  PHE694  ASN695  SER759  ASP760  ASP761  ALA762  ILE779  LEU786  VAL792 
 PHE793  MET794  SER795  GLU796  ALA797  LYS798  CYS799  TRP800  GLU811  SER814 

> <Gold.Protein.RotatedAtoms>
  150.7821  133.8961  159.3327 H   0  0  0  0  0  0  0  0  0  0  0  0  # atno 6907 bound_to 6896
  151.6821  135.0958  160.0227 H   0  0  0  0  0  0  0  0  0  0  0  0  # atno 6908 bound_to 6896
  152.3875  133.6593  159.6246 H   0  0  0  0  0  0  0  0  0  0  0  0  # atno 6909 bound_to 6896
  145.6701  139.2494  143.1873 H   0  0  0  0  0  0  0  0  0  0  0  0  # atno 7974 bound_to 7965
  155.9929  140.1204  157.0621 H   0  0  0  0  0  0  0  0  0  0  0  0  # atno 8008 bound_to 7997
  154.4217  140.1122  156.5659 H   0  0  0  0  0  0  0  0  0  0  0  0  # atno 8009 bound_to 7997
  155.6318  140.3473  155.4687 H   0  0  0  0  0  0  0  0  0  0  0  0  # atno 8010 bound_to 7997
  140.3265  143.3019  151.9989 H   0  0  0  0  0  0  0  0  0  0  0  0  # atno 10167 bound_to 10162
  156.6464  130.4942  149.6077 H   0  0  0  0  0  0  0  0  0  0  0  0  # atno 10718 bound_to 10713
  154.4306  135.2759  155.1915 H   0  0  0  0  0  0  0  0  0  0  0  0  # atno 10763 bound_to 10752
  154.3822  135.6085  153.5801 H   0  0  0  0  0  0  0  0  0  0  0  0  # atno 10764 bound_to 10752
  152.9836  135.5883  154.4617 H   0  0  0  0  0  0  0  0  0  0  0  0  # atno 10765 bound_to 10752
  139.8834  134.9412  156.5879 H   0  0  0  0  0  0  0  0  0  0  0  0  # atno 11005 bound_to 11000
  146.1053  140.7495  142.9529 LP  0  0  0  0  0  0  0  0  0  0  0  0  # atno 17320 bound_to 7965
  144.7060  140.3851  143.7118 LP  0  0  0  0  0  0  0  0  0  0  0  0  # atno 17321 bound_to 7965
  139.4864  144.6269  151.7146 LP  0  0  0  0  0  0  0  0  0  0  0  0  # atno 17342 bound_to 10162
  140.5436  144.0539  150.6098 LP  0  0  0  0  0  0  0  0  0  0  0  0  # atno 17343 bound_to 10162
  156.2119  130.6684  151.1278 LP  0  0  0  0  0  0  0  0  0  0  0  0  # atno 17370 bound_to 10713
  157.7155  131.0712  150.6343 LP  0  0  0  0  0  0  0  0  0  0  0  0  # atno 17371 bound_to 10713
  140.7978  133.8530  155.8700 LP  0  0  0  0  0  0  0  0  0  0  0  0  # atno 17394 bound_to 11000
  140.9620  134.1643  157.4646 LP  0  0  0  0  0  0  0  0  0  0  0  0  # atno 17395 bound_to 11000

$$$$
