AV-unprocessed.smi:3175|AV-procd|sdf|12122|dock5
  -GOLD-   2272017563D 1   1.00000     0.00000
 Structure written by MMmdl.
 37 38  0  0  0  0  0  0  0  0  1 V2000
  153.0810  140.0412  158.1318 O   0  0  0  0  0  0  0  0  0  0  0  0
  152.1783  140.8676  157.9987 C   0  0  0  0  0  0  0  0  0  0  0  0
  152.3010  142.2568  158.6329 C   0  0  0  0  0  0  0  0  0  0  0  0
  152.3178  142.2253  160.1753 C   0  0  0  0  0  0  0  0  0  0  0  0
  152.2002  143.6111  160.8140 C   0  0  0  0  0  0  0  0  0  0  0  0
  152.7110  143.4337  162.2482 C   0  0  0  0  0  0  0  0  0  0  0  0
  153.6145  142.1908  162.2337 C   0  0  0  0  0  0  0  0  0  0  0  0
  153.6066  141.6702  160.7924 C   0  0  0  0  0  0  0  0  0  0  0  0
  151.0480  140.6188  157.3202 N   0  0  0  0  0  0  0  0  0  0  0  0
  150.7238  139.3532  156.6695 C   0  0  0  0  0  0  0  0  0  0  0  0
  150.7023  139.4681  155.1334 C   0  0  0  0  0  0  0  0  0  0  0  0
  149.3557  139.9037  154.5820 C   0  0  0  0  0  0  0  0  0  0  0  0
  148.9007  141.2277  154.7502 C   0  0  0  0  0  0  0  0  0  0  0  0
  147.6416  141.5835  154.2298 C   0  0  0  0  0  0  0  0  0  0  0  0
  146.8895  140.5972  153.5609 C   0  0  0  0  0  0  0  0  0  0  0  0
  147.3150  139.3267  153.3930 N   0  0  0  0  0  0  0  0  0  0  0  0
  148.5242  138.9939  153.8939 C   0  0  0  0  0  0  0  0  0  0  0  0
  153.1997  142.7529  158.2624 H   0  0  0  0  0  0  0  0  0  0  0  0
  151.4568  142.8553  158.2890 H   0  0  0  0  0  0  0  0  0  0  0  0
  151.4803  141.6237  160.5339 H   0  0  0  0  0  0  0  0  0  0  0  0
  152.8416  144.3191  160.2870 H   0  0  0  0  0  0  0  0  0  0  0  0
  151.1824  144.0010  160.7802 H   0  0  0  0  0  0  0  0  0  0  0  0
  153.2427  144.3212  162.5926 H   0  0  0  0  0  0  0  0  0  0  0  0
  151.8737  143.2715  162.9280 H   0  0  0  0  0  0  0  0  0  0  0  0
  154.6272  142.4183  162.5681 H   0  0  0  0  0  0  0  0  0  0  0  0
  153.2110  141.4345  162.9081 H   0  0  0  0  0  0  0  0  0  0  0  0
  153.6604  140.5819  160.7460 H   0  0  0  0  0  0  0  0  0  0  0  0
  154.4727  142.0658  160.2598 H   0  0  0  0  0  0  0  0  0  0  0  0
  150.3556  141.3517  157.2648 H   0  0  0  0  0  0  0  0  0  0  0  0
  151.4780  138.6256  156.9703 H   0  0  0  0  0  0  0  0  0  0  0  0
  149.7684  138.9733  157.0349 H   0  0  0  0  0  0  0  0  0  0  0  0
  151.4630  140.1787  154.8081 H   0  0  0  0  0  0  0  0  0  0  0  0
  150.9756  138.5107  154.6875 H   0  0  0  0  0  0  0  0  0  0  0  0
  149.5034  141.9574  155.2709 H   0  0  0  0  0  0  0  0  0  0  0  0
  147.2608  142.5880  154.3406 H   0  0  0  0  0  0  0  0  0  0  0  0
  145.9197  140.8353  153.1498 H   0  0  0  0  0  0  0  0  0  0  0  0
  148.8331  137.9692  153.7472 H   0  0  0  0  0  0  0  0  0  0  0  0
  1  2  2  0  0  0  0
  2  3  1  0  0  0  0
  2  9  1  0  0  0  0
  3  4  1  0  0  0  0
  3 18  1  0  0  0  0
  3 19  1  0  0  0  0
  4  8  1  0  0  0  0
  4  5  1  0  0  0  0
  4 20  1  0  0  0  0
  5  6  1  0  0  0  0
  5 21  1  0  0  0  0
  5 22  1  0  0  0  0
  6  7  1  0  0  0  0
  6 23  1  0  0  0  0
  6 24  1  0  0  0  0
  7  8  1  0  0  0  0
  7 25  1  0  0  0  0
  7 26  1  0  0  0  0
  8 27  1  0  0  0  0
  8 28  1  0  0  0  0
  9 10  1  0  0  0  0
  9 29  1  0  0  0  0
 10 11  1  0  0  0  0
 10 30  1  0  0  0  0
 10 31  1  0  0  0  0
 11 12  1  0  0  0  0
 11 32  1  0  0  0  0
 11 33  1  0  0  0  0
 12 17  1  0  0  0  0
 12 13  2  0  0  0  0
 13 14  1  0  0  0  0
 13 34  1  0  0  0  0
 14 15  2  0  0  0  0
 14 35  1  0  0  0  0
 15 16  1  0  0  0  0
 15 36  1  0  0  0  0
 16 17  2  0  0  0  0
 17 37  1  0  0  0  0
M  END
> <s_m_source_file>
AV-unprocessed.smi

> <i_m_source_file_index>
3175

> <i_lp_mmshare_version>
43012

> <i_f3d_flags>
0

> <s_epik_input>
W0NIMl0xW0NIMl1bQ0gyXVtDSDJdW0NIXTFbQ0gyXUMoPU8pW05IXVtDSDJdW0NIMl1jMltjSF1bY0hdW2NIXW5bY0hdMg==

> <s_epik_cmdline>
J2VwaWtfcHl0aG9uJywgJy1waCcsICc3LjAnLCAnLXRuJywgJzgnLCAnLW1hJywgJzIwMCcsICctbWV0YWxfYmluZGluZycsICctaW1hZScsICc8aW5maWxlLm1hZT4nLCAnLW9tYWUnLCAnPG91dGZpbGUubWFlPic=

> <r_epik_Ionization_Penalty>
0.013409

> <r_epik_Ionization_Penalty_Charging>
0

> <r_epik_Ionization_Penalty_Neutral>
0.013409

> <r_epik_State_Penalty>
0.010434

> <r_epik_Charging_Adjusted_Penalty>
0.010434

> <i_epik_Tot_Q>
0

> <i_epik_Tot_abs_Q>
0

> <r_epik_Metal_State_Penalty>
0.0102027

> <b_epik_Metal_Only>
0

> <s_lp_Force_Field>
OPLS_2005

> <r_lp_Energy>
19.7305

> <b_lp_Chiralities_Consistent>
1

> <s_lp_Variant>
AV-unprocessed.smi:3175-1

> <Gold.Version>
5.8.1

> <Gold.Id.Protein>
6NUR|6NUR_protein|mol2

> <Gold.PLP.Fitness>
48.5880

> <Gold.PLP.PLP>
-40.4451

> <Gold.PLP.part.hbond>
-1.0000

> <Gold.PLP.part.metal>
0.0000

> <Gold.PLP.part.buried>
-3.2497

> <Gold.PLP.part.nonpolar>
-36.4602

> <Gold.PLP.part.repulsive>
0.7581

> <Gold.PLP.ligand.clash>
0.0000

> <Gold.PLP.ligand.torsion>
0.4103

> <Gold.PLP.Chemscore.Hbond>
1.0000

> <Gold.PLP.Chemscore.CHOScore>
1.9825

> <Gold.PLP.Chemscore.Metal>
0.0000

> <Gold.Chemscore.Hbonds>
donor molecule, donor type, donor heavy atom, donor atom, acceptor molecule, acceptor atom, score
      P1  H  7997  8008       L1     1  1.00
      L1  C    15    36       P1 10175  1.00
      L1  C    17    37       P1  7948  0.95

> <Gold.PLP.Chemscore.Internal.Correction>
0.0160

> <Gold.Rescore>
     Score         DG    S(hbond)    S(metal)    S(lipo)     H(rot)  DE(clash)    DE(int)     intcor
     17.50     -17.86       0.94        0.00     111.46       1.48       0.11       0.25       ----

> <Gold.Chemscore.Fitness>
17.4987

> <Gold.Chemscore.DG>
-17.8557

> <Gold.Chemscore.ZeroCoef>
-5.4800

> <Gold.Chemscore.Hbond>
0.9389

> <Gold.Chemscore.Metal>
0.0000

> <Gold.Chemscore.Lipo>
111.4618

> <Gold.Chemscore.Internal_Hbond>
0.0000

> <Gold.Chemscore.DEClash>
0.1086

> <Gold.Chemscore.DEInternal>
0.2484

> <Gold.Chemscore.Rot>
1.4848

> <Gold.Chemscore.Internal.Correction>
   9.000000E+99

> <Gold.Chemscore.Hbonds>
donor molecule, donor type, donor heavy atom, donor atom, acceptor molecule, acceptor atom, score
      P1  H  7997  8008       L1     1  0.95

> <Gold.Chemscore.Hbond.Weighted>
-3.1359

> <Gold.Chemscore.Metal.Weighted>
-0.0000

> <Gold.Chemscore.Lipo.Weighted>
-13.0410

> <Gold.Chemscore.Internal_Hbond.Weighted>
0.0000

> <Gold.Chemscore.DEClash.Weighted>
0.1086

> <Gold.Chemscore.DEInternal.Weighted>
0.2484

> <Gold.Chemscore.Rot.Weighted>
3.8012

> <Gold.Chemscore.Internal.Correction.Weighted>
   9.000000E+99

> <Gold.Protein.RotatedTorsions>
[ 6907 6896 6895 6894 ] final  -22.96 input  -60.11 | X-H torsion
[ 7974 7965 7964 7962 ] final  168.11 input  175.53 | X-H torsion
[ 8008 7997 7996 7995 ] final  -81.48 input   59.86 | X-H torsion
[ 10167 10162 10161 10158 ] final   88.86 input  -65.29 | X-H torsion
[ 10718 10713 10712 10709 ] final  -41.84 input   66.30 | X-H torsion
[ 10763 10752 10751 10750 ] final  110.90 input  -60.55 | X-H torsion
[ 11005 11000 10999 10996 ] final    3.96 input  -57.11 | X-H torsion

> <Gold.Protein.ActiveResidues>
 VAL166  LYS551  ARG553  GLY616  TRP617  ASP618  TYR619  PRO620  LYS621  CYS622 
 ASP623  PHE694  ASN695  SER759  ASP760  ASP761  ALA762  ILE779  LEU786  VAL792 
 PHE793  MET794  SER795  GLU796  ALA797  LYS798  CYS799  TRP800  GLU811  SER814 

> <Gold.Protein.RotatedAtoms>
  151.2109  135.0481  159.8910 H   0  0  0  0  0  0  0  0  0  0  0  0  # atno 6907 bound_to 6896
  152.5424  134.0746  159.8219 H   0  0  0  0  0  0  0  0  0  0  0  0  # atno 6908 bound_to 6896
  151.0899  133.5276  159.2647 H   0  0  0  0  0  0  0  0  0  0  0  0  # atno 6909 bound_to 6896
  144.7400  139.8860  143.6400 H   0  0  0  0  0  0  0  0  0  0  0  0  # atno 7974 bound_to 7965
  154.5988  140.0647  156.9340 H   0  0  0  0  0  0  0  0  0  0  0  0  # atno 8008 bound_to 7997
  155.2168  140.3327  155.4303 H   0  0  0  0  0  0  0  0  0  0  0  0  # atno 8009 bound_to 7997
  156.2305  140.1838  156.7239 H   0  0  0  0  0  0  0  0  0  0  0  0  # atno 8010 bound_to 7997
  139.8631  144.6533  150.9036 H   0  0  0  0  0  0  0  0  0  0  0  0  # atno 10167 bound_to 10162
  156.2661  130.4202  149.8489 H   0  0  0  0  0  0  0  0  0  0  0  0  # atno 10718 bound_to 10713
  153.4556  135.3734  155.2309 H   0  0  0  0  0  0  0  0  0  0  0  0  # atno 10763 bound_to 10752
  154.8757  135.3896  154.3986 H   0  0  0  0  0  0  0  0  0  0  0  0  # atno 10764 bound_to 10752
  153.4551  135.7086  153.6148 H   0  0  0  0  0  0  0  0  0  0  0  0  # atno 10765 bound_to 10752
  140.5873  133.9957  155.8073 H   0  0  0  0  0  0  0  0  0  0  0  0  # atno 11005 bound_to 11000
  146.1177  139.4190  143.0248 LP  0  0  0  0  0  0  0  0  0  0  0  0  # atno 17320 bound_to 7965
  145.7351  141.0028  143.1331 LP  0  0  0  0  0  0  0  0  0  0  0  0  # atno 17321 bound_to 7965
  140.7772  143.3727  151.1619 LP  0  0  0  0  0  0  0  0  0  0  0  0  # atno 17342 bound_to 10162
  139.7355  143.9006  152.3033 LP  0  0  0  0  0  0  0  0  0  0  0  0  # atno 17343 bound_to 10162
  156.5987  130.8537  151.3426 LP  0  0  0  0  0  0  0  0  0  0  0  0  # atno 17370 bound_to 10713
  157.7267  130.9634  150.1670 LP  0  0  0  0  0  0  0  0  0  0  0  0  # atno 17371 bound_to 10713
  141.0958  133.9846  157.3163 LP  0  0  0  0  0  0  0  0  0  0  0  0  # atno 17394 bound_to 11000
  139.9290  135.0200  156.8335 LP  0  0  0  0  0  0  0  0  0  0  0  0  # atno 17395 bound_to 11000

$$$$
