AV-unprocessed.smi:240|AV-procd|sdf|1834|dock4
  -GOLD-   2262020443D 1   1.00000     0.00000
 Structure written by MMmdl.
 55 59  0  0  0  0  0  0  0  0  1 V2000
  151.5298  140.3936  155.2126 O   0  0  0  0  0  0  0  0  0  0  0  0
  150.1712  140.1037  155.4697 C   0  0  2  0  0  0  0  0  0  0  0  0
  149.2804  140.9821  154.5706 C   0  0  0  0  0  0  0  0  0  0  0  0
  148.1758  141.5279  155.4775 C   0  0  0  0  0  0  0  0  0  0  0  0
  148.8449  141.6415  156.8445 C   0  0  0  0  0  0  0  0  0  0  0  0
  149.7118  140.3782  156.9257 C   0  0  2  0  0  0  0  0  0  0  0  0
  150.7591  140.3328  158.0841 C   0  0  2  0  0  0  0  0  0  0  0  0
  151.7586  141.5197  158.0899 C   0  0  0  0  0  0  0  0  0  0  0  0
  152.6577  141.4065  159.1871 O   0  0  0  0  0  0  0  0  0  0  0  0
  153.4350  140.2194  159.1171 C   0  0  0  0  0  0  0  0  0  0  0  0
  152.4973  139.0090  159.2043 C   0  0  0  0  0  0  0  0  0  0  0  0
  151.4995  139.0638  158.1426 N   0  0  0  0  0  0  0  0  0  0  0  0
  150.7814  137.9187  158.1031 C   0  0  0  0  0  0  0  0  0  0  0  0
  149.9817  137.6613  159.1670 N   0  0  0  0  0  0  0  0  0  0  0  0
  149.2463  136.5461  159.1955 C   0  0  0  0  0  0  0  0  0  0  0  0
  149.1602  135.5793  158.2794 N   0  0  0  0  0  0  0  0  0  0  0  0
  149.9514  135.8439  157.2002 C   0  0  0  0  0  0  0  0  0  0  0  0
  150.7896  136.9817  157.0307 C   0  0  0  0  0  0  0  0  0  0  0  0
  151.4462  136.9073  155.8083 N   0  0  0  0  0  0  0  0  0  0  0  0
  151.0262  135.7865  155.2888 C   0  0  0  0  0  0  0  0  0  0  0  0
  150.1169  135.0887  156.0518 N   0  0  0  0  0  0  0  0  0  0  0  0
  149.4846  133.8207  155.7177 C   0  0  0  0  0  0  0  0  0  0  0  0
  148.5717  133.8882  154.4685 C   0  0  2  0  0  0  0  0  0  0  0  0
  148.1490  135.2262  154.2783 O   0  0  0  0  0  0  0  0  0  0  0  0
  147.3382  132.9910  154.5966 C   0  0  0  0  0  0  0  0  0  0  0  0
  147.6097  131.8613  153.6103 C   0  0  0  0  0  0  0  0  0  0  0  0
  148.3041  132.5205  152.5669 O   0  0  0  0  0  0  0  0  0  0  0  0
  149.2502  133.3850  153.1786 C   0  0  0  0  0  0  0  0  0  0  0  0
  152.0615  139.8465  155.7712 H   0  0  0  0  0  0  0  0  0  0  0  0
  150.0117  139.0504  155.2357 H   0  0  0  0  0  0  0  0  0  0  0  0
  149.8504  141.8220  154.1694 H   0  0  0  0  0  0  0  0  0  0  0  0
  148.8788  140.4305  153.7200 H   0  0  0  0  0  0  0  0  0  0  0  0
  147.7756  142.4791  155.1251 H   0  0  0  0  0  0  0  0  0  0  0  0
  147.3508  140.8159  155.5279 H   0  0  0  0  0  0  0  0  0  0  0  0
  149.4536  142.5447  156.8591 H   0  0  0  0  0  0  0  0  0  0  0  0
  148.1232  141.7078  157.6592 H   0  0  0  0  0  0  0  0  0  0  0  0
  148.9908  139.5883  157.1418 H   0  0  0  0  0  0  0  0  0  0  0  0
  150.2004  140.4185  159.0161 H   0  0  0  0  0  0  0  0  0  0  0  0
  152.3294  141.5893  157.1649 H   0  0  0  0  0  0  0  0  0  0  0  0
  151.2332  142.4664  158.2074 H   0  0  0  0  0  0  0  0  0  0  0  0
  154.0184  140.1998  158.1951 H   0  0  0  0  0  0  0  0  0  0  0  0
  154.1430  140.2073  159.9458 H   0  0  0  0  0  0  0  0  0  0  0  0
  153.0777  138.0885  159.1270 H   0  0  0  0  0  0  0  0  0  0  0  0
  151.9982  138.9951  160.1744 H   0  0  0  0  0  0  0  0  0  0  0  0
  148.6397  136.4090  160.0784 H   0  0  0  0  0  0  0  0  0  0  0  0
  151.3699  135.4388  154.3256 H   0  0  0  0  0  0  0  0  0  0  0  0
  150.2704  133.0791  155.5673 H   0  0  0  0  0  0  0  0  0  0  0  0
  148.9127  133.4859  156.5840 H   0  0  0  0  0  0  0  0  0  0  0  0
  148.3972  135.4974  153.4078 H   0  0  0  0  0  0  0  0  0  0  0  0
  147.1698  132.6237  155.6096 H   0  0  0  0  0  0  0  0  0  0  0  0
  146.4348  133.5200  154.2884 H   0  0  0  0  0  0  0  0  0  0  0  0
  148.2493  131.0968  154.0546 H   0  0  0  0  0  0  0  0  0  0  0  0
  146.6970  131.3854  153.2514 H   0  0  0  0  0  0  0  0  0  0  0  0
  149.5565  134.1851  152.5034 H   0  0  0  0  0  0  0  0  0  0  0  0
  150.1346  132.7894  153.4061 H   0  0  0  0  0  0  0  0  0  0  0  0
  1  2  1  0  0  0  0
  1 29  1  0  0  0  0
  2  6  1  0  0  0  0
  2  3  1  0  0  0  0
  2 30  1  0  0  0  0
  3  4  1  0  0  0  0
  3 31  1  0  0  0  0
  3 32  1  0  0  0  0
  4  5  1  0  0  0  0
  4 33  1  0  0  0  0
  4 34  1  0  0  0  0
  5  6  1  0  0  0  0
  5 35  1  0  0  0  0
  5 36  1  0  0  0  0
  6  7  1  0  0  0  0
  6 37  1  0  0  0  0
  7 12  1  0  0  0  0
  7  8  1  0  0  0  0
  7 38  1  0  0  0  0
  8  9  1  0  0  0  0
  8 39  1  0  0  0  0
  8 40  1  0  0  0  0
  9 10  1  0  0  0  0
 10 11  1  0  0  0  0
 10 41  1  0  0  0  0
 10 42  1  0  0  0  0
 11 12  1  0  0  0  0
 11 43  1  0  0  0  0
 11 44  1  0  0  0  0
 12 13  1  0  0  0  0
 13 18  1  0  0  0  0
 13 14  2  0  0  0  0
 14 15  1  0  0  0  0
 15 16  2  0  0  0  0
 15 45  1  0  0  0  0
 16 17  1  0  0  0  0
 17 21  1  0  0  0  0
 17 18  2  0  0  0  0
 18 19  1  0  0  0  0
 19 20  2  0  0  0  0
 20 21  1  0  0  0  0
 20 46  1  0  0  0  0
 21 22  1  0  0  0  0
 22 23  1  0  0  0  0
 22 47  1  0  0  0  0
 22 48  1  0  0  0  0
 23 28  1  0  0  0  0
 23 24  1  0  0  0  0
 23 25  1  0  0  0  0
 24 49  1  0  0  0  0
 25 26  1  0  0  0  0
 25 50  1  0  0  0  0
 25 51  1  0  0  0  0
 26 27  1  0  0  0  0
 26 52  1  0  0  0  0
 26 53  1  0  0  0  0
 27 28  1  0  0  0  0
 28 54  1  0  0  0  0
 28 55  1  0  0  0  0
M  END
> <s_m_source_file>
AV-unprocessed.smi

> <i_m_source_file_index>
240

> <i_lp_mmshare_version>
43012

> <i_f3d_flags>
0

> <s_epik_input>
W09IXVtDQEBIXTFbQ0gyXVtDSDJdW0NIMl1bQ0BIXTFbQ0BASF0yW0NIMl1PW0NIMl1bQ0gyXU4yYyhuW2NIXW4zKWMoYzM0KW5bY0hdbjRbQ0gyXVtDQEBdNShbT0hdKVtDSDJdW0NIMl1PW0NIMl01

> <s_epik_cmdline>
J2VwaWtfcHl0aG9uJywgJy1waCcsICc3LjAnLCAnLXRuJywgJzgnLCAnLW1hJywgJzIwMCcsICctbWV0YWxfYmluZGluZycsICctaW1hZScsICc8aW5maWxlLm1hZT4nLCAnLW9tYWUnLCAnPG91dGZpbGUubWFlPic=

> <r_lp_tautomer_probability>
1

> <r_epik_Ionization_Penalty>
0.000130618

> <r_epik_Ionization_Penalty_Charging>
0

> <r_epik_Ionization_Penalty_Neutral>
0.000130618

> <r_epik_State_Penalty>
-0

> <r_epik_Charging_Adjusted_Penalty>
0

> <i_epik_Tot_Q>
0

> <i_epik_Tot_abs_Q>
0

> <r_epik_Metal_State_Penalty>
-0

> <b_epik_Metal_Only>
0

> <s_lp_Force_Field>
OPLS_2005

> <r_lp_Energy>
66.7643

> <b_lp_Chiralities_Consistent>
1

> <s_lp_Variant>
AV-unprocessed.smi:240-11

> <Gold.Version>
5.8.1

> <Gold.Id.Protein>
6NUR|6NUR_protein|mol2

> <Gold.PLP.Fitness>
38.1726

> <Gold.PLP.PLP>
-33.9039

> <Gold.PLP.part.hbond>
-2.8913

> <Gold.PLP.part.metal>
0.0000

> <Gold.PLP.part.buried>
-5.5225

> <Gold.PLP.part.nonpolar>
-26.0622

> <Gold.PLP.part.repulsive>
0.6534

> <Gold.PLP.ligand.clash>
0.0000

> <Gold.PLP.ligand.torsion>
0.9045

> <Gold.PLP.Chemscore.Hbond>
1.9440

> <Gold.PLP.Chemscore.CHOScore>
0.0000

> <Gold.PLP.Chemscore.Metal>
0.0000

> <Gold.Chemscore.Hbonds>
donor molecule, donor type, donor heavy atom, donor atom, acceptor molecule, acceptor atom, score
      L1  H    24    49       P1  7948  1.00
      P1  H  7989  7998       L1     1  0.90
      L1  C    20    46       P1  7949  0.13

> <Gold.PLP.Chemscore.Internal.Correction>
0.2456

> <Gold.Rescore>
     Score         DG    S(hbond)    S(metal)    S(lipo)     H(rot)  DE(clash)    DE(int)     intcor
     11.58     -12.48       1.87        0.00      72.19       3.00       0.02       0.88       ----

> <Gold.Chemscore.Fitness>
11.5803

> <Gold.Chemscore.DG>
-12.4794

> <Gold.Chemscore.ZeroCoef>
-5.4800

> <Gold.Chemscore.Hbond>
1.8692

> <Gold.Chemscore.Metal>
0.0000

> <Gold.Chemscore.Lipo>
72.1879

> <Gold.Chemscore.Internal_Hbond>
0.0000

> <Gold.Chemscore.DEClash>
0.0174

> <Gold.Chemscore.DEInternal>
0.8817

> <Gold.Chemscore.Rot>
3.0039

> <Gold.Chemscore.Internal.Correction>
   9.000000E+99

> <Gold.Chemscore.Hbonds>
donor molecule, donor type, donor heavy atom, donor atom, acceptor molecule, acceptor atom, score
      L1  H    24    49       P1  7948  1.00
      P1  H  7989  7998       L1     1  0.58

> <Gold.Chemscore.Hbond.Weighted>
-6.2433

> <Gold.Chemscore.Metal.Weighted>
-0.0000

> <Gold.Chemscore.Lipo.Weighted>
-8.4460

> <Gold.Chemscore.Internal_Hbond.Weighted>
0.0000

> <Gold.Chemscore.DEClash.Weighted>
0.0174

> <Gold.Chemscore.DEInternal.Weighted>
0.8817

> <Gold.Chemscore.Rot.Weighted>
7.6899

> <Gold.Chemscore.Internal.Correction.Weighted>
   9.000000E+99

> <Gold.Protein.RotatedTorsions>
[ 6907 6896 6895 6894 ] final -138.66 input  -60.11 | X-H torsion
[ 7974 7965 7964 7962 ] final   42.93 input  175.53 | X-H torsion
[ 8008 7997 7996 7995 ] final -130.89 input   59.86 | X-H torsion
[ 10167 10162 10161 10158 ] final  138.96 input  -65.29 | X-H torsion
[ 10718 10713 10712 10709 ] final -146.14 input   66.30 | X-H torsion
[ 10763 10752 10751 10750 ] final  -26.25 input  -60.55 | X-H torsion
[ 11005 11000 10999 10996 ] final -113.05 input  -57.11 | X-H torsion

> <Gold.Protein.ActiveResidues>
 VAL166  LYS551  ARG553  GLY616  TRP617  ASP618  TYR619  PRO620  LYS621  CYS622 
 ASP623  PHE694  ASN695  SER759  ASP760  ASP761  ALA762  ILE779  LEU786  VAL792 
 PHE793  MET794  SER795  GLU796  ALA797  LYS798  CYS799  TRP800  GLU811  SER814 

> <Gold.Protein.RotatedAtoms>
  151.0378  133.5732  159.2653 H   0  0  0  0  0  0  0  0  0  0  0  0  # atno 6907 bound_to 6896
  151.2790  135.0707  159.9172 H   0  0  0  0  0  0  0  0  0  0  0  0  # atno 6908 bound_to 6896
  152.5358  134.0096  159.7986 H   0  0  0  0  0  0  0  0  0  0  0  0  # atno 6909 bound_to 6896
  146.0698  139.5244  142.9605 H   0  0  0  0  0  0  0  0  0  0  0  0  # atno 7974 bound_to 7965
  155.3032  140.0454  157.3031 H   0  0  0  0  0  0  0  0  0  0  0  0  # atno 8008 bound_to 7997
  154.5474  140.2307  155.8507 H   0  0  0  0  0  0  0  0  0  0  0  0  # atno 8009 bound_to 7997
  156.1937  140.3044  155.9390 H   0  0  0  0  0  0  0  0  0  0  0  0  # atno 8010 bound_to 7997
  139.5094  144.6323  151.5786 H   0  0  0  0  0  0  0  0  0  0  0  0  # atno 10167 bound_to 10162
  156.3912  130.7886  151.2089 H   0  0  0  0  0  0  0  0  0  0  0  0  # atno 10718 bound_to 10713
  153.7129  135.6949  153.5033 H   0  0  0  0  0  0  0  0  0  0  0  0  # atno 10763 bound_to 10752
  153.2259  135.4354  155.0541 H   0  0  0  0  0  0  0  0  0  0  0  0  # atno 10764 bound_to 10752
  154.8309  135.3472  154.6665 H   0  0  0  0  0  0  0  0  0  0  0  0  # atno 10765 bound_to 10752
  141.0638  133.9492  157.2617 H   0  0  0  0  0  0  0  0  0  0  0  0  # atno 11005 bound_to 11000
  145.6411  141.0284  143.1811 LP  0  0  0  0  0  0  0  0  0  0  0  0  # atno 17320 bound_to 7965
  144.7225  139.7984  143.7377 LP  0  0  0  0  0  0  0  0  0  0  0  0  # atno 17321 bound_to 7965
  140.6060  143.9524  150.6419 LP  0  0  0  0  0  0  0  0  0  0  0  0  # atno 17342 bound_to 10162
  140.2751  143.3429  152.1203 LP  0  0  0  0  0  0  0  0  0  0  0  0  # atno 17343 bound_to 10162
  157.7499  131.0315  150.4184 LP  0  0  0  0  0  0  0  0  0  0  0  0  # atno 17370 bound_to 10713
  156.4446  130.3998  149.6675 LP  0  0  0  0  0  0  0  0  0  0  0  0  # atno 17371 bound_to 10713
  139.9457  135.0184  156.8845 LP  0  0  0  0  0  0  0  0  0  0  0  0  # atno 17394 bound_to 11000
  140.5815  134.0348  155.7466 LP  0  0  0  0  0  0  0  0  0  0  0  0  # atno 17395 bound_to 11000

$$$$
