#       Name:                AV-unprocessed.smi:1175
#       Creating user name   scv26
#       Creation time:       Fri Mar 27 03:54:07 2020


#       File generated by GOLD software.
#

@<TRIPOS>MOLECULE
AV-unprocessed.smi:1175
    42    43     1
SMALL
NO_CHARGES


@<TRIPOS>ATOM
      1 ****        -0.5493   0.3363   0.7276 O.2            1 S1                 0.0000
      2 ****         0.1643  -0.6385   0.4866 C.2            1 S1                 0.0000
      3 ****         1.6938  -0.5060   0.4552 C.3            1 S1                 0.0000
      4 ****         2.1914   0.6838   1.1663 N.am           1 S1                 0.0000
      5 ****         2.4823   1.8218   0.3882 C.2            1 S1                 0.0000
      6 ****         2.9507   2.9697   0.9148 C.2            1 S1                 0.0000
      7 ****         3.1987   4.2012   0.0575 C.3            1 S1                 0.0000
      8 ****         3.0345   5.3192   0.7647 F              1 S1                 0.0000
      9 ****         4.4469   4.1848  -0.4078 F              1 S1                 0.0000
     10 ****         2.3677   4.2389  -0.9848 F              1 S1                 0.0000
     11 ****         3.1171   2.9980   2.3546 C.2            1 S1                 0.0000
     12 ****         2.8323   1.9226   3.1147 C.2            1 S1                 0.0000
     13 ****         2.3422   0.6749   2.5248 C.2            1 S1                 0.0000
     14 ****         2.0823  -0.3156   3.2087 O.2            1 S1                 0.0000
     15 ****        -0.3237  -1.8592   0.2181 N.am           1 S1                 0.0000
     16 ****        -1.7377  -2.2194   0.1882 C.3            1 S1                 0.0000
     17 ****        -2.3136  -2.1724  -1.2396 C.3            1 S1                 0.0000
     18 ****        -3.7657  -2.5960  -1.3269 C.3            1 S1                 0.0000
     19 ****        -4.1877  -2.0244  -2.6781 C.3            1 S1                 0.0000
     20 ****        -3.3708  -0.8762  -2.8929 O.3            1 S1                 0.0000
     21 ****        -2.3853  -0.7807  -1.8698 C.3            1 S1                 0.0000
     22 ****         2.1439  -1.4079   0.8742 H              1 S1                 0.0000
     23 ****         2.0117  -0.4885  -0.5883 H              1 S1                 0.0000
     24 ****         2.2895   1.7044  -0.6683 H              1 S1                 0.0000
     25 ****         3.4794   3.8961   2.8328 H              1 S1                 0.0000
     26 ****         2.9691   1.9797   4.1847 H              1 S1                 0.0000
     27 ****         0.3363  -2.5990   0.0264 H              1 S1                 0.0000
     28 ****        -1.8269  -3.2323   0.5814 H              1 S1                 0.0000
     29 ****        -2.3160  -1.5822   0.8595 H              1 S1                 0.0000
     30 ****        -1.7254  -2.8225  -1.8898 H              1 S1                 0.0000
     31 ****        -3.9030  -3.6758  -1.2619 H              1 S1                 0.0000
     32 ****        -4.3460  -2.1302  -0.5291 H              1 S1                 0.0000
     33 ****        -3.9907  -2.7425  -3.4748 H              1 S1                 0.0000
     34 ****        -5.2475  -1.7697  -2.7067 H              1 S1                 0.0000
     35 ****        -2.7189  -0.0423  -1.1394 H              1 S1                 0.0000
     36 ****        -1.4270  -0.4504  -2.2711 H              1 S1                 0.0000
     37 ****        -0.1338   1.2282   0.9060 LP             1 S1                 0.0000
     38 ****        -1.5440   0.2357   0.7449 LP             1 S1                 0.0000
     39 ****         1.7484  -1.1510   2.7722 LP             1 S1                 0.0000
     40 ****         2.2052  -0.2846   4.2006 LP             1 S1                 0.0000
     41 ****        -3.9425  -0.0559  -2.8794 LP             1 S1                 0.0000
     42 ****        -2.9189  -0.9530  -3.7817 LP             1 S1                 0.0000
@<TRIPOS>BOND
    1    1    2 2     
    2    2    3 1     
    3    2   15 am    
    4    3    4 1     
    5    3   22 1     
    6    3   23 1     
    7    4   13 am    
    8    4    5 1     
    9    5    6 2     
   10    5   24 1     
   11    6    7 1     
   12    6   11 1     
   13    7    8 1     
   14    7    9 1     
   15    7   10 1     
   16   11   12 2     
   17   11   25 1     
   18   12   13 1     
   19   12   26 1     
   20   13   14 2     
   21   15   16 1     
   22   15   27 1     
   23   16   17 1     
   24   16   28 1     
   25   16   29 1     
   26   17   21 1     
   27   17   18 1     
   28   17   30 1     
   29   18   19 1     
   30   18   31 1     
   31   18   32 1     
   32   19   20 1     
   33   19   33 1     
   34   19   34 1     
   35   20   21 1     
   36   21   35 1     
   37   21   36 1     
   38    1   37 1     
   39    1   38 1     
   40   14   39 1     
   41   14   40 1     
   42   20   41 1     
   43   20   42 1     
@<TRIPOS>SUBSTRUCTURE
      1 S1             1
@<TRIPOS>SET
LONE_PAIRS      STATIC     ATOMS    <user>   **** ""
6 37 38 39 40 41 42
DONOR_HYDROGENS      STATIC     ATOMS    <user>   **** ""
1 27
ATOM$BLUE        STATIC     ATOMS    COLORGROUP SYSTEM
6 37 38 39 40 41 42
ATOM$RED        STATIC     ATOMS    COLORGROUP SYSTEM
1 27
