AV-unprocessed.smi:1212|AV-procd|sdf|5083|dock6
  -GOLD-   22720 4133D 1   1.00000     0.00000
 Structure written by MMmdl.
 38 39  0  0  0  0  0  0  0  0  2 V2000
  146.7239  134.0477  162.4416 C   0  0  0  0  0  0  0  0  0  0  0  0
  147.0889  134.8342  161.2298 C   0  0  0  0  0  0  0  0  0  0  0  0
  146.7278  134.4682  159.9976 N   0  0  0  0  0  0  0  0  0  0  0  0
  147.1822  135.3571  159.0341 N   0  0  0  0  0  0  0  0  0  0  0  0
  147.8715  136.3847  159.5499 C   0  0  0  0  0  0  0  0  0  0  0  0
  148.3993  137.3546  158.7848 N   0  5  0  0  0  0  0  0  0  0  0  0
  149.7219  137.6283  158.8582 C   0  0  0  0  0  0  0  0  0  0  0  0
  150.5874  136.9166  159.3740 O   0  0  0  0  0  0  0  0  0  0  0  0
  150.0649  138.7967  158.2965 N   0  0  0  0  0  0  0  0  0  0  0  0
  151.4145  139.3456  158.2278 C   0  0  0  0  0  0  0  0  0  0  0  0
  151.4383  140.6960  157.4884 C   0  0  0  0  0  0  0  0  0  0  0  0
  151.3349  141.8202  158.4254 N   0  0  0  0  0  0  0  0  0  0  0  0
  152.4880  142.0214  159.3169 C   0  0  0  0  0  0  0  0  0  0  0  0
  153.3190  143.2812  158.9824 C   0  0  0  0  0  0  0  0  0  0  0  0
  152.5416  144.4681  158.3792 C   0  0  0  0  0  0  0  0  0  0  0  0
  151.2867  144.8972  159.1687 C   0  0  0  0  0  0  0  0  0  0  0  0
  150.2377  143.7958  159.4566 C   0  0  0  0  0  0  0  0  0  0  0  0
  150.2463  142.6272  158.4569 C   0  0  0  0  0  0  0  0  0  0  0  0
  149.2692  142.4664  157.7251 O   0  0  0  0  0  0  0  0  0  0  0  0
  148.0296  136.3147  161.3050 S   0  0  0  0  0  0  0  0  0  0  0  0
  145.6396  133.9720  162.5256 H   0  0  0  0  0  0  0  0  0  0  0  0
  147.1106  134.5307  163.3391 H   0  0  0  0  0  0  0  0  0  0  0  0
  147.1434  133.0435  162.3766 H   0  0  0  0  0  0  0  0  0  0  0  0
  149.3260  139.3485  157.8855 H   0  0  0  0  0  0  0  0  0  0  0  0
  151.7817  139.4672  159.2470 H   0  0  0  0  0  0  0  0  0  0  0  0
  152.0813  138.6305  157.7425 H   0  0  0  0  0  0  0  0  0  0  0  0
  152.3523  140.7883  156.9001 H   0  0  0  0  0  0  0  0  0  0  0  0
  150.6274  140.7361  156.7591 H   0  0  0  0  0  0  0  0  0  0  0  0
  152.1379  142.0737  160.3479 H   0  0  0  0  0  0  0  0  0  0  0  0
  153.1426  141.1485  159.3087 H   0  0  0  0  0  0  0  0  0  0  0  0
  153.8432  143.6054  159.8819 H   0  0  0  0  0  0  0  0  0  0  0  0
  154.0992  143.0020  158.2734 H   0  0  0  0  0  0  0  0  0  0  0  0
  153.2146  145.3219  158.2957 H   0  0  0  0  0  0  0  0  0  0  0  0
  152.2598  144.2310  157.3522 H   0  0  0  0  0  0  0  0  0  0  0  0
  151.5990  145.3346  160.1175 H   0  0  0  0  0  0  0  0  0  0  0  0
  150.8019  145.7061  158.6211 H   0  0  0  0  0  0  0  0  0  0  0  0
  150.3775  143.3992  160.4621 H   0  0  0  0  0  0  0  0  0  0  0  0
  149.2437  144.2449  159.4709 H   0  0  0  0  0  0  0  0  0  0  0  0
  1  2  1  0  0  0  0
  1 21  1  0  0  0  0
  1 22  1  0  0  0  0
  1 23  1  0  0  0  0
  2 20  1  0  0  0  0
  2  3  2  0  0  0  0
  3  4  1  0  0  0  0
  4  5  2  0  0  0  0
  5  6  1  0  0  0  0
  5 20  1  0  0  0  0
  6  7  1  0  0  0  0
  7  8  2  0  0  0  0
  7  9  1  0  0  0  0
  9 10  1  0  0  0  0
  9 24  1  0  0  0  0
 10 11  1  0  0  0  0
 10 25  1  0  0  0  0
 10 26  1  0  0  0  0
 11 12  1  0  0  0  0
 11 27  1  0  0  0  0
 11 28  1  0  0  0  0
 12 18  1  0  0  0  0
 12 13  1  0  0  0  0
 13 14  1  0  0  0  0
 13 29  1  0  0  0  0
 13 30  1  0  0  0  0
 14 15  1  0  0  0  0
 14 31  1  0  0  0  0
 14 32  1  0  0  0  0
 15 16  1  0  0  0  0
 15 33  1  0  0  0  0
 15 34  1  0  0  0  0
 16 17  1  0  0  0  0
 16 35  1  0  0  0  0
 16 36  1  0  0  0  0
 17 18  1  0  0  0  0
 17 37  1  0  0  0  0
 17 38  1  0  0  0  0
 18 19  2  0  0  0  0
M  CHG  1   6  -1
M  END
> <s_m_source_file>
AV-unprocessed.smi

> <i_m_source_file_index>
1212

> <i_lp_mmshare_version>
43012

> <i_f3d_flags>
0

> <s_epik_input>
W0NIM11jMW5uYyhzMSlbTkhdQyg9TylbTkhdW0NIMl1bQ0gyXU4yW0NIMl1bQ0gyXVtDSDJdW0NIMl1bQ0gyXUMyPU8=

> <s_epik_cmdline>
J2VwaWtfcHl0aG9uJywgJy1waCcsICc3LjAnLCAnLXRuJywgJzgnLCAnLW1hJywgJzIwMCcsICctbWV0YWxfYmluZGluZycsICctaW1hZScsICc8aW5maWxlLm1hZT4nLCAnLW9tYWUnLCAnPG91dGZpbGUubWFlPic=

> <r_lp_tautomer_probability>
1

> <r_epik_Ionization_Penalty>
3.37178

> <r_epik_Ionization_Penalty_Charging>
3.23409

> <r_epik_Ionization_Penalty_Neutral>
0.137695

> <r_epik_State_Penalty>
3.23156

> <r_epik_Charging_Adjusted_Penalty>
6.46564

> <i_epik_Tot_Q>
-1

> <i_epik_Tot_abs_Q>
1

> <r_epik_Metal_State_Penalty>
0.474775

> <b_epik_Metal_Only>
1

> <s_lp_Force_Field>
OPLS_2005

> <r_lp_Energy>
19.6793

> <b_lp_Chiralities_Consistent>
1

> <s_lp_Variant>
AV-unprocessed.smi:1212-2

> <Gold.Version>
5.8.1

> <Gold.Id.Protein>
6NUR|6NUR_protein|mol2

> <Gold.PLP.Fitness>
40.1224

> <Gold.PLP.PLP>
-38.7502

> <Gold.PLP.part.hbond>
-1.0000

> <Gold.PLP.part.metal>
0.0000

> <Gold.PLP.part.buried>
-5.5579

> <Gold.PLP.part.nonpolar>
-33.2116

> <Gold.PLP.part.repulsive>
0.7484

> <Gold.PLP.ligand.clash>
0.0000

> <Gold.PLP.ligand.torsion>
0.8380

> <Gold.PLP.Chemscore.Hbond>
1.0000

> <Gold.PLP.Chemscore.CHOScore>
0.0000

> <Gold.PLP.Chemscore.Metal>
0.0000

> <Gold.Chemscore.Hbonds>
donor molecule, donor type, donor heavy atom, donor atom, acceptor molecule, acceptor atom, score
      P1  H  6896  6909       L1     8  1.00

> <Gold.PLP.Chemscore.Internal.Correction>
0.0481

> <Gold.Rescore>
     Score         DG    S(hbond)    S(metal)    S(lipo)     H(rot)  DE(clash)    DE(int)     intcor
     14.86     -15.66       0.99        0.00      94.33       1.63       0.05       0.75       ----

> <Gold.Chemscore.Fitness>
14.8582

> <Gold.Chemscore.DG>
-15.6566

> <Gold.Chemscore.ZeroCoef>
-5.4800

> <Gold.Chemscore.Hbond>
0.9883

> <Gold.Chemscore.Metal>
0.0000

> <Gold.Chemscore.Lipo>
94.3334

> <Gold.Chemscore.Internal_Hbond>
0.0000

> <Gold.Chemscore.DEClash>
0.0466

> <Gold.Chemscore.DEInternal>
0.7518

> <Gold.Chemscore.Rot>
1.6255

> <Gold.Chemscore.Internal.Correction>
   9.000000E+99

> <Gold.Chemscore.Hbonds>
donor molecule, donor type, donor heavy atom, donor atom, acceptor molecule, acceptor atom, score
      P1  H  6896  6909       L1     8  0.97

> <Gold.Chemscore.Hbond.Weighted>
-3.3009

> <Gold.Chemscore.Metal.Weighted>
-0.0000

> <Gold.Chemscore.Lipo.Weighted>
-11.0370

> <Gold.Chemscore.Internal_Hbond.Weighted>
0.0000

> <Gold.Chemscore.DEClash.Weighted>
0.0466

> <Gold.Chemscore.DEInternal.Weighted>
0.7518

> <Gold.Chemscore.Rot.Weighted>
4.1613

> <Gold.Chemscore.Internal.Correction.Weighted>
   9.000000E+99

> <Gold.Protein.RotatedTorsions>
[ 6907 6896 6895 6894 ] final   83.67 input  -60.11 | X-H torsion
[ 7974 7965 7964 7962 ] final  -76.03 input  175.53 | X-H torsion
[ 8008 7997 7996 7995 ] final -118.74 input   59.86 | X-H torsion
[ 10167 10162 10161 10158 ] final  -30.56 input  -65.29 | X-H torsion
[ 10718 10713 10712 10709 ] final  -11.16 input   66.30 | X-H torsion
[ 10763 10752 10751 10750 ] final -166.28 input  -60.55 | X-H torsion
[ 11005 11000 10999 10996 ] final  -39.63 input  -57.11 | X-H torsion

> <Gold.Protein.ActiveResidues>
 VAL166  LYS551  ARG553  GLY616  TRP617  ASP618  TYR619  PRO620  LYS621  CYS622 
 ASP623  PHE694  ASN695  SER759  ASP760  ASP761  ALA762  ILE779  LEU786  VAL792 
 PHE793  MET794  SER795  GLU796  ALA797  LYS798  CYS799  TRP800  GLU811  SER814 

> <Gold.Protein.RotatedAtoms>
  152.5333  134.2859  159.9024 H   0  0  0  0  0  0  0  0  0  0  0  0  # atno 6907 bound_to 6896
  151.2812  133.4202  159.2634 H   0  0  0  0  0  0  0  0  0  0  0  0  # atno 6908 bound_to 6896
  151.0282  134.9535  159.8153 H   0  0  0  0  0  0  0  0  0  0  0  0  # atno 6909 bound_to 6896
  145.6182  140.9369  143.1152 H   0  0  0  0  0  0  0  0  0  0  0  0  # atno 7974 bound_to 7965
  155.1046  140.0396  157.2706 H   0  0  0  0  0  0  0  0  0  0  0  0  # atno 8008 bound_to 7997
  154.6732  140.2617  155.6960 H   0  0  0  0  0  0  0  0  0  0  0  0  # atno 8009 bound_to 7997
  156.2666  140.2793  156.1249 H   0  0  0  0  0  0  0  0  0  0  0  0  # atno 8010 bound_to 7997
  140.7248  143.3839  151.1550 H   0  0  0  0  0  0  0  0  0  0  0  0  # atno 10167 bound_to 10162
  156.6630  130.4987  149.6024 H   0  0  0  0  0  0  0  0  0  0  0  0  # atno 10718 bound_to 10713
  154.6848  135.2960  154.9563 H   0  0  0  0  0  0  0  0  0  0  0  0  # atno 10763 bound_to 10752
  154.0545  135.6640  153.4808 H   0  0  0  0  0  0  0  0  0  0  0  0  # atno 10764 bound_to 10752
  153.0571  135.5138  154.7910 H   0  0  0  0  0  0  0  0  0  0  0  0  # atno 10765 bound_to 10752
  141.0116  133.6905  156.2212 H   0  0  0  0  0  0  0  0  0  0  0  0  # atno 11005 bound_to 11000
  144.7242  139.7931  143.7371 LP  0  0  0  0  0  0  0  0  0  0  0  0  # atno 17320 bound_to 7965
  146.1451  139.4519  143.0084 LP  0  0  0  0  0  0  0  0  0  0  0  0  # atno 17321 bound_to 7965
  139.7433  143.8891  152.3056 LP  0  0  0  0  0  0  0  0  0  0  0  0  # atno 17342 bound_to 10162
  139.8719  144.7063  150.8977 LP  0  0  0  0  0  0  0  0  0  0  0  0  # atno 17343 bound_to 10162
  156.1996  130.6611  151.1153 LP  0  0  0  0  0  0  0  0  0  0  0  0  # atno 17370 bound_to 10713
  157.7103  131.0737  150.6524 LP  0  0  0  0  0  0  0  0  0  0  0  0  # atno 17371 bound_to 10713
  140.6725  134.4853  157.5587 LP  0  0  0  0  0  0  0  0  0  0  0  0  # atno 17394 bound_to 11000
  139.9093  134.8380  156.1588 LP  0  0  0  0  0  0  0  0  0  0  0  0  # atno 17395 bound_to 11000

$$$$
