#       Name:                AV-unprocessed.smi:2902
#       Creating user name   scv26
#       Creation time:       Fri Mar 27 16:04:28 2020


#       File generated by GOLD software.
#

@<TRIPOS>MOLECULE
AV-unprocessed.smi:2902
    53    54     1
SMALL
NO_CHARGES


@<TRIPOS>ATOM
      1 ****        -3.8131  -1.8773  -2.5478 C.3            1 S1                 0.0000
      2 ****        -2.2872  -1.9460  -2.4084 C.3            1 S1                 0.0000
      3 ****        -1.7506  -1.0639  -1.2656 C.3            1 S1                 0.0000
      4 ****        -2.2231  -1.6065  -0.0321 O.3            1 S1                 0.0000
      5 ****        -2.0115  -0.8129   1.1326 C.3            1 S1                 0.0000
      6 ****        -0.8429  -1.3138   1.9855 C.3            1 S1                 0.0000
      7 ****        -1.1321  -0.7788   3.3916 C.3            1 S1                 0.0000
      8 ****        -2.6508  -0.5503   3.4585 C.3            1 S1                 0.0000
      9 ****        -3.2020  -0.9385   2.0818 C.3            1 S1                 0.0000
     10 ****        -0.2142  -1.0091  -1.2760 C.2            1 S1                 0.0000
     11 ****         0.4446  -2.0476  -1.3325 O.2            1 S1                 0.0000
     12 ****         0.3384   0.2117  -1.1968 N.am           1 S1                 0.0000
     13 ****         1.7708   0.4941  -1.1309 C.3            1 S1                 0.0000
     14 ****         2.3455   0.5760  -2.5585 C.3            1 S1                 0.0000
     15 ****         2.0204   1.7751  -0.2939 C.3            1 S1                 0.0000
     16 ****         1.4857   1.6708   1.1469 C.3            1 S1                 0.0000
     17 ****         3.4311   2.1368  -0.2746 N.pl3          1 S1                 0.0000
     18 ****         4.4907   1.4895   0.2166 C.2            1 S1                 0.0000
     19 ****         5.6378   2.1319   0.0477 N.2            1 S1                 0.0000
     20 ****         5.1818   3.2462  -0.5978 C.2            1 S1                 0.0000
     21 ****         3.8676   3.2994  -0.8148 N.2            1 S1                 0.0000
     22 ****        -4.1552  -2.5036  -3.3718 H              1 S1                 0.0000
     23 ****        -4.1455  -0.8578  -2.7445 H              1 S1                 0.0000
     24 ****        -4.3095  -2.2237  -1.6408 H              1 S1                 0.0000
     25 ****        -1.9876  -2.9834  -2.2527 H              1 S1                 0.0000
     26 ****        -1.8387  -1.6356  -3.3534 H              1 S1                 0.0000
     27 ****        -2.1501  -0.0554  -1.3919 H              1 S1                 0.0000
     28 ****        -1.8750   0.2424   0.8883 H              1 S1                 0.0000
     29 ****        -0.8453  -2.4046   2.0037 H              1 S1                 0.0000
     30 ****         0.1297  -0.9946   1.6125 H              1 S1                 0.0000
     31 ****        -0.7870  -1.4708   4.1601 H              1 S1                 0.0000
     32 ****        -0.6114   0.1670   3.5457 H              1 S1                 0.0000
     33 ****        -3.1176  -1.1353   4.2518 H              1 S1                 0.0000
     34 ****        -2.8571   0.5008   3.6639 H              1 S1                 0.0000
     35 ****        -4.0483  -0.3222   1.7774 H              1 S1                 0.0000
     36 ****        -3.5417  -1.9751   2.1086 H              1 S1                 0.0000
     37 ****        -0.2826   1.0068  -1.1546 H              1 S1                 0.0000
     38 ****         2.2654  -0.3346  -0.6203 H              1 S1                 0.0000
     39 ****         3.4298   0.6878  -2.5516 H              1 S1                 0.0000
     40 ****         1.9275   1.4222  -3.1045 H              1 S1                 0.0000
     41 ****         2.1226  -0.3277  -3.1266 H              1 S1                 0.0000
     42 ****         1.4838   2.5946  -0.7764 H              1 S1                 0.0000
     43 ****         0.4056   1.5258   1.1662 H              1 S1                 0.0000
     44 ****         1.6975   2.5813   1.7085 H              1 S1                 0.0000
     45 ****         1.9427   0.8376   1.6817 H              1 S1                 0.0000
     46 ****         4.4212   0.5287   0.7057 H              1 S1                 0.0000
     47 ****         5.8381   4.0426  -0.9168 H              1 S1                 0.0000
     48 ****        -1.7640  -2.4835   0.1100 LP             1 S1                 0.0000
     49 ****        -3.2076  -1.7565  -0.1231 LP             1 S1                 0.0000
     50 ****        -0.0194  -2.9326  -1.3719 LP             1 S1                 0.0000
     51 ****         1.4438  -2.0062  -1.3390 LP             1 S1                 0.0000
     52 ****         6.5667   1.8755   0.3150 LP             1 S1                 0.0000
     53 ****         3.3369   4.0180  -1.2641 LP             1 S1                 0.0000
@<TRIPOS>BOND
    1    1    2 1     
    2    1   22 1     
    3    1   23 1     
    4    1   24 1     
    5    2    3 1     
    6    2   25 1     
    7    2   26 1     
    8    3    4 1     
    9    3   10 1     
   10    3   27 1     
   11    4    5 1     
   12    5    9 1     
   13    5    6 1     
   14    5   28 1     
   15    6    7 1     
   16    6   29 1     
   17    6   30 1     
   18    7    8 1     
   19    7   31 1     
   20    7   32 1     
   21    8    9 1     
   22    8   33 1     
   23    8   34 1     
   24    9   35 1     
   25    9   36 1     
   26   10   11 2     
   27   10   12 am    
   28   12   13 1     
   29   12   37 1     
   30   13   14 1     
   31   13   15 1     
   32   13   38 1     
   33   14   39 1     
   34   14   40 1     
   35   14   41 1     
   36   15   16 1     
   37   15   17 1     
   38   15   42 1     
   39   16   43 1     
   40   16   44 1     
   41   16   45 1     
   42   17   21 1     
   43   17   18 1     
   44   18   19 2     
   45   18   46 1     
   46   19   20 1     
   47   20   21 2     
   48   20   47 1     
   49    4   48 1     
   50    4   49 1     
   51   11   50 1     
   52   11   51 1     
   53   19   52 1     
   54   21   53 1     
@<TRIPOS>SUBSTRUCTURE
      1 S1             1
@<TRIPOS>SET
LONE_PAIRS      STATIC     ATOMS    <user>   **** ""
6 48 49 50 51 52 53
DONOR_HYDROGENS      STATIC     ATOMS    <user>   **** ""
1 37
ATOM$BLUE        STATIC     ATOMS    COLORGROUP SYSTEM
6 48 49 50 51 52 53
ATOM$RED        STATIC     ATOMS    COLORGROUP SYSTEM
1 37
