AV-unprocessed.smi:2844|AV-procd|sdf|10939|dock7
  -GOLD-   2272015383D 1   1.00000     0.00000
 Structure written by MMmdl.
 38 40  0  0  0  0  0  0  0  0  1 V2000
  153.3084  142.5475  161.1683 C   0  0  0  0  0  0  0  0  0  0  0  0
  152.5350  142.2721  159.8907 C   0  0  0  0  0  0  0  0  0  0  0  0
  152.4382  140.9435  159.4194 C   0  0  0  0  0  0  0  0  0  0  0  0
  151.7339  140.6458  158.2323 C   0  0  0  0  0  0  0  0  0  0  0  0
  151.5177  139.4359  157.5953 N   0  0  0  0  0  0  0  0  0  0  0  0
  150.8005  139.8132  156.5407 C   0  0  0  0  0  0  0  0  0  0  0  0
  150.5267  141.1265  156.4188 N   0  0  0  0  0  0  0  0  0  0  0  0
  149.7739  141.7708  155.3578 C   0  0  0  0  0  0  0  0  0  0  0  0
  148.9815  140.7668  154.4998 C   0  0  2  0  0  0  0  0  0  0  0  0
  149.8754  140.0302  153.6860 O   0  0  0  0  0  0  0  0  0  0  0  0
  147.9310  141.4712  153.6197 C   0  0  0  0  0  0  0  0  0  0  0  0
  146.9053  142.1408  154.4002 N   0  0  0  0  0  0  0  0  0  0  0  0
  145.8771  142.9432  153.9446 C   0  0  0  0  0  0  0  0  0  0  0  0
  145.1932  143.3235  155.0587 C   0  0  0  0  0  0  0  0  0  0  0  0
  143.7981  144.3354  155.1187 Cl  0  0  0  0  0  0  0  0  0  0  0  0
  145.8542  142.7221  156.1598 C   0  0  0  0  0  0  0  0  0  0  0  0
  146.8919  142.0066  155.7514 N   0  0  0  0  0  0  0  0  0  0  0  0
  151.1243  141.7223  157.5238 C   0  0  0  0  0  0  0  0  0  0  0  0
  151.2095  143.0478  157.9849 C   0  0  0  0  0  0  0  0  0  0  0  0
  151.9180  143.3279  159.1723 C   0  0  0  0  0  0  0  0  0  0  0  0
  152.0093  144.7631  159.6602 C   0  0  0  0  0  0  0  0  0  0  0  0
  153.6991  141.6274  161.6037 H   0  0  0  0  0  0  0  0  0  0  0  0
  152.6660  143.0213  161.9107 H   0  0  0  0  0  0  0  0  0  0  0  0
  154.1529  143.2072  160.9677 H   0  0  0  0  0  0  0  0  0  0  0  0
  152.9080  140.1391  159.9662 H   0  0  0  0  0  0  0  0  0  0  0  0
  150.4530  139.0936  155.8137 H   0  0  0  0  0  0  0  0  0  0  0  0
  149.0963  142.4938  155.8136 H   0  0  0  0  0  0  0  0  0  0  0  0
  150.4654  142.3422  154.7366 H   0  0  0  0  0  0  0  0  0  0  0  0
  148.4738  140.0609  155.1589 H   0  0  0  0  0  0  0  0  0  0  0  0
  149.5384  140.0188  152.8029 H   0  0  0  0  0  0  0  0  0  0  0  0
  148.4132  142.2192  152.9890 H   0  0  0  0  0  0  0  0  0  0  0  0
  147.4556  140.7577  152.9446 H   0  0  0  0  0  0  0  0  0  0  0  0
  145.7281  143.1658  152.8984 H   0  0  0  0  0  0  0  0  0  0  0  0
  145.6231  142.7781  157.2135 H   0  0  0  0  0  0  0  0  0  0  0  0
  150.7355  143.8420  157.4272 H   0  0  0  0  0  0  0  0  0  0  0  0
  151.4962  145.4467  158.9834 H   0  0  0  0  0  0  0  0  0  0  0  0
  153.0508  145.0783  159.7275 H   0  0  0  0  0  0  0  0  0  0  0  0
  151.5525  144.8618  160.6451 H   0  0  0  0  0  0  0  0  0  0  0  0
  1  2  1  0  0  0  0
  1 22  1  0  0  0  0
  1 23  1  0  0  0  0
  1 24  1  0  0  0  0
  2 20  1  0  0  0  0
  2  3  2  0  0  0  0
  3  4  1  0  0  0  0
  3 25  1  0  0  0  0
  4 18  2  0  0  0  0
  4  5  1  0  0  0  0
  5  6  2  0  0  0  0
  6  7  1  0  0  0  0
  6 26  1  0  0  0  0
  7  8  1  0  0  0  0
  7 18  1  0  0  0  0
  8  9  1  0  0  0  0
  8 27  1  0  0  0  0
  8 28  1  0  0  0  0
  9 10  1  0  0  0  0
  9 11  1  0  0  0  0
  9 29  1  0  0  0  0
 10 30  1  0  0  0  0
 11 12  1  0  0  0  0
 11 31  1  0  0  0  0
 11 32  1  0  0  0  0
 12 17  1  0  0  0  0
 12 13  1  0  0  0  0
 13 14  2  0  0  0  0
 13 33  1  0  0  0  0
 14 15  1  0  0  0  0
 14 16  1  0  0  0  0
 16 17  2  0  0  0  0
 16 34  1  0  0  0  0
 18 19  1  0  0  0  0
 19 20  2  0  0  0  0
 19 35  1  0  0  0  0
 20 21  1  0  0  0  0
 21 36  1  0  0  0  0
 21 37  1  0  0  0  0
 21 38  1  0  0  0  0
M  END
> <s_m_source_file>
AV-unprocessed.smi

> <i_m_source_file_index>
2844

> <i_lp_mmshare_version>
43012

> <i_f3d_flags>
0

> <s_epik_input>
W0NIM11jKFtjSF0xKWMoW0NIM10pW2NIXWMoYzEyKW4oW2NIXW4yKVtDSDJdW0NASF0oW09IXSlbQ0gyXW4zW2NIXWMoQ2wpW2NIXW4z

> <s_epik_cmdline>
J2VwaWtfcHl0aG9uJywgJy1waCcsICc3LjAnLCAnLXRuJywgJzgnLCAnLW1hJywgJzIwMCcsICctbWV0YWxfYmluZGluZycsICctaW1hZScsICc8aW5maWxlLm1hZT4nLCAnLW9tYWUnLCAnPG91dGZpbGUubWFlPic=

> <r_lp_tautomer_probability>
1

> <r_epik_Ionization_Penalty>
0.1021

> <r_epik_Ionization_Penalty_Charging>
0

> <r_epik_Ionization_Penalty_Neutral>
0.1021

> <r_epik_State_Penalty>
0.0920694

> <r_epik_Charging_Adjusted_Penalty>
0.0920694

> <i_epik_Tot_Q>
0

> <i_epik_Tot_abs_Q>
0

> <r_epik_Metal_State_Penalty>
0.0784292

> <b_epik_Metal_Only>
0

> <s_lp_Force_Field>
OPLS_2005

> <r_lp_Energy>
10.8301

> <b_lp_Chiralities_Consistent>
1

> <s_lp_Variant>
AV-unprocessed.smi:2844-1

> <Gold.Version>
5.8.1

> <Gold.Id.Protein>
6NUR|6NUR_protein|mol2

> <Gold.PLP.Fitness>
55.7694

> <Gold.PLP.PLP>
-50.9956

> <Gold.PLP.part.hbond>
-2.0000

> <Gold.PLP.part.metal>
0.0000

> <Gold.PLP.part.buried>
-5.4920

> <Gold.PLP.part.nonpolar>
-42.7535

> <Gold.PLP.part.repulsive>
0.1409

> <Gold.PLP.ligand.clash>
0.0000

> <Gold.PLP.ligand.torsion>
0.2947

> <Gold.PLP.Chemscore.Hbond>
1.7840

> <Gold.PLP.Chemscore.CHOScore>
0.0000

> <Gold.PLP.Chemscore.Metal>
0.0000

> <Gold.Chemscore.Hbonds>
donor molecule, donor type, donor heavy atom, donor atom, acceptor molecule, acceptor atom, score
      L1  H    10    30       P1  7957  1.00
      P1  H  7989  7998       L1    10  0.74

> <Gold.PLP.Chemscore.Internal.Correction>
0.0111

> <Gold.Rescore>
     Score         DG    S(hbond)    S(metal)    S(lipo)     H(rot)  DE(clash)    DE(int)     intcor
     15.55     -17.15       1.00        0.00     118.43       2.15       0.20       1.40       ----

> <Gold.Chemscore.Fitness>
15.5529

> <Gold.Chemscore.DG>
-17.1546

> <Gold.Chemscore.ZeroCoef>
-5.4800

> <Gold.Chemscore.Hbond>
0.9972

> <Gold.Chemscore.Metal>
0.0000

> <Gold.Chemscore.Lipo>
118.4324

> <Gold.Chemscore.Internal_Hbond>
0.0000

> <Gold.Chemscore.DEClash>
0.2038

> <Gold.Chemscore.DEInternal>
1.3978

> <Gold.Chemscore.Rot>
2.1534

> <Gold.Chemscore.Internal.Correction>
   9.000000E+99

> <Gold.Chemscore.Hbonds>
donor molecule, donor type, donor heavy atom, donor atom, acceptor molecule, acceptor atom, score
      L1  H    10    30       P1  7957  0.98
      P1  H  7989  7998       L1    10  0.22

> <Gold.Chemscore.Hbond.Weighted>
-3.3307

> <Gold.Chemscore.Metal.Weighted>
-0.0000

> <Gold.Chemscore.Lipo.Weighted>
-13.8566

> <Gold.Chemscore.Internal_Hbond.Weighted>
0.0000

> <Gold.Chemscore.DEClash.Weighted>
0.2038

> <Gold.Chemscore.DEInternal.Weighted>
1.3978

> <Gold.Chemscore.Rot.Weighted>
5.5127

> <Gold.Chemscore.Internal.Correction.Weighted>
   9.000000E+99

> <Gold.Protein.RotatedTorsions>
[ 6907 6896 6895 6894 ] final -121.15 input  -60.11 | X-H torsion
[ 7974 7965 7964 7962 ] final   32.77 input  175.53 | X-H torsion
[ 8008 7997 7996 7995 ] final   80.47 input   59.86 | X-H torsion
[ 10167 10162 10161 10158 ] final -155.73 input  -65.29 | X-H torsion
[ 10718 10713 10712 10709 ] final -106.32 input   66.30 | X-H torsion
[ 10763 10752 10751 10750 ] final  -72.27 input  -60.55 | X-H torsion
[ 11005 11000 10999 10996 ] final -115.36 input  -57.11 | X-H torsion

> <Gold.Protein.ActiveResidues>
 VAL166  LYS551  ARG553  GLY616  TRP617  ASP618  TYR619  PRO620  LYS621  CYS622 
 ASP623  PHE694  ASN695  SER759  ASP760  ASP761  ALA762  ILE779  LEU786  VAL792 
 PHE793  MET794  SER795  GLU796  ALA797  LYS798  CYS799  TRP800  GLU811  SER814 

> <Gold.Protein.RotatedAtoms>
  150.8457  133.7866  159.3043 H   0  0  0  0  0  0  0  0  0  0  0  0  # atno 6907 bound_to 6896
  151.5553  135.1065  159.9969 H   0  0  0  0  0  0  0  0  0  0  0  0  # atno 6908 bound_to 6896
  152.4511  133.7589  159.6791 H   0  0  0  0  0  0  0  0  0  0  0  0  # atno 6909 bound_to 6896
  146.1464  139.6482  142.9128 H   0  0  0  0  0  0  0  0  0  0  0  0  # atno 7974 bound_to 7965
  155.8840  140.3442  155.5908 H   0  0  0  0  0  0  0  0  0  0  0  0  # atno 8008 bound_to 7997
  155.7687  140.0842  157.2138 H   0  0  0  0  0  0  0  0  0  0  0  0  # atno 8009 bound_to 7997
  154.4027  140.1522  156.2904 H   0  0  0  0  0  0  0  0  0  0  0  0  # atno 8010 bound_to 7997
  139.6907  143.9425  152.2383 H   0  0  0  0  0  0  0  0  0  0  0  0  # atno 10167 bound_to 10162
  156.0385  130.5607  150.7665 H   0  0  0  0  0  0  0  0  0  0  0  0  # atno 10718 bound_to 10713
  154.4434  135.5935  153.6144 H   0  0  0  0  0  0  0  0  0  0  0  0  # atno 10763 bound_to 10752
  152.9807  135.6003  154.3694 H   0  0  0  0  0  0  0  0  0  0  0  0  # atno 10764 bound_to 10752
  154.3547  135.2841  155.2332 H   0  0  0  0  0  0  0  0  0  0  0  0  # atno 10765 bound_to 10752
  141.0493  133.9713  157.2864 H   0  0  0  0  0  0  0  0  0  0  0  0  # atno 11005 bound_to 11000
  145.4927  141.0438  143.2584 LP  0  0  0  0  0  0  0  0  0  0  0  0  # atno 17320 bound_to 7965
  144.7852  139.6442  143.7137 LP  0  0  0  0  0  0  0  0  0  0  0  0  # atno 17321 bound_to 7965
  139.9240  144.6782  150.8432 LP  0  0  0  0  0  0  0  0  0  0  0  0  # atno 17342 bound_to 10162
  140.7682  143.3355  151.2319 LP  0  0  0  0  0  0  0  0  0  0  0  0  # atno 17343 bound_to 10162
  157.5170  131.0929  151.0127 LP  0  0  0  0  0  0  0  0  0  0  0  0  # atno 17370 bound_to 10713
  157.0467  130.5771  149.5364 LP  0  0  0  0  0  0  0  0  0  0  0  0  # atno 17371 bound_to 10713
  139.9337  135.0198  156.8485 LP  0  0  0  0  0  0  0  0  0  0  0  0  # atno 17394 bound_to 11000
  140.6086  134.0103  155.7567 LP  0  0  0  0  0  0  0  0  0  0  0  0  # atno 17395 bound_to 11000

$$$$
