#       Name:                AV-unprocessed.smi:1207
#       Creating user name   scv26
#       Creation time:       Fri Mar 27 04:07:36 2020


#       File generated by GOLD software.
#

@<TRIPOS>MOLECULE
AV-unprocessed.smi:1207
    58    60     1
SMALL
NO_CHARGES


@<TRIPOS>ATOM
      1 ****        -6.6109   2.0995  -1.5982 C.3            1 S1                 0.0000
      2 ****        -5.1299   2.1055  -1.2625 C.ar           1 S1                 0.0000
      3 ****        -4.2029   2.5067  -2.2506 C.ar           1 S1                 0.0000
      4 ****        -2.8172   2.5259  -1.9789 C.ar           1 S1                 0.0000
      5 ****        -1.7483   2.8757  -2.7862 N.2            1 S1                 0.0000
      6 ****        -0.7197   2.6862  -1.9650 C.2            1 S1                 0.0000
      7 ****        -0.9956   2.2552  -0.7193 N.pl3          1 S1                 0.0000
      8 ****        -0.0403   1.9823   0.3401 C.3            1 S1                 0.0000
      9 ****         0.5462   0.5605   0.2549 C.3            1 S1                 0.0000
     10 ****        -0.4953  -0.3837   0.4096 O.3            1 S1                 0.0000
     11 ****         1.5941   0.3134   1.3601 C.3            1 S1                 0.0000
     12 ****         2.3009  -0.9680   1.2877 N.3            1 S1                 0.0000
     13 ****         2.9892  -1.2293   2.5491 C.3            1 S1                 0.0000
     14 ****         3.2370  -1.0310   0.1607 C.3            1 S1                 0.0000
     15 ****         3.7831  -2.4172  -0.0712 C.2            1 S1                 0.0000
     16 ****         5.1452  -2.8313  -0.1026 C.2            1 S1                 0.0000
     17 ****         6.3781  -1.9970   0.0932 C.3            1 S1                 0.0000
     18 ****         5.2623  -4.1278  -0.3372 N.2            1 S1                 0.0000
     19 ****         3.9575  -4.6126  -0.4705 O.3            1 S1                 0.0000
     20 ****         3.0963  -3.5757  -0.3104 C.2            1 S1                 0.0000
     21 ****         1.6414  -3.8864  -0.4172 C.3            1 S1                 0.0000
     22 ****        -2.3806   2.1321  -0.6801 C.ar           1 S1                 0.0000
     23 ****        -3.2934   1.7300   0.3109 C.ar           1 S1                 0.0000
     24 ****        -4.6741   1.7140   0.0220 C.ar           1 S1                 0.0000
     25 ****        -5.6506   1.2744   1.0983 C.3            1 S1                 0.0000
     26 ****        -6.7906   2.4523  -2.6140 H              1 S1                 0.0000
     27 ****        -7.1603   2.7496  -0.9170 H              1 S1                 0.0000
     28 ****        -7.0161   1.0906  -1.5175 H              1 S1                 0.0000
     29 ****        -4.5495   2.8034  -3.2295 H              1 S1                 0.0000
     30 ****         0.2949   2.8704  -2.2869 H              1 S1                 0.0000
     31 ****         0.7591   2.7213   0.2730 H              1 S1                 0.0000
     32 ****        -0.5289   2.1407   1.3026 H              1 S1                 0.0000
     33 ****         0.9811   0.4313  -0.7348 H              1 S1                 0.0000
     34 ****        -0.1183  -1.2496   0.3723 H              1 S1                 0.0000
     35 ****         2.3249   1.1235   1.3528 H              1 S1                 0.0000
     36 ****         1.0821   0.3893   2.3208 H              1 S1                 0.0000
     37 ****         3.4640  -2.2105   2.5471 H              1 S1                 0.0000
     38 ****         2.2874  -1.2147   3.3835 H              1 S1                 0.0000
     39 ****         3.7582  -0.4798   2.7405 H              1 S1                 0.0000
     40 ****         2.7448  -0.7046  -0.7528 H              1 S1                 0.0000
     41 ****         4.0441  -0.3148   0.3201 H              1 S1                 0.0000
     42 ****         6.5213  -1.3129  -0.7431 H              1 S1                 0.0000
     43 ****         7.2745  -2.6123   0.1765 H              1 S1                 0.0000
     44 ****         6.3031  -1.3996   1.0017 H              1 S1                 0.0000
     45 ****         1.1304  -3.1385  -1.0239 H              1 S1                 0.0000
     46 ****         1.1773  -3.8934   0.5692 H              1 S1                 0.0000
     47 ****         1.4788  -4.8620  -0.8758 H              1 S1                 0.0000
     48 ****        -2.9316   1.4320   1.2840 H              1 S1                 0.0000
     49 ****        -5.1310   0.9825   2.0113 H              1 S1                 0.0000
     50 ****        -6.2346   0.4190   0.7587 H              1 S1                 0.0000
     51 ****        -6.3351   2.0857   1.3468 H              1 S1                 0.0000
     52 ****        -1.7495   3.1883  -3.7361 LP             1 S1                 0.0000
     53 ****        -1.1636  -0.2738  -0.3262 LP             1 S1                 0.0000
     54 ****        -0.9460  -0.2487   1.2920 LP             1 S1                 0.0000
     55 ****         1.6166  -1.6800   1.1300 LP             1 S1                 0.0000
     56 ****         6.1102  -4.6535  -0.4053 LP             1 S1                 0.0000
     57 ****         3.7826  -5.3076   0.2269 LP             1 S1                 0.0000
     58 ****         3.8375  -5.0140  -1.3785 LP             1 S1                 0.0000
@<TRIPOS>BOND
    1    1    2 1     
    2    1   26 1     
    3    1   27 1     
    4    1   28 1     
    5    2   24 ar    
    6    2    3 ar    
    7    3    4 ar    
    8    3   29 1     
    9    4   22 ar    
   10    4    5 1     
   11    5    6 2     
   12    6    7 1     
   13    6   30 1     
   14    7    8 1     
   15    7   22 1     
   16    8    9 1     
   17    8   31 1     
   18    8   32 1     
   19    9   10 1     
   20    9   11 1     
   21    9   33 1     
   22   10   34 1     
   23   11   12 1     
   24   11   35 1     
   25   11   36 1     
   26   12   13 1     
   27   12   14 1     
   28   13   37 1     
   29   13   38 1     
   30   13   39 1     
   31   14   15 1     
   32   14   40 1     
   33   14   41 1     
   34   15   20 2     
   35   15   16 1     
   36   16   17 1     
   37   16   18 2     
   38   17   42 1     
   39   17   43 1     
   40   17   44 1     
   41   18   19 1     
   42   19   20 1     
   43   20   21 1     
   44   21   45 1     
   45   21   46 1     
   46   21   47 1     
   47   22   23 ar    
   48   23   24 ar    
   49   23   48 1     
   50   24   25 1     
   51   25   49 1     
   52   25   50 1     
   53   25   51 1     
   54    5   52 1     
   55   10   53 1     
   56   10   54 1     
   57   12   55 1     
   58   18   56 1     
   59   19   57 1     
   60   19   58 1     
@<TRIPOS>SUBSTRUCTURE
      1 S1             1
@<TRIPOS>SET
LONE_PAIRS      STATIC     ATOMS    <user>   **** ""
7 52 53 54 55 56 57 58
DONOR_HYDROGENS      STATIC     ATOMS    <user>   **** ""
1 34
ATOM$BLUE        STATIC     ATOMS    COLORGROUP SYSTEM
7 52 53 54 55 56 57 58
ATOM$RED        STATIC     ATOMS    COLORGROUP SYSTEM
1 34
