AV-unprocessed.smi:3209|AV-procd|sdf|12268|dock3
  -GOLD-   2272018103D 1   1.00000     0.00000
 Structure written by MMmdl.
 37 39  0  0  0  0  0  0  0  0  2 V2000
  153.7534  141.7472  161.3060 C   0  0  0  0  0  0  0  0  0  0  0  0
  152.9405  142.7782  160.6014 C   0  0  0  0  0  0  0  0  0  0  0  0
  152.7108  142.7636  159.2858 N   0  0  0  0  0  0  0  0  0  0  0  0
  151.9226  143.8390  158.8647 C   0  0  0  0  0  0  0  0  0  0  0  0
  151.5670  143.9804  157.4160 C   0  0  0  0  0  0  0  0  0  0  0  0
  151.1484  142.6436  156.7893 C   0  0  0  0  0  0  0  0  0  0  0  0
  149.6785  142.5004  156.7776 N   0  3  0  0  0  0  0  0  0  0  0  0
  149.1877  141.2349  156.1894 C   0  0  2  0  0  0  0  0  0  0  0  0
  149.4790  141.0829  154.6802 C   0  0  0  0  0  0  0  0  0  0  0  0
  148.0917  140.7434  154.1009 C   0  0  2  0  0  0  0  0  0  0  0  0
  147.2389  142.0238  154.0682 C   0  0  0  0  0  0  0  0  0  0  0  0
  146.9350  142.2621  155.5584 C   0  0  0  0  0  0  0  0  0  0  0  0
  147.6522  141.0833  156.2528 C   0  0  1  0  0  0  0  0  0  0  0  0
  147.4378  139.9642  155.2385 C   0  0  0  0  0  0  0  0  0  0  0  0
  151.5571  144.6761  159.8894 C   0  0  0  0  0  0  0  0  0  0  0  0
  152.1913  144.1423  161.4219 S   0  0  0  0  0  0  0  0  0  0  0  0
  153.6934  140.7919  160.7836 H   0  0  0  0  0  0  0  0  0  0  0  0
  153.3869  141.6108  162.3234 H   0  0  0  0  0  0  0  0  0  0  0  0
  154.7967  142.0605  161.3478 H   0  0  0  0  0  0  0  0  0  0  0  0
  150.7593  144.7050  157.3035 H   0  0  0  0  0  0  0  0  0  0  0  0
  152.4148  144.3897  156.8648 H   0  0  0  0  0  0  0  0  0  0  0  0
  151.5313  142.5772  155.7701 H   0  0  0  0  0  0  0  0  0  0  0  0
  151.5831  141.8161  157.3514 H   0  0  0  0  0  0  0  0  0  0  0  0
  149.3571  142.5445  157.7343 H   0  0  0  0  0  0  0  0  0  0  0  0
  149.6396  140.4039  156.7341 H   0  0  0  0  0  0  0  0  0  0  0  0
  149.8959  141.9831  154.2263 H   0  0  0  0  0  0  0  0  0  0  0  0
  150.1843  140.2686  154.5095 H   0  0  0  0  0  0  0  0  0  0  0  0
  148.1311  140.2209  153.1447 H   0  0  0  0  0  0  0  0  0  0  0  0
  147.7636  142.8625  153.6088 H   0  0  0  0  0  0  0  0  0  0  0  0
  146.3157  141.8618  153.5101 H   0  0  0  0  0  0  0  0  0  0  0  0
  147.2782  143.2372  155.9039 H   0  0  0  0  0  0  0  0  0  0  0  0
  145.8599  142.2137  155.7362 H   0  0  0  0  0  0  0  0  0  0  0  0
  147.2750  140.8697  157.2535 H   0  0  0  0  0  0  0  0  0  0  0  0
  146.3853  139.7373  155.0583 H   0  0  0  0  0  0  0  0  0  0  0  0
  147.9639  139.0410  155.4888 H   0  0  0  0  0  0  0  0  0  0  0  0
  150.9552  145.5713  159.8382 H   0  0  0  0  0  0  0  0  0  0  0  0
  149.2745  143.2721  156.2665 H   0  0  0  0  0  0  0  0  0  0  0  0
  1  2  1  0  0  0  0
  1 17  1  0  0  0  0
  1 18  1  0  0  0  0
  1 19  1  0  0  0  0
  2 16  1  0  0  0  0
  2  3  2  0  0  0  0
  3  4  1  0  0  0  0
  4  5  1  0  0  0  0
  4 15  2  0  0  0  0
  5  6  1  0  0  0  0
  5 20  1  0  0  0  0
  5 21  1  0  0  0  0
  6  7  1  0  0  0  0
  6 22  1  0  0  0  0
  6 23  1  0  0  0  0
  7  8  1  0  0  0  0
  7 24  1  0  0  0  0
  7 37  1  0  0  0  0
  8 13  1  0  0  0  0
  8  9  1  0  0  0  0
  8 25  1  0  0  0  0
  9 10  1  0  0  0  0
  9 26  1  0  0  0  0
  9 27  1  0  0  0  0
 10 14  1  0  0  0  0
 10 11  1  0  0  0  0
 10 28  1  0  0  0  0
 11 12  1  0  0  0  0
 11 29  1  0  0  0  0
 11 30  1  0  0  0  0
 12 13  1  0  0  0  0
 12 31  1  0  0  0  0
 12 32  1  0  0  0  0
 13 14  1  0  0  0  0
 13 33  1  0  0  0  0
 14 34  1  0  0  0  0
 14 35  1  0  0  0  0
 15 16  1  0  0  0  0
 15 36  1  0  0  0  0
M  CHG  1   7   1
M  END
> <s_m_source_file>
AV-unprocessed.smi

> <i_m_source_file_index>
3209

> <i_lp_mmshare_version>
43012

> <i_f3d_flags>
0

> <s_epik_input>
W0NIM11jMW5jKFtjSF1zMSlbQ0gyXVtDSDJdW05IXVtDQEhdKFtDSDJdW0NASF0yMylbQ0BIXShbQ0gyXTMpW0NIMl1bQ0gyXTI=

> <s_epik_cmdline>
J2VwaWtfcHl0aG9uJywgJy1waCcsICc3LjAnLCAnLXRuJywgJzgnLCAnLW1hJywgJzIwMCcsICctbWV0YWxfYmluZGluZycsICctaW1hZScsICc8aW5maWxlLm1hZT4nLCAnLW9tYWUnLCAnPG91dGZpbGUubWFlPic=

> <r_lp_tautomer_probability>
1

> <r_epik_Ionization_Penalty>
0.000342479

> <r_epik_Ionization_Penalty_Charging>
0.000317129

> <r_epik_Ionization_Penalty_Neutral>
2.535e-05

> <r_epik_State_Penalty>
-0

> <r_epik_Charging_Adjusted_Penalty>
0.000317129

> <i_epik_Tot_Q>
1

> <i_epik_Tot_abs_Q>
1

> <r_epik_Metal_State_Penalty>
-0

> <b_epik_Metal_Only>
0

> <s_lp_Force_Field>
OPLS_2005

> <r_lp_Energy>
49.3093

> <b_lp_Chiralities_Consistent>
1

> <s_lp_Variant>
AV-unprocessed.smi:3209-1

> <Gold.Version>
5.8.1

> <Gold.Id.Protein>
6NUR|6NUR_protein|mol2

> <Gold.PLP.Fitness>
44.7892

> <Gold.PLP.PLP>
-39.7159

> <Gold.PLP.part.hbond>
-1.0000

> <Gold.PLP.part.metal>
0.0000

> <Gold.PLP.part.buried>
-4.1933

> <Gold.PLP.part.nonpolar>
-34.6808

> <Gold.PLP.part.repulsive>
0.0211

> <Gold.PLP.ligand.clash>
0.0000

> <Gold.PLP.ligand.torsion>
0.4756

> <Gold.PLP.Chemscore.Hbond>
2.0000

> <Gold.PLP.Chemscore.CHOScore>
0.0000

> <Gold.PLP.Chemscore.Metal>
0.0000

> <Gold.Chemscore.Hbonds>
donor molecule, donor type, donor heavy atom, donor atom, acceptor molecule, acceptor atom, score
      L1  H     7    37       P1  8028  2.00

> <Gold.PLP.Chemscore.Internal.Correction>
0.0245

> <Gold.Rescore>
     Score         DG    S(hbond)    S(metal)    S(lipo)     H(rot)  DE(clash)    DE(int)     intcor
     18.63     -19.17       1.00        0.00     117.28       1.31       0.12       0.42       ----

> <Gold.Chemscore.Fitness>
18.6304

> <Gold.Chemscore.DG>
-19.1694

> <Gold.Chemscore.ZeroCoef>
-5.4800

> <Gold.Chemscore.Hbond>
0.9951

> <Gold.Chemscore.Metal>
0.0000

> <Gold.Chemscore.Lipo>
117.2782

> <Gold.Chemscore.Internal_Hbond>
0.0000

> <Gold.Chemscore.DEClash>
0.1200

> <Gold.Chemscore.DEInternal>
0.4191

> <Gold.Chemscore.Rot>
1.3108

> <Gold.Chemscore.Internal.Correction>
   9.000000E+99

> <Gold.Chemscore.Hbonds>
donor molecule, donor type, donor heavy atom, donor atom, acceptor molecule, acceptor atom, score
      L1  H     7    37       P1  8028  0.99

> <Gold.Chemscore.Hbond.Weighted>
-3.3236

> <Gold.Chemscore.Metal.Weighted>
-0.0000

> <Gold.Chemscore.Lipo.Weighted>
-13.7215

> <Gold.Chemscore.Internal_Hbond.Weighted>
0.0000

> <Gold.Chemscore.DEClash.Weighted>
0.1200

> <Gold.Chemscore.DEInternal.Weighted>
0.4191

> <Gold.Chemscore.Rot.Weighted>
3.3558

> <Gold.Chemscore.Internal.Correction.Weighted>
   9.000000E+99

> <Gold.Protein.RotatedTorsions>
[ 6907 6896 6895 6894 ] final  126.22 input  -60.11 | X-H torsion
[ 7974 7965 7964 7962 ] final   45.57 input  175.53 | X-H torsion
[ 8008 7997 7996 7995 ] final  105.64 input   59.86 | X-H torsion
[ 10167 10162 10161 10158 ] final  178.60 input  -65.29 | X-H torsion
[ 10718 10713 10712 10709 ] final  -22.93 input   66.30 | X-H torsion
[ 10763 10752 10751 10750 ] final -109.51 input  -60.55 | X-H torsion
[ 11005 11000 10999 10996 ] final   68.74 input  -57.11 | X-H torsion

> <Gold.Protein.ActiveResidues>
 VAL166  LYS551  ARG553  GLY616  TRP617  ASP618  TYR619  PRO620  LYS621  CYS622 
 ASP623  PHE694  ASN695  SER759  ASP760  ASP761  ALA762  ILE779  LEU786  VAL792 
 PHE793  MET794  SER795  GLU796  ALA797  LYS798  CYS799  TRP800  GLU811  SER814 

> <Gold.Protein.RotatedAtoms>
  152.3923  133.6696  159.6247 H   0  0  0  0  0  0  0  0  0  0  0  0  # atno 6907 bound_to 6896
  150.7829  133.8933  159.3328 H   0  0  0  0  0  0  0  0  0  0  0  0  # atno 6908 bound_to 6896
  151.6717  135.0976  160.0250 H   0  0  0  0  0  0  0  0  0  0  0  0  # atno 6909 bound_to 6896
  146.0468  139.4949  142.9744 H   0  0  0  0  0  0  0  0  0  0  0  0  # atno 7974 bound_to 7965
  156.1676  140.3127  155.8916 H   0  0  0  0  0  0  0  0  0  0  0  0  # atno 8008 bound_to 7997
  155.3654  140.0479  157.3063 H   0  0  0  0  0  0  0  0  0  0  0  0  # atno 8009 bound_to 7997
  154.5208  140.2197  155.8990 H   0  0  0  0  0  0  0  0  0  0  0  0  # atno 8010 bound_to 7997
  139.5300  144.2661  152.0666 H   0  0  0  0  0  0  0  0  0  0  0  0  # atno 10167 bound_to 10162
  156.4978  130.4581  149.6718 H   0  0  0  0  0  0  0  0  0  0  0  0  # atno 10718 bound_to 10713
  154.8197  135.4598  154.0744 H   0  0  0  0  0  0  0  0  0  0  0  0  # atno 10763 bound_to 10752
  153.2108  135.6881  153.8123 H   0  0  0  0  0  0  0  0  0  0  0  0  # atno 10764 bound_to 10752
  153.7575  135.3289  155.3308 H   0  0  0  0  0  0  0  0  0  0  0  0  # atno 10765 bound_to 10752
  139.9693  134.6926  156.0479 H   0  0  0  0  0  0  0  0  0  0  0  0  # atno 11005 bound_to 11000
  145.6793  141.0195  143.1615 LP  0  0  0  0  0  0  0  0  0  0  0  0  # atno 17320 bound_to 7965
  144.7102  139.8402  143.7417 LP  0  0  0  0  0  0  0  0  0  0  0  0  # atno 17321 bound_to 7965
  140.2123  144.4550  150.6380 LP  0  0  0  0  0  0  0  0  0  0  0  0  # atno 17342 bound_to 10162
  140.6472  143.2216  151.6159 LP  0  0  0  0  0  0  0  0  0  0  0  0  # atno 17343 bound_to 10162
  156.3362  130.7358  151.2296 LP  0  0  0  0  0  0  0  0  0  0  0  0  # atno 17370 bound_to 10713
  157.7466  131.0416  150.4655 LP  0  0  0  0  0  0  0  0  0  0  0  0  # atno 17371 bound_to 10713
  141.1373  133.6572  156.3630 LP  0  0  0  0  0  0  0  0  0  0  0  0  # atno 17394 bound_to 11000
  140.5327  134.6197  157.5355 LP  0  0  0  0  0  0  0  0  0  0  0  0  # atno 17395 bound_to 11000

$$$$
