AV-unprocessed.smi:2738|AV-procd|sdf|10548|dock6
  -GOLD-   2272015 03D 1   1.00000     0.00000
 Structure written by MMmdl.
 32 33  0  0  0  0  0  0  0  0  1 V2000
  154.9153  140.6702  160.7131 C   0  0  0  0  0  0  0  0  0  0  0  0
  153.6112  140.0383  160.2102 C   0  0  0  0  0  0  0  0  0  0  0  0
  152.8101  141.0026  159.4604 N   0  0  0  0  0  0  0  0  0  0  0  0
  152.3398  140.8536  158.1995 C   0  0  0  0  0  0  0  0  0  0  0  0
  152.5122  139.8742  157.4742 O   0  0  0  0  0  0  0  0  0  0  0  0
  151.6623  141.9776  157.8680 N   0  0  0  0  0  0  0  0  0  0  0  0
  151.0003  142.2495  156.5938 C   0  0  0  0  0  0  0  0  0  0  0  0
  149.7016  141.4338  156.4426 C   0  0  2  0  0  0  0  0  0  0  0  0
  149.2976  141.2693  154.9715 C   0  0  0  0  0  0  0  0  0  0  0  0
  148.6478  142.1196  157.0874 O   0  0  0  0  0  0  0  0  0  0  0  0
  151.7247  142.8833  158.9368 C   0  0  0  0  0  0  0  0  0  0  0  0
  151.2099  144.1838  159.0788 C   0  0  0  0  0  0  0  0  0  0  0  0
  151.4580  144.8468  160.3035 C   0  0  0  0  0  0  0  0  0  0  0  0
  152.1991  144.2145  161.3357 C   0  0  0  0  0  0  0  0  0  0  0  0
  152.7086  142.9058  161.1648 C   0  0  0  0  0  0  0  0  0  0  0  0
  152.4459  142.2692  159.9392 C   0  0  0  0  0  0  0  0  0  0  0  0
  155.5075  139.9441  161.2701 H   0  0  0  0  0  0  0  0  0  0  0  0
  154.7157  141.5137  161.3744 H   0  0  0  0  0  0  0  0  0  0  0  0
  155.5249  141.0303  159.8837 H   0  0  0  0  0  0  0  0  0  0  0  0
  153.8361  139.1748  159.5826 H   0  0  0  0  0  0  0  0  0  0  0  0
  153.0318  139.6567  161.0514 H   0  0  0  0  0  0  0  0  0  0  0  0
  150.8118  143.3175  156.4697 H   0  0  0  0  0  0  0  0  0  0  0  0
  151.6975  141.9832  155.7988 H   0  0  0  0  0  0  0  0  0  0  0  0
  149.8134  140.4457  156.8910 H   0  0  0  0  0  0  0  0  0  0  0  0
  150.0605  140.7238  154.4156 H   0  0  0  0  0  0  0  0  0  0  0  0
  149.1595  142.2361  154.4858 H   0  0  0  0  0  0  0  0  0  0  0  0
  148.3644  140.7127  154.8789 H   0  0  0  0  0  0  0  0  0  0  0  0
  148.6603  143.0227  156.8085 H   0  0  0  0  0  0  0  0  0  0  0  0
  150.6509  144.6621  158.2882 H   0  0  0  0  0  0  0  0  0  0  0  0
  151.0803  145.8474  160.4539 H   0  0  0  0  0  0  0  0  0  0  0  0
  152.3783  144.7393  162.2625 H   0  0  0  0  0  0  0  0  0  0  0  0
  153.2772  142.4214  161.9447 H   0  0  0  0  0  0  0  0  0  0  0  0
  1  2  1  0  0  0  0
  1 17  1  0  0  0  0
  1 18  1  0  0  0  0
  1 19  1  0  0  0  0
  2  3  1  0  0  0  0
  2 20  1  0  0  0  0
  2 21  1  0  0  0  0
  3 16  1  0  0  0  0
  3  4  1  0  0  0  0
  4  5  2  0  0  0  0
  4  6  1  0  0  0  0
  6  7  1  0  0  0  0
  6 11  1  0  0  0  0
  7  8  1  0  0  0  0
  7 22  1  0  0  0  0
  7 23  1  0  0  0  0
  8  9  1  0  0  0  0
  8 10  1  0  0  0  0
  8 24  1  0  0  0  0
  9 25  1  0  0  0  0
  9 26  1  0  0  0  0
  9 27  1  0  0  0  0
 10 28  1  0  0  0  0
 11 16  2  0  0  0  0
 11 12  1  0  0  0  0
 12 13  2  0  0  0  0
 12 29  1  0  0  0  0
 13 14  1  0  0  0  0
 13 30  1  0  0  0  0
 14 15  2  0  0  0  0
 14 31  1  0  0  0  0
 15 16  1  0  0  0  0
 15 32  1  0  0  0  0
M  END
> <s_m_source_file>
AV-unprocessed.smi

> <i_m_source_file_index>
2738

> <i_lp_mmshare_version>
43012

> <i_f3d_flags>
0

> <s_epik_input>
W2NIXTFbY0hdW2NIXVtjSF1jKGMxMiluKFtDSDJdW0NIM10pYyg9TyluMltDSDJdW0NASF0oW0NIM10pW09IXQ==

> <s_epik_cmdline>
J2VwaWtfcHl0aG9uJywgJy1waCcsICc3LjAnLCAnLXRuJywgJzgnLCAnLW1hJywgJzIwMCcsICctbWV0YWxfYmluZGluZycsICctaW1hZScsICc8aW5maWxlLm1hZT4nLCAnLW9tYWUnLCAnPG91dGZpbGUubWFlPic=

> <r_lp_tautomer_probability>
1

> <r_epik_Ionization_Penalty>
5.28302e-08

> <r_epik_Ionization_Penalty_Charging>
2.52071e-09

> <r_epik_Ionization_Penalty_Neutral>
5.03095e-08

> <r_epik_State_Penalty>
-0

> <r_epik_Charging_Adjusted_Penalty>
2.52071e-09

> <i_epik_Tot_Q>
0

> <i_epik_Tot_abs_Q>
0

> <r_epik_Metal_State_Penalty>
-0

> <b_epik_Metal_Only>
0

> <s_lp_Force_Field>
OPLS_2005

> <r_lp_Energy>
38.1008

> <b_lp_Chiralities_Consistent>
1

> <s_lp_Variant>
AV-unprocessed.smi:2738-1

> <Gold.Version>
5.8.1

> <Gold.Id.Protein>
6NUR|6NUR_protein|mol2

> <Gold.PLP.Fitness>
45.5500

> <Gold.PLP.PLP>
-40.3813

> <Gold.PLP.part.hbond>
-2.0000

> <Gold.PLP.part.metal>
0.0000

> <Gold.PLP.part.buried>
-5.3646

> <Gold.PLP.part.nonpolar>
-33.3051

> <Gold.PLP.part.repulsive>
0.0000

> <Gold.PLP.ligand.clash>
0.0000

> <Gold.PLP.ligand.torsion>
0.4203

> <Gold.PLP.Chemscore.Hbond>
2.0000

> <Gold.PLP.Chemscore.CHOScore>
0.0000

> <Gold.PLP.Chemscore.Metal>
0.0000

> <Gold.Chemscore.Hbonds>
donor molecule, donor type, donor heavy atom, donor atom, acceptor molecule, acceptor atom, score
      L1  H    10    28       P1  8028  0.94
      P1  H  7997  8008       L1     5  0.93

> <Gold.PLP.Chemscore.Internal.Correction>
0.0092

> <Gold.Rescore>
     Score         DG    S(hbond)    S(metal)    S(lipo)     H(rot)  DE(clash)    DE(int)     intcor
     18.59     -19.22       1.89        0.00     103.16       1.81       0.10       0.53       ----

> <Gold.Chemscore.Fitness>
18.5933

> <Gold.Chemscore.DG>
-19.2222

> <Gold.Chemscore.ZeroCoef>
-5.4800

> <Gold.Chemscore.Hbond>
1.8888

> <Gold.Chemscore.Metal>
0.0000

> <Gold.Chemscore.Lipo>
103.1565

> <Gold.Chemscore.Internal_Hbond>
0.0000

> <Gold.Chemscore.DEClash>
0.0976

> <Gold.Chemscore.DEInternal>
0.5313

> <Gold.Chemscore.Rot>
1.8109

> <Gold.Chemscore.Internal.Correction>
   9.000000E+99

> <Gold.Chemscore.Hbonds>
donor molecule, donor type, donor heavy atom, donor atom, acceptor molecule, acceptor atom, score
      L1  H    10    28       P1  8028  0.67
      P1  H  7997  8008       L1     5  0.53

> <Gold.Chemscore.Hbond.Weighted>
-6.3086

> <Gold.Chemscore.Metal.Weighted>
-0.0000

> <Gold.Chemscore.Lipo.Weighted>
-12.0693

> <Gold.Chemscore.Internal_Hbond.Weighted>
0.0000

> <Gold.Chemscore.DEClash.Weighted>
0.0976

> <Gold.Chemscore.DEInternal.Weighted>
0.5313

> <Gold.Chemscore.Rot.Weighted>
4.6358

> <Gold.Chemscore.Internal.Correction.Weighted>
   9.000000E+99

> <Gold.Protein.RotatedTorsions>
[ 6907 6896 6895 6894 ] final   28.94 input  -60.11 | X-H torsion
[ 7974 7965 7964 7962 ] final -140.85 input  175.53 | X-H torsion
[ 8008 7997 7996 7995 ] final  -57.22 input   59.86 | X-H torsion
[ 10167 10162 10161 10158 ] final  -21.96 input  -65.29 | X-H torsion
[ 10718 10713 10712 10709 ] final -167.34 input   66.30 | X-H torsion
[ 10763 10752 10751 10750 ] final -158.89 input  -60.55 | X-H torsion
[ 11005 11000 10999 10996 ] final -128.26 input  -57.11 | X-H torsion

> <Gold.Protein.ActiveResidues>
 VAL166  LYS551  ARG553  GLY616  TRP617  ASP618  TYR619  PRO620  LYS621  CYS622 
 ASP623  PHE694  ASN695  SER759  ASP760  ASP761  ALA762  ILE779  LEU786  VAL792 
 PHE793  MET794  SER795  GLU796  ALA797  LYS798  CYS799  TRP800  GLU811  SER814 

> <Gold.Protein.RotatedAtoms>
  152.0243  134.9805  160.0571 H   0  0  0  0  0  0  0  0  0  0  0  0  # atno 6907 bound_to 6896
  152.1307  133.4401  159.4728 H   0  0  0  0  0  0  0  0  0  0  0  0  # atno 6908 bound_to 6896
  150.6856  134.2342  159.4490 H   0  0  0  0  0  0  0  0  0  0  0  0  # atno 6909 bound_to 6896
  144.8565  140.6151  143.5356 H   0  0  0  0  0  0  0  0  0  0  0  0  # atno 7974 bound_to 7965
  154.4260  140.1111  156.5763 H   0  0  0  0  0  0  0  0  0  0  0  0  # atno 8008 bound_to 7997
  155.6159  140.3494  155.4618 H   0  0  0  0  0  0  0  0  0  0  0  0  # atno 8009 bound_to 7997
  156.0063  140.1209  157.0488 H   0  0  0  0  0  0  0  0  0  0  0  0  # atno 8010 bound_to 7997
  140.7284  143.4579  151.0422 H   0  0  0  0  0  0  0  0  0  0  0  0  # atno 10167 bound_to 10162
  156.6810  130.9122  151.3057 H   0  0  0  0  0  0  0  0  0  0  0  0  # atno 10718 bound_to 10713
  154.7520  135.3095  154.8540 H   0  0  0  0  0  0  0  0  0  0  0  0  # atno 10763 bound_to 10752
  153.9325  135.6783  153.4749 H   0  0  0  0  0  0  0  0  0  0  0  0  # atno 10764 bound_to 10752
  153.1116  135.4864  154.8973 H   0  0  0  0  0  0  0  0  0  0  0  0  # atno 10765 bound_to 10752
  140.9531  134.1038  157.4043 H   0  0  0  0  0  0  0  0  0  0  0  0  # atno 11005 bound_to 11000
  145.4396  139.1537  143.3978 LP  0  0  0  0  0  0  0  0  0  0  0  0  # atno 17320 bound_to 7965
  146.2827  140.4516  142.8770 LP  0  0  0  0  0  0  0  0  0  0  0  0  # atno 17321 bound_to 7965
  139.8261  143.7755  152.3178 LP  0  0  0  0  0  0  0  0  0  0  0  0  # atno 17342 bound_to 10162
  139.7854  144.7429  151.0029 LP  0  0  0  0  0  0  0  0  0  0  0  0  # atno 17343 bound_to 10162
  157.7043  130.9368  150.0883 LP  0  0  0  0  0  0  0  0  0  0  0  0  # atno 17370 bound_to 10713
  156.1868  130.3652  149.8963 LP  0  0  0  0  0  0  0  0  0  0  0  0  # atno 17371 bound_to 10713
  139.8853  135.0071  156.6429 LP  0  0  0  0  0  0  0  0  0  0  0  0  # atno 17394 bound_to 11000
  140.7574  133.8846  155.8392 LP  0  0  0  0  0  0  0  0  0  0  0  0  # atno 17395 bound_to 11000

$$$$
