AV-unprocessed.smi:103|AV-procd|sdf|988|dock4
  -GOLD-   2262017563D 1   1.00000     0.00000
 Structure written by MMmdl.
 53 55  0  0  0  0  0  0  0  0  1 V2000
  152.8152  142.3136  159.7717 C   0  0  0  0  0  0  0  0  0  0  0  0
  153.0647  140.8114  159.7710 C   0  0  0  0  0  0  0  0  0  0  0  0
  154.1392  140.3359  160.1385 O   0  0  0  0  0  0  0  0  0  0  0  0
  152.0014  140.1188  159.3396 O   0  0  0  0  0  0  0  0  0  0  0  0
  152.1864  138.8558  158.7224 C   0  0  0  0  0  0  0  0  0  0  0  0
  150.8609  138.3840  158.1136 C   0  0  1  0  0  0  0  0  0  0  0  0
  149.9478  138.0675  159.1524 O   0  0  0  0  0  0  0  0  0  0  0  0
  148.6430  138.1720  158.6803 C   0  0  2  0  0  0  0  0  0  0  0  0
  148.1453  136.7924  158.3359 N   0  0  0  0  0  0  0  0  0  0  0  0
  147.5953  135.8495  159.1848 C   0  0  0  0  0  0  0  0  0  0  0  0
  147.2614  136.0507  160.9325 S   0  0  0  0  0  0  0  0  0  0  0  0
  147.6884  134.3899  161.5974 C   0  0  0  0  0  0  0  0  0  0  0  0
  148.2245  137.0391  161.4429 O   0  0  0  0  0  0  0  0  0  0  0  0
  145.8151  136.2767  161.0767 O   0  0  0  0  0  0  0  0  0  0  0  0
  147.1926  134.7321  158.6458 N   0  0  0  0  0  0  0  0  0  0  0  0
  147.5742  134.8679  157.3210 C   0  0  0  0  0  0  0  0  0  0  0  0
  147.4800  134.0259  156.1843 C   0  0  0  0  0  0  0  0  0  0  0  0
  146.9274  132.8056  156.2228 N   0  0  0  0  0  0  0  0  0  0  0  0
  147.9733  134.4702  155.0058 N   0  0  0  0  0  0  0  0  0  0  0  0
  148.5315  135.6821  154.9432 C   0  0  0  0  0  0  0  0  0  0  0  0
  148.6850  136.5800  155.9190 N   0  0  0  0  0  0  0  0  0  0  0  0
  148.1868  136.1383  157.1126 C   0  0  0  0  0  0  0  0  0  0  0  0
  148.6527  139.1249  157.4711 C   0  0  1  0  0  0  0  0  0  0  0  0
  147.9217  140.3106  157.7562 O   0  0  0  0  0  0  0  0  0  0  0  0
  147.8484  141.2925  156.8402 C   0  0  0  0  0  0  0  0  0  0  0  0
  146.8365  142.3655  157.2180 C   0  0  0  0  0  0  0  0  0  0  0  0
  148.4951  141.3568  155.7945 O   0  0  0  0  0  0  0  0  0  0  0  0
  150.1302  139.4543  157.2924 C   0  0  2  0  0  0  0  0  0  0  0  0
  150.4569  139.3640  155.9110 O   0  0  0  0  0  0  0  0  0  0  0  0
  151.7238  139.5227  155.4930 C   0  0  0  0  0  0  0  0  0  0  0  0
  151.9095  139.1059  154.0404 C   0  0  0  0  0  0  0  0  0  0  0  0
  152.6649  139.9440  156.1654 O   0  0  0  0  0  0  0  0  0  0  0  0
  152.5452  142.6533  158.7717 H   0  0  0  0  0  0  0  0  0  0  0  0
  153.7092  142.8506  160.0897 H   0  0  0  0  0  0  0  0  0  0  0  0
  152.0015  142.5607  160.4539 H   0  0  0  0  0  0  0  0  0  0  0  0
  152.9406  138.9555  157.9410 H   0  0  0  0  0  0  0  0  0  0  0  0
  152.5538  138.1202  159.4398 H   0  0  0  0  0  0  0  0  0  0  0  0
  151.0253  137.4808  157.5266 H   0  0  0  0  0  0  0  0  0  0  0  0
  147.9823  138.5173  159.4719 H   0  0  0  0  0  0  0  0  0  0  0  0
  147.5437  134.3839  162.6773 H   0  0  0  0  0  0  0  0  0  0  0  0
  148.7304  134.1652  161.3699 H   0  0  0  0  0  0  0  0  0  0  0  0
  147.0487  133.6351  161.1427 H   0  0  0  0  0  0  0  0  0  0  0  0
  146.5546  132.4496  157.0912 H   0  0  0  0  0  0  0  0  0  0  0  0
  146.8864  132.2439  155.3847 H   0  0  0  0  0  0  0  0  0  0  0  0
  148.9069  135.9756  153.9740 H   0  0  0  0  0  0  0  0  0  0  0  0
  148.2403  138.6352  156.5898 H   0  0  0  0  0  0  0  0  0  0  0  0
  147.1437  142.8690  158.1348 H   0  0  0  0  0  0  0  0  0  0  0  0
  145.8542  141.9210  157.3783 H   0  0  0  0  0  0  0  0  0  0  0  0
  146.7534  143.1096  156.4258 H   0  0  0  0  0  0  0  0  0  0  0  0
  150.3298  140.4422  157.7114 H   0  0  0  0  0  0  0  0  0  0  0  0
  151.3438  139.7656  153.3823 H   0  0  0  0  0  0  0  0  0  0  0  0
  151.5596  138.0842  153.8921 H   0  0  0  0  0  0  0  0  0  0  0  0
  152.9617  139.1548  153.7591 H   0  0  0  0  0  0  0  0  0  0  0  0
  1  2  1  0  0  0  0
  1 33  1  0  0  0  0
  1 34  1  0  0  0  0
  1 35  1  0  0  0  0
  2  3  2  0  0  0  0
  2  4  1  0  0  0  0
  4  5  1  0  0  0  0
  5  6  1  0  0  0  0
  5 36  1  0  0  0  0
  5 37  1  0  0  0  0
  6 28  1  0  0  0  0
  6  7  1  0  0  0  0
  6 38  1  0  0  0  0
  7  8  1  0  0  0  0
  8  9  1  0  0  0  0
  8 23  1  0  0  0  0
  8 39  1  0  0  0  0
  9 22  1  0  0  0  0
  9 10  1  0  0  0  0
 10 11  1  0  0  0  0
 10 15  2  0  0  0  0
 11 12  1  0  0  0  0
 11 13  2  0  0  0  0
 11 14  2  0  0  0  0
 12 40  1  0  0  0  0
 12 41  1  0  0  0  0
 12 42  1  0  0  0  0
 15 16  1  0  0  0  0
 16 22  2  0  0  0  0
 16 17  1  0  0  0  0
 17 18  1  0  0  0  0
 17 19  2  0  0  0  0
 18 43  1  0  0  0  0
 18 44  1  0  0  0  0
 19 20  1  0  0  0  0
 20 21  2  0  0  0  0
 20 45  1  0  0  0  0
 21 22  1  0  0  0  0
 23 24  1  0  0  0  0
 23 28  1  0  0  0  0
 23 46  1  0  0  0  0
 24 25  1  0  0  0  0
 25 26  1  0  0  0  0
 25 27  2  0  0  0  0
 26 47  1  0  0  0  0
 26 48  1  0  0  0  0
 26 49  1  0  0  0  0
 28 29  1  0  0  0  0
 28 50  1  0  0  0  0
 29 30  1  0  0  0  0
 30 31  1  0  0  0  0
 30 32  2  0  0  0  0
 31 51  1  0  0  0  0
 31 52  1  0  0  0  0
 31 53  1  0  0  0  0
M  END
> <s_m_source_file>
AV-unprocessed.smi

> <i_m_source_file_index>
103

> <i_lp_mmshare_version>
43012

> <i_f3d_flags>
0

> <s_epik_input>
W0NIM11DKD1PKU9bQ0gyXVtDQEBIXTFPW0NASF0oW0NAQEhdKE9DKD1PKVtDSDNdKVtDQEhdMU9DKD1PKVtDSDNdKW4oYyhuMilTKD1PKSg9TylbQ0gzXSljKGMyMyluW2NIXW5jM1tOSDJd

> <s_epik_cmdline>
J2VwaWtfcHl0aG9uJywgJy1waCcsICc3LjAnLCAnLXRuJywgJzgnLCAnLW1hJywgJzIwMCcsICctbWV0YWxfYmluZGluZycsICctaW1hZScsICc8aW5maWxlLm1hZT4nLCAnLW9tYWUnLCAnPG91dGZpbGUubWFlPic=

> <r_lp_tautomer_probability>
1

> <r_epik_Ionization_Penalty>
1.51338e-05

> <r_epik_Ionization_Penalty_Charging>
0

> <r_epik_Ionization_Penalty_Neutral>
1.51338e-05

> <r_epik_State_Penalty>
-0

> <r_epik_Charging_Adjusted_Penalty>
0

> <i_epik_Tot_Q>
0

> <i_epik_Tot_abs_Q>
0

> <r_epik_Metal_State_Penalty>
-0

> <b_epik_Metal_Only>
0

> <s_epik_Chemistry_Notes>
This compound has an ester and may undergo hydrolysis at high or low pH. This compound contains an acetal/aminal-like group ( X-CH(R)-Y where X, Y are N, S, or O) that may be acid/base labile, releasing an aldehyde.

> <s_lp_Force_Field>
OPLS_2005

> <r_lp_Energy>
13.207

> <b_lp_Chiralities_Consistent>
1

> <s_lp_Variant>
AV-unprocessed.smi:103-12

> <Gold.Version>
5.8.1

> <Gold.Id.Protein>
6NUR|6NUR_protein|mol2

> <Gold.PLP.Fitness>
39.3739

> <Gold.PLP.PLP>
-31.2475

> <Gold.PLP.part.hbond>
-3.6796

> <Gold.PLP.part.metal>
0.0000

> <Gold.PLP.part.buried>
-6.3505

> <Gold.PLP.part.nonpolar>
-20.8380

> <Gold.PLP.part.repulsive>
0.1770

> <Gold.PLP.ligand.clash>
0.0000

> <Gold.PLP.ligand.torsion>
2.5227

> <Gold.PLP.Chemscore.Hbond>
2.6246

> <Gold.PLP.Chemscore.CHOScore>
0.9776

> <Gold.PLP.Chemscore.Metal>
0.0000

> <Gold.Chemscore.Hbonds>
donor molecule, donor type, donor heavy atom, donor atom, acceptor molecule, acceptor atom, score
      P1  H  6931  6943       L1    13  0.99
      P1  H  6934  6947       L1    13  0.22
      P1  H  7997  8009       L1    32  1.00
      L1  C    20    45       P1  7948  1.00

> <Gold.PLP.Chemscore.Internal.Correction>
2.3651

> <Gold.Rescore>
     Score         DG    S(hbond)    S(metal)    S(lipo)     H(rot)  DE(clash)    DE(int)     intcor
      0.69      -8.83       2.77        0.00      42.42       4.25       0.00       8.14       ----

> <Gold.Chemscore.Fitness>
0.6869

> <Gold.Chemscore.DG>
-8.8255

> <Gold.Chemscore.ZeroCoef>
-5.4800

> <Gold.Chemscore.Hbond>
2.7697

> <Gold.Chemscore.Metal>
0.0000

> <Gold.Chemscore.Lipo>
42.4209

> <Gold.Chemscore.Internal_Hbond>
0.0000

> <Gold.Chemscore.DEClash>
0.0013

> <Gold.Chemscore.DEInternal>
8.1372

> <Gold.Chemscore.Rot>
4.2456

> <Gold.Chemscore.Internal.Correction>
   9.000000E+99

> <Gold.Chemscore.Hbonds>
donor molecule, donor type, donor heavy atom, donor atom, acceptor molecule, acceptor atom, score
      P1  H  6931  6943       L1    13  0.92
      P1  H  6934  6947       L1    13  0.08
      P1  H  7997  8009       L1    32  0.99

> <Gold.Chemscore.Hbond.Weighted>
-9.2509

> <Gold.Chemscore.Metal.Weighted>
-0.0000

> <Gold.Chemscore.Lipo.Weighted>
-4.9632

> <Gold.Chemscore.Internal_Hbond.Weighted>
0.0000

> <Gold.Chemscore.DEClash.Weighted>
0.0013

> <Gold.Chemscore.DEInternal.Weighted>
8.1372

> <Gold.Chemscore.Rot.Weighted>
10.8687

> <Gold.Chemscore.Internal.Correction.Weighted>
   9.000000E+99

> <Gold.Protein.RotatedTorsions>
[ 6907 6896 6895 6894 ] final -156.68 input  -60.11 | X-H torsion
[ 7974 7965 7964 7962 ] final   21.54 input  175.53 | X-H torsion
[ 8008 7997 7996 7995 ] final -149.40 input   59.86 | X-H torsion
[ 10167 10162 10161 10158 ] final -139.19 input  -65.29 | X-H torsion
[ 10718 10713 10712 10709 ] final -119.18 input   66.30 | X-H torsion
[ 10763 10752 10751 10750 ] final -138.80 input  -60.55 | X-H torsion
[ 11005 11000 10999 10996 ] final  117.41 input  -57.11 | X-H torsion

> <Gold.Protein.ActiveResidues>
 VAL166  LYS551  ARG553  GLY616  TRP617  ASP618  TYR619  PRO620  LYS621  CYS622 
 ASP623  PHE694  ASN695  SER759  ASP760  ASP761  ALA762  ILE779  LEU786  VAL792 
 PHE793  MET794  SER795  GLU796  ALA797  LYS798  CYS799  TRP800  GLU811  SER814 

> <Gold.Protein.RotatedAtoms>
  151.2913  133.4164  159.2633 H   0  0  0  0  0  0  0  0  0  0  0  0  # atno 6907 bound_to 6896
  151.0275  134.9515  159.8103 H   0  0  0  0  0  0  0  0  0  0  0  0  # atno 6908 bound_to 6896
  152.5338  134.2875  159.9083 H   0  0  0  0  0  0  0  0  0  0  0  0  # atno 6909 bound_to 6896
  146.2067  139.8012  142.8720 H   0  0  0  0  0  0  0  0  0  0  0  0  # atno 7974 bound_to 7965
  155.6070  140.0668  157.2717 H   0  0  0  0  0  0  0  0  0  0  0  0  # atno 8008 bound_to 7997
  154.4263  140.1808  156.1280 H   0  0  0  0  0  0  0  0  0  0  0  0  # atno 8009 bound_to 7997
  156.0115  140.3326  155.6948 H   0  0  0  0  0  0  0  0  0  0  0  0  # atno 8010 bound_to 7997
  139.8404  143.7330  152.2663 H   0  0  0  0  0  0  0  0  0  0  0  0  # atno 10167 bound_to 10162
  156.1162  130.6287  150.9384 H   0  0  0  0  0  0  0  0  0  0  0  0  # atno 10718 bound_to 10713
  154.8627  135.3601  154.5443 H   0  0  0  0  0  0  0  0  0  0  0  0  # atno 10763 bound_to 10752
  153.6063  135.7011  153.5369 H   0  0  0  0  0  0  0  0  0  0  0  0  # atno 10764 bound_to 10752
  153.3247  135.4141  155.1407 H   0  0  0  0  0  0  0  0  0  0  0  0  # atno 10765 bound_to 10752
  139.9074  134.9610  156.7347 H   0  0  0  0  0  0  0  0  0  0  0  0  # atno 11005 bound_to 11000
  145.3294  141.0263  143.3455 LP  0  0  0  0  0  0  0  0  0  0  0  0  # atno 17320 bound_to 7965
  144.8810  139.4904  143.6723 LP  0  0  0  0  0  0  0  0  0  0  0  0  # atno 17321 bound_to 7965
  139.7565  144.7519  151.0428 LP  0  0  0  0  0  0  0  0  0  0  0  0  # atno 17342 bound_to 10162
  140.7798  143.4800  151.0031 LP  0  0  0  0  0  0  0  0  0  0  0  0  # atno 17343 bound_to 10162
  157.6345  131.0917  150.8376 LP  0  0  0  0  0  0  0  0  0  0  0  0  # atno 17370 bound_to 10713
  156.8479  130.5070  149.5314 LP  0  0  0  0  0  0  0  0  0  0  0  0  # atno 17371 bound_to 10713
  140.6897  133.9401  155.7959 LP  0  0  0  0  0  0  0  0  0  0  0  0  # atno 17394 bound_to 11000
  141.0450  134.0566  157.3855 LP  0  0  0  0  0  0  0  0  0  0  0  0  # atno 17395 bound_to 11000

$$$$
