#       Name:                AV-unprocessed.smi:3033
#       Creating user name   scv26
#       Creation time:       Fri Mar 27 16:54:19 2020


#       File generated by GOLD software.
#

@<TRIPOS>MOLECULE
AV-unprocessed.smi:3033
    41    42     1
SMALL
NO_CHARGES


@<TRIPOS>ATOM
      1 ****        -3.0922   3.3154   0.6108 C.3            1 S1                 0.0000
      2 ****        -3.8697   2.1285   0.5486 O.3            1 S1                 0.0000
      3 ****        -3.2070   0.9201   0.5219 C.ar           1 S1                 0.0000
      4 ****        -3.9994  -0.2428   0.4385 C.ar           1 S1                 0.0000
      5 ****        -3.4047  -1.5178   0.3999 C.ar           1 S1                 0.0000
      6 ****        -2.0046  -1.6434   0.4492 C.ar           1 S1                 0.0000
      7 ****        -1.1934  -0.4920   0.5416 C.ar           1 S1                 0.0000
      8 ****         0.3237  -0.6065   0.5856 C.3            1 S1                 0.0000
      9 ****         0.7433  -1.6858   1.3985 O.3            1 S1                 0.0000
     10 ****         0.9012  -0.8012  -0.8322 C.3            1 S1                 0.0000
     11 ****         2.3290  -0.4573  -0.9009 N.am           1 S1                 0.0000
     12 ****         3.2529  -1.5149  -0.8637 C.2            1 S1                 0.0000
     13 ****         4.5825  -1.3055  -0.9211 C.2            1 S1                 0.0000
     14 ****         5.6954  -2.6261  -0.8707 Cl             1 S1                 0.0000
     15 ****         5.0556   0.0736  -1.0251 C.2            1 S1                 0.0000
     16 ****         6.2631   0.3004  -1.0859 O.2            1 S1                 0.0000
     17 ****         4.1176   1.0657  -1.0496 N.pl3          1 S1                -1.0000
     18 ****         2.7702   0.8330  -0.9863 C.2            1 S1                 0.0000
     19 ****         1.9427   1.7452  -1.0004 O.2            1 S1                 0.0000
     20 ****        -1.7965   0.7837   0.5717 C.ar           1 S1                 0.0000
     21 ****        -3.7558   4.1798   0.6229 H              1 S1                 0.0000
     22 ****        -2.4415   3.4113  -0.2596 H              1 S1                 0.0000
     23 ****        -2.4891   3.3504   1.5190 H              1 S1                 0.0000
     24 ****        -5.0753  -0.1563   0.3997 H              1 S1                 0.0000
     25 ****        -4.0239  -2.3999   0.3305 H              1 S1                 0.0000
     26 ****        -1.5572  -2.6260   0.4127 H              1 S1                 0.0000
     27 ****         0.7181   0.3079   1.0308 H              1 S1                 0.0000
     28 ****         0.4733  -1.5114   2.2869 H              1 S1                 0.0000
     29 ****         0.7156  -1.8163  -1.1875 H              1 S1                 0.0000
     30 ****         0.3638  -0.1612  -1.5350 H              1 S1                 0.0000
     31 ****         2.8165  -2.4996  -0.7807 H              1 S1                 0.0000
     32 ****        -1.1542   1.6495   0.6299 H              1 S1                 0.0000
     33 ****        -4.4259   2.1807  -0.2808 LP             1 S1                 0.0000
     34 ****        -4.4670   2.1222   1.3506 LP             1 S1                 0.0000
     35 ****         1.7388  -1.7719   1.3585 LP             1 S1                 0.0000
     36 ****         0.3222  -2.5342   1.0777 LP             1 S1                 0.0000
     37 ****         6.9158  -0.4569  -1.0641 LP             1 S1                 0.0000
     38 ****         6.5920   1.2421  -1.1571 LP             1 S1                 0.0000
     39 ****         4.4318   2.0126  -1.1174 LP             1 S1                 0.0000
     40 ****         0.9663   1.5353  -0.9498 LP             1 S1                 0.0000
     41 ****         2.2473   2.6956  -1.0625 LP             1 S1                 0.0000
@<TRIPOS>BOND
    1    1    2 1     
    2    1   21 1     
    3    1   22 1     
    4    1   23 1     
    5    2    3 1     
    6    3   20 ar    
    7    3    4 ar    
    8    4    5 ar    
    9    4   24 1     
   10    5    6 ar    
   11    5   25 1     
   12    6    7 ar    
   13    6   26 1     
   14    7    8 1     
   15    7   20 ar    
   16    8    9 1     
   17    8   10 1     
   18    8   27 1     
   19    9   28 1     
   20   10   11 1     
   21   10   29 1     
   22   10   30 1     
   23   11   18 am    
   24   11   12 1     
   25   12   13 2     
   26   12   31 1     
   27   13   14 1     
   28   13   15 1     
   29   15   16 2     
   30   15   17 1     
   31   17   18 1     
   32   18   19 2     
   33   20   32 1     
   34    2   33 1     
   35    2   34 1     
   36    9   35 1     
   37    9   36 1     
   38   16   37 1     
   39   16   38 1     
   40   17   39 1     
   41   19   40 1     
   42   19   41 1     
@<TRIPOS>SUBSTRUCTURE
      1 S1             1
@<TRIPOS>SET
LONE_PAIRS      STATIC     ATOMS    <user>   **** ""
9 33 34 35 36 37 38 39 40 41
DONOR_HYDROGENS      STATIC     ATOMS    <user>   **** ""
1 28
ATOM$BLUE        STATIC     ATOMS    COLORGROUP SYSTEM
9 33 34 35 36 37 38 39 40 41
ATOM$RED        STATIC     ATOMS    COLORGROUP SYSTEM
1 28
