AV-unprocessed.smi:519|AV-procd|sdf|2795|dock1
  -GOLD-   2262023273D 1   1.00000     0.00000
 Structure written by MMmdl.
 36 38  0  0  0  0  0  0  0  0  1 V2000
  153.2198  138.7286  155.3545 O   0  0  0  0  0  0  0  0  0  0  0  0
  152.0178  138.8873  156.0812 C   0  0  0  0  0  0  0  0  0  0  0  0
  152.0292  140.0475  157.0356 C   0  0  0  0  0  0  0  0  0  0  0  0
  152.8309  140.1075  158.1015 N   0  0  0  0  0  0  0  0  0  0  0  0
  152.5051  141.3267  158.6620 C   0  0  0  0  0  0  0  0  0  0  0  0
  153.0049  141.9693  159.8172 C   0  0  0  0  0  0  0  0  0  0  0  0
  152.5116  143.2337  160.2001 C   0  0  0  0  0  0  0  0  0  0  0  0
  151.5157  143.8731  159.4340 C   0  0  0  0  0  0  0  0  0  0  0  0
  151.0056  143.2508  158.2787 C   0  0  0  0  0  0  0  0  0  0  0  0
  151.4990  141.9873  157.9026 C   0  0  0  0  0  0  0  0  0  0  0  0
  151.2150  141.1174  156.8542 N   0  0  0  0  0  0  0  0  0  0  0  0
  150.2372  141.3327  155.7972 C   0  0  0  0  0  0  0  0  0  0  0  0
  149.0622  140.3476  155.8863 C   0  0  0  0  0  0  0  0  0  0  0  0
  147.9348  141.0063  156.4490 O   0  0  0  0  0  0  0  0  0  0  0  0
  147.0747  141.6790  155.6066 C   0  0  0  0  0  0  0  0  0  0  0  0
  147.1615  141.6374  154.1914 C   0  0  0  0  0  0  0  0  0  0  0  0
  146.2461  142.3547  153.3971 C   0  0  0  0  0  0  0  0  0  0  0  0
  145.2353  143.1228  154.0027 C   0  0  0  0  0  0  0  0  0  0  0  0
  145.1395  143.1707  155.4054 C   0  0  0  0  0  0  0  0  0  0  0  0
  146.0524  142.4520  156.2025 C   0  0  0  0  0  0  0  0  0  0  0  0
  145.9079  142.5255  157.9224 Cl  0  0  0  0  0  0  0  0  0  0  0  0
  153.9437  138.7552  155.9609 H   0  0  0  0  0  0  0  0  0  0  0  0
  151.1998  139.0199  155.3726 H   0  0  0  0  0  0  0  0  0  0  0  0
  151.8275  137.9670  156.6335 H   0  0  0  0  0  0  0  0  0  0  0  0
  153.7680  141.4875  160.4103 H   0  0  0  0  0  0  0  0  0  0  0  0
  152.8988  143.7148  161.0863 H   0  0  0  0  0  0  0  0  0  0  0  0
  151.1411  144.8405  159.7351 H   0  0  0  0  0  0  0  0  0  0  0  0
  150.2387  143.7357  157.6932 H   0  0  0  0  0  0  0  0  0  0  0  0
  149.8697  142.3570  155.8692 H   0  0  0  0  0  0  0  0  0  0  0  0
  150.7280  141.2539  154.8273 H   0  0  0  0  0  0  0  0  0  0  0  0
  148.8226  139.9799  154.8877 H   0  0  0  0  0  0  0  0  0  0  0  0
  149.3444  139.4925  156.5023 H   0  0  0  0  0  0  0  0  0  0  0  0
  147.9233  141.0619  153.6881 H   0  0  0  0  0  0  0  0  0  0  0  0
  146.3211  142.3154  152.3202 H   0  0  0  0  0  0  0  0  0  0  0  0
  144.5345  143.6738  153.3928 H   0  0  0  0  0  0  0  0  0  0  0  0
  144.3632  143.7601  155.8706 H   0  0  0  0  0  0  0  0  0  0  0  0
  1  2  1  0  0  0  0
  1 22  1  0  0  0  0
  2  3  1  0  0  0  0
  2 23  1  0  0  0  0
  2 24  1  0  0  0  0
  3 11  1  0  0  0  0
  3  4  2  0  0  0  0
  4  5  1  0  0  0  0
  5 10  2  0  0  0  0
  5  6  1  0  0  0  0
  6  7  2  0  0  0  0
  6 25  1  0  0  0  0
  7  8  1  0  0  0  0
  7 26  1  0  0  0  0
  8  9  2  0  0  0  0
  8 27  1  0  0  0  0
  9 10  1  0  0  0  0
  9 28  1  0  0  0  0
 10 11  1  0  0  0  0
 11 12  1  0  0  0  0
 12 13  1  0  0  0  0
 12 29  1  0  0  0  0
 12 30  1  0  0  0  0
 13 14  1  0  0  0  0
 13 31  1  0  0  0  0
 13 32  1  0  0  0  0
 14 15  1  0  0  0  0
 15 20  1  0  0  0  0
 15 16  2  0  0  0  0
 16 17  1  0  0  0  0
 16 33  1  0  0  0  0
 17 18  2  0  0  0  0
 17 34  1  0  0  0  0
 18 19  1  0  0  0  0
 18 35  1  0  0  0  0
 19 20  2  0  0  0  0
 19 36  1  0  0  0  0
 20 21  1  0  0  0  0
M  END
> <s_m_source_file>
AV-unprocessed.smi

> <i_m_source_file_index>
519

> <i_lp_mmshare_version>
43012

> <i_f3d_flags>
0

> <s_epik_input>
W2NIXTFbY0hdW2NIXVtjSF1jKGMxMiluKGMobjIpW0NIMl1bT0hdKVtDSDJdW0NIMl1PYzNbY0hdW2NIXVtjSF1bY0hdYzNDbA==

> <s_epik_cmdline>
J2VwaWtfcHl0aG9uJywgJy1waCcsICc3LjAnLCAnLXRuJywgJzgnLCAnLW1hJywgJzIwMCcsICctbWV0YWxfYmluZGluZycsICctaW1hZScsICc8aW5maWxlLm1hZT4nLCAnLW9tYWUnLCAnPG91dGZpbGUubWFlPic=

> <r_lp_tautomer_probability>
1

> <r_epik_Ionization_Penalty>
0.045213

> <r_epik_Ionization_Penalty_Charging>
0

> <r_epik_Ionization_Penalty_Neutral>
0.045213

> <r_epik_State_Penalty>
0.0382996

> <r_epik_Charging_Adjusted_Penalty>
0.0382996

> <i_epik_Tot_Q>
0

> <i_epik_Tot_abs_Q>
0

> <r_epik_Metal_State_Penalty>
3.95633e-05

> <b_epik_Metal_Only>
0

> <s_lp_Force_Field>
OPLS_2005

> <r_lp_Energy>
15.9183

> <b_lp_Chiralities_Consistent>
1

> <s_lp_Variant>
AV-unprocessed.smi:519-1

> <Gold.Version>
5.8.1

> <Gold.Id.Protein>
6NUR|6NUR_protein|mol2

> <Gold.PLP.Fitness>
46.1437

> <Gold.PLP.PLP>
-44.3100

> <Gold.PLP.part.hbond>
-2.3509

> <Gold.PLP.part.metal>
0.0000

> <Gold.PLP.part.buried>
-4.9320

> <Gold.PLP.part.nonpolar>
-36.4147

> <Gold.PLP.part.repulsive>
0.0952

> <Gold.PLP.ligand.clash>
0.0000

> <Gold.PLP.ligand.torsion>
0.5958

> <Gold.PLP.Chemscore.Hbond>
0.9920

> <Gold.PLP.Chemscore.CHOScore>
0.0000

> <Gold.PLP.Chemscore.Metal>
0.0000

> <Gold.Chemscore.Hbonds>
donor molecule, donor type, donor heavy atom, donor atom, acceptor molecule, acceptor atom, score
      P1  H  7997  8008       L1     4  0.42

> <Gold.PLP.Chemscore.Internal.Correction>
0.0492

> <Gold.Rescore>
     Score         DG    S(hbond)    S(metal)    S(lipo)     H(rot)  DE(clash)    DE(int)     intcor
     14.42     -15.22       0.66        0.00     112.10       2.17       0.15       0.65       ----

> <Gold.Chemscore.Fitness>
14.4228

> <Gold.Chemscore.DG>
-15.2208

> <Gold.Chemscore.ZeroCoef>
-5.4800

> <Gold.Chemscore.Hbond>
0.6555

> <Gold.Chemscore.Metal>
0.0000

> <Gold.Chemscore.Lipo>
112.0980

> <Gold.Chemscore.Internal_Hbond>
0.0000

> <Gold.Chemscore.DEClash>
0.1475

> <Gold.Chemscore.DEInternal>
0.6505

> <Gold.Chemscore.Rot>
2.1735

> <Gold.Chemscore.Internal.Correction>
   9.000000E+99

> <Gold.Chemscore.Hbonds>
donor molecule, donor type, donor heavy atom, donor atom, acceptor molecule, acceptor atom, score
      P1  H  7997  8008       L1     4  0.01

> <Gold.Chemscore.Hbond.Weighted>
-2.1895

> <Gold.Chemscore.Metal.Weighted>
-0.0000

> <Gold.Chemscore.Lipo.Weighted>
-13.1155

> <Gold.Chemscore.Internal_Hbond.Weighted>
0.0000

> <Gold.Chemscore.DEClash.Weighted>
0.1475

> <Gold.Chemscore.DEInternal.Weighted>
0.6505

> <Gold.Chemscore.Rot.Weighted>
5.5642

> <Gold.Chemscore.Internal.Correction.Weighted>
   9.000000E+99

> <Gold.Protein.RotatedTorsions>
[ 6907 6896 6895 6894 ] final  -87.74 input  -60.11 | X-H torsion
[ 7974 7965 7964 7962 ] final  174.63 input  175.53 | X-H torsion
[ 8008 7997 7996 7995 ] final  -71.43 input   59.86 | X-H torsion
[ 10167 10162 10161 10158 ] final   75.78 input  -65.29 | X-H torsion
[ 10718 10713 10712 10709 ] final   31.18 input   66.30 | X-H torsion
[ 10763 10752 10751 10750 ] final -151.25 input  -60.55 | X-H torsion
[ 11005 11000 10999 10996 ] final  131.35 input  -57.11 | X-H torsion

> <Gold.Protein.ActiveResidues>
 VAL166  LYS551  ARG553  GLY616  TRP617  ASP618  TYR619  PRO620  LYS621  CYS622 
 ASP623  PHE694  ASN695  SER759  ASP760  ASP761  ALA762  ILE779  LEU786  VAL792 
 PHE793  MET794  SER795  GLU796  ALA797  LYS798  CYS799  TRP800  GLU811  SER814 

> <Gold.Protein.RotatedAtoms>
  150.6867  134.2850  159.4642 H   0  0  0  0  0  0  0  0  0  0  0  0  # atno 6907 bound_to 6896
  152.0760  134.9499  160.0583 H   0  0  0  0  0  0  0  0  0  0  0  0  # atno 6908 bound_to 6896
  152.0871  133.4147  159.4564 H   0  0  0  0  0  0  0  0  0  0  0  0  # atno 6909 bound_to 6896
  144.7218  139.9825  143.6439 H   0  0  0  0  0  0  0  0  0  0  0  0  # atno 7974 bound_to 7965
  154.5088  140.0815  156.7947 H   0  0  0  0  0  0  0  0  0  0  0  0  # atno 8008 bound_to 7997
  155.3833  140.3429  155.4229 H   0  0  0  0  0  0  0  0  0  0  0  0  # atno 8009 bound_to 7997
  156.1547  140.1569  156.8699 H   0  0  0  0  0  0  0  0  0  0  0  0  # atno 8010 bound_to 7997
  139.9993  144.5698  150.7751 H   0  0  0  0  0  0  0  0  0  0  0  0  # atno 10167 bound_to 10162
  157.2691  130.7199  149.6495 H   0  0  0  0  0  0  0  0  0  0  0  0  # atno 10718 bound_to 10713
  154.8069  135.3264  154.7407 H   0  0  0  0  0  0  0  0  0  0  0  0  # atno 10763 bound_to 10752
  153.8063  135.6899  153.4852 H   0  0  0  0  0  0  0  0  0  0  0  0  # atno 10764 bound_to 10752
  153.1821  135.4583  154.9986 H   0  0  0  0  0  0  0  0  0  0  0  0  # atno 10765 bound_to 10752
  139.9725  134.9573  156.9425 H   0  0  0  0  0  0  0  0  0  0  0  0  # atno 11005 bound_to 11000
  146.0476  139.3480  143.0659 LP  0  0  0  0  0  0  0  0  0  0  0  0  # atno 17320 bound_to 7965
  145.8256  140.9657  143.0876 LP  0  0  0  0  0  0  0  0  0  0  0  0  # atno 17321 bound_to 7965
  140.7425  143.2833  151.3536 LP  0  0  0  0  0  0  0  0  0  0  0  0  # atno 17342 bound_to 10162
  139.6283  144.0770  152.2454 LP  0  0  0  0  0  0  0  0  0  0  0  0  # atno 17343 bound_to 10162
  155.9663  130.4373  150.5170 LP  0  0  0  0  0  0  0  0  0  0  0  0  # atno 17370 bound_to 10713
  157.3091  131.0660  151.2014 LP  0  0  0  0  0  0  0  0  0  0  0  0  # atno 17371 bound_to 10713
  140.5264  134.0857  155.7304 LP  0  0  0  0  0  0  0  0  0  0  0  0  # atno 17394 bound_to 11000
  141.1404  133.9148  157.2339 LP  0  0  0  0  0  0  0  0  0  0  0  0  # atno 17395 bound_to 11000

$$$$
