AV-unprocessed.smi:2973|AV-procd|sdf|11347|dock1
  -GOLD-   2272016263D 1   1.00000     0.00000
 Structure written by MMmdl.
 48 50  0  0  0  0  0  0  0  0  2 V2000
  150.5200  139.9544  157.2036 C   0  0  0  0  0  0  0  0  0  0  0  0
  151.3726  140.0725  158.4867 C   0  0  2  0  0  0  0  0  0  0  0  0
  152.0714  141.4475  158.5586 C   0  0  0  0  0  0  0  0  0  0  0  0
  152.8324  141.6332  159.8799 C   0  0  0  0  0  0  0  0  0  0  0  0
  153.8539  140.5088  160.0926 C   0  0  0  0  0  0  0  0  0  0  0  0
  153.1813  139.1261  160.0333 C   0  0  0  0  0  0  0  0  0  0  0  0
  152.3851  138.9032  158.7208 C   0  0  2  0  0  0  0  0  0  0  0  0
  153.2994  138.7445  157.6006 N   0  5  0  0  0  0  0  0  0  0  0  0
  153.1583  137.5000  157.0892 C   0  0  0  0  0  0  0  0  0  0  0  0
  153.7650  137.0257  156.1298 O   0  0  0  0  0  0  0  0  0  0  0  0
  152.2238  136.8033  157.7641 N   0  0  0  0  0  0  0  0  0  0  0  0
  151.7933  135.4329  157.4446 C   0  0  0  0  0  0  0  0  0  0  0  0
  151.0975  135.2717  156.0813 C   0  0  0  0  0  0  0  0  0  0  0  0
  151.2893  136.1194  155.2099 O   0  0  0  0  0  0  0  0  0  0  0  0
  150.2989  134.2070  155.8936 N   0  0  0  0  0  0  0  0  0  0  0  0
  149.5437  133.9196  154.6809 C   0  0  0  0  0  0  0  0  0  0  0  0
  149.0233  132.4723  154.6724 C   0  0  0  0  0  0  0  0  0  0  0  0
  147.9701  132.2441  153.6050 C   0  0  0  0  0  0  0  0  0  0  0  0
  147.6968  133.2369  152.6397 C   0  0  0  0  0  0  0  0  0  0  0  0
  146.7122  132.9747  151.6673 C   0  0  0  0  0  0  0  0  0  0  0  0
  146.0425  131.7363  151.6973 C   0  0  0  0  0  0  0  0  0  0  0  0
  146.3901  130.8105  152.7014 C   0  0  0  0  0  0  0  0  0  0  0  0
  147.3337  131.0513  153.6369 N   0  0  0  0  0  0  0  0  0  0  0  0
  151.7031  137.5430  158.7494 C   0  0  0  0  0  0  0  0  0  0  0  0
  150.8195  137.2193  159.5444 O   0  0  0  0  0  0  0  0  0  0  0  0
  151.1389  139.9678  156.3062 H   0  0  0  0  0  0  0  0  0  0  0  0
  149.8172  140.7841  157.1271 H   0  0  0  0  0  0  0  0  0  0  0  0
  149.9304  139.0380  157.1892 H   0  0  0  0  0  0  0  0  0  0  0  0
  150.6652  140.0485  159.3175 H   0  0  0  0  0  0  0  0  0  0  0  0
  152.7617  141.5579  157.7213 H   0  0  0  0  0  0  0  0  0  0  0  0
  151.3353  142.2452  158.4541 H   0  0  0  0  0  0  0  0  0  0  0  0
  153.3377  142.5992  159.8843 H   0  0  0  0  0  0  0  0  0  0  0  0
  152.1265  141.6491  160.7112 H   0  0  0  0  0  0  0  0  0  0  0  0
  154.6336  140.5742  159.3327 H   0  0  0  0  0  0  0  0  0  0  0  0
  154.3523  140.6372  161.0536 H   0  0  0  0  0  0  0  0  0  0  0  0
  153.9360  138.3484  160.1639 H   0  0  0  0  0  0  0  0  0  0  0  0
  152.5085  139.0346  160.8875 H   0  0  0  0  0  0  0  0  0  0  0  0
  152.6549  134.7640  157.4701 H   0  0  0  0  0  0  0  0  0  0  0  0
  151.1180  135.0645  158.2184 H   0  0  0  0  0  0  0  0  0  0  0  0
  150.1925  133.5591  156.6616 H   0  0  0  0  0  0  0  0  0  0  0  0
  148.7179  134.6255  154.5774 H   0  0  0  0  0  0  0  0  0  0  0  0
  150.2033  134.0839  153.8282 H   0  0  0  0  0  0  0  0  0  0  0  0
  149.8501  131.7796  154.5079 H   0  0  0  0  0  0  0  0  0  0  0  0
  148.6014  132.2171  155.6454 H   0  0  0  0  0  0  0  0  0  0  0  0
  148.2292  134.1769  152.6425 H   0  0  0  0  0  0  0  0  0  0  0  0
  146.4753  133.7104  150.9131 H   0  0  0  0  0  0  0  0  0  0  0  0
  145.2809  131.5015  150.9684 H   0  0  0  0  0  0  0  0  0  0  0  0
  145.8966  129.8513  152.7547 H   0  0  0  0  0  0  0  0  0  0  0  0
  1  2  1  0  0  0  0
  1 26  1  0  0  0  0
  1 27  1  0  0  0  0
  1 28  1  0  0  0  0
  2  7  1  0  0  0  0
  2  3  1  0  0  0  0
  2 29  1  0  0  0  0
  3  4  1  0  0  0  0
  3 30  1  0  0  0  0
  3 31  1  0  0  0  0
  4  5  1  0  0  0  0
  4 32  1  0  0  0  0
  4 33  1  0  0  0  0
  5  6  1  0  0  0  0
  5 34  1  0  0  0  0
  5 35  1  0  0  0  0
  6  7  1  0  0  0  0
  6 36  1  0  0  0  0
  6 37  1  0  0  0  0
  7 24  1  0  0  0  0
  7  8  1  0  0  0  0
  8  9  1  0  0  0  0
  9 10  2  0  0  0  0
  9 11  1  0  0  0  0
 11 12  1  0  0  0  0
 11 24  1  0  0  0  0
 12 13  1  0  0  0  0
 12 38  1  0  0  0  0
 12 39  1  0  0  0  0
 13 14  2  0  0  0  0
 13 15  1  0  0  0  0
 15 16  1  0  0  0  0
 15 40  1  0  0  0  0
 16 17  1  0  0  0  0
 16 41  1  0  0  0  0
 16 42  1  0  0  0  0
 17 18  1  0  0  0  0
 17 43  1  0  0  0  0
 17 44  1  0  0  0  0
 18 23  1  0  0  0  0
 18 19  2  0  0  0  0
 19 20  1  0  0  0  0
 19 45  1  0  0  0  0
 20 21  2  0  0  0  0
 20 46  1  0  0  0  0
 21 22  1  0  0  0  0
 21 47  1  0  0  0  0
 22 23  2  0  0  0  0
 22 48  1  0  0  0  0
 24 25  2  0  0  0  0
M  CHG  1   8  -1
M  END
> <s_m_source_file>
AV-unprocessed.smi

> <i_m_source_file_index>
2973

> <i_lp_mmshare_version>
43012

> <i_f3d_flags>
0

> <s_epik_input>
W0NIMl0xW0NIMl1bQ0gyXVtDSDJdW0NAQEhdKFtDSDNdKVtDQF0xMltOSF1DKD1PKU4oQzI9TylbQ0gyXUMoPU8pW05IXVtDSDJdW0NIMl1jM1tjSF1bY0hdW2NIXVtjSF1uMw==

> <s_epik_cmdline>
J2VwaWtfcHl0aG9uJywgJy1waCcsICc3LjAnLCAnLXRuJywgJzgnLCAnLW1hJywgJzIwMCcsICctbWV0YWxfYmluZGluZycsICctaW1hZScsICc8aW5maWxlLm1hZT4nLCAnLW9tYWUnLCAnPG91dGZpbGUubWFlPic=

> <r_lp_tautomer_probability>
1

> <r_epik_Ionization_Penalty>
6.04175

> <r_epik_Ionization_Penalty_Charging>
6.01728

> <r_epik_Ionization_Penalty_Neutral>
0.0244696

> <r_epik_State_Penalty>
6.03712

> <r_epik_Charging_Adjusted_Penalty>
12.0544

> <i_epik_Tot_Q>
-1

> <i_epik_Tot_abs_Q>
1

> <r_epik_Metal_State_Penalty>
2.01153

> <b_epik_Metal_Only>
1

> <s_lp_Force_Field>
OPLS_2005

> <r_lp_Energy>
17.3345

> <b_lp_Chiralities_Consistent>
1

> <s_lp_Variant>
AV-unprocessed.smi:2973-11

> <Gold.Version>
5.8.1

> <Gold.Id.Protein>
6NUR|6NUR_protein|mol2

> <Gold.PLP.Fitness>
48.6607

> <Gold.PLP.PLP>
-37.4961

> <Gold.PLP.part.hbond>
-4.0000

> <Gold.PLP.part.metal>
0.0000

> <Gold.PLP.part.buried>
-1.7825

> <Gold.PLP.part.nonpolar>
-32.3816

> <Gold.PLP.part.repulsive>
0.3195

> <Gold.PLP.ligand.clash>
0.0000

> <Gold.PLP.ligand.torsion>
0.5389

> <Gold.PLP.Chemscore.Hbond>
4.0592

> <Gold.PLP.Chemscore.CHOScore>
0.0000

> <Gold.PLP.Chemscore.Metal>
0.0000

> <Gold.Chemscore.Hbonds>
donor molecule, donor type, donor heavy atom, donor atom, acceptor molecule, acceptor atom, score
      P1  H  6896  6907       L1    25  0.63
      P1  H  7997  8009       L1     8  2.00
      P1  H 10752 10763       L1    10  0.30
      P1  H 10752 10765       L1    14  0.83

> <Gold.PLP.Chemscore.Internal.Correction>
0.0647

> <Gold.Rescore>
     Score         DG    S(hbond)    S(metal)    S(lipo)     H(rot)  DE(clash)    DE(int)     intcor
     15.67     -19.00       2.21        0.00      92.02       1.81       0.49       2.83       ----

> <Gold.Chemscore.Fitness>
15.6741

> <Gold.Chemscore.DG>
-18.9995

> <Gold.Chemscore.ZeroCoef>
-5.4800

> <Gold.Chemscore.Hbond>
2.2107

> <Gold.Chemscore.Metal>
0.0000

> <Gold.Chemscore.Lipo>
92.0221

> <Gold.Chemscore.Internal_Hbond>
0.0000

> <Gold.Chemscore.DEClash>
0.4950

> <Gold.Chemscore.DEInternal>
2.8304

> <Gold.Chemscore.Rot>
1.8090

> <Gold.Chemscore.Internal.Correction>
   9.000000E+99

> <Gold.Chemscore.Hbonds>
donor molecule, donor type, donor heavy atom, donor atom, acceptor molecule, acceptor atom, score
      P1  H  6896  6907       L1    25  0.17
      P1  H  7997  8009       L1     8  0.99
      P1  H 10752 10763       L1    10  0.30
      P1  H 10752 10765       L1    14  0.53

> <Gold.Chemscore.Hbond.Weighted>
-7.3839

> <Gold.Chemscore.Metal.Weighted>
-0.0000

> <Gold.Chemscore.Lipo.Weighted>
-10.7666

> <Gold.Chemscore.Internal_Hbond.Weighted>
0.0000

> <Gold.Chemscore.DEClash.Weighted>
0.4950

> <Gold.Chemscore.DEInternal.Weighted>
2.8304

> <Gold.Chemscore.Rot.Weighted>
4.6310

> <Gold.Chemscore.Internal.Correction.Weighted>
   9.000000E+99

> <Gold.Protein.RotatedTorsions>
[ 6907 6896 6895 6894 ] final   -8.70 input  -60.11 | X-H torsion
[ 7974 7965 7964 7962 ] final -119.49 input  175.53 | X-H torsion
[ 8008 7997 7996 7995 ] final  152.50 input   59.86 | X-H torsion
[ 10167 10162 10161 10158 ] final  -62.47 input  -65.29 | X-H torsion
[ 10718 10713 10712 10709 ] final -116.12 input   66.30 | X-H torsion
[ 10763 10752 10751 10750 ] final  157.41 input  -60.55 | X-H torsion
[ 11005 11000 10999 10996 ] final   50.84 input  -57.11 | X-H torsion

> <Gold.Protein.ActiveResidues>
 VAL166  LYS551  ARG553  GLY616  TRP617  ASP618  TYR619  PRO620  LYS621  CYS622 
 ASP623  PHE694  ASN695  SER759  ASP760  ASP761  ALA762  ILE779  LEU786  VAL792 
 PHE793  MET794  SER795  GLU796  ALA797  LYS798  CYS799  TRP800  GLU811  SER814 

> <Gold.Protein.RotatedAtoms>
  151.4295  135.1008  159.9637 H   0  0  0  0  0  0  0  0  0  0  0  0  # atno 6907 bound_to 6896
  152.4961  133.8631  159.7270 H   0  0  0  0  0  0  0  0  0  0  0  0  # atno 6908 bound_to 6896
  150.9165  133.6875  159.2870 H   0  0  0  0  0  0  0  0  0  0  0  0  # atno 6909 bound_to 6896
  145.0619  140.8296  143.4147 H   0  0  0  0  0  0  0  0  0  0  0  0  # atno 7974 bound_to 7965
  156.2626  140.2019  156.6343 H   0  0  0  0  0  0  0  0  0  0  0  0  # atno 8008 bound_to 7997
  154.6659  140.0555  157.0137 H   0  0  0  0  0  0  0  0  0  0  0  0  # atno 8009 bound_to 7997
  155.1208  140.3224  155.4500 H   0  0  0  0  0  0  0  0  0  0  0  0  # atno 8010 bound_to 7997
  140.5937  143.2346  151.6083 H   0  0  0  0  0  0  0  0  0  0  0  0  # atno 10167 bound_to 10162
  156.0942  130.6118  150.8994 H   0  0  0  0  0  0  0  0  0  0  0  0  # atno 10718 bound_to 10713
  154.1997  135.2791  155.2995 H   0  0  0  0  0  0  0  0  0  0  0  0  # atno 10763 bound_to 10752
  154.5864  135.5573  153.7238 H   0  0  0  0  0  0  0  0  0  0  0  0  # atno 10764 bound_to 10752
  153.0091  135.6357  154.2136 H   0  0  0  0  0  0  0  0  0  0  0  0  # atno 10765 bound_to 10752
  140.0983  134.5115  155.8786 H   0  0  0  0  0  0  0  0  0  0  0  0  # atno 11005 bound_to 11000
  145.1398  139.2579  143.5496 LP  0  0  0  0  0  0  0  0  0  0  0  0  # atno 17320 bound_to 7965
  146.3525  140.1072  142.8605 LP  0  0  0  0  0  0  0  0  0  0  0  0  # atno 17321 bound_to 7965
  139.5244  144.3105  152.0997 LP  0  0  0  0  0  0  0  0  0  0  0  0  # atno 17342 bound_to 10162
  140.2274  144.4404  150.6315 LP  0  0  0  0  0  0  0  0  0  0  0  0  # atno 17343 bound_to 10162
  157.6098  131.0937  150.8814 LP  0  0  0  0  0  0  0  0  0  0  0  0  # atno 17370 bound_to 10713
  156.8956  130.5228  149.5284 LP  0  0  0  0  0  0  0  0  0  0  0  0  # atno 17371 bound_to 10713
  141.2098  133.6688  156.6467 LP  0  0  0  0  0  0  0  0  0  0  0  0  # atno 17394 bound_to 11000
  140.3255  134.7972  157.4286 LP  0  0  0  0  0  0  0  0  0  0  0  0  # atno 17395 bound_to 11000

$$$$
