AV-unprocessed.smi:2233|AV-procd|sdf|9041|dock1
  -GOLD-   2272012253D 1   1.00000     0.00000
 Structure written by MMmdl.
 42 43  0  0  0  0  0  0  0  0  1 V2000
  153.6805  141.7912  161.4547 C   0  0  0  0  0  0  0  0  0  0  0  0
  153.0034  142.8071  161.4786 C   0  0  0  0  0  0  0  0  0  0  0  0
  152.1920  144.0371  161.4909 C   0  0  0  0  0  0  0  0  0  0  0  0
  151.3683  144.2772  160.2124 C   0  0  0  0  0  0  0  0  0  0  0  0
  152.2083  144.3684  158.9254 C   0  0  0  0  0  0  0  0  0  0  0  0
  151.3748  144.0871  157.6620 C   0  0  0  0  0  0  0  0  0  0  0  0
  151.3200  142.6024  157.2857 C   0  0  0  0  0  0  0  0  0  0  0  0
  151.9078  141.7667  157.9721 O   0  0  0  0  0  0  0  0  0  0  0  0
  150.5890  142.3126  156.1948 N   0  0  0  0  0  0  0  0  0  0  0  0
  150.3535  141.0438  155.5926 C   0  0  0  0  0  0  0  0  0  0  0  0
  151.3549  140.0489  155.4671 C   0  0  0  0  0  0  0  0  0  0  0  0
  151.1503  138.8537  154.8747 N   0  0  0  0  0  0  0  0  0  0  0  0
  149.9260  138.5988  154.3715 C   0  0  0  0  0  0  0  0  0  0  0  0
  148.8619  139.5185  154.4253 C   0  0  0  0  0  0  0  0  0  0  0  0
  149.0769  140.7716  155.0418 C   0  0  0  0  0  0  0  0  0  0  0  0
  148.0488  141.7251  155.1240 N   0  0  0  0  0  0  0  0  0  0  0  0
  147.3715  141.9955  153.8625 C   0  0  0  0  0  0  0  0  0  0  0  0
  146.3826  143.1599  154.0431 C   0  0  0  0  0  0  0  0  0  0  0  0
  145.4697  142.8500  155.0927 O   0  0  0  0  0  0  0  0  0  0  0  0
  146.1316  142.6527  156.3397 C   0  0  0  0  0  0  0  0  0  0  0  0
  147.1221  141.4811  156.2209 C   0  0  0  0  0  0  0  0  0  0  0  0
  154.2727  140.9041  161.4288 H   0  0  0  0  0  0  0  0  0  0  0  0
  151.5358  143.9940  162.3606 H   0  0  0  0  0  0  0  0  0  0  0  0
  152.8744  144.8720  161.6524 H   0  0  0  0  0  0  0  0  0  0  0  0
  150.6498  143.4634  160.1074 H   0  0  0  0  0  0  0  0  0  0  0  0
  150.7760  145.1863  160.3262 H   0  0  0  0  0  0  0  0  0  0  0  0
  152.6561  145.3601  158.8497 H   0  0  0  0  0  0  0  0  0  0  0  0
  153.0347  143.6586  158.9846 H   0  0  0  0  0  0  0  0  0  0  0  0
  150.3583  144.4555  157.8087 H   0  0  0  0  0  0  0  0  0  0  0  0
  151.7878  144.6375  156.8159 H   0  0  0  0  0  0  0  0  0  0  0  0
  150.0797  143.0830  155.7860 H   0  0  0  0  0  0  0  0  0  0  0  0
  152.3610  140.2064  155.8236 H   0  0  0  0  0  0  0  0  0  0  0  0
  149.7905  137.6335  153.9064 H   0  0  0  0  0  0  0  0  0  0  0  0
  147.9023  139.2595  154.0027 H   0  0  0  0  0  0  0  0  0  0  0  0
  148.1050  142.2403  153.0934 H   0  0  0  0  0  0  0  0  0  0  0  0
  146.8348  141.1067  153.5285 H   0  0  0  0  0  0  0  0  0  0  0  0
  146.9112  144.0876  154.2686 H   0  0  0  0  0  0  0  0  0  0  0  0
  145.8239  143.3264  153.1222 H   0  0  0  0  0  0  0  0  0  0  0  0
  146.6466  143.5674  156.6380 H   0  0  0  0  0  0  0  0  0  0  0  0
  145.3878  142.4404  157.1076 H   0  0  0  0  0  0  0  0  0  0  0  0
  146.5789  140.5518  156.0433 H   0  0  0  0  0  0  0  0  0  0  0  0
  147.6735  141.3604  157.1543 H   0  0  0  0  0  0  0  0  0  0  0  0
  1  2  3  0  0  0  0
  1 22  1  0  0  0  0
  2  3  1  0  0  0  0
  3  4  1  0  0  0  0
  3 23  1  0  0  0  0
  3 24  1  0  0  0  0
  4  5  1  0  0  0  0
  4 25  1  0  0  0  0
  4 26  1  0  0  0  0
  5  6  1  0  0  0  0
  5 27  1  0  0  0  0
  5 28  1  0  0  0  0
  6  7  1  0  0  0  0
  6 29  1  0  0  0  0
  6 30  1  0  0  0  0
  7  8  2  0  0  0  0
  7  9  1  0  0  0  0
  9 10  1  0  0  0  0
  9 31  1  0  0  0  0
 10 15  1  0  0  0  0
 10 11  2  0  0  0  0
 11 12  1  0  0  0  0
 11 32  1  0  0  0  0
 12 13  2  0  0  0  0
 13 14  1  0  0  0  0
 13 33  1  0  0  0  0
 14 15  2  0  0  0  0
 14 34  1  0  0  0  0
 15 16  1  0  0  0  0
 16 21  1  0  0  0  0
 16 17  1  0  0  0  0
 17 18  1  0  0  0  0
 17 35  1  0  0  0  0
 17 36  1  0  0  0  0
 18 19  1  0  0  0  0
 18 37  1  0  0  0  0
 18 38  1  0  0  0  0
 19 20  1  0  0  0  0
 20 21  1  0  0  0  0
 20 39  1  0  0  0  0
 20 40  1  0  0  0  0
 21 41  1  0  0  0  0
 21 42  1  0  0  0  0
M  END
> <s_m_source_file>
AV-unprocessed.smi

> <i_m_source_file_index>
2233

> <i_lp_mmshare_version>
43012

> <i_f3d_flags>
0

> <s_epik_input>
W0NIXSNDW0NIMl1bQ0gyXVtDSDJdW0NIMl1DKD1PKVtOSF1jMVtjSF1uW2NIXVtjSF1jMU4yW0NIMl1bQ0gyXU9bQ0gyXVtDSDJdMg==

> <s_epik_cmdline>
J2VwaWtfcHl0aG9uJywgJy1waCcsICc3LjAnLCAnLXRuJywgJzgnLCAnLW1hJywgJzIwMCcsICctbWV0YWxfYmluZGluZycsICctaW1hZScsICc8aW5maWxlLm1hZT4nLCAnLW9tYWUnLCAnPG91dGZpbGUubWFlPic=

> <r_lp_tautomer_probability>
1

> <r_epik_Ionization_Penalty>
0.8765

> <r_epik_Ionization_Penalty_Charging>
0

> <r_epik_Ionization_Penalty_Neutral>
0.8765

> <r_epik_State_Penalty>
0.914306

> <r_epik_Charging_Adjusted_Penalty>
0.914306

> <i_epik_Tot_Q>
0

> <i_epik_Tot_abs_Q>
0

> <r_epik_Metal_State_Penalty>
0.361009

> <b_epik_Metal_Only>
0

> <s_lp_Force_Field>
OPLS_2005

> <r_lp_Energy>
23.7364

> <b_lp_Chiralities_Consistent>
1

> <s_lp_Variant>
AV-unprocessed.smi:2233-2

> <Gold.Version>
5.8.1

> <Gold.Id.Protein>
6NUR|6NUR_protein|mol2

> <Gold.PLP.Fitness>
52.2881

> <Gold.PLP.PLP>
-48.3577

> <Gold.PLP.part.hbond>
-1.0000

> <Gold.PLP.part.metal>
0.0000

> <Gold.PLP.part.buried>
-5.5279

> <Gold.PLP.part.nonpolar>
-41.8070

> <Gold.PLP.part.repulsive>
0.5235

> <Gold.PLP.ligand.clash>
0.0000

> <Gold.PLP.ligand.torsion>
0.9650

> <Gold.PLP.Chemscore.Hbond>
1.0000

> <Gold.PLP.Chemscore.CHOScore>
0.8967

> <Gold.PLP.Chemscore.Metal>
0.0000

> <Gold.Chemscore.Hbonds>
donor molecule, donor type, donor heavy atom, donor atom, acceptor molecule, acceptor atom, score
      L1  H     9    31       P1  8028  1.00
      L1  C    13    33       P1  7948  0.87

> <Gold.PLP.Chemscore.Internal.Correction>
0.1703

> <Gold.Rescore>
     Score         DG    S(hbond)    S(metal)    S(lipo)     H(rot)  DE(clash)    DE(int)     intcor
     17.08     -18.38       0.99        0.00     114.56       1.49       0.05       1.25       ----

> <Gold.Chemscore.Fitness>
17.0751

> <Gold.Chemscore.DG>
-18.3754

> <Gold.Chemscore.ZeroCoef>
-5.4800

> <Gold.Chemscore.Hbond>
0.9884

> <Gold.Chemscore.Metal>
0.0000

> <Gold.Chemscore.Lipo>
114.5637

> <Gold.Chemscore.Internal_Hbond>
0.0000

> <Gold.Chemscore.DEClash>
0.0494

> <Gold.Chemscore.DEInternal>
1.2509

> <Gold.Chemscore.Rot>
1.4882

> <Gold.Chemscore.Internal.Correction>
   9.000000E+99

> <Gold.Chemscore.Hbonds>
donor molecule, donor type, donor heavy atom, donor atom, acceptor molecule, acceptor atom, score
      L1  H     9    31       P1  8028  0.93

> <Gold.Chemscore.Hbond.Weighted>
-3.3013

> <Gold.Chemscore.Metal.Weighted>
-0.0000

> <Gold.Chemscore.Lipo.Weighted>
-13.4039

> <Gold.Chemscore.Internal_Hbond.Weighted>
0.0000

> <Gold.Chemscore.DEClash.Weighted>
0.0494

> <Gold.Chemscore.DEInternal.Weighted>
1.2509

> <Gold.Chemscore.Rot.Weighted>
3.8099

> <Gold.Chemscore.Internal.Correction.Weighted>
   9.000000E+99

> <Gold.Protein.RotatedTorsions>
[ 6907 6896 6895 6894 ] final  -55.63 input  -60.11 | X-H torsion
[ 7974 7965 7964 7962 ] final -115.11 input  175.53 | X-H torsion
[ 8008 7997 7996 7995 ] final -155.53 input   59.86 | X-H torsion
[ 10167 10162 10161 10158 ] final  116.77 input  -65.29 | X-H torsion
[ 10718 10713 10712 10709 ] final    0.25 input   66.30 | X-H torsion
[ 10763 10752 10751 10750 ] final   52.20 input  -60.55 | X-H torsion
[ 11005 11000 10999 10996 ] final  -55.85 input  -57.11 | X-H torsion

> <Gold.Protein.ActiveResidues>
 VAL166  LYS551  ARG553  GLY616  TRP617  ASP618  TYR619  PRO620  LYS621  CYS622 
 ASP623  PHE694  ASN695  SER759  ASP760  ASP761  ALA762  ILE779  LEU786  VAL792 
 PHE793  MET794  SER795  GLU796  ALA797  LYS798  CYS799  TRP800  GLU811  SER814 

> <Gold.Protein.RotatedAtoms>
  150.8235  134.7455  159.6792 H   0  0  0  0  0  0  0  0  0  0  0  0  # atno 6907 bound_to 6896
  152.4348  134.5704  159.9929 H   0  0  0  0  0  0  0  0  0  0  0  0  # atno 6908 bound_to 6896
  151.5882  133.3332  159.3058 H   0  0  0  0  0  0  0  0  0  0  0  0  # atno 6909 bound_to 6896
  145.1123  140.8619  143.3863 H   0  0  0  0  0  0  0  0  0  0  0  0  # atno 7974 bound_to 7965
  155.7032  140.0769  157.2401 H   0  0  0  0  0  0  0  0  0  0  0  0  # atno 8008 bound_to 7997
  154.4070  140.1643  156.2267 H   0  0  0  0  0  0  0  0  0  0  0  0  # atno 8009 bound_to 7997
  155.9349  140.3388  155.6282 H   0  0  0  0  0  0  0  0  0  0  0  0  # atno 8010 bound_to 7997
  139.6224  144.7103  151.2605 H   0  0  0  0  0  0  0  0  0  0  0  0  # atno 10167 bound_to 10162
  156.8306  130.5487  149.5687 H   0  0  0  0  0  0  0  0  0  0  0  0  # atno 10718 bound_to 10713
  152.9788  135.5820  154.4539 H   0  0  0  0  0  0  0  0  0  0  0  0  # atno 10763 bound_to 10752
  154.4125  135.2770  155.2030 H   0  0  0  0  0  0  0  0  0  0  0  0  # atno 10764 bound_to 10752
  154.3814  135.6146  153.5847 H   0  0  0  0  0  0  0  0  0  0  0  0  # atno 10765 bound_to 10752
  141.1093  133.6611  156.4531 H   0  0  0  0  0  0  0  0  0  0  0  0  # atno 11005 bound_to 11000
  145.0833  139.2943  143.5772 LP  0  0  0  0  0  0  0  0  0  0  0  0  # atno 17320 bound_to 7965
  146.3525  140.0346  142.8647 LP  0  0  0  0  0  0  0  0  0  0  0  0  # atno 17321 bound_to 7965
  140.7390  143.6630  150.8147 LP  0  0  0  0  0  0  0  0  0  0  0  0  # atno 17342 bound_to 10162
  140.0243  143.5509  152.2787 LP  0  0  0  0  0  0  0  0  0  0  0  0  # atno 17343 bound_to 10162
  156.0936  130.5915  150.9776 LP  0  0  0  0  0  0  0  0  0  0  0  0  # atno 17370 bound_to 10713
  157.6409  131.0910  150.8253 LP  0  0  0  0  0  0  0  0  0  0  0  0  # atno 17371 bound_to 10713
  140.4818  134.6657  157.5174 LP  0  0  0  0  0  0  0  0  0  0  0  0  # atno 17394 bound_to 11000
  139.9978  134.6883  155.9580 LP  0  0  0  0  0  0  0  0  0  0  0  0  # atno 17395 bound_to 11000

$$$$
