#       Name:                AV-unprocessed.smi:1213
#       Creating user name   scv26
#       Creation time:       Fri Mar 27 04:14:06 2020


#       File generated by GOLD software.
#

@<TRIPOS>MOLECULE
AV-unprocessed.smi:1213
    42    43     1
SMALL
NO_CHARGES


@<TRIPOS>ATOM
      1 ****        -4.4983   2.6789  -2.0785 N.pl3          1 S1                -1.0000
      2 ****        -3.5706   2.0468  -2.8224 C.2            1 S1                 0.0000
      3 ****        -3.1595   2.3556  -3.9392 O.2            1 S1                 0.0000
      4 ****        -2.9891   0.8176  -2.1152 C.3            1 S1                 0.0000
      5 ****        -1.5186   0.9566  -1.9685 N.4            1 S1                 1.0000
      6 ****        -0.8377  -0.3575  -1.8520 C.3            1 S1                 0.0000
      7 ****         0.6922  -0.1930  -1.8531 C.3            1 S1                 0.0000
      8 ****         1.1711   0.7669  -0.7459 C.3            1 S1                 0.0000
      9 ****         1.0177   0.1830   0.5864 N.am           1 S1                 0.0000
     10 ****         1.8317  -0.7348   1.1283 C.2            1 S1                 0.0000
     11 ****         2.8090  -1.2031   0.5440 O.2            1 S1                 0.0000
     12 ****         1.4362  -1.0639   2.3705 N.am           1 S1                 0.0000
     13 ****         2.0279  -1.9985   3.2605 C.2            1 S1                 0.0000
     14 ****         3.1052  -2.7376   2.9715 N.2            1 S1                 0.0000
     15 ****         3.4687  -3.5714   4.0322 C.2            1 S1                 0.0000
     16 ****         2.6507  -3.4536   5.1281 C.2            1 S1                 0.0000
     17 ****         1.3827  -2.2852   4.8699 S.3            1 S1                 0.0000
     18 ****         0.4004   2.0947  -0.8435 C.3            1 S1                 0.0000
     19 ****        -1.1236   1.8786  -0.8695 C.3            1 S1                 0.0000
     20 ****        -4.7379   2.3006  -1.1545 H              1 S1                 0.0000
     21 ****        -3.4509   0.6280  -1.1438 H              1 S1                 0.0000
     22 ****        -3.2209  -0.0441  -2.7427 H              1 S1                 0.0000
     23 ****        -1.1668  -0.8614  -0.9418 H              1 S1                 0.0000
     24 ****        -1.1258  -0.9958  -2.6880 H              1 S1                 0.0000
     25 ****         1.1733  -1.1666  -1.7555 H              1 S1                 0.0000
     26 ****         1.0048   0.1984  -2.8221 H              1 S1                 0.0000
     27 ****         2.2309   0.9798  -0.8983 H              1 S1                 0.0000
     28 ****         0.2415   0.5131   1.1413 H              1 S1                 0.0000
     29 ****         0.6174  -0.5904   2.7225 H              1 S1                 0.0000
     30 ****         4.3266  -4.2182   3.9213 H              1 S1                 0.0000
     31 ****         2.7170  -3.9818   6.0676 H              1 S1                 0.0000
     32 ****         0.6724   2.7525  -0.0169 H              1 S1                 0.0000
     33 ****         0.6990   2.6151  -1.7544 H              1 S1                 0.0000
     34 ****        -1.6138   2.8447  -0.9928 H              1 S1                 0.0000
     35 ****        -1.4657   1.4757   0.0849 H              1 S1                 0.0000
     36 ****        -1.1954   1.3708  -2.8314 H              1 S1                 0.0000
     37 ****        -4.9472   3.5043  -2.4208 LP             1 S1                 0.0000
     38 ****        -3.5230   3.1656  -4.3994 LP             1 S1                 0.0000
     39 ****        -2.4618   1.7968  -4.3873 LP             1 S1                 0.0000
     40 ****         3.0294  -0.9006  -0.3833 LP             1 S1                 0.0000
     41 ****         3.3823  -1.8860   0.9967 LP             1 S1                 0.0000
     42 ****         3.5926  -2.6979   2.0993 LP             1 S1                 0.0000
@<TRIPOS>BOND
    1    1    2 1     
    2    1   20 1     
    3    2    3 2     
    4    2    4 1     
    5    4    5 1     
    6    4   21 1     
    7    4   22 1     
    8    5   19 1     
    9    5    6 1     
   10    5   36 1     
   11    6    7 1     
   12    6   23 1     
   13    6   24 1     
   14    7    8 1     
   15    7   25 1     
   16    7   26 1     
   17    8    9 1     
   18    8   18 1     
   19    8   27 1     
   20    9   10 am    
   21    9   28 1     
   22   10   11 2     
   23   10   12 am    
   24   12   13 1     
   25   12   29 1     
   26   13   17 1     
   27   13   14 2     
   28   14   15 1     
   29   15   16 2     
   30   15   30 1     
   31   16   17 1     
   32   16   31 1     
   33   18   19 1     
   34   18   32 1     
   35   18   33 1     
   36   19   34 1     
   37   19   35 1     
   38    1   37 1     
   39    3   38 1     
   40    3   39 1     
   41   11   40 1     
   42   11   41 1     
   43   14   42 1     
@<TRIPOS>SUBSTRUCTURE
      1 S1             1
@<TRIPOS>SET
LONE_PAIRS      STATIC     ATOMS    <user>   **** ""
6 37 38 39 40 41 42
DONOR_HYDROGENS      STATIC     ATOMS    <user>   **** ""
4 20 36 28 29
ATOM$BLUE        STATIC     ATOMS    COLORGROUP SYSTEM
6 37 38 39 40 41 42
ATOM$RED        STATIC     ATOMS    COLORGROUP SYSTEM
4 20 36 28 29
