AV-unprocessed.smi:1592|AV-procd|sdf|6406|dock3
  -GOLD-   22720 7 43D 1   1.00000     0.00000
 Structure written by MMmdl.
 26 27  0  0  0  0  0  0  0  0  2 V2000
  150.4908  140.4673  157.2872 O   0  0  0  0  0  0  0  0  0  0  0  0
  151.6309  140.0917  156.9983 C   0  0  0  0  0  0  0  0  0  0  0  0
  152.7549  139.9759  157.8126 N   0  0  0  0  0  0  0  0  0  0  0  0
  152.9568  140.7079  158.8744 C   0  0  0  0  0  0  0  0  0  0  0  0
  152.0546  141.6903  159.3187 N   0  0  0  0  0  0  0  0  0  0  0  0
  152.2687  142.4535  160.4469 C   0  0  0  0  0  0  0  0  0  0  0  0
  153.3650  142.3048  161.1920 C   0  0  0  0  0  0  0  0  0  0  0  0
  154.3484  141.3163  160.8000 C   0  0  0  0  0  0  0  0  0  0  0  0
  154.1842  140.5110  159.6669 C   0  0  0  0  0  0  0  0  0  0  0  0
  155.0601  139.6668  159.3670 O   0  5  0  0  0  0  0  0  0  0  0  0
  151.9433  139.6862  155.5474 C   0  0  1  0  0  0  0  0  0  0  0  0
  152.2113  138.1759  155.3873 C   0  0  0  0  0  0  0  0  0  0  0  0
  151.1726  137.7131  154.3806 C   0  0  0  0  0  0  0  0  0  0  0  0
  150.0806  138.7631  154.5179 C   0  0  0  0  0  0  0  0  0  0  0  0
  150.8199  139.9599  154.7077 O   0  0  0  0  0  0  0  0  0  0  0  0
  151.4872  143.1649  160.6686 H   0  0  0  0  0  0  0  0  0  0  0  0
  153.5167  142.9101  162.0735 H   0  0  0  0  0  0  0  0  0  0  0  0
  155.2329  141.2054  161.4107 H   0  0  0  0  0  0  0  0  0  0  0  0
  151.1989  141.8693  158.8144 H   0  0  0  0  0  0  0  0  0  0  0  0
  152.7897  140.2726  155.1872 H   0  0  0  0  0  0  0  0  0  0  0  0
  153.2243  137.9758  155.0373 H   0  0  0  0  0  0  0  0  0  0  0  0
  152.0799  137.6378  156.3277 H   0  0  0  0  0  0  0  0  0  0  0  0
  151.5913  137.7451  153.3742 H   0  0  0  0  0  0  0  0  0  0  0  0
  150.8155  136.7006  154.5692 H   0  0  0  0  0  0  0  0  0  0  0  0
  149.4369  138.8214  153.6401 H   0  0  0  0  0  0  0  0  0  0  0  0
  149.4572  138.5684  155.3922 H   0  0  0  0  0  0  0  0  0  0  0  0
  1  2  2  0  0  0  0
  2  3  1  0  0  0  0
  2 11  1  0  0  0  0
  3  4  2  0  0  0  0
  4  9  1  0  0  0  0
  4  5  1  0  0  0  0
  5 19  1  0  0  0  0
  5  6  1  0  0  0  0
  6 16  1  0  0  0  0
  6  7  2  0  0  0  0
  7 17  1  0  0  0  0
  7  8  1  0  0  0  0
  8  9  2  0  0  0  0
  8 18  1  0  0  0  0
  9 10  1  0  0  0  0
 11 15  1  0  0  0  0
 11 12  1  0  0  0  0
 11 20  1  0  0  0  0
 12 13  1  0  0  0  0
 12 21  1  0  0  0  0
 12 22  1  0  0  0  0
 13 14  1  0  0  0  0
 13 23  1  0  0  0  0
 13 24  1  0  0  0  0
 14 15  1  0  0  0  0
 14 25  1  0  0  0  0
 14 26  1  0  0  0  0
M  CHG  1  10  -1
M  END
> <s_m_source_file>
AV-unprocessed.smi

> <i_m_source_file_index>
1592

> <i_lp_mmshare_version>
43012

> <i_f3d_flags>
0

> <s_epik_input>
TzFbQ0gyXVtDSDJdW0NIMl1bQ0BIXTFDKD1PKVtOSF1jMm5bY0hdW2NIXVtjSF1jMltPSF0=

> <s_epik_cmdline>
J2VwaWtfcHl0aG9uJywgJy1waCcsICc3LjAnLCAnLXRuJywgJzgnLCAnLW1hJywgJzIwMCcsICctbWV0YWxfYmluZGluZycsICctaW1hZScsICc8aW5maWxlLm1hZT4nLCAnLW9tYWUnLCAnPG91dGZpbGUubWFlPic=

> <r_epik_Ionization_Penalty>
0.780127

> <r_epik_Ionization_Penalty_Charging>
0.780127

> <r_epik_Ionization_Penalty_Neutral>
6.55423e-13

> <r_epik_State_Penalty>
1.4426

> <r_epik_Charging_Adjusted_Penalty>
2.22273

> <i_epik_Tot_Q>
-1

> <i_epik_Tot_abs_Q>
1

> <r_epik_Metal_State_Penalty>
1.40439

> <b_epik_Metal_Only>
0

> <s_lp_Force_Field>
OPLS_2005

> <r_lp_Energy>
49.5573

> <b_lp_Chiralities_Consistent>
1

> <s_lp_Variant>
AV-unprocessed.smi:1592-6

> <Gold.Version>
5.8.1

> <Gold.Id.Protein>
6NUR|6NUR_protein|mol2

> <Gold.PLP.Fitness>
39.7541

> <Gold.PLP.PLP>
-31.3150

> <Gold.PLP.part.hbond>
-3.0000

> <Gold.PLP.part.metal>
0.0000

> <Gold.PLP.part.buried>
-2.9816

> <Gold.PLP.part.nonpolar>
-26.1199

> <Gold.PLP.part.repulsive>
0.2071

> <Gold.PLP.ligand.clash>
0.0000

> <Gold.PLP.ligand.torsion>
0.2841

> <Gold.PLP.Chemscore.Hbond>
3.0000

> <Gold.PLP.Chemscore.CHOScore>
0.0000

> <Gold.PLP.Chemscore.Metal>
0.0000

> <Gold.Chemscore.Hbonds>
donor molecule, donor type, donor heavy atom, donor atom, acceptor molecule, acceptor atom, score
      P1  H  7989  7998       L1    15  0.90
      P1  H  7997  8009       L1    10  1.92

> <Gold.PLP.Chemscore.Internal.Correction>
0.0073

> <Gold.Rescore>
     Score         DG    S(hbond)    S(metal)    S(lipo)     H(rot)  DE(clash)    DE(int)     intcor
     14.24     -14.45       0.94        0.00      71.86       1.00       0.00       0.21       ----

> <Gold.Chemscore.Fitness>
14.2409

> <Gold.Chemscore.DG>
-14.4548

> <Gold.Chemscore.ZeroCoef>
-5.4800

> <Gold.Chemscore.Hbond>
0.9364

> <Gold.Chemscore.Metal>
0.0000

> <Gold.Chemscore.Lipo>
71.8580

> <Gold.Chemscore.Internal_Hbond>
0.0000

> <Gold.Chemscore.DEClash>
0.0000

> <Gold.Chemscore.DEInternal>
0.2140

> <Gold.Chemscore.Rot>
1.0000

> <Gold.Chemscore.Internal.Correction>
   9.000000E+99

> <Gold.Chemscore.Hbonds>
donor molecule, donor type, donor heavy atom, donor atom, acceptor molecule, acceptor atom, score
      P1  H  7989  7998       L1    15  0.18
      P1  H  7997  8009       L1    10  0.32

> <Gold.Chemscore.Hbond.Weighted>
-3.1275

> <Gold.Chemscore.Metal.Weighted>
-0.0000

> <Gold.Chemscore.Lipo.Weighted>
-8.4074

> <Gold.Chemscore.Internal_Hbond.Weighted>
0.0000

> <Gold.Chemscore.DEClash.Weighted>
0.0000

> <Gold.Chemscore.DEInternal.Weighted>
0.2140

> <Gold.Chemscore.Rot.Weighted>
2.5600

> <Gold.Chemscore.Internal.Correction.Weighted>
   9.000000E+99

> <Gold.Protein.RotatedTorsions>
[ 6907 6896 6895 6894 ] final   63.40 input  -60.11 | X-H torsion
[ 7974 7965 7964 7962 ] final   78.14 input  175.53 | X-H torsion
[ 8008 7997 7996 7995 ] final  107.34 input   59.86 | X-H torsion
[ 10167 10162 10161 10158 ] final   88.76 input  -65.29 | X-H torsion
[ 10718 10713 10712 10709 ] final    1.42 input   66.30 | X-H torsion
[ 10763 10752 10751 10750 ] final  -49.65 input  -60.55 | X-H torsion
[ 11005 11000 10999 10996 ] final   87.07 input  -57.11 | X-H torsion

> <Gold.Protein.ActiveResidues>
 VAL166  LYS551  ARG553  GLY616  TRP617  ASP618  TYR619  PRO620  LYS621  CYS622 
 ASP623  PHE694  ASN695  SER759  ASP760  ASP761  ALA762  ILE779  LEU786  VAL792 
 PHE793  MET794  SER795  GLU796  ALA797  LYS798  CYS799  TRP800  GLU811  SER814 

> <Gold.Protein.RotatedAtoms>
  152.4250  134.5885  159.9967 H   0  0  0  0  0  0  0  0  0  0  0  0  # atno 6907 bound_to 6896
  151.6024  133.3349  159.3058 H   0  0  0  0  0  0  0  0  0  0  0  0  # atno 6908 bound_to 6896
  150.8139  134.7347  159.6778 H   0  0  0  0  0  0  0  0  0  0  0  0  # atno 6909 bound_to 6896
  145.6809  139.2523  143.1814 H   0  0  0  0  0  0  0  0  0  0  0  0  # atno 7974 bound_to 7965
  156.1816  140.3096  155.9159 H   0  0  0  0  0  0  0  0  0  0  0  0  # atno 8008 bound_to 7997
  155.3372  140.0464  157.3061 H   0  0  0  0  0  0  0  0  0  0  0  0  # atno 8009 bound_to 7997
  154.5349  140.2242  155.8750 H   0  0  0  0  0  0  0  0  0  0  0  0  # atno 8010 bound_to 7997
  139.8640  144.6528  150.9025 H   0  0  0  0  0  0  0  0  0  0  0  0  # atno 10167 bound_to 10162
  156.8480  130.5544  149.5672 H   0  0  0  0  0  0  0  0  0  0  0  0  # atno 10718 bound_to 10713
  154.0975  135.6568  153.4862 H   0  0  0  0  0  0  0  0  0  0  0  0  # atno 10763 bound_to 10752
  153.0300  135.5217  154.7319 H   0  0  0  0  0  0  0  0  0  0  0  0  # atno 10764 bound_to 10752
  154.6461  135.2995  155.0013 H   0  0  0  0  0  0  0  0  0  0  0  0  # atno 10765 bound_to 10752
  139.8928  134.8398  156.2809 H   0  0  0  0  0  0  0  0  0  0  0  0  # atno 11005 bound_to 11000
  146.0965  140.7595  142.9570 LP  0  0  0  0  0  0  0  0  0  0  0  0  # atno 17320 bound_to 7965
  144.7026  140.3719  143.7143 LP  0  0  0  0  0  0  0  0  0  0  0  0  # atno 17321 bound_to 7965
  140.7771  143.3720  151.1633 LP  0  0  0  0  0  0  0  0  0  0  0  0  # atno 17342 bound_to 10162
  139.7346  143.9019  152.3031 LP  0  0  0  0  0  0  0  0  0  0  0  0  # atno 17343 bound_to 10162
  156.0844  130.5846  150.9621 LP  0  0  0  0  0  0  0  0  0  0  0  0  # atno 17370 bound_to 10713
  157.6319  131.0920  150.8424 LP  0  0  0  0  0  0  0  0  0  0  0  0  # atno 17371 bound_to 10713
  141.0039  133.7135  156.1004 LP  0  0  0  0  0  0  0  0  0  0  0  0  # atno 17394 bound_to 11000
  140.7460  134.4098  157.5548 LP  0  0  0  0  0  0  0  0  0  0  0  0  # atno 17395 bound_to 11000

$$$$
