#       Name:                AV-unprocessed.smi:38
#       Creating user name   scv26
#       Creation time:       Thu Mar 26 16:18:33 2020


#       File generated by GOLD software.
#

@<TRIPOS>MOLECULE
AV-unprocessed.smi:38
    38    39     1
SMALL
NO_CHARGES


@<TRIPOS>ATOM
      1 ****        -4.3088   2.6926   1.9171 O.2            1 S1                 0.0000
      2 ****        -3.3737   2.2401   1.2580 C.2            1 S1                 0.0000
      3 ****        -3.4103   2.1365  -0.1019 N.pl3          1 S1                -1.0000
      4 ****        -2.3722   1.6316  -0.8313 C.2            1 S1                 0.0000
      5 ****        -2.3966   1.5368  -2.0587 O.2            1 S1                 0.0000
      6 ****        -1.2034   1.1890  -0.1525 N.am           1 S1                 0.0000
      7 ****        -0.0545   0.6297  -0.9694 C.3            1 S1                 0.0000
      8 ****        -0.3867  -0.7849  -1.4795 C.3            1 S1                 0.0000
      9 ****         0.8105  -1.6086  -1.0389 C.3            1 S1                 0.0000
     10 ****         1.7787  -1.6767  -2.0693 O.3            1 S1                 0.0000
     11 ****         1.3168  -0.8323   0.1823 C.3            1 S1                 0.0000
     12 ****         2.7816  -1.0592   0.5952 C.3            1 S1                 0.0000
     13 ****         2.9730  -2.3912   1.0238 O.3            1 S1                 0.0000
     14 ****         1.0917   0.5269  -0.1732 O.3            1 S1                 0.0000
     15 ****        -1.1364   1.2898   1.2283 C.2            1 S1                 0.0000
     16 ****        -2.1640   1.7905   1.9442 C.2            1 S1                 0.0000
     17 ****        -2.0686   1.8748   3.2825 F              1 S1                 0.0000
     18 ****         0.1261   1.3577  -1.7621 H              1 S1                 0.0000
     19 ****         0.5227  -2.6267  -0.7753 H              1 S1                 0.0000
     20 ****         0.6689  -1.0605   1.0304 H              1 S1                 0.0000
     21 ****        -1.2905  -1.1511  -0.9901 H              1 S1                 0.0000
     22 ****        -0.5532  -0.7855  -2.5575 H              1 S1                 0.0000
     23 ****         2.5200  -2.1684  -1.7502 H              1 S1                 0.0000
     24 ****         3.4678  -0.8335  -0.2210 H              1 S1                 0.0000
     25 ****         3.0406  -0.3935   1.4189 H              1 S1                 0.0000
     26 ****         3.8737  -2.4939   1.2908 H              1 S1                 0.0000
     27 ****        -0.2541   0.9692   1.7602 H              1 S1                 0.0000
     28 ****        -4.2369   2.7502   2.9128 LP             1 S1                 0.0000
     29 ****        -5.1407   3.0029   1.4571 LP             1 S1                 0.0000
     30 ****        -4.2309   2.4429  -0.5843 LP             1 S1                 0.0000
     31 ****        -3.2034   1.8371  -2.5675 LP             1 S1                 0.0000
     32 ****        -1.6095   1.1596  -2.5468 LP             1 S1                 0.0000
     33 ****         2.0690  -0.7536  -2.3215 LP             1 S1                 0.0000
     34 ****         1.3893  -2.1337  -2.8690 LP             1 S1                 0.0000
     35 ****         2.7701  -3.0196   0.2728 LP             1 S1                 0.0000
     36 ****         2.3680  -2.5874   1.7954 LP             1 S1                 0.0000
     37 ****         0.9680   1.0703   0.6571 LP             1 S1                 0.0000
     38 ****         1.8806   0.8711  -0.6824 LP             1 S1                 0.0000
@<TRIPOS>BOND
    1    1    2 2     
    2    2   16 1     
    3    2    3 1     
    4    3    4 1     
    5    4    5 2     
    6    4    6 am    
    7    6    7 1     
    8    6   15 1     
    9    7   18 1     
   10    7   14 1     
   11    7    8 1     
   12    8    9 1     
   13    8   21 1     
   14    8   22 1     
   15    9   19 1     
   16    9   10 1     
   17    9   11 1     
   18   10   23 1     
   19   11   20 1     
   20   11   12 1     
   21   11   14 1     
   22   12   13 1     
   23   12   24 1     
   24   12   25 1     
   25   13   26 1     
   26   15   16 2     
   27   15   27 1     
   28   16   17 1     
   29    1   28 1     
   30    1   29 1     
   31    3   30 1     
   32    5   31 1     
   33    5   32 1     
   34   10   33 1     
   35   10   34 1     
   36   13   35 1     
   37   13   36 1     
   38   14   37 1     
   39   14   38 1     
@<TRIPOS>SUBSTRUCTURE
      1 S1             1
@<TRIPOS>SET
LONE_PAIRS      STATIC     ATOMS    <user>   **** ""
11 28 29 30 31 32 33 34 35 36 37 38
DONOR_HYDROGENS      STATIC     ATOMS    <user>   **** ""
2 23 26
ATOM$BLUE        STATIC     ATOMS    COLORGROUP SYSTEM
11 28 29 30 31 32 33 34 35 36 37 38
ATOM$RED        STATIC     ATOMS    COLORGROUP SYSTEM
2 23 26
