AV-unprocessed.smi:2718|AV-procd|sdf|10488|dock9
  -GOLD-   2272014533D 1   1.00000     0.00000
 Structure written by MMmdl.
 47 48  0  0  0  0  0  0  0  0  1 V2000
  146.9666  141.8649  154.1591 C   0  0  0  0  0  0  0  0  0  0  0  0
  147.7262  140.5575  154.0500 C   0  0  0  0  0  0  0  0  0  0  0  0
  146.9527  139.4277  153.3921 C   0  0  0  0  0  0  0  0  0  0  0  0
  148.9897  140.4348  154.5002 C   0  0  0  0  0  0  0  0  0  0  0  0
  149.8405  139.2117  154.4245 C   0  0  2  0  0  0  0  0  0  0  0  0
  150.0370  138.2427  155.5823 C   0  0  2  0  0  0  0  0  0  0  0  0
  149.4080  138.5009  156.9234 C   0  0  0  0  0  0  0  0  0  0  0  0
  149.5486  139.5376  157.5720 O   0  0  0  0  0  0  0  0  0  0  0  0
  148.6606  137.4756  157.3595 N   0  0  0  0  0  0  0  0  0  0  0  0
  147.9662  137.4025  158.6431 C   0  0  0  0  0  0  0  0  0  0  0  0
  148.1455  136.0557  159.3819 C   0  0  2  0  0  0  0  0  0  0  0  0
  147.3862  134.9195  158.6823 C   0  0  0  0  0  0  0  0  0  0  0  0
  147.7994  136.1320  160.8448 C   0  0  0  0  0  0  0  0  0  0  0  0
  147.4308  137.2625  161.4624 N   0  0  0  0  0  0  0  0  0  0  0  0
  147.1947  136.9111  162.7761 N   0  0  0  0  0  0  0  0  0  0  0  0
  147.4283  135.6004  162.8189 C   0  0  0  0  0  0  0  0  0  0  0  0
  147.8002  135.0513  161.6533 N   0  0  0  0  0  0  0  0  0  0  0  0
  148.1081  133.6645  161.3677 C   0  0  0  0  0  0  0  0  0  0  0  0
  151.2059  139.0916  155.0860 C   0  0  0  0  0  0  0  0  0  0  0  0
  152.3202  138.3762  154.3406 C   0  0  0  0  0  0  0  0  0  0  0  0
  151.8155  140.2386  155.8908 C   0  0  0  0  0  0  0  0  0  0  0  0
  146.6929  142.2255  153.1674 H   0  0  0  0  0  0  0  0  0  0  0  0
  147.5625  142.6367  154.6477 H   0  0  0  0  0  0  0  0  0  0  0  0
  146.0531  141.7270  154.7371 H   0  0  0  0  0  0  0  0  0  0  0  0
  145.9936  139.2889  153.8898 H   0  0  0  0  0  0  0  0  0  0  0  0
  147.4832  138.4767  153.4311 H   0  0  0  0  0  0  0  0  0  0  0  0
  146.7585  139.6657  152.3462 H   0  0  0  0  0  0  0  0  0  0  0  0
  149.4477  141.3005  154.9536 H   0  0  0  0  0  0  0  0  0  0  0  0
  149.7477  138.7488  153.4438 H   0  0  0  0  0  0  0  0  0  0  0  0
  150.0667  137.1910  155.2995 H   0  0  0  0  0  0  0  0  0  0  0  0
  148.5841  136.6656  156.7614 H   0  0  0  0  0  0  0  0  0  0  0  0
  148.3674  138.2074  159.2593 H   0  0  0  0  0  0  0  0  0  0  0  0
  146.9069  137.6236  158.5033 H   0  0  0  0  0  0  0  0  0  0  0  0
  149.2018  135.8025  159.3020 H   0  0  0  0  0  0  0  0  0  0  0  0
  147.5929  133.9603  159.1581 H   0  0  0  0  0  0  0  0  0  0  0  0
  147.6786  134.8385  157.6350 H   0  0  0  0  0  0  0  0  0  0  0  0
  146.3086  135.0822  158.7155 H   0  0  0  0  0  0  0  0  0  0  0  0
  147.3202  135.0245  163.7263 H   0  0  0  0  0  0  0  0  0  0  0  0
  147.9656  133.0559  162.2610 H   0  0  0  0  0  0  0  0  0  0  0  0
  149.1443  133.5776  161.0407 H   0  0  0  0  0  0  0  0  0  0  0  0
  147.4501  133.2956  160.5807 H   0  0  0  0  0  0  0  0  0  0  0  0
  153.0519  137.9766  155.0434 H   0  0  0  0  0  0  0  0  0  0  0  0
  152.8268  139.0624  153.6612 H   0  0  0  0  0  0  0  0  0  0  0  0
  151.9246  137.5477  153.7522 H   0  0  0  0  0  0  0  0  0  0  0  0
  152.4535  139.8431  156.6818 H   0  0  0  0  0  0  0  0  0  0  0  0
  151.0666  140.8787  156.3510 H   0  0  0  0  0  0  0  0  0  0  0  0
  152.4248  140.8703  155.2438 H   0  0  0  0  0  0  0  0  0  0  0  0
  1  2  1  0  0  0  0
  1 22  1  0  0  0  0
  1 23  1  0  0  0  0
  1 24  1  0  0  0  0
  2  3  1  0  0  0  0
  2  4  2  0  0  0  0
  3 25  1  0  0  0  0
  3 26  1  0  0  0  0
  3 27  1  0  0  0  0
  4  5  1  0  0  0  0
  4 28  1  0  0  0  0
  5 19  1  0  0  0  0
  5  6  1  0  0  0  0
  5 29  1  0  0  0  0
  6  7  1  0  0  0  0
  6 19  1  0  0  0  0
  6 30  1  0  0  0  0
  7  8  2  0  0  0  0
  7  9  1  0  0  0  0
  9 10  1  0  0  0  0
  9 31  1  0  0  0  0
 10 11  1  0  0  0  0
 10 32  1  0  0  0  0
 10 33  1  0  0  0  0
 11 12  1  0  0  0  0
 11 13  1  0  0  0  0
 11 34  1  0  0  0  0
 12 35  1  0  0  0  0
 12 36  1  0  0  0  0
 12 37  1  0  0  0  0
 13 17  1  0  0  0  0
 13 14  2  0  0  0  0
 14 15  1  0  0  0  0
 15 16  2  0  0  0  0
 16 17  1  0  0  0  0
 16 38  1  0  0  0  0
 17 18  1  0  0  0  0
 18 39  1  0  0  0  0
 18 40  1  0  0  0  0
 18 41  1  0  0  0  0
 19 20  1  0  0  0  0
 19 21  1  0  0  0  0
 20 42  1  0  0  0  0
 20 43  1  0  0  0  0
 20 44  1  0  0  0  0
 21 45  1  0  0  0  0
 21 46  1  0  0  0  0
 21 47  1  0  0  0  0
M  END
> <s_m_source_file>
AV-unprocessed.smi

> <i_m_source_file_index>
2718

> <i_lp_mmshare_version>
43012

> <i_f3d_flags>
0

> <s_epik_input>
W0NIM11DKFtDSDNdKT1bQ0hdW0NAQEhdKEMxKFtDSDNdKVtDSDNdKVtDQEhdMUMoPU8pW05IXVtDSDJdW0NASF0oW0NIM10pYzJubltjSF1uMltDSDNd

> <s_epik_cmdline>
J2VwaWtfcHl0aG9uJywgJy1waCcsICc3LjAnLCAnLXRuJywgJzgnLCAnLW1hJywgJzIwMCcsICctbWV0YWxfYmluZGluZycsICctaW1hZScsICc8aW5maWxlLm1hZT4nLCAnLW9tYWUnLCAnPG91dGZpbGUubWFlPic=

> <r_lp_tautomer_probability>
1

> <r_epik_Ionization_Penalty>
0.000449586

> <r_epik_Ionization_Penalty_Charging>
0

> <r_epik_Ionization_Penalty_Neutral>
0.000449586

> <r_epik_State_Penalty>
0.000243372

> <r_epik_Charging_Adjusted_Penalty>
0.000243372

> <i_epik_Tot_Q>
0

> <i_epik_Tot_abs_Q>
0

> <r_epik_Metal_State_Penalty>
-0

> <b_epik_Metal_Only>
0

> <s_lp_Force_Field>
OPLS_2005

> <r_lp_Energy>
15.3261

> <b_lp_Chiralities_Consistent>
1

> <s_lp_Variant>
AV-unprocessed.smi:2718-3

> <Gold.Version>
5.8.1

> <Gold.Id.Protein>
6NUR|6NUR_protein|mol2

> <Gold.PLP.Fitness>
43.2938

> <Gold.PLP.PLP>
-40.0359

> <Gold.PLP.part.hbond>
-2.1984

> <Gold.PLP.part.metal>
0.0000

> <Gold.PLP.part.buried>
-6.3222

> <Gold.PLP.part.nonpolar>
-31.4346

> <Gold.PLP.part.repulsive>
0.0202

> <Gold.PLP.ligand.clash>
0.0000

> <Gold.PLP.ligand.torsion>
0.7451

> <Gold.PLP.Chemscore.Hbond>
1.4744

> <Gold.PLP.Chemscore.CHOScore>
0.0000

> <Gold.PLP.Chemscore.Metal>
0.0000

> <Gold.Chemscore.Hbonds>
donor molecule, donor type, donor heavy atom, donor atom, acceptor molecule, acceptor atom, score
      P1  H  6931  6943       L1    14  0.57
      P1  H  6934  6947       L1    14  0.88

> <Gold.PLP.Chemscore.Internal.Correction>
0.3249

> <Gold.Rescore>
     Score         DG    S(hbond)    S(metal)    S(lipo)     H(rot)  DE(clash)    DE(int)     intcor
     10.66     -12.62       0.95        0.00      76.57       1.95       0.01       1.96       ----

> <Gold.Chemscore.Fitness>
10.6555

> <Gold.Chemscore.DG>
-12.6220

> <Gold.Chemscore.ZeroCoef>
-5.4800

> <Gold.Chemscore.Hbond>
0.9533

> <Gold.Chemscore.Metal>
0.0000

> <Gold.Chemscore.Lipo>
76.5674

> <Gold.Chemscore.Internal_Hbond>
0.0000

> <Gold.Chemscore.DEClash>
0.0098

> <Gold.Chemscore.DEInternal>
1.9568

> <Gold.Chemscore.Rot>
1.9533

> <Gold.Chemscore.Internal.Correction>
   9.000000E+99

> <Gold.Chemscore.Hbonds>
donor molecule, donor type, donor heavy atom, donor atom, acceptor molecule, acceptor atom, score
      P1  H  6931  6943       L1    14  0.03
      P1  H  6934  6947       L1    14  0.84

> <Gold.Chemscore.Hbond.Weighted>
-3.1842

> <Gold.Chemscore.Metal.Weighted>
-0.0000

> <Gold.Chemscore.Lipo.Weighted>
-8.9584

> <Gold.Chemscore.Internal_Hbond.Weighted>
0.0000

> <Gold.Chemscore.DEClash.Weighted>
0.0098

> <Gold.Chemscore.DEInternal.Weighted>
1.9568

> <Gold.Chemscore.Rot.Weighted>
5.0005

> <Gold.Chemscore.Internal.Correction.Weighted>
   9.000000E+99

> <Gold.Protein.RotatedTorsions>
[ 6907 6896 6895 6894 ] final  -51.67 input  -60.11 | X-H torsion
[ 7974 7965 7964 7962 ] final  123.32 input  175.53 | X-H torsion
[ 8008 7997 7996 7995 ] final  133.57 input   59.86 | X-H torsion
[ 10167 10162 10161 10158 ] final   52.74 input  -65.29 | X-H torsion
[ 10718 10713 10712 10709 ] final   78.95 input   66.30 | X-H torsion
[ 10763 10752 10751 10750 ] final   -0.79 input  -60.55 | X-H torsion
[ 11005 11000 10999 10996 ] final  100.27 input  -57.11 | X-H torsion

> <Gold.Protein.ActiveResidues>
 VAL166  LYS551  ARG553  GLY616  TRP617  ASP618  TYR619  PRO620  LYS621  CYS622 
 ASP623  PHE694  ASN695  SER759  ASP760  ASP761  ALA762  ILE779  LEU786  VAL792 
 PHE793  MET794  SER795  GLU796  ALA797  LYS798  CYS799  TRP800  GLU811  SER814 

> <Gold.Protein.RotatedAtoms>
  150.8589  134.7936  159.7067 H   0  0  0  0  0  0  0  0  0  0  0  0  # atno 6907 bound_to 6896
  152.4632  134.5132  159.9770 H   0  0  0  0  0  0  0  0  0  0  0  0  # atno 6908 bound_to 6896
  151.5240  133.3423  159.2942 H   0  0  0  0  0  0  0  0  0  0  0  0  # atno 6909 bound_to 6896
  145.0973  139.3543  143.4830 H   0  0  0  0  0  0  0  0  0  0  0  0  # atno 7974 bound_to 7965
  156.2993  140.2518  156.3275 H   0  0  0  0  0  0  0  0  0  0  0  0  # atno 8008 bound_to 7997
  154.9176  140.0401  157.1999 H   0  0  0  0  0  0  0  0  0  0  0  0  # atno 8009 bound_to 7997
  154.8343  140.2880  155.5706 H   0  0  0  0  0  0  0  0  0  0  0  0  # atno 8010 bound_to 7997
  140.2481  144.3509  150.6357 H   0  0  0  0  0  0  0  0  0  0  0  0  # atno 10167 bound_to 10162
  157.6761  130.9892  150.1861 H   0  0  0  0  0  0  0  0  0  0  0  0  # atno 10718 bound_to 10713
  153.3364  135.6978  153.6904 H   0  0  0  0  0  0  0  0  0  0  0  0  # atno 10763 bound_to 10752
  153.5686  135.3521  155.2829 H   0  0  0  0  0  0  0  0  0  0  0  0  # atno 10764 bound_to 10752
  154.8628  135.4266  154.2566 H   0  0  0  0  0  0  0  0  0  0  0  0  # atno 10765 bound_to 10752
  139.8771  134.9132  156.4730 H   0  0  0  0  0  0  0  0  0  0  0  0  # atno 11005 bound_to 11000
  146.3530  140.0835  142.8616 LP  0  0  0  0  0  0  0  0  0  0  0  0  # atno 17320 bound_to 7965
  145.0996  140.9337  143.4721 LP  0  0  0  0  0  0  0  0  0  0  0  0  # atno 17321 bound_to 7965
  140.6061  143.2168  151.6977 LP  0  0  0  0  0  0  0  0  0  0  0  0  # atno 17342 bound_to 10162
  139.5055  144.3715  152.0465 LP  0  0  0  0  0  0  0  0  0  0  0  0  # atno 17343 bound_to 10162
  156.2582  130.3708  149.8158 LP  0  0  0  0  0  0  0  0  0  0  0  0  # atno 17370 bound_to 10713
  156.5911  130.8507  151.3408 LP  0  0  0  0  0  0  0  0  0  0  0  0  # atno 17371 bound_to 10713
  140.8782  133.7937  155.9437 LP  0  0  0  0  0  0  0  0  0  0  0  0  # atno 17394 bound_to 11000
  140.8882  134.2528  157.5108 LP  0  0  0  0  0  0  0  0  0  0  0  0  # atno 17395 bound_to 11000

$$$$
