AV-unprocessed.smi:155|AV-procd|sdf|1278|dock3
  -GOLD-   2262018543D 1   1.00000     0.00000
 Structure written by MMmdl.
 63 66  0  0  0  0  0  0  0  0  2 V2000
  145.7987  131.2154  152.0140 C   0  0  0  0  0  0  0  0  0  0  0  0
  146.9905  130.5082  152.5382 N   0  3  0  0  0  0  0  0  0  0  0  0
  146.7113  129.0720  152.7606 C   0  0  0  0  0  0  0  0  0  0  0  0
  147.5763  131.1583  153.7374 C   0  0  0  0  0  0  0  0  0  0  0  0
  148.1991  132.5325  153.4122 C   0  0  0  0  0  0  0  0  0  0  0  0
  148.3304  133.3690  154.6056 N   0  0  0  0  0  0  0  0  0  0  0  0
  149.1733  132.7500  155.6398 C   0  0  0  0  0  0  0  0  0  0  0  0
  150.6849  133.0300  155.5044 C   0  0  0  0  0  0  0  0  0  0  0  0
  151.1171  134.3137  156.2392 C   0  0  0  0  0  0  0  0  0  0  0  0
  150.5913  135.5350  155.6268 N   0  0  0  0  0  0  0  0  0  0  0  0
  151.2100  136.7081  155.9163 C   0  0  0  0  0  0  0  0  0  0  0  0
  151.9619  137.3265  154.9668 N   0  0  0  0  0  0  0  0  0  0  0  0
  152.5898  138.4730  155.2436 C   0  0  0  0  0  0  0  0  0  0  0  0
  152.5982  139.1657  156.3839 N   0  0  0  0  0  0  0  0  0  0  0  0
  151.8350  138.5587  157.3370 C   0  0  0  0  0  0  0  0  0  0  0  0
  151.1136  137.3402  157.1887 C   0  0  0  0  0  0  0  0  0  0  0  0
  150.4456  137.0398  158.3702 N   0  0  0  0  0  0  0  0  0  0  0  0
  150.7644  138.0170  159.1742 C   0  0  0  0  0  0  0  0  0  0  0  0
  151.5829  138.9815  158.6309 N   0  0  0  0  0  0  0  0  0  0  0  0
  152.0965  140.1632  159.3032 C   0  0  0  0  0  0  0  0  0  0  0  0
  151.6265  141.4939  158.6726 C   0  0  1  0  0  0  0  0  0  0  0  0
  150.2238  141.5238  158.8395 O   0  0  0  0  0  0  0  0  0  0  0  0
  152.1852  142.7733  159.3354 C   0  0  1  0  0  0  0  0  0  0  0  0
  151.6670  144.1026  158.7790 C   0  0  0  0  0  0  0  0  0  0  0  0
  151.7926  145.0681  159.9468 C   0  0  0  0  0  0  0  0  0  0  0  0
  152.0006  144.1565  161.1564 C   0  0  0  0  0  0  0  0  0  0  0  0
  151.7196  142.8507  160.6754 O   0  0  0  0  0  0  0  0  0  0  0  0
  149.1527  135.6178  155.3775 C   0  0  0  0  0  0  0  0  0  0  0  0
  148.7557  134.7124  154.2004 C   0  0  0  0  0  0  0  0  0  0  0  0
  144.9878  131.2080  152.7436 H   0  0  0  0  0  0  0  0  0  0  0  0
  145.4384  130.7340  151.1041 H   0  0  0  0  0  0  0  0  0  0  0  0
  146.0208  132.2523  151.7649 H   0  0  0  0  0  0  0  0  0  0  0  0
  145.9732  128.9355  153.5523 H   0  0  0  0  0  0  0  0  0  0  0  0
  147.6198  128.5389  153.0432 H   0  0  0  0  0  0  0  0  0  0  0  0
  146.3279  128.6071  151.8516 H   0  0  0  0  0  0  0  0  0  0  0  0
  146.8050  131.2507  154.5042 H   0  0  0  0  0  0  0  0  0  0  0  0
  148.3484  130.5108  154.1537 H   0  0  0  0  0  0  0  0  0  0  0  0
  149.1602  132.4191  152.9086 H   0  0  0  0  0  0  0  0  0  0  0  0
  147.5479  133.0548  152.7117 H   0  0  0  0  0  0  0  0  0  0  0  0
  148.8343  133.1032  156.6142 H   0  0  0  0  0  0  0  0  0  0  0  0
  149.0062  131.6747  155.6647 H   0  0  0  0  0  0  0  0  0  0  0  0
  151.2192  132.1987  155.9651 H   0  0  0  0  0  0  0  0  0  0  0  0
  151.0057  133.0402  154.4622 H   0  0  0  0  0  0  0  0  0  0  0  0
  150.8049  134.2709  157.2836 H   0  0  0  0  0  0  0  0  0  0  0  0
  152.2072  134.3572  156.2387 H   0  0  0  0  0  0  0  0  0  0  0  0
  153.1694  138.8951  154.4359 H   0  0  0  0  0  0  0  0  0  0  0  0
  150.4039  138.0633  160.1917 H   0  0  0  0  0  0  0  0  0  0  0  0
  151.7615  140.1051  160.3400 H   0  0  0  0  0  0  0  0  0  0  0  0
  153.1860  140.1197  159.3304 H   0  0  0  0  0  0  0  0  0  0  0  0
  151.8412  141.4991  157.6034 H   0  0  0  0  0  0  0  0  0  0  0  0
  150.0359  141.8192  159.7177 H   0  0  0  0  0  0  0  0  0  0  0  0
  153.2774  142.7717  159.3257 H   0  0  0  0  0  0  0  0  0  0  0  0
  152.2247  144.4391  157.9055 H   0  0  0  0  0  0  0  0  0  0  0  0
  150.6169  144.0123  158.4984 H   0  0  0  0  0  0  0  0  0  0  0  0
  152.6408  145.7423  159.8217 H   0  0  0  0  0  0  0  0  0  0  0  0
  150.8916  145.6743  160.0480 H   0  0  0  0  0  0  0  0  0  0  0  0
  153.0363  144.1993  161.4969 H   0  0  0  0  0  0  0  0  0  0  0  0
  151.3538  144.4159  161.9950 H   0  0  0  0  0  0  0  0  0  0  0  0
  148.5965  135.3665  156.2814 H   0  0  0  0  0  0  0  0  0  0  0  0
  148.8638  136.6410  155.1387 H   0  0  0  0  0  0  0  0  0  0  0  0
  149.5709  134.6650  153.4759 H   0  0  0  0  0  0  0  0  0  0  0  0
  147.9154  135.1705  153.6775 H   0  0  0  0  0  0  0  0  0  0  0  0
  147.6970  130.5461  151.8172 H   0  0  0  0  0  0  0  0  0  0  0  0
  1  2  1  0  0  0  0
  1 30  1  0  0  0  0
  1 31  1  0  0  0  0
  1 32  1  0  0  0  0
  2  3  1  0  0  0  0
  2  4  1  0  0  0  0
  2 63  1  0  0  0  0
  3 33  1  0  0  0  0
  3 34  1  0  0  0  0
  3 35  1  0  0  0  0
  4  5  1  0  0  0  0
  4 36  1  0  0  0  0
  4 37  1  0  0  0  0
  5  6  1  0  0  0  0
  5 38  1  0  0  0  0
  5 39  1  0  0  0  0
  6 29  1  0  0  0  0
  6  7  1  0  0  0  0
  7  8  1  0  0  0  0
  7 40  1  0  0  0  0
  7 41  1  0  0  0  0
  8  9  1  0  0  0  0
  8 42  1  0  0  0  0
  8 43  1  0  0  0  0
  9 10  1  0  0  0  0
  9 44  1  0  0  0  0
  9 45  1  0  0  0  0
 10 11  1  0  0  0  0
 10 28  1  0  0  0  0
 11 16  1  0  0  0  0
 11 12  2  0  0  0  0
 12 13  1  0  0  0  0
 13 14  2  0  0  0  0
 13 46  1  0  0  0  0
 14 15  1  0  0  0  0
 15 19  1  0  0  0  0
 15 16  2  0  0  0  0
 16 17  1  0  0  0  0
 17 18  2  0  0  0  0
 18 19  1  0  0  0  0
 18 47  1  0  0  0  0
 19 20  1  0  0  0  0
 20 21  1  0  0  0  0
 20 48  1  0  0  0  0
 20 49  1  0  0  0  0
 21 22  1  0  0  0  0
 21 23  1  0  0  0  0
 21 50  1  0  0  0  0
 22 51  1  0  0  0  0
 23 27  1  0  0  0  0
 23 24  1  0  0  0  0
 23 52  1  0  0  0  0
 24 25  1  0  0  0  0
 24 53  1  0  0  0  0
 24 54  1  0  0  0  0
 25 26  1  0  0  0  0
 25 55  1  0  0  0  0
 25 56  1  0  0  0  0
 26 27  1  0  0  0  0
 26 57  1  0  0  0  0
 26 58  1  0  0  0  0
 28 29  1  0  0  0  0
 28 59  1  0  0  0  0
 28 60  1  0  0  0  0
 29 61  1  0  0  0  0
 29 62  1  0  0  0  0
M  CHG  1   2   1
M  END
> <s_m_source_file>
AV-unprocessed.smi

> <i_m_source_file_index>
155

> <i_lp_mmshare_version>
43012

> <i_f3d_flags>
0

> <s_epik_input>
W0NIM11OKFtDSDNdKVtDSDJdW0NIMl1OMVtDSDJdW0NIMl1bQ0gyXU4oW0NIMl1bQ0gyXTEpYyhuW2NIXW4yKWMoYzIzKW5bY0hdbjNbQ0gyXVtDQEhdKFtPSF0pW0NAQEhdNFtDSDJdW0NIMl1bQ0gyXU80

> <s_epik_cmdline>
J2VwaWtfcHl0aG9uJywgJy1waCcsICc3LjAnLCAnLXRuJywgJzgnLCAnLW1hJywgJzIwMCcsICctbWV0YWxfYmluZGluZycsICctaW1hZScsICc8aW5maWxlLm1hZT4nLCAnLW9tYWUnLCAnPG91dGZpbGUubWFlPic=

> <r_lp_tautomer_probability>
1

> <r_epik_Ionization_Penalty>
0.0599493

> <r_epik_Ionization_Penalty_Charging>
0.00816363

> <r_epik_Ionization_Penalty_Neutral>
0.0517857

> <r_epik_State_Penalty>
0.460607

> <r_epik_Charging_Adjusted_Penalty>
0.468771

> <i_epik_Tot_Q>
1

> <i_epik_Tot_abs_Q>
1

> <r_epik_Metal_State_Penalty>
0.45965

> <b_epik_Metal_Only>
0

> <s_lp_Force_Field>
OPLS_2005

> <r_lp_Energy>
60.0635

> <b_lp_Chiralities_Consistent>
1

> <s_lp_Variant>
AV-unprocessed.smi:155-12

> <Gold.Version>
5.8.1

> <Gold.Id.Protein>
6NUR|6NUR_protein|mol2

> <Gold.PLP.Fitness>
54.0354

> <Gold.PLP.PLP>
-48.4460

> <Gold.PLP.part.hbond>
-3.2463

> <Gold.PLP.part.metal>
0.0000

> <Gold.PLP.part.buried>
-5.3629

> <Gold.PLP.part.nonpolar>
-39.9422

> <Gold.PLP.part.repulsive>
0.1988

> <Gold.PLP.ligand.clash>
0.0000

> <Gold.PLP.ligand.torsion>
1.5986

> <Gold.PLP.Chemscore.Hbond>
2.7360

> <Gold.PLP.Chemscore.CHOScore>
0.0000

> <Gold.PLP.Chemscore.Metal>
0.0000

> <Gold.Chemscore.Hbonds>
donor molecule, donor type, donor heavy atom, donor atom, acceptor molecule, acceptor atom, score
      L1  H     2    63       P1 10747  1.00
      P1  H  7997  8009       L1    14  0.95
      P1  H 10752 10764       L1    12  0.70

> <Gold.PLP.Chemscore.Internal.Correction>
0.5785

> <Gold.Rescore>
     Score         DG    S(hbond)    S(metal)    S(lipo)     H(rot)  DE(clash)    DE(int)     intcor
     16.10     -19.51       2.11        0.00     119.04       2.71       1.62       1.80       ----

> <Gold.Chemscore.Fitness>
16.0976

> <Gold.Chemscore.DG>
-19.5120

> <Gold.Chemscore.ZeroCoef>
-5.4800

> <Gold.Chemscore.Hbond>
2.1068

> <Gold.Chemscore.Metal>
0.0000

> <Gold.Chemscore.Lipo>
119.0418

> <Gold.Chemscore.Internal_Hbond>
0.0000

> <Gold.Chemscore.DEClash>
1.6175

> <Gold.Chemscore.DEInternal>
1.7968

> <Gold.Chemscore.Rot>
2.7080

> <Gold.Chemscore.Internal.Correction>
   9.000000E+99

> <Gold.Chemscore.Hbonds>
donor molecule, donor type, donor heavy atom, donor atom, acceptor molecule, acceptor atom, score
      L1  H     2    63       P1 10747  0.94
      P1  H  7997  8009       L1    14  0.20
      P1  H 10752 10764       L1    12  0.15

> <Gold.Chemscore.Hbond.Weighted>
-7.0367

> <Gold.Chemscore.Metal.Weighted>
-0.0000

> <Gold.Chemscore.Lipo.Weighted>
-13.9279

> <Gold.Chemscore.Internal_Hbond.Weighted>
0.0000

> <Gold.Chemscore.DEClash.Weighted>
1.6175

> <Gold.Chemscore.DEInternal.Weighted>
1.7968

> <Gold.Chemscore.Rot.Weighted>
6.9326

> <Gold.Chemscore.Internal.Correction.Weighted>
   9.000000E+99

> <Gold.Protein.RotatedTorsions>
[ 6907 6896 6895 6894 ] final  -81.07 input  -60.11 | X-H torsion
[ 7974 7965 7964 7962 ] final -110.11 input  175.53 | X-H torsion
[ 8008 7997 7996 7995 ] final -150.79 input   59.86 | X-H torsion
[ 10167 10162 10161 10158 ] final  -18.50 input  -65.29 | X-H torsion
[ 10718 10713 10712 10709 ] final  -99.56 input   66.30 | X-H torsion
[ 10763 10752 10751 10750 ] final  -80.84 input  -60.55 | X-H torsion
[ 11005 11000 10999 10996 ] final -118.31 input  -57.11 | X-H torsion

> <Gold.Protein.ActiveResidues>
 VAL166  LYS551  ARG553  GLY616  TRP617  ASP618  TYR619  PRO620  LYS621  CYS622 
 ASP623  PHE694  ASN695  SER759  ASP760  ASP761  ALA762  ILE779  LEU786  VAL792 
 PHE793  MET794  SER795  GLU796  ALA797  LYS798  CYS799  TRP800  GLU811  SER814 

> <Gold.Protein.RotatedAtoms>
  150.6918  134.3874  159.5060 H   0  0  0  0  0  0  0  0  0  0  0  0  # atno 6907 bound_to 6896
  152.1667  134.8865  160.0546 H   0  0  0  0  0  0  0  0  0  0  0  0  # atno 6908 bound_to 6896
  151.9906  133.3755  159.4180 H   0  0  0  0  0  0  0  0  0  0  0  0  # atno 6909 bound_to 6896
  145.1723  140.8931  143.3528 H   0  0  0  0  0  0  0  0  0  0  0  0  # atno 7974 bound_to 7965
  155.6291  140.0689  157.2654 H   0  0  0  0  0  0  0  0  0  0  0  0  # atno 8008 bound_to 7997
  154.4210  140.1770  156.1502 H   0  0  0  0  0  0  0  0  0  0  0  0  # atno 8009 bound_to 7997
  155.9947  140.3342  155.6790 H   0  0  0  0  0  0  0  0  0  0  0  0  # atno 8010 bound_to 7997
  140.7259  143.4911  150.9991 H   0  0  0  0  0  0  0  0  0  0  0  0  # atno 10167 bound_to 10162
  156.0137  130.5288  150.6688 H   0  0  0  0  0  0  0  0  0  0  0  0  # atno 10718 bound_to 10713
  154.5561  135.5647  153.6965 H   0  0  0  0  0  0  0  0  0  0  0  0  # atno 10763 bound_to 10752
  153.0004  135.6262  154.2308 H   0  0  0  0  0  0  0  0  0  0  0  0  # atno 10764 bound_to 10752
  154.2244  135.2868  155.2893 H   0  0  0  0  0  0  0  0  0  0  0  0  # atno 10765 bound_to 10752
  141.0295  134.0003  157.3164 H   0  0  0  0  0  0  0  0  0  0  0  0  # atno 11005 bound_to 11000
  145.0220  139.3415  143.6067 LP  0  0  0  0  0  0  0  0  0  0  0  0  # atno 17320 bound_to 7965
  146.3466  139.9525  142.8727 LP  0  0  0  0  0  0  0  0  0  0  0  0  # atno 17321 bound_to 7965
  139.8615  143.7308  152.3173 LP  0  0  0  0  0  0  0  0  0  0  0  0  # atno 17342 bound_to 10162
  139.7525  144.7530  151.0484 LP  0  0  0  0  0  0  0  0  0  0  0  0  # atno 17343 bound_to 10162
  157.4415  131.0862  151.0939 LP  0  0  0  0  0  0  0  0  0  0  0  0  # atno 17370 bound_to 10713
  157.1482  130.6172  149.5574 LP  0  0  0  0  0  0  0  0  0  0  0  0  # atno 17371 bound_to 10713
  139.9198  135.0200  156.8021 LP  0  0  0  0  0  0  0  0  0  0  0  0  # atno 17394 bound_to 11000
  140.6432  133.9799  155.7718 LP  0  0  0  0  0  0  0  0  0  0  0  0  # atno 17395 bound_to 11000

$$$$
