AV-unprocessed.smi:2914|AV-procd|sdf|11186|dock1
  -GOLD-   2272016 73D 1   1.00000     0.00000
 Structure written by MMmdl.
 32 34  0  0  0  0  0  0  0  0  1 V2000
  151.1791  141.0346  157.2086 O   0  0  0  0  0  0  0  0  0  0  0  0
  150.5867  142.0326  156.7975 C   0  0  0  0  0  0  0  0  0  0  0  0
  149.7084  142.0531  155.7795 N   0  0  0  0  0  0  0  0  0  0  0  0
  149.2788  141.0216  155.0046 C   0  0  0  0  0  0  0  0  0  0  0  0
  149.7971  139.7606  154.8872 C   0  0  0  0  0  0  0  0  0  0  0  0
  148.9183  139.1526  153.9459 C   0  0  0  0  0  0  0  0  0  0  0  0
  147.9568  139.9671  153.5303 N   0  0  0  0  0  0  0  0  0  0  0  0
  148.1775  141.1299  154.1823 N   0  0  0  0  0  0  0  0  0  0  0  0
  147.2909  142.2593  153.9654 C   0  0  0  0  0  0  0  0  0  0  0  0
  145.9208  142.0185  154.5685 C   0  0  0  0  0  0  0  0  0  0  0  0
  144.8892  143.1217  154.6052 C   0  0  0  0  0  0  0  0  0  0  0  0
  145.5320  142.6466  155.8862 C   0  0  0  0  0  0  0  0  0  0  0  0
  150.7442  143.2561  157.3213 N   0  0  0  0  0  0  0  0  0  0  0  0
  151.6054  143.5861  158.4108 C   0  0  0  0  0  0  0  0  0  0  0  0
  151.4180  144.9350  159.0711 C   0  0  0  0  0  0  0  0  0  0  0  0
  152.6166  144.6914  158.1961 C   0  0  0  0  0  0  0  0  0  0  0  0
  149.3060  142.9520  155.5588 H   0  0  0  0  0  0  0  0  0  0  0  0
  150.6533  139.3265  155.3807 H   0  0  0  0  0  0  0  0  0  0  0  0
  148.9491  138.1467  153.5539 H   0  0  0  0  0  0  0  0  0  0  0  0
  147.7323  143.1518  154.4096 H   0  0  0  0  0  0  0  0  0  0  0  0
  147.2000  142.4452  152.8939 H   0  0  0  0  0  0  0  0  0  0  0  0
  145.5332  141.0183  154.3849 H   0  0  0  0  0  0  0  0  0  0  0  0
  145.1812  144.1001  154.2288 H   0  0  0  0  0  0  0  0  0  0  0  0
  143.8522  142.8444  154.4286 H   0  0  0  0  0  0  0  0  0  0  0  0
  144.9231  142.0529  156.5648 H   0  0  0  0  0  0  0  0  0  0  0  0
  146.2475  143.3128  156.3640 H   0  0  0  0  0  0  0  0  0  0  0  0
  150.2155  144.0155  156.9180 H   0  0  0  0  0  0  0  0  0  0  0  0
  151.9186  142.7735  159.0652 H   0  0  0  0  0  0  0  0  0  0  0  0
  150.6380  145.5882  158.6840 H   0  0  0  0  0  0  0  0  0  0  0  0
  151.5847  144.9951  160.1449 H   0  0  0  0  0  0  0  0  0  0  0  0
  153.5832  144.5883  158.6853 H   0  0  0  0  0  0  0  0  0  0  0  0
  152.6369  145.1827  157.2250 H   0  0  0  0  0  0  0  0  0  0  0  0
  1  2  2  0  0  0  0
  2  3  1  0  0  0  0
  2 13  1  0  0  0  0
  3  4  1  0  0  0  0
  3 17  1  0  0  0  0
  4  8  1  0  0  0  0
  4  5  2  0  0  0  0
  5  6  1  0  0  0  0
  5 18  1  0  0  0  0
  6  7  2  0  0  0  0
  6 19  1  0  0  0  0
  7  8  1  0  0  0  0
  8  9  1  0  0  0  0
  9 10  1  0  0  0  0
  9 20  1  0  0  0  0
  9 21  1  0  0  0  0
 10 12  1  0  0  0  0
 10 11  1  0  0  0  0
 10 22  1  0  0  0  0
 11 12  1  0  0  0  0
 11 23  1  0  0  0  0
 11 24  1  0  0  0  0
 12 25  1  0  0  0  0
 12 26  1  0  0  0  0
 13 14  1  0  0  0  0
 13 27  1  0  0  0  0
 14 16  1  0  0  0  0
 14 15  1  0  0  0  0
 14 28  1  0  0  0  0
 15 16  1  0  0  0  0
 15 29  1  0  0  0  0
 15 30  1  0  0  0  0
 16 31  1  0  0  0  0
 16 32  1  0  0  0  0
M  END
> <s_m_source_file>
AV-unprocessed.smi

> <i_m_source_file_index>
2914

> <i_lp_mmshare_version>
43012

> <i_f3d_flags>
0

> <s_epik_input>
W0NIMl0xW0NIMl1bQ0hdMVtOSF1DKD1PKVtOSF1jMltjSF1bY0hdbm4yW0NIMl1bQ0hdM1tDSDJdW0NIMl0z

> <s_epik_cmdline>
J2VwaWtfcHl0aG9uJywgJy1waCcsICc3LjAnLCAnLXRuJywgJzgnLCAnLW1hJywgJzIwMCcsICctbWV0YWxfYmluZGluZycsICctaW1hZScsICc8aW5maWxlLm1hZT4nLCAnLW9tYWUnLCAnPG91dGZpbGUubWFlPic=

> <r_lp_tautomer_probability>
1

> <r_epik_Ionization_Penalty>
4.83987e-05

> <r_epik_Ionization_Penalty_Charging>
0

> <r_epik_Ionization_Penalty_Neutral>
4.83987e-05

> <r_epik_State_Penalty>
-0

> <r_epik_Charging_Adjusted_Penalty>
0

> <i_epik_Tot_Q>
0

> <i_epik_Tot_abs_Q>
0

> <r_epik_Metal_State_Penalty>
-0

> <b_epik_Metal_Only>
0

> <s_lp_Force_Field>
OPLS_2005

> <r_lp_Energy>
29.2759

> <b_lp_Chiralities_Consistent>
1

> <s_lp_Variant>
AV-unprocessed.smi:2914-1

> <Gold.Version>
5.8.1

> <Gold.Id.Protein>
6NUR|6NUR_protein|mol2

> <Gold.PLP.Fitness>
45.8369

> <Gold.PLP.PLP>
-37.2736

> <Gold.PLP.part.hbond>
-2.0000

> <Gold.PLP.part.metal>
0.0000

> <Gold.PLP.part.buried>
-5.7045

> <Gold.PLP.part.nonpolar>
-31.8284

> <Gold.PLP.part.repulsive>
1.7129

> <Gold.PLP.ligand.clash>
0.0000

> <Gold.PLP.ligand.torsion>
0.5465

> <Gold.PLP.Chemscore.Hbond>
2.0000

> <Gold.PLP.Chemscore.CHOScore>
0.9954

> <Gold.PLP.Chemscore.Metal>
0.0000

> <Gold.Chemscore.Hbonds>
donor molecule, donor type, donor heavy atom, donor atom, acceptor molecule, acceptor atom, score
      L1  H     3    17       P1  8028  1.00
      L1  H    13    27       P1  8028  1.00
      L1  C     6    19       P1  7948  0.99

> <Gold.PLP.Chemscore.Internal.Correction>
0.6701

> <Gold.Rescore>
     Score         DG    S(hbond)    S(metal)    S(lipo)     H(rot)  DE(clash)    DE(int)     intcor
     15.21     -16.74       1.92        0.00      72.02       1.39       0.01       1.52       ----

> <Gold.Chemscore.Fitness>
15.2104

> <Gold.Chemscore.DG>
-16.7371

> <Gold.Chemscore.ZeroCoef>
-5.4800

> <Gold.Chemscore.Hbond>
1.9152

> <Gold.Chemscore.Metal>
0.0000

> <Gold.Chemscore.Lipo>
72.0170

> <Gold.Chemscore.Internal_Hbond>
0.0000

> <Gold.Chemscore.DEClash>
0.0082

> <Gold.Chemscore.DEInternal>
1.5184

> <Gold.Chemscore.Rot>
1.3929

> <Gold.Chemscore.Internal.Correction>
   9.000000E+99

> <Gold.Chemscore.Hbonds>
donor molecule, donor type, donor heavy atom, donor atom, acceptor molecule, acceptor atom, score
      L1  H     3    17       P1  8028  1.00
      L1  H    13    27       P1  8028  0.94

> <Gold.Chemscore.Hbond.Weighted>
-6.3968

> <Gold.Chemscore.Metal.Weighted>
-0.0000

> <Gold.Chemscore.Lipo.Weighted>
-8.4260

> <Gold.Chemscore.Internal_Hbond.Weighted>
0.0000

> <Gold.Chemscore.DEClash.Weighted>
0.0082

> <Gold.Chemscore.DEInternal.Weighted>
1.5184

> <Gold.Chemscore.Rot.Weighted>
3.5657

> <Gold.Chemscore.Internal.Correction.Weighted>
   9.000000E+99

> <Gold.Protein.RotatedTorsions>
[ 6907 6896 6895 6894 ] final  167.84 input  -60.11 | X-H torsion
[ 7974 7965 7964 7962 ] final   52.84 input  175.53 | X-H torsion
[ 8008 7997 7996 7995 ] final   88.25 input   59.86 | X-H torsion
[ 10167 10162 10161 10158 ] final  149.49 input  -65.29 | X-H torsion
[ 10718 10713 10712 10709 ] final -162.29 input   66.30 | X-H torsion
[ 10763 10752 10751 10750 ] final  -29.22 input  -60.55 | X-H torsion
[ 11005 11000 10999 10996 ] final  -71.27 input  -57.11 | X-H torsion

> <Gold.Protein.ActiveResidues>
 VAL166  LYS551  ARG553  GLY616  TRP617  ASP618  TYR619  PRO620  LYS621  CYS622 
 ASP623  PHE694  ASN695  SER759  ASP760  ASP761  ALA762  ILE779  LEU786  VAL792 
 PHE793  MET794  SER795  GLU796  ALA797  LYS798  CYS799  TRP800  GLU811  SER814 

> <Gold.Protein.RotatedAtoms>
  151.8570  133.3450  159.3691 H   0  0  0  0  0  0  0  0  0  0  0  0  # atno 6907 bound_to 6896
  150.7190  134.5243  159.5678 H   0  0  0  0  0  0  0  0  0  0  0  0  # atno 6908 bound_to 6896
  152.2749  134.7893  160.0458 H   0  0  0  0  0  0  0  0  0  0  0  0  # atno 6909 bound_to 6896
  145.9772  139.4206  143.0154 H   0  0  0  0  0  0  0  0  0  0  0  0  # atno 7974 bound_to 7965
  155.9854  140.3373  155.6703 H   0  0  0  0  0  0  0  0  0  0  0  0  # atno 8008 bound_to 7997
  155.6492  140.0703  157.2611 H   0  0  0  0  0  0  0  0  0  0  0  0  # atno 8009 bound_to 7997
  154.4204  140.1729  156.1643 H   0  0  0  0  0  0  0  0  0  0  0  0  # atno 8010 bound_to 7997
  139.4861  144.5597  151.7253 H   0  0  0  0  0  0  0  0  0  0  0  0  # atno 10167 bound_to 10162
  156.6083  130.8840  151.2930 H   0  0  0  0  0  0  0  0  0  0  0  0  # atno 10718 bound_to 10713
  153.7611  135.6919  153.4925 H   0  0  0  0  0  0  0  0  0  0  0  0  # atno 10763 bound_to 10752
  153.1938  135.4461  155.0181 H   0  0  0  0  0  0  0  0  0  0  0  0  # atno 10764 bound_to 10752
  154.8153  135.3396  154.7126 H   0  0  0  0  0  0  0  0  0  0  0  0  # atno 10765 bound_to 10752
  141.1589  133.6813  156.6880 H   0  0  0  0  0  0  0  0  0  0  0  0  # atno 11005 bound_to 11000
  145.7821  140.9851  143.1093 LP  0  0  0  0  0  0  0  0  0  0  0  0  # atno 17320 bound_to 7965
  144.6852  139.9578  143.7479 LP  0  0  0  0  0  0  0  0  0  0  0  0  # atno 17321 bound_to 7965
  140.5165  144.0945  150.6010 LP  0  0  0  0  0  0  0  0  0  0  0  0  # atno 17342 bound_to 10162
  140.3888  143.2763  152.0084 LP  0  0  0  0  0  0  0  0  0  0  0  0  # atno 17343 bound_to 10162
  157.7261  130.9625  150.1642 LP  0  0  0  0  0  0  0  0  0  0  0  0  # atno 17370 bound_to 10713
  156.2411  130.3691  149.8336 LP  0  0  0  0  0  0  0  0  0  0  0  0  # atno 17371 bound_to 10713
  140.3052  134.8131  157.4131 LP  0  0  0  0  0  0  0  0  0  0  0  0  # atno 17394 bound_to 11000
  140.1227  134.5199  155.8170 LP  0  0  0  0  0  0  0  0  0  0  0  0  # atno 17395 bound_to 11000

$$$$
