AV-unprocessed.smi:1323|AV-procd|sdf|5465|dock7
  -GOLD-   22720 5 33D 1   1.00000     0.00000
 Structure written by MMmdl.
 45 46  0  0  0  0  0  0  0  0  1 V2000
  153.6936  140.0202  160.8981 C   0  0  0  0  0  0  0  0  0  0  0  0
  153.4616  141.5389  160.8403 C   0  0  2  0  0  0  0  0  0  0  0  0
  153.1997  142.1019  162.2520 C   0  0  0  0  0  0  0  0  0  0  0  0
  152.9568  143.6183  162.2253 C   0  0  0  0  0  0  0  0  0  0  0  0
  151.7986  143.9723  161.2826 C   0  0  0  0  0  0  0  0  0  0  0  0
  152.0540  143.4282  159.8693 C   0  0  0  0  0  0  0  0  0  0  0  0
  152.3063  141.9052  159.8809 C   0  0  1  0  0  0  0  0  0  0  0  0
  152.6734  141.4847  158.5730 O   0  0  0  0  0  0  0  0  0  0  0  0
  151.5771  141.1597  157.7308 C   0  0  0  0  0  0  0  0  0  0  0  0
  151.5701  142.1164  156.5339 C   0  0  0  0  0  0  0  0  0  0  0  0
  150.2490  142.1564  155.9226 N   0  0  0  0  0  0  0  0  0  0  0  0
  149.7452  141.1963  155.1353 C   0  0  0  0  0  0  0  0  0  0  0  0
  150.3625  140.1694  154.8481 O   0  0  0  0  0  0  0  0  0  0  0  0
  148.3337  141.4565  154.5889 C   0  0  0  0  0  0  0  0  0  0  0  0
  147.6631  140.2475  154.0821 N   0  0  0  0  0  0  0  0  0  0  0  0
  147.5280  140.1305  152.6844 C   0  0  0  0  0  0  0  0  0  0  0  0
  146.9347  139.0699  152.1146 C   0  0  0  0  0  0  0  0  0  0  0  0
  146.4246  138.0291  152.9752 C   0  0  0  0  0  0  0  0  0  0  0  0
  146.5526  138.1287  154.3134 C   0  0  0  0  0  0  0  0  0  0  0  0
  147.2046  139.2846  154.9404 C   0  0  0  0  0  0  0  0  0  0  0  0
  147.3304  139.3810  156.1615 O   0  0  0  0  0  0  0  0  0  0  0  0
  152.8076  139.4969  161.2589 H   0  0  0  0  0  0  0  0  0  0  0  0
  154.5195  139.7752  161.5664 H   0  0  0  0  0  0  0  0  0  0  0  0
  153.9402  139.6179  159.9154 H   0  0  0  0  0  0  0  0  0  0  0  0
  154.3753  141.9997  160.4618 H   0  0  0  0  0  0  0  0  0  0  0  0
  152.3341  141.6051  162.6926 H   0  0  0  0  0  0  0  0  0  0  0  0
  154.0456  141.8815  162.9042 H   0  0  0  0  0  0  0  0  0  0  0  0
  152.7413  143.9788  163.2316 H   0  0  0  0  0  0  0  0  0  0  0  0
  153.8640  144.1290  161.9004 H   0  0  0  0  0  0  0  0  0  0  0  0
  150.8677  143.5586  161.6723 H   0  0  0  0  0  0  0  0  0  0  0  0
  151.6661  145.0539  161.2467 H   0  0  0  0  0  0  0  0  0  0  0  0
  151.2044  143.6717  159.2316 H   0  0  0  0  0  0  0  0  0  0  0  0
  152.9171  143.9366  159.4375 H   0  0  0  0  0  0  0  0  0  0  0  0
  151.4046  141.3842  160.2098 H   0  0  0  0  0  0  0  0  0  0  0  0
  151.6829  140.1322  157.3798 H   0  0  0  0  0  0  0  0  0  0  0  0
  150.6296  141.2243  158.2669 H   0  0  0  0  0  0  0  0  0  0  0  0
  151.8649  143.1188  156.8479 H   0  0  0  0  0  0  0  0  0  0  0  0
  152.2979  141.7825  155.7930 H   0  0  0  0  0  0  0  0  0  0  0  0
  149.6842  142.9733  156.1057 H   0  0  0  0  0  0  0  0  0  0  0  0
  147.7316  141.9245  155.3701 H   0  0  0  0  0  0  0  0  0  0  0  0
  148.4068  142.2067  153.8000 H   0  0  0  0  0  0  0  0  0  0  0  0
  147.9417  140.9483  152.1123 H   0  0  0  0  0  0  0  0  0  0  0  0
  146.8450  138.9955  151.0409 H   0  0  0  0  0  0  0  0  0  0  0  0
  145.9393  137.1660  152.5435 H   0  0  0  0  0  0  0  0  0  0  0  0
  146.1662  137.3396  154.9414 H   0  0  0  0  0  0  0  0  0  0  0  0
  1  2  1  0  0  0  0
  1 22  1  0  0  0  0
  1 23  1  0  0  0  0
  1 24  1  0  0  0  0
  2  7  1  0  0  0  0
  2  3  1  0  0  0  0
  2 25  1  0  0  0  0
  3  4  1  0  0  0  0
  3 26  1  0  0  0  0
  3 27  1  0  0  0  0
  4  5  1  0  0  0  0
  4 28  1  0  0  0  0
  4 29  1  0  0  0  0
  5  6  1  0  0  0  0
  5 30  1  0  0  0  0
  5 31  1  0  0  0  0
  6  7  1  0  0  0  0
  6 32  1  0  0  0  0
  6 33  1  0  0  0  0
  7  8  1  0  0  0  0
  7 34  1  0  0  0  0
  8  9  1  0  0  0  0
  9 10  1  0  0  0  0
  9 35  1  0  0  0  0
  9 36  1  0  0  0  0
 10 11  1  0  0  0  0
 10 37  1  0  0  0  0
 10 38  1  0  0  0  0
 11 12  1  0  0  0  0
 11 39  1  0  0  0  0
 12 13  2  0  0  0  0
 12 14  1  0  0  0  0
 14 15  1  0  0  0  0
 14 40  1  0  0  0  0
 14 41  1  0  0  0  0
 15 20  1  0  0  0  0
 15 16  1  0  0  0  0
 16 17  2  0  0  0  0
 16 42  1  0  0  0  0
 17 18  1  0  0  0  0
 17 43  1  0  0  0  0
 18 19  2  0  0  0  0
 18 44  1  0  0  0  0
 19 20  1  0  0  0  0
 19 45  1  0  0  0  0
 20 21  2  0  0  0  0
M  END
> <s_m_source_file>
AV-unprocessed.smi

> <i_m_source_file_index>
1323

> <i_lp_mmshare_version>
43012

> <i_f3d_flags>
0

> <s_epik_input>
W0NIM11bQ0BASF0xW0NIMl1bQ0gyXVtDSDJdW0NIMl1bQ0BIXTFPW0NIMl1bQ0gyXVtOSF1DKD1PKVtDSDJdbjJbY0hdW2NIXVtjSF1bY0hdYzI9Tw==

> <s_epik_cmdline>
J2VwaWtfcHl0aG9uJywgJy1waCcsICc3LjAnLCAnLXRuJywgJzgnLCAnLW1hJywgJzIwMCcsICctbWV0YWxfYmluZGluZycsICctaW1hZScsICc8aW5maWxlLm1hZT4nLCAnLW9tYWUnLCAnPG91dGZpbGUubWFlPic=

> <r_lp_tautomer_probability>
1

> <r_epik_Ionization_Penalty>
4.02412e-07

> <r_epik_Ionization_Penalty_Charging>
3.74552e-07

> <r_epik_Ionization_Penalty_Neutral>
2.78599e-08

> <r_epik_State_Penalty>
-0

> <r_epik_Charging_Adjusted_Penalty>
3.74552e-07

> <i_epik_Tot_Q>
0

> <i_epik_Tot_abs_Q>
0

> <r_epik_Metal_State_Penalty>
-0

> <b_epik_Metal_Only>
0

> <s_lp_Force_Field>
OPLS_2005

> <r_lp_Energy>
21.1571

> <b_lp_Chiralities_Consistent>
1

> <s_lp_Variant>
AV-unprocessed.smi:1323-1

> <Gold.Version>
5.8.1

> <Gold.Id.Protein>
6NUR|6NUR_protein|mol2

> <Gold.PLP.Fitness>
45.7505

> <Gold.PLP.PLP>
-41.8157

> <Gold.PLP.part.hbond>
-2.0000

> <Gold.PLP.part.metal>
0.0000

> <Gold.PLP.part.buried>
-2.1018

> <Gold.PLP.part.nonpolar>
-36.0872

> <Gold.PLP.part.repulsive>
0.2146

> <Gold.PLP.ligand.clash>
0.0000

> <Gold.PLP.ligand.torsion>
1.2796

> <Gold.PLP.Chemscore.Hbond>
1.7680

> <Gold.PLP.Chemscore.CHOScore>
0.3756

> <Gold.PLP.Chemscore.Metal>
0.0000

> <Gold.Chemscore.Hbonds>
donor molecule, donor type, donor heavy atom, donor atom, acceptor molecule, acceptor atom, score
      L1  H    11    39       P1  8028  1.00
      P1  H  7989  7998       L1    13  1.00
      L1  C    16    42       P1  7957  0.47

> <Gold.PLP.Chemscore.Internal.Correction>
0.0631

> <Gold.Rescore>
     Score         DG    S(hbond)    S(metal)    S(lipo)     H(rot)  DE(clash)    DE(int)     intcor
     16.85     -19.31       1.40        0.00     120.61       1.94       1.01       1.46       ----

> <Gold.Chemscore.Fitness>
16.8500

> <Gold.Chemscore.DG>
-19.3135

> <Gold.Chemscore.ZeroCoef>
-5.4800

> <Gold.Chemscore.Hbond>
1.4035

> <Gold.Chemscore.Metal>
0.0000

> <Gold.Chemscore.Lipo>
120.6143

> <Gold.Chemscore.Internal_Hbond>
0.0000

> <Gold.Chemscore.DEClash>
1.0054

> <Gold.Chemscore.DEInternal>
1.4581

> <Gold.Chemscore.Rot>
1.9398

> <Gold.Chemscore.Internal.Correction>
   9.000000E+99

> <Gold.Chemscore.Hbonds>
donor molecule, donor type, donor heavy atom, donor atom, acceptor molecule, acceptor atom, score
      L1  H    11    39       P1  8028  0.95
      P1  H  7989  7998       L1    13  0.25

> <Gold.Chemscore.Hbond.Weighted>
-4.6876

> <Gold.Chemscore.Metal.Weighted>
-0.0000

> <Gold.Chemscore.Lipo.Weighted>
-14.1119

> <Gold.Chemscore.Internal_Hbond.Weighted>
0.0000

> <Gold.Chemscore.DEClash.Weighted>
1.0054

> <Gold.Chemscore.DEInternal.Weighted>
1.4581

> <Gold.Chemscore.Rot.Weighted>
4.9659

> <Gold.Chemscore.Internal.Correction.Weighted>
   9.000000E+99

> <Gold.Protein.RotatedTorsions>
[ 6907 6896 6895 6894 ] final  117.42 input  -60.11 | X-H torsion
[ 7974 7965 7964 7962 ] final   16.61 input  175.53 | X-H torsion
[ 8008 7997 7996 7995 ] final  148.25 input   59.86 | X-H torsion
[ 10167 10162 10161 10158 ] final -119.64 input  -65.29 | X-H torsion
[ 10718 10713 10712 10709 ] final  102.35 input   66.30 | X-H torsion
[ 10763 10752 10751 10750 ] final  118.49 input  -60.55 | X-H torsion
[ 11005 11000 10999 10996 ] final  119.67 input  -57.11 | X-H torsion

> <Gold.Protein.ActiveResidues>
 VAL166  LYS551  ARG553  GLY616  TRP617  ASP618  TYR619  PRO620  LYS621  CYS622 
 ASP623  PHE694  ASN695  SER759  ASP760  ASP761  ALA762  ILE779  LEU786  VAL792 
 PHE793  MET794  SER795  GLU796  ALA797  LYS798  CYS799  TRP800  GLU811  SER814 

> <Gold.Protein.RotatedAtoms>
  152.4613  133.7828  159.6859 H   0  0  0  0  0  0  0  0  0  0  0  0  # atno 6907 bound_to 6896
  150.8558  133.7708  159.3016 H   0  0  0  0  0  0  0  0  0  0  0  0  # atno 6908 bound_to 6896
  151.5289  135.1071  159.9949 H   0  0  0  0  0  0  0  0  0  0  0  0  # atno 6909 bound_to 6896
  146.2244  139.8722  142.8585 H   0  0  0  0  0  0  0  0  0  0  0  0  # atno 7974 bound_to 7965
  156.2797  140.2133  156.5669 H   0  0  0  0  0  0  0  0  0  0  0  0  # atno 8008 bound_to 7997
  154.7167  140.0507  157.0624 H   0  0  0  0  0  0  0  0  0  0  0  0  # atno 8009 bound_to 7997
  155.0532  140.3158  155.4688 H   0  0  0  0  0  0  0  0  0  0  0  0  # atno 8010 bound_to 7997
  140.0445  143.5121  152.2113 H   0  0  0  0  0  0  0  0  0  0  0  0  # atno 10167 bound_to 10162
  157.6804  131.0750  150.5390 H   0  0  0  0  0  0  0  0  0  0  0  0  # atno 10718 bound_to 10713
  153.5684  135.3507  155.2828 H   0  0  0  0  0  0  0  0  0  0  0  0  # atno 10763 bound_to 10752
  154.8685  135.4153  154.2753 H   0  0  0  0  0  0  0  0  0  0  0  0  # atno 10764 bound_to 10752
  153.3513  135.7055  153.6856 H   0  0  0  0  0  0  0  0  0  0  0  0  # atno 10765 bound_to 10752
  139.9155  134.9630  156.7691 H   0  0  0  0  0  0  0  0  0  0  0  0  # atno 11005 bound_to 11000
  145.2597  141.0072  143.3834 LP  0  0  0  0  0  0  0  0  0  0  0  0  # atno 17320 bound_to 7965
  144.9309  139.4300  143.6496 LP  0  0  0  0  0  0  0  0  0  0  0  0  # atno 17321 bound_to 7965
  139.5993  144.7577  151.3211 LP  0  0  0  0  0  0  0  0  0  0  0  0  # atno 17342 bound_to 10162
  140.7245  143.7042  150.7820 LP  0  0  0  0  0  0  0  0  0  0  0  0  # atno 17343 bound_to 10162
  156.5698  130.4277  149.6025 LP  0  0  0  0  0  0  0  0  0  0  0  0  # atno 17370 bound_to 10713
  156.2751  130.7039  151.1847 LP  0  0  0  0  0  0  0  0  0  0  0  0  # atno 17371 bound_to 10713
  140.6636  133.9623  155.7818 LP  0  0  0  0  0  0  0  0  0  0  0  0  # atno 17394 bound_to 11000
  141.0627  134.0323  157.3637 LP  0  0  0  0  0  0  0  0  0  0  0  0  # atno 17395 bound_to 11000

$$$$
