AV-unprocessed.smi:2198|AV-procd|sdf|8922|dock7
  -GOLD-   2272012143D 1   1.00000     0.00000
 Structure written by MMmdl.
 42 43  0  0  0  0  0  0  0  0  2 V2000
  150.6381  134.0828  157.0910 C   0  0  0  0  0  0  0  0  0  0  0  0
  150.5486  135.5702  157.3585 C   0  0  0  0  0  0  0  0  0  0  0  0
  150.9424  136.3914  156.4615 N   0  0  0  0  0  0  0  0  0  0  0  0
  150.8652  137.7730  156.7063 C   0  0  0  0  0  0  0  0  0  0  0  0
  151.3614  138.6710  155.5863 C   0  0  0  0  0  0  0  0  0  0  0  0
  150.3729  138.2552  157.8837 C   0  0  0  0  0  0  0  0  0  0  0  0
  150.2752  139.7468  158.2018 C   0  0  0  0  0  0  0  0  0  0  0  0
  151.6038  140.5044  158.2031 C   0  0  0  0  0  0  0  0  0  0  0  0
  152.6128  139.9813  157.7308 O   0  0  0  0  0  0  0  0  0  0  0  0
  151.5906  141.7350  158.7381 N   0  0  0  0  0  0  0  0  0  0  0  0
  152.7430  142.6270  158.8485 C   0  0  1  0  0  0  0  0  0  0  0  0
  152.4649  143.9911  158.1825 C   0  0  0  0  0  0  0  0  0  0  0  0
  151.4383  144.8205  158.9718 C   0  0  0  0  0  0  0  0  0  0  0  0
  151.8712  144.9978  160.4353 C   0  0  0  0  0  0  0  0  0  0  0  0
  152.1140  143.6409  161.1233 C   0  0  2  0  0  0  0  0  0  0  0  0
  152.5521  143.8242  162.5834 C   0  0  0  0  0  0  0  0  0  0  0  0
  153.1399  142.8055  160.3278 C   0  0  0  0  0  0  0  0  0  0  0  0
  149.9218  137.2749  158.8884 C   0  0  0  0  0  0  0  0  0  0  0  0
  149.4547  137.6541  159.9616 O   0  0  0  0  0  0  0  0  0  0  0  0
  150.0401  135.9520  158.5795 N   0  5  0  0  0  0  0  0  0  0  0  0
  150.8736  133.8854  156.0445 H   0  0  0  0  0  0  0  0  0  0  0  0
  149.6904  133.5958  157.3237 H   0  0  0  0  0  0  0  0  0  0  0  0
  151.4174  133.6360  157.7087 H   0  0  0  0  0  0  0  0  0  0  0  0
  152.1694  139.3136  155.9362 H   0  0  0  0  0  0  0  0  0  0  0  0
  150.5526  139.2979  155.2113 H   0  0  0  0  0  0  0  0  0  0  0  0
  151.7423  138.0840  154.7497 H   0  0  0  0  0  0  0  0  0  0  0  0
  149.6004  140.2477  157.5072 H   0  0  0  0  0  0  0  0  0  0  0  0
  149.7940  139.8622  159.1734 H   0  0  0  0  0  0  0  0  0  0  0  0
  150.7143  142.0802  159.1018 H   0  0  0  0  0  0  0  0  0  0  0  0
  153.5833  142.1558  158.3354 H   0  0  0  0  0  0  0  0  0  0  0  0
  153.3983  144.5515  158.1168 H   0  0  0  0  0  0  0  0  0  0  0  0
  152.1244  143.8539  157.1554 H   0  0  0  0  0  0  0  0  0  0  0  0
  151.3119  145.7962  158.5020 H   0  0  0  0  0  0  0  0  0  0  0  0
  150.4632  144.3333  158.9343 H   0  0  0  0  0  0  0  0  0  0  0  0
  152.7807  145.5990  160.4738 H   0  0  0  0  0  0  0  0  0  0  0  0
  151.1076  145.5587  160.9755 H   0  0  0  0  0  0  0  0  0  0  0  0
  151.1683  143.0972  161.1349 H   0  0  0  0  0  0  0  0  0  0  0  0
  153.4945  144.3690  162.6497 H   0  0  0  0  0  0  0  0  0  0  0  0
  152.6885  142.8616  163.0766 H   0  0  0  0  0  0  0  0  0  0  0  0
  151.8052  144.3809  163.1502 H   0  0  0  0  0  0  0  0  0  0  0  0
  153.2725  141.8288  160.7955 H   0  0  0  0  0  0  0  0  0  0  0  0
  154.1134  143.2959  160.3744 H   0  0  0  0  0  0  0  0  0  0  0  0
  1  2  1  0  0  0  0
  1 21  1  0  0  0  0
  1 22  1  0  0  0  0
  1 23  1  0  0  0  0
  2 20  1  0  0  0  0
  2  3  2  0  0  0  0
  3  4  1  0  0  0  0
  4  5  1  0  0  0  0
  4  6  2  0  0  0  0
  5 24  1  0  0  0  0
  5 25  1  0  0  0  0
  5 26  1  0  0  0  0
  6  7  1  0  0  0  0
  6 18  1  0  0  0  0
  7  8  1  0  0  0  0
  7 27  1  0  0  0  0
  7 28  1  0  0  0  0
  8  9  2  0  0  0  0
  8 10  1  0  0  0  0
 10 11  1  0  0  0  0
 10 29  1  0  0  0  0
 11 17  1  0  0  0  0
 11 12  1  0  0  0  0
 11 30  1  0  0  0  0
 12 13  1  0  0  0  0
 12 31  1  0  0  0  0
 12 32  1  0  0  0  0
 13 14  1  0  0  0  0
 13 33  1  0  0  0  0
 13 34  1  0  0  0  0
 14 15  1  0  0  0  0
 14 35  1  0  0  0  0
 14 36  1  0  0  0  0
 15 16  1  0  0  0  0
 15 17  1  0  0  0  0
 15 37  1  0  0  0  0
 16 38  1  0  0  0  0
 16 39  1  0  0  0  0
 16 40  1  0  0  0  0
 17 41  1  0  0  0  0
 17 42  1  0  0  0  0
 18 19  2  0  0  0  0
 18 20  1  0  0  0  0
M  CHG  1  20  -1
M  END
> <s_m_source_file>
AV-unprocessed.smi

> <i_m_source_file_index>
2198

> <i_lp_mmshare_version>
43012

> <i_f3d_flags>
0

> <s_epik_input>
W0NIM11jMW5jKFtDSDNdKWMoYyg9TylbbkhdMSlbQ0gyXUMoPU8pW05IXVtDQEBIXTJbQ0gyXVtDSDJdW0NIMl1bQ0BASF0oW0NIM10pW0NIMl0y

> <s_epik_cmdline>
J2VwaWtfcHl0aG9uJywgJy1waCcsICc3LjAnLCAnLXRuJywgJzgnLCAnLW1hJywgJzIwMCcsICctbWV0YWxfYmluZGluZycsICctaW1hZScsICc8aW5maWxlLm1hZT4nLCAnLW9tYWUnLCAnPG91dGZpbGUubWFlPic=

> <r_lp_tautomer_probability>
0.839158

> <r_epik_Ionization_Penalty>
6.67193

> <r_epik_Ionization_Penalty_Charging>
7.66837e-08

> <r_epik_Ionization_Penalty_Neutral>
6.67193

> <r_epik_State_Penalty>
4.51643

> <r_epik_Charging_Adjusted_Penalty>
4.51643

> <i_epik_Tot_Q>
-1

> <i_epik_Tot_abs_Q>
1

> <r_epik_Metal_State_Penalty>
0.851582

> <b_epik_Metal_Only>
1

> <s_lp_Force_Field>
OPLS_2005

> <r_lp_Energy>
13.9181

> <b_lp_Chiralities_Consistent>
1

> <s_lp_Variant>
AV-unprocessed.smi:2198-12

> <Gold.Version>
5.8.1

> <Gold.Id.Protein>
6NUR|6NUR_protein|mol2

> <Gold.PLP.Fitness>
49.6564

> <Gold.PLP.PLP>
-41.1190

> <Gold.PLP.part.hbond>
-3.0000

> <Gold.PLP.part.metal>
0.0000

> <Gold.PLP.part.buried>
-5.6996

> <Gold.PLP.part.nonpolar>
-33.7665

> <Gold.PLP.part.repulsive>
0.1432

> <Gold.PLP.ligand.clash>
0.0000

> <Gold.PLP.ligand.torsion>
0.1929

> <Gold.PLP.Chemscore.Hbond>
2.9720

> <Gold.PLP.Chemscore.CHOScore>
0.0000

> <Gold.PLP.Chemscore.Metal>
0.0000

> <Gold.Chemscore.Hbonds>
donor molecule, donor type, donor heavy atom, donor atom, acceptor molecule, acceptor atom, score
      P1  H  6896  6907       L1    20  2.00
      P1  H  6931  6943       L1    19  0.16
      P1  H  7997  8009       L1     9  0.93

> <Gold.PLP.Chemscore.Internal.Correction>
0.0073

> <Gold.Rescore>
     Score         DG    S(hbond)    S(metal)    S(lipo)     H(rot)  DE(clash)    DE(int)     intcor
     18.48     -19.24       1.53        0.00     105.61       1.45       0.46       0.30       ----

> <Gold.Chemscore.Fitness>
18.4790

> <Gold.Chemscore.DG>
-19.2380

> <Gold.Chemscore.ZeroCoef>
-5.4800

> <Gold.Chemscore.Hbond>
1.5273

> <Gold.Chemscore.Metal>
0.0000

> <Gold.Chemscore.Lipo>
105.6072

> <Gold.Chemscore.Internal_Hbond>
0.0000

> <Gold.Chemscore.DEClash>
0.4602

> <Gold.Chemscore.DEInternal>
0.2989

> <Gold.Chemscore.Rot>
1.4450

> <Gold.Chemscore.Internal.Correction>
   9.000000E+99

> <Gold.Chemscore.Hbonds>
donor molecule, donor type, donor heavy atom, donor atom, acceptor molecule, acceptor atom, score
      P1  H  6896  6907       L1    20  0.25
      P1  H  6931  6943       L1    19  0.16
      P1  H  7997  8009       L1     9  0.86

> <Gold.Chemscore.Hbond.Weighted>
-5.1012

> <Gold.Chemscore.Metal.Weighted>
-0.0000

> <Gold.Chemscore.Lipo.Weighted>
-12.3560

> <Gold.Chemscore.Internal_Hbond.Weighted>
0.0000

> <Gold.Chemscore.DEClash.Weighted>
0.4602

> <Gold.Chemscore.DEInternal.Weighted>
0.2989

> <Gold.Chemscore.Rot.Weighted>
3.6992

> <Gold.Chemscore.Internal.Correction.Weighted>
   9.000000E+99

> <Gold.Protein.RotatedTorsions>
[ 6907 6896 6895 6894 ] final  -59.22 input  -60.11 | X-H torsion
[ 7974 7965 7964 7962 ] final   20.23 input  175.53 | X-H torsion
[ 8008 7997 7996 7995 ] final  178.41 input   59.86 | X-H torsion
[ 10167 10162 10161 10158 ] final  -50.15 input  -65.29 | X-H torsion
[ 10718 10713 10712 10709 ] final  159.42 input   66.30 | X-H torsion
[ 10763 10752 10751 10750 ] final -150.69 input  -60.55 | X-H torsion
[ 11005 11000 10999 10996 ] final  107.80 input  -57.11 | X-H torsion

> <Gold.Protein.ActiveResidues>
 VAL166  LYS551  ARG553  GLY616  TRP617  ASP618  TYR619  PRO620  LYS621  CYS622 
 ASP623  PHE694  ASN695  SER759  ASP760  ASP761  ALA762  ILE779  LEU786  VAL792 
 PHE793  MET794  SER795  GLU796  ALA797  LYS798  CYS799  TRP800  GLU811  SER814 

> <Gold.Protein.RotatedAtoms>
  150.7947  134.6997  159.6542 H   0  0  0  0  0  0  0  0  0  0  0  0  # atno 6907 bound_to 6896
  152.4058  134.6206  160.0059 H   0  0  0  0  0  0  0  0  0  0  0  0  # atno 6908 bound_to 6896
  151.6464  133.3286  159.3178 H   0  0  0  0  0  0  0  0  0  0  0  0  # atno 6909 bound_to 6896
  146.2119  139.8199  142.8682 H   0  0  0  0  0  0  0  0  0  0  0  0  # atno 7974 bound_to 7965
  156.0550  140.1334  157.0007 H   0  0  0  0  0  0  0  0  0  0  0  0  # atno 8008 bound_to 7997
  154.4453  140.1003  156.6503 H   0  0  0  0  0  0  0  0  0  0  0  0  # atno 8009 bound_to 7997
  155.5465  140.3462  155.4461 H   0  0  0  0  0  0  0  0  0  0  0  0  # atno 8010 bound_to 7997
  140.6651  143.2669  151.4317 H   0  0  0  0  0  0  0  0  0  0  0  0  # atno 10167 bound_to 10162
  157.1644  131.0595  151.2215 H   0  0  0  0  0  0  0  0  0  0  0  0  # atno 10718 bound_to 10713
  154.8104  135.3278  154.7321 H   0  0  0  0  0  0  0  0  0  0  0  0  # atno 10763 bound_to 10752
  153.7971  135.6906  153.4866 H   0  0  0  0  0  0  0  0  0  0  0  0  # atno 10764 bound_to 10752
  153.1878  135.4562  155.0057 H   0  0  0  0  0  0  0  0  0  0  0  0  # atno 10765 bound_to 10752
  139.8834  134.9412  156.5875 H   0  0  0  0  0  0  0  0  0  0  0  0  # atno 11005 bound_to 11000
  145.3107  141.0219  143.3556 LP  0  0  0  0  0  0  0  0  0  0  0  0  # atno 17320 bound_to 7965
  144.8938  139.4739  143.6665 LP  0  0  0  0  0  0  0  0  0  0  0  0  # atno 17321 bound_to 7965
  139.5898  144.1525  152.2074 LP  0  0  0  0  0  0  0  0  0  0  0  0  # atno 17342 bound_to 10162
  140.0876  144.5648  150.7078 LP  0  0  0  0  0  0  0  0  0  0  0  0  # atno 17343 bound_to 10162
  157.4102  130.7381  149.6833 LP  0  0  0  0  0  0  0  0  0  0  0  0  # atno 17370 bound_to 10713
  155.9748  130.4097  150.3893 LP  0  0  0  0  0  0  0  0  0  0  0  0  # atno 17371 bound_to 10713
  140.7980  133.8528  155.8702 LP  0  0  0  0  0  0  0  0  0  0  0  0  # atno 17394 bound_to 11000
  140.9618  134.1646  157.4648 LP  0  0  0  0  0  0  0  0  0  0  0  0  # atno 17395 bound_to 11000

$$$$
