AV-unprocessed.smi:2083|AV-procd|sdf|8496|dock10
  -GOLD-   2272011203D 1   1.00000     0.00000
 Structure written by MMmdl.
 45 46  0  0  0  0  0  0  0  0  2 V2000
  146.8037  135.4467  162.7132 C   0  0  0  0  0  0  0  0  0  0  0  0
  147.1376  135.9630  161.3558 C   0  0  0  0  0  0  0  0  0  0  0  0
  147.1896  135.3741  160.1237 C   0  0  0  0  0  0  0  0  0  0  0  0
  147.5798  136.4434  159.2747 C   0  0  0  0  0  0  0  0  0  0  0  0
  147.7491  136.2414  157.8814 N   0  0  0  0  0  0  0  0  0  0  0  0
  148.5144  135.3169  157.2771 C   0  0  0  0  0  0  0  0  0  0  0  0
  149.1946  134.4690  157.8556 O   0  0  0  0  0  0  0  0  0  0  0  0
  148.4524  135.4250  155.9420 N   0  0  0  0  0  0  0  0  0  0  0  0
  149.1617  134.5598  155.0031 C   0  0  0  0  0  0  0  0  0  0  0  0
  148.2291  133.5432  154.2839 C   0  0  2  0  0  0  0  0  0  0  0  0
  149.0625  132.3807  153.6980 C   0  0  0  0  0  0  0  0  0  0  0  0
  147.3686  134.1463  153.2118 N   0  3  2  0  0  0  0  0  0  0  0  0
  146.3930  135.1810  153.6648 C   0  0  0  0  0  0  0  0  0  0  0  0
  145.6497  135.8204  152.4801 C   0  0  0  0  0  0  0  0  0  0  0  0
  144.9521  134.7630  151.6204 C   0  0  0  0  0  0  0  0  0  0  0  0
  145.9701  133.7074  151.1665 C   0  0  2  0  0  0  0  0  0  0  0  0
  145.3052  132.6205  150.3098 C   0  0  0  0  0  0  0  0  0  0  0  0
  146.6838  133.1041  152.3921 C   0  0  0  0  0  0  0  0  0  0  0  0
  147.7472  137.5830  159.9283 N   0  0  0  0  0  0  0  0  0  0  0  0
  147.4655  137.2805  161.2657 O   0  0  0  0  0  0  0  0  0  0  0  0
  146.3981  134.4366  162.6571 H   0  0  0  0  0  0  0  0  0  0  0  0
  146.0624  136.0819  163.1981 H   0  0  0  0  0  0  0  0  0  0  0  0
  147.6920  135.4195  163.3443 H   0  0  0  0  0  0  0  0  0  0  0  0
  146.9829  134.3440  159.8741 H   0  0  0  0  0  0  0  0  0  0  0  0
  147.2319  136.8683  157.2830 H   0  0  0  0  0  0  0  0  0  0  0  0
  147.8695  136.1489  155.5472 H   0  0  0  0  0  0  0  0  0  0  0  0
  149.6699  135.2102  154.2899 H   0  0  0  0  0  0  0  0  0  0  0  0
  149.9375  134.0311  155.5579 H   0  0  0  0  0  0  0  0  0  0  0  0
  147.5588  133.1342  155.0416 H   0  0  0  0  0  0  0  0  0  0  0  0
  149.6547  131.8807  154.4643 H   0  0  0  0  0  0  0  0  0  0  0  0
  149.7520  132.7403  152.9337 H   0  0  0  0  0  0  0  0  0  0  0  0
  148.4456  131.6070  153.2446 H   0  0  0  0  0  0  0  0  0  0  0  0
  145.6824  134.7353  154.3630 H   0  0  0  0  0  0  0  0  0  0  0  0
  146.8998  135.9916  154.1868 H   0  0  0  0  0  0  0  0  0  0  0  0
  144.9189  136.5423  152.8462 H   0  0  0  0  0  0  0  0  0  0  0  0
  146.3558  136.3814  151.8666 H   0  0  0  0  0  0  0  0  0  0  0  0
  144.1511  134.2922  152.1926 H   0  0  0  0  0  0  0  0  0  0  0  0
  144.4837  135.2364  150.7566 H   0  0  0  0  0  0  0  0  0  0  0  0
  146.7201  134.2007  150.5461 H   0  0  0  0  0  0  0  0  0  0  0  0
  144.5433  132.0813  150.8735 H   0  0  0  0  0  0  0  0  0  0  0  0
  146.0375  131.8929  149.9595 H   0  0  0  0  0  0  0  0  0  0  0  0
  144.8254  133.0526  149.4310 H   0  0  0  0  0  0  0  0  0  0  0  0
  147.3978  132.3605  152.0424 H   0  0  0  0  0  0  0  0  0  0  0  0
  145.9655  132.5700  153.0166 H   0  0  0  0  0  0  0  0  0  0  0  0
  148.0032  134.6309  152.5935 H   0  0  0  0  0  0  0  0  0  0  0  0
  1  2  1  0  0  0  0
  1 21  1  0  0  0  0
  1 22  1  0  0  0  0
  1 23  1  0  0  0  0
  2 20  1  0  0  0  0
  2  3  2  0  0  0  0
  3  4  1  0  0  0  0
  3 24  1  0  0  0  0
  4  5  1  0  0  0  0
  4 19  2  0  0  0  0
  5  6  1  0  0  0  0
  5 25  1  0  0  0  0
  6  7  2  0  0  0  0
  6  8  1  0  0  0  0
  8  9  1  0  0  0  0
  8 26  1  0  0  0  0
  9 10  1  0  0  0  0
  9 27  1  0  0  0  0
  9 28  1  0  0  0  0
 10 11  1  0  0  0  0
 10 12  1  0  0  0  0
 10 29  1  0  0  0  0
 11 30  1  0  0  0  0
 11 31  1  0  0  0  0
 11 32  1  0  0  0  0
 12 18  1  0  0  0  0
 12 13  1  0  0  0  0
 12 45  1  0  0  0  0
 13 14  1  0  0  0  0
 13 33  1  0  0  0  0
 13 34  1  0  0  0  0
 14 15  1  0  0  0  0
 14 35  1  0  0  0  0
 14 36  1  0  0  0  0
 15 16  1  0  0  0  0
 15 37  1  0  0  0  0
 15 38  1  0  0  0  0
 16 17  1  0  0  0  0
 16 18  1  0  0  0  0
 16 39  1  0  0  0  0
 17 40  1  0  0  0  0
 17 41  1  0  0  0  0
 17 42  1  0  0  0  0
 18 43  1  0  0  0  0
 18 44  1  0  0  0  0
 19 20  1  0  0  0  0
M  CHG  1  12   1
M  END
> <s_m_source_file>
AV-unprocessed.smi

> <i_m_source_file_index>
2083

> <i_lp_mmshare_version>
43012

> <i_f3d_flags>
0

> <s_epik_input>
W0NIM11jMVtjSF1jKG5vMSlbTkhdQyg9TylbTkhdW0NIMl1bQ0BIXShbQ0gzXSlOMltDSDJdW0NIMl1bQ0gyXVtDQEBIXShbQ0gzXSlbQ0gyXTI=

> <s_epik_cmdline>
J2VwaWtfcHl0aG9uJywgJy1waCcsICc3LjAnLCAnLXRuJywgJzgnLCAnLW1hJywgJzIwMCcsICctbWV0YWxfYmluZGluZycsICctaW1hZScsICc8aW5maWxlLm1hZT4nLCAnLW9tYWUnLCAnPG91dGZpbGUubWFlPic=

> <r_epik_Ionization_Penalty>
0.00216453

> <r_epik_Ionization_Penalty_Charging>
0.00212879

> <r_epik_Ionization_Penalty_Neutral>
3.57418e-05

> <r_epik_State_Penalty>
0.00146033

> <r_epik_Charging_Adjusted_Penalty>
0.00358912

> <i_epik_Tot_Q>
1

> <i_epik_Tot_abs_Q>
1

> <r_epik_Metal_State_Penalty>
0.0215827

> <b_epik_Metal_Only>
0

> <s_lp_Force_Field>
OPLS_2005

> <r_lp_Energy>
18.748

> <b_lp_Chiralities_Consistent>
1

> <s_lp_Variant>
AV-unprocessed.smi:2083-7

> <Gold.Version>
5.8.1

> <Gold.Id.Protein>
6NUR|6NUR_protein|mol2

> <Gold.PLP.Fitness>
44.1880

> <Gold.PLP.PLP>
-33.7379

> <Gold.PLP.part.hbond>
-6.0000

> <Gold.PLP.part.metal>
0.0000

> <Gold.PLP.part.buried>
-3.0348

> <Gold.PLP.part.nonpolar>
-23.9300

> <Gold.PLP.part.repulsive>
0.0246

> <Gold.PLP.ligand.clash>
0.0000

> <Gold.PLP.ligand.torsion>
0.8002

> <Gold.PLP.Chemscore.Hbond>
4.0000

> <Gold.PLP.Chemscore.CHOScore>
0.0000

> <Gold.PLP.Chemscore.Metal>
0.0000

> <Gold.Chemscore.Hbonds>
donor molecule, donor type, donor heavy atom, donor atom, acceptor molecule, acceptor atom, score
      L1  H    12    45       P1  7948  2.00
      P1  H  6896  6907       L1     7  0.71
      P1  H  6931  6943       L1    20  0.56

> <Gold.PLP.Chemscore.Internal.Correction>
0.0504

> <Gold.Rescore>
     Score         DG    S(hbond)    S(metal)    S(lipo)     H(rot)  DE(clash)    DE(int)     intcor
     16.16     -17.30       2.30        0.00      69.24       1.55       0.02       1.12       ----

> <Gold.Chemscore.Fitness>
16.1607

> <Gold.Chemscore.DG>
-17.2977

> <Gold.Chemscore.ZeroCoef>
-5.4800

> <Gold.Chemscore.Hbond>
2.2989

> <Gold.Chemscore.Metal>
0.0000

> <Gold.Chemscore.Lipo>
69.2353

> <Gold.Chemscore.Internal_Hbond>
0.0000

> <Gold.Chemscore.DEClash>
0.0197

> <Gold.Chemscore.DEInternal>
1.1174

> <Gold.Chemscore.Rot>
1.5474

> <Gold.Chemscore.Internal.Correction>
   9.000000E+99

> <Gold.Chemscore.Hbonds>
donor molecule, donor type, donor heavy atom, donor atom, acceptor molecule, acceptor atom, score
      L1  H    12    45       P1  7948  0.59
      P1  H  6896  6907       L1     7  0.70
      P1  H  6931  6943       L1    20  0.05

> <Gold.Chemscore.Hbond.Weighted>
-7.6784

> <Gold.Chemscore.Metal.Weighted>
-0.0000

> <Gold.Chemscore.Lipo.Weighted>
-8.1005

> <Gold.Chemscore.Internal_Hbond.Weighted>
0.0000

> <Gold.Chemscore.DEClash.Weighted>
0.0197

> <Gold.Chemscore.DEInternal.Weighted>
1.1174

> <Gold.Chemscore.Rot.Weighted>
3.9612

> <Gold.Chemscore.Internal.Correction.Weighted>
   9.000000E+99

> <Gold.Protein.RotatedTorsions>
[ 6907 6896 6895 6894 ] final -108.18 input  -60.11 | X-H torsion
[ 7974 7965 7964 7962 ] final  -27.76 input  175.53 | X-H torsion
[ 8008 7997 7996 7995 ] final  -39.90 input   59.86 | X-H torsion
[ 10167 10162 10161 10158 ] final  -55.08 input  -65.29 | X-H torsion
[ 10718 10713 10712 10709 ] final  -40.53 input   66.30 | X-H torsion
[ 10763 10752 10751 10750 ] final  -50.21 input  -60.55 | X-H torsion
[ 11005 11000 10999 10996 ] final  179.52 input  -57.11 | X-H torsion

> <Gold.Protein.ActiveResidues>
 VAL166  LYS551  ARG553  GLY616  TRP617  ASP618  TYR619  PRO620  LYS621  CYS622 
 ASP623  PHE694  ASN695  SER759  ASP760  ASP761  ALA762  ILE779  LEU786  VAL792 
 PHE793  MET794  SER795  GLU796  ALA797  LYS798  CYS799  TRP800  GLU811  SER814 

> <Gold.Protein.RotatedAtoms>
  150.7487  133.9715  159.3547 H   0  0  0  0  0  0  0  0  0  0  0  0  # atno 6907 bound_to 6896
  151.7649  135.0799  160.0360 H   0  0  0  0  0  0  0  0  0  0  0  0  # atno 6908 bound_to 6896
  152.3378  133.5995  159.5891 H   0  0  0  0  0  0  0  0  0  0  0  0  # atno 6909 bound_to 6896
  146.1335  140.5194  142.8683 H   0  0  0  0  0  0  0  0  0  0  0  0  # atno 7974 bound_to 7965
  154.4018  140.1539  156.2940 H   0  0  0  0  0  0  0  0  0  0  0  0  # atno 8008 bound_to 7997
  155.8760  140.3446  155.5833 H   0  0  0  0  0  0  0  0  0  0  0  0  # atno 8009 bound_to 7997
  155.7721  140.0831  157.2093 H   0  0  0  0  0  0  0  0  0  0  0  0  # atno 8010 bound_to 7997
  140.6395  143.2500  151.5029 H   0  0  0  0  0  0  0  0  0  0  0  0  # atno 10167 bound_to 10162
  156.2803  130.4216  149.8344 H   0  0  0  0  0  0  0  0  0  0  0  0  # atno 10718 bound_to 10713
  154.1067  135.6555  153.4877 H   0  0  0  0  0  0  0  0  0  0  0  0  # atno 10763 bound_to 10752
  153.0270  135.5238  154.7233 H   0  0  0  0  0  0  0  0  0  0  0  0  # atno 10764 bound_to 10752
  154.6401  135.2987  155.0083 H   0  0  0  0  0  0  0  0  0  0  0  0  # atno 10765 bound_to 10752
  140.4071  134.6725  157.4594 H   0  0  0  0  0  0  0  0  0  0  0  0  # atno 11005 bound_to 11000
  144.7715  140.5648  143.6667 LP  0  0  0  0  0  0  0  0  0  0  0  0  # atno 17320 bound_to 7965
  145.5207  139.1477  143.3554 LP  0  0  0  0  0  0  0  0  0  0  0  0  # atno 17321 bound_to 7965
  139.5604  144.2171  152.1682 LP  0  0  0  0  0  0  0  0  0  0  0  0  # atno 17342 bound_to 10162
  140.1437  144.5179  150.6729 LP  0  0  0  0  0  0  0  0  0  0  0  0  # atno 17343 bound_to 10162
  156.5794  130.8459  151.3379 LP  0  0  0  0  0  0  0  0  0  0  0  0  # atno 17370 bound_to 10713
  157.7312  130.9697  150.1869 LP  0  0  0  0  0  0  0  0  0  0  0  0  # atno 17371 bound_to 10713
  140.0294  134.6429  155.9128 LP  0  0  0  0  0  0  0  0  0  0  0  0  # atno 17394 bound_to 11000
  141.1835  133.6551  156.5119 LP  0  0  0  0  0  0  0  0  0  0  0  0  # atno 17395 bound_to 11000

$$$$
