AV-unprocessed.smi:1006|AV-procd|sdf|4392|dock2
  -GOLD-   22720 2323D 1   1.00000     0.00000
 Structure written by MMmdl.
 46 48  0  0  0  0  0  0  0  0  2 V2000
  147.3449  133.3316  151.9200 C   0  0  0  0  0  0  0  0  0  0  0  0
  146.8374  133.9898  153.1855 C   0  0  0  0  0  0  0  0  0  0  0  0
  145.7613  133.4588  153.9255 C   0  0  0  0  0  0  0  0  0  0  0  0
  145.3820  134.1584  155.0844 C   0  0  0  0  0  0  0  0  0  0  0  0
  144.3324  133.7083  155.8809 N   0  0  0  0  0  0  0  0  0  0  0  0
  146.0172  135.2837  155.4669 N   0  0  0  0  0  0  0  0  0  0  0  0
  147.0318  135.7347  154.7175 C   0  0  0  0  0  0  0  0  0  0  0  0
  147.9023  137.2111  155.2123 S   0  0  0  0  0  0  0  0  0  0  0  0
  149.6276  136.6386  155.3097 C   0  0  0  0  0  0  0  0  0  0  0  0
  150.6243  137.7471  154.9346 C   0  0  2  0  0  0  0  0  0  0  0  0
  151.6547  137.1897  154.1408 O   0  0  0  0  0  0  0  0  0  0  0  0
  151.2338  138.4191  156.1799 C   0  0  0  0  0  0  0  0  0  0  0  0
  150.9436  139.8408  156.2444 N   0  0  0  0  0  0  0  0  0  0  0  0
  150.1686  140.5490  155.4007 C   0  0  0  0  0  0  0  0  0  0  0  0
  150.0355  141.8499  155.6420 N   0  0  0  0  0  0  0  0  0  0  0  0
  150.8141  142.0039  156.7764 C   0  0  0  0  0  0  0  0  0  0  0  0
  151.0946  143.1540  157.5463 C   0  0  0  0  0  0  0  0  0  0  0  0
  151.9281  143.0788  158.6850 C   0  0  0  0  0  0  0  0  0  0  0  0
  152.2009  144.3402  159.4853 C   0  0  0  0  0  0  0  0  0  0  0  0
  152.4969  141.8375  159.0678 C   0  0  0  0  0  0  0  0  0  0  0  0
  153.3942  141.7319  160.2883 C   0  0  0  0  0  0  0  0  0  0  0  0
  152.2285  140.6791  158.3088 C   0  0  0  0  0  0  0  0  0  0  0  0
  151.3958  140.7662  157.1793 C   0  0  0  0  0  0  0  0  0  0  0  0
  147.4560  135.1231  153.6023 N   0  3  0  0  0  0  0  0  0  0  0  0
  146.6660  132.5458  151.5874 H   0  0  0  0  0  0  0  0  0  0  0  0
  148.3252  132.8864  152.0920 H   0  0  0  0  0  0  0  0  0  0  0  0
  147.4347  134.0638  151.1169 H   0  0  0  0  0  0  0  0  0  0  0  0
  145.2530  132.5562  153.6171 H   0  0  0  0  0  0  0  0  0  0  0  0
  143.8144  132.8718  155.6534 H   0  0  0  0  0  0  0  0  0  0  0  0
  144.0654  134.1949  156.7248 H   0  0  0  0  0  0  0  0  0  0  0  0
  149.8154  136.3038  156.3306 H   0  0  0  0  0  0  0  0  0  0  0  0
  149.7668  135.7756  154.6575 H   0  0  0  0  0  0  0  0  0  0  0  0
  150.1114  138.5045  154.3400 H   0  0  0  0  0  0  0  0  0  0  0  0
  151.3180  137.0427  153.2701 H   0  0  0  0  0  0  0  0  0  0  0  0
  150.8476  137.9522  157.0866 H   0  0  0  0  0  0  0  0  0  0  0  0
  152.3158  138.2815  156.1967 H   0  0  0  0  0  0  0  0  0  0  0  0
  149.6752  140.0827  154.5606 H   0  0  0  0  0  0  0  0  0  0  0  0
  150.6610  144.0991  157.2541 H   0  0  0  0  0  0  0  0  0  0  0  0
  151.8373  144.2290  160.5069 H   0  0  0  0  0  0  0  0  0  0  0  0
  151.7053  145.2061  159.0456 H   0  0  0  0  0  0  0  0  0  0  0  0
  153.2705  144.5489  159.5184 H   0  0  0  0  0  0  0  0  0  0  0  0
  153.7495  140.7114  160.4336 H   0  0  0  0  0  0  0  0  0  0  0  0
  152.8528  142.0290  161.1868 H   0  0  0  0  0  0  0  0  0  0  0  0
  154.2663  142.3771  160.1793 H   0  0  0  0  0  0  0  0  0  0  0  0
  152.6577  139.7281  158.5879 H   0  0  0  0  0  0  0  0  0  0  0  0
  148.2365  135.5013  153.0652 H   0  0  0  0  0  0  0  0  0  0  0  0
  1  2  1  0  0  0  0
  1 25  1  0  0  0  0
  1 26  1  0  0  0  0
  1 27  1  0  0  0  0
  2 24  1  0  0  0  0
  2  3  2  0  0  0  0
  3  4  1  0  0  0  0
  3 28  1  0  0  0  0
  4  5  1  0  0  0  0
  4  6  2  0  0  0  0
  5 29  1  0  0  0  0
  5 30  1  0  0  0  0
  6  7  1  0  0  0  0
  7  8  1  0  0  0  0
  7 24  2  0  0  0  0
  8  9  1  0  0  0  0
  9 10  1  0  0  0  0
  9 31  1  0  0  0  0
  9 32  1  0  0  0  0
 10 11  1  0  0  0  0
 10 12  1  0  0  0  0
 10 33  1  0  0  0  0
 11 34  1  0  0  0  0
 12 13  1  0  0  0  0
 12 35  1  0  0  0  0
 12 36  1  0  0  0  0
 13 23  1  0  0  0  0
 13 14  1  0  0  0  0
 14 15  2  0  0  0  0
 14 37  1  0  0  0  0
 15 16  1  0  0  0  0
 16 23  2  0  0  0  0
 16 17  1  0  0  0  0
 17 18  2  0  0  0  0
 17 38  1  0  0  0  0
 18 19  1  0  0  0  0
 18 20  1  0  0  0  0
 19 39  1  0  0  0  0
 19 40  1  0  0  0  0
 19 41  1  0  0  0  0
 20 21  1  0  0  0  0
 20 22  2  0  0  0  0
 21 42  1  0  0  0  0
 21 43  1  0  0  0  0
 21 44  1  0  0  0  0
 22 23  1  0  0  0  0
 22 45  1  0  0  0  0
 24 46  1  0  0  0  0
M  CHG  1  24   1
M  END
> <s_m_source_file>
AV-unprocessed.smi

> <i_m_source_file_index>
1006

> <i_lp_mmshare_version>
43012

> <i_f3d_flags>
0

> <s_epik_input>
W0NIM11jMVtjSF1jKFtOSDJdKW5jKG4xKVNbQ0gyXVtDQEhdKFtPSF0pW0NIMl1uKFtjSF1uMiljKGMyMylbY0hdYyhbQ0gzXSljKFtjSF0zKVtDSDNd

> <s_epik_cmdline>
J2VwaWtfcHl0aG9uJywgJy1waCcsICc3LjAnLCAnLXRuJywgJzgnLCAnLW1hJywgJzIwMCcsICctbWV0YWxfYmluZGluZycsICctaW1hZScsICc8aW5maWxlLm1hZT4nLCAnLW9tYWUnLCAnPG91dGZpbGUubWFlPic=

> <r_lp_tautomer_probability>
0.999762

> <r_epik_Ionization_Penalty>
0.549885

> <r_epik_Ionization_Penalty_Charging>
0.440405

> <r_epik_Ionization_Penalty_Neutral>
0.10948

> <r_epik_State_Penalty>
0.546419

> <r_epik_Charging_Adjusted_Penalty>
0.986823

> <i_epik_Tot_Q>
1

> <i_epik_Tot_abs_Q>
1

> <r_epik_Metal_State_Penalty>
0.699827

> <b_epik_Metal_Only>
0

> <s_lp_Force_Field>
OPLS_2005

> <r_lp_Energy>
10.4004

> <b_lp_Chiralities_Consistent>
1

> <s_lp_Variant>
AV-unprocessed.smi:1006-3

> <Gold.Version>
5.8.1

> <Gold.Id.Protein>
6NUR|6NUR_protein|mol2

> <Gold.PLP.Fitness>
54.0643

> <Gold.PLP.PLP>
-42.0431

> <Gold.PLP.part.hbond>
-4.2421

> <Gold.PLP.part.metal>
0.0000

> <Gold.PLP.part.buried>
-3.9903

> <Gold.PLP.part.nonpolar>
-33.2841

> <Gold.PLP.part.repulsive>
0.1331

> <Gold.PLP.ligand.clash>
0.0000

> <Gold.PLP.ligand.torsion>
1.5628

> <Gold.PLP.Chemscore.Hbond>
5.0000

> <Gold.PLP.Chemscore.CHOScore>
0.0000

> <Gold.PLP.Chemscore.Metal>
0.0000

> <Gold.Chemscore.Hbonds>
donor molecule, donor type, donor heavy atom, donor atom, acceptor molecule, acceptor atom, score
      L1  H     5    29       P1 10957  1.00
      L1  H    11    34       P1  7949  0.89
      L1  H    24    46       P1  7948  2.00
      P1  H 10752 10763       L1    11  1.00

> <Gold.PLP.Chemscore.Internal.Correction>
0.1469

> <Gold.Rescore>
     Score         DG    S(hbond)    S(metal)    S(lipo)     H(rot)  DE(clash)    DE(int)     intcor
     20.75     -22.45       3.75        0.00     101.18       2.89       0.16       1.54       ----

> <Gold.Chemscore.Fitness>
20.7548

> <Gold.Chemscore.DG>
-22.4527

> <Gold.Chemscore.ZeroCoef>
-5.4800

> <Gold.Chemscore.Hbond>
3.7523

> <Gold.Chemscore.Metal>
0.0000

> <Gold.Chemscore.Lipo>
101.1843

> <Gold.Chemscore.Internal_Hbond>
0.0000

> <Gold.Chemscore.DEClash>
0.1607

> <Gold.Chemscore.DEInternal>
1.5371

> <Gold.Chemscore.Rot>
2.8901

> <Gold.Chemscore.Internal.Correction>
   9.000000E+99

> <Gold.Chemscore.Hbonds>
donor molecule, donor type, donor heavy atom, donor atom, acceptor molecule, acceptor atom, score
      L1  H     5    29       P1 10957  1.00
      L1  H    11    34       P1  7949  0.59
      L1  H    24    46       P1  7948  0.95
      P1  H 10752 10763       L1    11  0.32

> <Gold.Chemscore.Hbond.Weighted>
-12.5327

> <Gold.Chemscore.Metal.Weighted>
-0.0000

> <Gold.Chemscore.Lipo.Weighted>
-11.8386

> <Gold.Chemscore.Internal_Hbond.Weighted>
0.0000

> <Gold.Chemscore.DEClash.Weighted>
0.1607

> <Gold.Chemscore.DEInternal.Weighted>
1.5371

> <Gold.Chemscore.Rot.Weighted>
7.3986

> <Gold.Chemscore.Internal.Correction.Weighted>
   9.000000E+99

> <Gold.Protein.RotatedTorsions>
[ 6907 6896 6895 6894 ] final  -55.16 input  -60.11 | X-H torsion
[ 7974 7965 7964 7962 ] final -138.48 input  175.53 | X-H torsion
[ 8008 7997 7996 7995 ] final    8.18 input   59.86 | X-H torsion
[ 10167 10162 10161 10158 ] final  110.14 input  -65.29 | X-H torsion
[ 10718 10713 10712 10709 ] final -173.13 input   66.30 | X-H torsion
[ 10763 10752 10751 10750 ] final   47.27 input  -60.55 | X-H torsion
[ 11005 11000 10999 10996 ] final  131.50 input  -57.11 | X-H torsion

> <Gold.Protein.ActiveResidues>
 VAL166  LYS551  ARG553  GLY616  TRP617  ASP618  TYR619  PRO620  LYS621  CYS622 
 ASP623  PHE694  ASN695  SER759  ASP760  ASP761  ALA762  ILE779  LEU786  VAL792 
 PHE793  MET794  SER795  GLU796  ALA797  LYS798  CYS799  TRP800  GLU811  SER814 

> <Gold.Protein.RotatedAtoms>
  150.8275  134.7513  159.6825 H   0  0  0  0  0  0  0  0  0  0  0  0  # atno 6907 bound_to 6896
  152.4384  134.5637  159.9911 H   0  0  0  0  0  0  0  0  0  0  0  0  # atno 6908 bound_to 6896
  151.5806  133.3341  159.3043 H   0  0  0  0  0  0  0  0  0  0  0  0  # atno 6909 bound_to 6896
  144.8755  140.6431  143.5239 H   0  0  0  0  0  0  0  0  0  0  0  0  # atno 7974 bound_to 7965
  154.7634  140.2789  155.6195 H   0  0  0  0  0  0  0  0  0  0  0  0  # atno 8008 bound_to 7997
  156.2920  140.2655  156.2346 H   0  0  0  0  0  0  0  0  0  0  0  0  # atno 8009 bound_to 7997
  154.9989  140.0373  157.2341 H   0  0  0  0  0  0  0  0  0  0  0  0  # atno 8010 bound_to 7997
  139.6711  144.7125  151.1685 H   0  0  0  0  0  0  0  0  0  0  0  0  # atno 10167 bound_to 10162
  156.7658  130.9430  151.3119 H   0  0  0  0  0  0  0  0  0  0  0  0  # atno 10718 bound_to 10713
  152.9801  135.5981  154.3736 H   0  0  0  0  0  0  0  0  0  0  0  0  # atno 10763 bound_to 10752
  154.3407  135.2767  155.2426 H   0  0  0  0  0  0  0  0  0  0  0  0  # atno 10764 bound_to 10752
  154.4509  135.5990  153.6246 H   0  0  0  0  0  0  0  0  0  0  0  0  # atno 10765 bound_to 10752
  139.9734  134.9571  156.9447 H   0  0  0  0  0  0  0  0  0  0  0  0  # atno 11005 bound_to 11000
  145.4050  139.1590  143.4156 LP  0  0  0  0  0  0  0  0  0  0  0  0  # atno 17320 bound_to 7965
  146.2960  140.4150  142.8722 LP  0  0  0  0  0  0  0  0  0  0  0  0  # atno 17321 bound_to 7965
  140.7618  143.5842  150.8863 LP  0  0  0  0  0  0  0  0  0  0  0  0  # atno 17342 bound_to 10162
  139.9507  143.6275  152.3029 LP  0  0  0  0  0  0  0  0  0  0  0  0  # atno 17343 bound_to 10162
  157.6714  130.9054  150.0049 LP  0  0  0  0  0  0  0  0  0  0  0  0  # atno 17370 bound_to 10713
  156.1310  130.3643  149.9732 LP  0  0  0  0  0  0  0  0  0  0  0  0  # atno 17371 bound_to 10713
  140.5246  134.0874  155.7300 LP  0  0  0  0  0  0  0  0  0  0  0  0  # atno 17394 bound_to 11000
  141.1412  133.9134  157.2321 LP  0  0  0  0  0  0  0  0  0  0  0  0  # atno 17395 bound_to 11000

$$$$
