AV-unprocessed.smi:2063|AV-procd|sdf|8415|dock7
  -GOLD-   2272011103D 1   1.00000     0.00000
 Structure written by MMmdl.
 38 39  0  0  0  0  0  0  0  0  2 V2000
  152.2425  143.6737  159.7981 C   0  0  0  0  0  0  0  0  0  0  0  0
  152.3743  142.1492  159.9264 C   0  0  0  0  0  0  0  0  0  0  0  0
  153.6828  141.7117  160.6010 C   0  0  0  0  0  0  0  0  0  0  0  0
  152.1527  141.4517  158.6205 C   0  0  0  0  0  0  0  0  0  0  0  0
  152.9859  140.5259  158.1353 N   0  0  0  0  0  0  0  0  0  0  0  0
  152.5607  140.0259  156.9134 N   0  0  0  0  0  0  0  0  0  0  0  0
  151.4202  140.5847  156.4853 C   0  0  0  0  0  0  0  0  0  0  0  0
  150.8360  140.2371  155.3268 N   0  5  0  0  0  0  0  0  0  0  0  0
  149.4919  140.1020  155.2606 C   0  0  0  0  0  0  0  0  0  0  0  0
  148.7748  139.5284  156.0834 O   0  0  0  0  0  0  0  0  0  0  0  0
  148.9498  140.6634  154.1705 N   0  0  0  0  0  0  0  0  0  0  0  0
  147.5344  140.6625  153.8031 C   0  0  1  0  0  0  0  0  0  0  0  0
  146.9707  139.2382  153.9237 C   0  0  0  0  0  0  0  0  0  0  0  0
  146.7701  141.6636  154.6898 C   0  0  1  0  0  0  0  0  0  0  0  0
  145.4074  142.0930  154.1378 C   0  0  0  0  0  0  0  0  0  0  0  0
  144.5962  142.4324  155.3797 C   0  0  0  0  0  0  0  0  0  0  0  0
  145.4564  141.9262  156.5396 C   0  0  0  0  0  0  0  0  0  0  0  0
  146.4186  141.0763  155.9334 O   0  0  0  0  0  0  0  0  0  0  0  0
  150.7638  141.7841  157.5982 S   0  0  0  0  0  0  0  0  0  0  0  0
  151.2664  143.9505  159.3983 H   0  0  0  0  0  0  0  0  0  0  0  0
  153.0035  144.0827  159.1328 H   0  0  0  0  0  0  0  0  0  0  0  0
  152.3524  144.1601  160.7676 H   0  0  0  0  0  0  0  0  0  0  0  0
  151.5678  141.8271  160.5863 H   0  0  0  0  0  0  0  0  0  0  0  0
  153.7064  140.6311  160.7451 H   0  0  0  0  0  0  0  0  0  0  0  0
  153.7955  142.1785  161.5799 H   0  0  0  0  0  0  0  0  0  0  0  0
  154.5501  141.9873  160.0000 H   0  0  0  0  0  0  0  0  0  0  0  0
  149.5811  141.1240  153.5318 H   0  0  0  0  0  0  0  0  0  0  0  0
  147.4254  140.9872  152.7669 H   0  0  0  0  0  0  0  0  0  0  0  0
  145.9196  139.2056  153.6366 H   0  0  0  0  0  0  0  0  0  0  0  0
  147.0490  138.8653  154.9454 H   0  0  0  0  0  0  0  0  0  0  0  0
  147.5089  138.5468  153.2746 H   0  0  0  0  0  0  0  0  0  0  0  0
  147.3829  142.5472  154.8804 H   0  0  0  0  0  0  0  0  0  0  0  0
  145.4855  142.9286  153.4417 H   0  0  0  0  0  0  0  0  0  0  0  0
  144.9340  141.2635  153.6106 H   0  0  0  0  0  0  0  0  0  0  0  0
  144.4134  143.5037  155.4668 H   0  0  0  0  0  0  0  0  0  0  0  0
  143.6299  141.9277  155.3529 H   0  0  0  0  0  0  0  0  0  0  0  0
  145.9693  142.7562  157.0276 H   0  0  0  0  0  0  0  0  0  0  0  0
  144.8756  141.3940  157.2932 H   0  0  0  0  0  0  0  0  0  0  0  0
  1  2  1  0  0  0  0
  1 20  1  0  0  0  0
  1 21  1  0  0  0  0
  1 22  1  0  0  0  0
  2  3  1  0  0  0  0
  2  4  1  0  0  0  0
  2 23  1  0  0  0  0
  3 24  1  0  0  0  0
  3 25  1  0  0  0  0
  3 26  1  0  0  0  0
  4 19  1  0  0  0  0
  4  5  2  0  0  0  0
  5  6  1  0  0  0  0
  6  7  2  0  0  0  0
  7  8  1  0  0  0  0
  7 19  1  0  0  0  0
  8  9  1  0  0  0  0
  9 10  2  0  0  0  0
  9 11  1  0  0  0  0
 11 12  1  0  0  0  0
 11 27  1  0  0  0  0
 12 13  1  0  0  0  0
 12 14  1  0  0  0  0
 12 28  1  0  0  0  0
 13 29  1  0  0  0  0
 13 30  1  0  0  0  0
 13 31  1  0  0  0  0
 14 18  1  0  0  0  0
 14 15  1  0  0  0  0
 14 32  1  0  0  0  0
 15 16  1  0  0  0  0
 15 33  1  0  0  0  0
 15 34  1  0  0  0  0
 16 17  1  0  0  0  0
 16 35  1  0  0  0  0
 16 36  1  0  0  0  0
 17 18  1  0  0  0  0
 17 37  1  0  0  0  0
 17 38  1  0  0  0  0
M  CHG  1   8  -1
M  END
> <s_m_source_file>
AV-unprocessed.smi

> <i_m_source_file_index>
2063

> <i_lp_mmshare_version>
43012

> <i_f3d_flags>
0

> <s_epik_input>
W0NIM11bQ0hdKFtDSDNdKWMxbm5jKHMxKVtOSF1DKD1PKVtOSF1bQ0BIXShbQ0gzXSlbQ0BASF0yW0NIMl1bQ0gyXVtDSDJdTzI=

> <s_epik_cmdline>
J2VwaWtfcHl0aG9uJywgJy1waCcsICc3LjAnLCAnLXRuJywgJzgnLCAnLW1hJywgJzIwMCcsICctbWV0YWxfYmluZGluZycsICctaW1hZScsICc8aW5maWxlLm1hZT4nLCAnLW9tYWUnLCAnPG91dGZpbGUubWFlPic=

> <r_lp_tautomer_probability>
1

> <r_epik_Ionization_Penalty>
4.37022

> <r_epik_Ionization_Penalty_Charging>
4.21437

> <r_epik_Ionization_Penalty_Neutral>
0.15585

> <r_epik_State_Penalty>
4.21389

> <r_epik_Charging_Adjusted_Penalty>
8.42826

> <i_epik_Tot_Q>
-1

> <i_epik_Tot_abs_Q>
1

> <r_epik_Metal_State_Penalty>
0.693772

> <b_epik_Metal_Only>
1

> <s_lp_Force_Field>
OPLS_2005

> <r_lp_Energy>
9.58688

> <b_lp_Chiralities_Consistent>
1

> <s_lp_Variant>
AV-unprocessed.smi:2063-8

> <Gold.Version>
5.8.1

> <Gold.Id.Protein>
6NUR|6NUR_protein|mol2

> <Gold.PLP.Fitness>
41.5726

> <Gold.PLP.PLP>
-39.5300

> <Gold.PLP.part.hbond>
-4.0000

> <Gold.PLP.part.metal>
0.0000

> <Gold.PLP.part.buried>
-4.3025

> <Gold.PLP.part.nonpolar>
-31.9666

> <Gold.PLP.part.repulsive>
0.7711

> <Gold.PLP.ligand.clash>
0.0000

> <Gold.PLP.ligand.torsion>
1.3295

> <Gold.PLP.Chemscore.Hbond>
1.5184

> <Gold.PLP.Chemscore.CHOScore>
0.0000

> <Gold.PLP.Chemscore.Metal>
0.0000

> <Gold.Chemscore.Hbonds>
donor molecule, donor type, donor heavy atom, donor atom, acceptor molecule, acceptor atom, score
      P1  H  7989  7998       L1     8  0.84
      P1  H  7997  8008       L1     6  0.44

> <Gold.PLP.Chemscore.Internal.Correction>
0.1464

> <Gold.Rescore>
     Score         DG    S(hbond)    S(metal)    S(lipo)     H(rot)  DE(clash)    DE(int)     intcor
     10.79     -14.93       0.85        0.00      86.99       1.39       0.20       3.94       ----

> <Gold.Chemscore.Fitness>
10.7853

> <Gold.Chemscore.DG>
-14.9258

> <Gold.Chemscore.ZeroCoef>
-5.4800

> <Gold.Chemscore.Hbond>
0.8456

> <Gold.Chemscore.Metal>
0.0000

> <Gold.Chemscore.Lipo>
86.9932

> <Gold.Chemscore.Internal_Hbond>
0.0000

> <Gold.Chemscore.DEClash>
0.2043

> <Gold.Chemscore.DEInternal>
3.9362

> <Gold.Chemscore.Rot>
1.3893

> <Gold.Chemscore.Internal.Correction>
   9.000000E+99

> <Gold.Chemscore.Hbonds>
donor molecule, donor type, donor heavy atom, donor atom, acceptor molecule, acceptor atom, score
      P1  H  7989  7998       L1     8  0.66
      P1  H  7997  8008       L1     6  0.02

> <Gold.Chemscore.Hbond.Weighted>
-2.8243

> <Gold.Chemscore.Metal.Weighted>
-0.0000

> <Gold.Chemscore.Lipo.Weighted>
-10.1782

> <Gold.Chemscore.Internal_Hbond.Weighted>
0.0000

> <Gold.Chemscore.DEClash.Weighted>
0.2043

> <Gold.Chemscore.DEInternal.Weighted>
3.9362

> <Gold.Chemscore.Rot.Weighted>
3.5567

> <Gold.Chemscore.Internal.Correction.Weighted>
   9.000000E+99

> <Gold.Protein.RotatedTorsions>
[ 6907 6896 6895 6894 ] final -125.81 input  -60.11 | X-H torsion
[ 7974 7965 7964 7962 ] final  -60.37 input  175.53 | X-H torsion
[ 8008 7997 7996 7995 ] final  -35.51 input   59.86 | X-H torsion
[ 10167 10162 10161 10158 ] final  -34.42 input  -65.29 | X-H torsion
[ 10718 10713 10712 10709 ] final -135.17 input   66.30 | X-H torsion
[ 10763 10752 10751 10750 ] final  103.27 input  -60.55 | X-H torsion
[ 11005 11000 10999 10996 ] final  128.68 input  -57.11 | X-H torsion

> <Gold.Protein.ActiveResidues>
 VAL166  LYS551  ARG553  GLY616  TRP617  ASP618  TYR619  PRO620  LYS621  CYS622 
 ASP623  PHE694  ASN695  SER759  ASP760  ASP761  ALA762  ILE779  LEU786  VAL792 
 PHE793  MET794  SER795  GLU796  ALA797  LYS798  CYS799  TRP800  GLU811  SER814 

> <Gold.Protein.RotatedAtoms>
  150.8905  133.7250  159.2905 H   0  0  0  0  0  0  0  0  0  0  0  0  # atno 6907 bound_to 6896
  151.4802  135.1050  159.9785 H   0  0  0  0  0  0  0  0  0  0  0  0  # atno 6908 bound_to 6896
  152.4817  133.8223  159.7115 H   0  0  0  0  0  0  0  0  0  0  0  0  # atno 6909 bound_to 6896
  145.8163  140.8568  143.0156 H   0  0  0  0  0  0  0  0  0  0  0  0  # atno 7974 bound_to 7965
  154.4094  140.1655  156.2223 H   0  0  0  0  0  0  0  0  0  0  0  0  # atno 8008 bound_to 7997
  155.9353  140.3412  155.6259 H   0  0  0  0  0  0  0  0  0  0  0  0  # atno 8009 bound_to 7997
  155.7056  140.0750  157.2383 H   0  0  0  0  0  0  0  0  0  0  0  0  # atno 8010 bound_to 7997
  140.7186  143.3549  151.2079 H   0  0  0  0  0  0  0  0  0  0  0  0  # atno 10167 bound_to 10162
  156.2633  130.7223  151.1165 H   0  0  0  0  0  0  0  0  0  0  0  0  # atno 10718 bound_to 10713
  153.3505  135.3982  155.1642 H   0  0  0  0  0  0  0  0  0  0  0  0  # atno 10763 bound_to 10752
  154.8661  135.3655  154.5228 H   0  0  0  0  0  0  0  0  0  0  0  0  # atno 10764 bound_to 10752
  153.5680  135.7079  153.5577 H   0  0  0  0  0  0  0  0  0  0  0  0  # atno 10765 bound_to 10752
  139.9574  134.9610  156.9038 H   0  0  0  0  0  0  0  0  0  0  0  0  # atno 11005 bound_to 11000
  144.6752  140.0469  143.7479 LP  0  0  0  0  0  0  0  0  0  0  0  0  # atno 17320 bound_to 7965
  145.9723  139.2879  143.1091 LP  0  0  0  0  0  0  0  0  0  0  0  0  # atno 17321 bound_to 7965
  139.7089  143.9410  152.2938 LP  0  0  0  0  0  0  0  0  0  0  0  0  # atno 17342 bound_to 10162
  139.9128  144.6846  150.8544 LP  0  0  0  0  0  0  0  0  0  0  0  0  # atno 17343 bound_to 10162
  157.7258  131.0650  150.5935 LP  0  0  0  0  0  0  0  0  0  0  0  0  # atno 17370 bound_to 10713
  156.6025  130.4358  149.5891 LP  0  0  0  0  0  0  0  0  0  0  0  0  # atno 17371 bound_to 10713
  140.5578  134.0564  155.7389 LP  0  0  0  0  0  0  0  0  0  0  0  0  # atno 17394 bound_to 11000
  141.1247  133.9403  157.2659 LP  0  0  0  0  0  0  0  0  0  0  0  0  # atno 17395 bound_to 11000

$$$$
