#       Name:                AV-unprocessed.smi:1623
#       Creating user name   scv26
#       Creation time:       Fri Mar 27 07:16:41 2020


#       File generated by GOLD software.
#

@<TRIPOS>MOLECULE
AV-unprocessed.smi:1623
    50    51     1
SMALL
NO_CHARGES


@<TRIPOS>ATOM
      1 ****        -1.1548   3.1653   2.5161 C.3            1 S1                 0.0000
      2 ****        -1.1038   3.0090   1.0203 C.2            1 S1                 0.0000
      3 ****        -0.6944   1.8685   0.5705 N.2            1 S1                 0.0000
      4 ****        -0.6048   1.6200  -0.7854 N.am           1 S1                 0.0000
      5 ****        -0.1195   0.2751  -1.1152 C.3            1 S1                 0.0000
      6 ****         1.4230   0.2107  -1.1665 C.3            1 S1                 0.0000
      7 ****         1.9053   0.6242  -2.4286 O.3            1 S1                 0.0000
      8 ****         1.9651  -1.2032  -0.9028 C.3            1 S1                 0.0000
      9 ****         1.2399  -2.1457  -1.6815 O.3            1 S1                 0.0000
     10 ****         1.5510  -3.5013  -1.3950 C.3            1 S1                 0.0000
     11 ****         1.0155  -3.9670  -0.0484 C.ar           1 S1                 0.0000
     12 ****         1.9168  -4.4544   0.9226 C.ar           1 S1                 0.0000
     13 ****         1.4474  -4.8883   2.1770 C.ar           1 S1                 0.0000
     14 ****         0.0714  -4.8408   2.4678 C.ar           1 S1                 0.0000
     15 ****        -0.8341  -4.3616   1.5025 C.ar           1 S1                 0.0000
     16 ****        -0.3693  -3.9267   0.2451 C.ar           1 S1                 0.0000
     17 ****        -1.5164  -3.3512  -0.9135 Cl             1 S1                 0.0000
     18 ****        -0.9145   2.5191  -1.7622 C.2            1 S1                 0.0000
     19 ****        -0.8078   2.2602  -2.9618 O.2            1 S1                 0.0000
     20 ****        -1.3823   3.8075  -1.2458 C.2            1 S1                 0.0000
     21 ****        -1.7206   4.7792  -2.2349 C.1            1 S1                 0.0000
     22 ****        -1.9996   5.5822  -3.0208 N.1            1 S1                 0.0000
     23 ****        -1.4862   4.0603   0.0828 C.2            1 S1                 0.0000
     24 ****        -1.9656   5.3823   0.6667 C.3            1 S1                 0.0000
     25 ****        -0.6297   4.0670   2.8313 H              1 S1                 0.0000
     26 ****        -0.6906   2.3214   3.0291 H              1 S1                 0.0000
     27 ****        -2.1865   3.2356   2.8611 H              1 S1                 0.0000
     28 ****        -0.4763  -0.4047  -0.3387 H              1 S1                 0.0000
     29 ****        -0.5603  -0.1054  -2.0386 H              1 S1                 0.0000
     30 ****         1.8503   0.8791  -0.4178 H              1 S1                 0.0000
     31 ****         1.5543   0.0437  -3.0868 H              1 S1                 0.0000
     32 ****         3.0334  -1.2646  -1.1168 H              1 S1                 0.0000
     33 ****         1.8396  -1.4267   0.1573 H              1 S1                 0.0000
     34 ****         1.1021  -4.1222  -2.1706 H              1 S1                 0.0000
     35 ****         2.6285  -3.6596  -1.4632 H              1 S1                 0.0000
     36 ****         2.9751  -4.4936   0.7104 H              1 S1                 0.0000
     37 ****         2.1433  -5.2577   2.9159 H              1 S1                 0.0000
     38 ****        -0.2899  -5.1735   3.4297 H              1 S1                 0.0000
     39 ****        -1.8899  -4.3288   1.7283 H              1 S1                 0.0000
     40 ****        -2.3887   6.0376  -0.0940 H              1 S1                 0.0000
     41 ****        -1.1361   5.9108   1.1372 H              1 S1                 0.0000
     42 ****        -2.7403   5.2193   1.4166 H              1 S1                 0.0000
     43 ****        -0.4371   1.1509   1.2177 LP             1 S1                 0.0000
     44 ****         2.9043   0.5817  -2.4389 LP             1 S1                 0.0000
     45 ****         1.6096   1.5616  -2.6126 LP             1 S1                 0.0000
     46 ****         1.4402  -1.9754  -2.6463 LP             1 S1                 0.0000
     47 ****         0.2640  -2.0060  -1.5139 LP             1 S1                 0.0000
     48 ****        -0.4828   1.3601  -3.2521 LP             1 S1                 0.0000
     49 ****        -1.0462   2.9501  -3.6453 LP             1 S1                 0.0000
     50 ****        -2.2406   6.2758  -3.6996 LP             1 S1                 0.0000
@<TRIPOS>BOND
    1    1    2 1     
    2    1   25 1     
    3    1   26 1     
    4    1   27 1     
    5    2   23 1     
    6    2    3 2     
    7    3    4 1     
    8    4    5 1     
    9    4   18 am    
   10    5    6 1     
   11    5   28 1     
   12    5   29 1     
   13    6    7 1     
   14    6    8 1     
   15    6   30 1     
   16    7   31 1     
   17    8    9 1     
   18    8   32 1     
   19    8   33 1     
   20    9   10 1     
   21   10   11 1     
   22   10   34 1     
   23   10   35 1     
   24   11   16 ar    
   25   11   12 ar    
   26   12   13 ar    
   27   12   36 1     
   28   13   14 ar    
   29   13   37 1     
   30   14   15 ar    
   31   14   38 1     
   32   15   16 ar    
   33   15   39 1     
   34   16   17 1     
   35   18   19 2     
   36   18   20 1     
   37   20   21 1     
   38   20   23 2     
   39   21   22 3     
   40   23   24 1     
   41   24   40 1     
   42   24   41 1     
   43   24   42 1     
   44    3   43 1     
   45    7   44 1     
   46    7   45 1     
   47    9   46 1     
   48    9   47 1     
   49   19   48 1     
   50   19   49 1     
   51   22   50 1     
@<TRIPOS>SUBSTRUCTURE
      1 S1             1
@<TRIPOS>SET
LONE_PAIRS      STATIC     ATOMS    <user>   **** ""
8 43 44 45 46 47 48 49 50
DONOR_HYDROGENS      STATIC     ATOMS    <user>   **** ""
1 31
ATOM$BLUE        STATIC     ATOMS    COLORGROUP SYSTEM
8 43 44 45 46 47 48 49 50
ATOM$RED        STATIC     ATOMS    COLORGROUP SYSTEM
1 31
