AV-unprocessed.smi:2673|AV-procd|sdf|10357|dock10
  -GOLD-   2272014383D 1   1.00000     0.00000
 Structure written by MMmdl.
 32 33  0  0  0  0  0  0  0  0  1 V2000
  144.6585  135.9410  152.9273 O   0  0  0  0  0  0  0  0  0  0  0  0
  143.9588  135.0139  153.3407 C   0  0  0  0  0  0  0  0  0  0  0  0
  142.7406  135.0823  153.9984 N   0  0  0  0  0  0  0  0  0  0  0  0
  141.9230  136.0643  153.7742 C   0  0  0  0  0  0  0  0  0  0  0  0
  140.7043  136.1497  154.4317 N   0  0  0  0  0  0  0  0  0  0  0  0
  139.8882  137.1640  154.1769 N   0  0  0  0  0  0  0  0  0  0  0  0
  140.3937  137.9518  153.3040 C   0  0  0  0  0  0  0  0  0  0  0  0
  141.9881  137.5143  152.6777 S   0  0  0  0  0  0  0  0  0  0  0  0
  144.3113  133.7259  153.1895 N   0  0  0  0  0  0  0  0  0  0  0  0
  145.4996  133.1362  152.5474 C   0  0  0  0  0  0  0  0  0  0  0  0
  146.7149  133.2057  153.5171 C   0  0  0  0  0  0  0  0  0  0  0  0
  146.9095  134.4575  153.9338 F   0  0  0  0  0  0  0  0  0  0  0  0
  146.4975  132.4405  154.5882 F   0  0  0  0  0  0  0  0  0  0  0  0
  147.8405  132.7965  152.9326 F   0  0  0  0  0  0  0  0  0  0  0  0
  145.2499  131.6754  152.0713 C   0  0  0  0  0  0  0  0  0  0  0  0
  144.1289  131.5675  151.0214 C   0  0  0  0  0  0  0  0  0  0  0  0
  144.4307  132.4495  149.8017 C   0  0  0  0  0  0  0  0  0  0  0  0
  144.6859  133.9050  150.2193 C   0  0  0  0  0  0  0  0  0  0  0  0
  145.7926  133.9974  151.2889 C   0  0  0  0  0  0  0  0  0  0  0  0
  139.9329  138.8599  152.9155 H   0  0  0  0  0  0  0  0  0  0  0  0
  143.6601  133.0514  153.5640 H   0  0  0  0  0  0  0  0  0  0  0  0
  146.1677  131.2825  151.6324 H   0  0  0  0  0  0  0  0  0  0  0  0
  145.0329  131.0142  152.9090 H   0  0  0  0  0  0  0  0  0  0  0  0
  144.0163  130.5297  150.7066 H   0  0  0  0  0  0  0  0  0  0  0  0
  143.1743  131.8582  151.4610 H   0  0  0  0  0  0  0  0  0  0  0  0
  145.3065  132.0619  149.2798 H   0  0  0  0  0  0  0  0  0  0  0  0
  143.6033  132.4033  149.0931 H   0  0  0  0  0  0  0  0  0  0  0  0
  144.9676  134.4936  149.3458 H   0  0  0  0  0  0  0  0  0  0  0  0
  143.7621  134.3446  150.5969 H   0  0  0  0  0  0  0  0  0  0  0  0
  145.9355  135.0416  151.5703 H   0  0  0  0  0  0  0  0  0  0  0  0
  146.7323  133.6804  150.8355 H   0  0  0  0  0  0  0  0  0  0  0  0
  140.4161  135.4518  155.1024 H   0  0  0  0  0  0  0  0  0  0  0  0
  1  2  2  0  0  0  0
  2  3  1  0  0  0  0
  2  9  1  0  0  0  0
  3  4  2  0  0  0  0
  4  8  1  0  0  0  0
  4  5  1  0  0  0  0
  5  6  1  0  0  0  0
  5 32  1  0  0  0  0
  6  7  2  0  0  0  0
  7  8  1  0  0  0  0
  7 20  1  0  0  0  0
  9 10  1  0  0  0  0
  9 21  1  0  0  0  0
 10 19  1  0  0  0  0
 10 11  1  0  0  0  0
 10 15  1  0  0  0  0
 11 12  1  0  0  0  0
 11 13  1  0  0  0  0
 11 14  1  0  0  0  0
 15 16  1  0  0  0  0
 15 22  1  0  0  0  0
 15 23  1  0  0  0  0
 16 17  1  0  0  0  0
 16 24  1  0  0  0  0
 16 25  1  0  0  0  0
 17 18  1  0  0  0  0
 17 26  1  0  0  0  0
 17 27  1  0  0  0  0
 18 19  1  0  0  0  0
 18 28  1  0  0  0  0
 18 29  1  0  0  0  0
 19 30  1  0  0  0  0
 19 31  1  0  0  0  0
M  END
> <s_m_source_file>
AV-unprocessed.smi

> <i_m_source_file_index>
2673

> <i_lp_mmshare_version>
43012

> <i_f3d_flags>
0

> <s_epik_input>
czFbY0hdbm5jMVtOSF1DKD1PKVtOSF1DMihDKEYpKEYpRilbQ0gyXVtDSDJdW0NIMl1bQ0gyXVtDSDJdMg==

> <s_epik_cmdline>
J2VwaWtfcHl0aG9uJywgJy1waCcsICc3LjAnLCAnLXRuJywgJzgnLCAnLW1hJywgJzIwMCcsICctbWV0YWxfYmluZGluZycsICctaW1hZScsICc8aW5maWxlLm1hZT4nLCAnLW9tYWUnLCAnPG91dGZpbGUubWFlPic=

> <r_epik_Ionization_Penalty>
1.69703

> <r_epik_Ionization_Penalty_Charging>
1.69675

> <r_epik_Ionization_Penalty_Neutral>
0.00027895

> <r_epik_State_Penalty>
1.84993

> <r_epik_Charging_Adjusted_Penalty>
3.54668

> <i_epik_Tot_Q>
0

> <i_epik_Tot_abs_Q>
0

> <r_epik_Metal_State_Penalty>
1.90085

> <b_epik_Metal_Only>
0

> <s_lp_Force_Field>
OPLS_2005

> <r_lp_Energy>
22.7267

> <b_lp_Chiralities_Consistent>
1

> <s_lp_Variant>
AV-unprocessed.smi:2673-3

> <Gold.Version>
5.8.1

> <Gold.Id.Protein>
6NUR|6NUR_protein|mol2

> <Gold.PLP.Fitness>
34.8383

> <Gold.PLP.PLP>
-28.3995

> <Gold.PLP.part.hbond>
-2.0000

> <Gold.PLP.part.metal>
0.0000

> <Gold.PLP.part.buried>
-5.8505

> <Gold.PLP.part.nonpolar>
-20.9097

> <Gold.PLP.part.repulsive>
0.3122

> <Gold.PLP.ligand.clash>
0.0000

> <Gold.PLP.ligand.torsion>
0.6721

> <Gold.PLP.Chemscore.Hbond>
1.9663

> <Gold.PLP.Chemscore.CHOScore>
0.6177

> <Gold.PLP.Chemscore.Metal>
0.0000

> <Gold.Chemscore.Hbonds>
donor molecule, donor type, donor heavy atom, donor atom, acceptor molecule, acceptor atom, score
      L1  H     5    32       P1 11000  1.00
      L1  H     9    21       P1 10957  1.00
      L1  C     7    20       P1 10160  0.62

> <Gold.PLP.Chemscore.Internal.Correction>
0.0310

> <Gold.Rescore>
     Score         DG    S(hbond)    S(metal)    S(lipo)     H(rot)  DE(clash)    DE(int)     intcor
     12.68     -16.09       1.98        0.00      55.96       1.00       0.13       3.28       ----

> <Gold.Chemscore.Fitness>
12.6814

> <Gold.Chemscore.DG>
-16.0928

> <Gold.Chemscore.ZeroCoef>
-5.4800

> <Gold.Chemscore.Hbond>
1.9837

> <Gold.Chemscore.Metal>
0.0000

> <Gold.Chemscore.Lipo>
55.9582

> <Gold.Chemscore.Internal_Hbond>
0.0000

> <Gold.Chemscore.DEClash>
0.1334

> <Gold.Chemscore.DEInternal>
3.2779

> <Gold.Chemscore.Rot>
1.0000

> <Gold.Chemscore.Internal.Correction>
   9.000000E+99

> <Gold.Chemscore.Hbonds>
donor molecule, donor type, donor heavy atom, donor atom, acceptor molecule, acceptor atom, score
      L1  H     5    32       P1 11000  0.85
      L1  H     9    21       P1 10957  0.85

> <Gold.Chemscore.Hbond.Weighted>
-6.6257

> <Gold.Chemscore.Metal.Weighted>
-0.0000

> <Gold.Chemscore.Lipo.Weighted>
-6.5471

> <Gold.Chemscore.Internal_Hbond.Weighted>
0.0000

> <Gold.Chemscore.DEClash.Weighted>
0.1334

> <Gold.Chemscore.DEInternal.Weighted>
3.2779

> <Gold.Chemscore.Rot.Weighted>
2.5600

> <Gold.Chemscore.Internal.Correction.Weighted>
   9.000000E+99

> <Gold.Protein.RotatedTorsions>
[ 6907 6896 6895 6894 ] final  135.57 input  -60.11 | X-H torsion
[ 7974 7965 7964 7962 ] final  167.99 input  175.53 | X-H torsion
[ 8008 7997 7996 7995 ] final  -45.74 input   59.86 | X-H torsion
[ 10167 10162 10161 10158 ] final  -50.31 input  -65.29 | X-H torsion
[ 10718 10713 10712 10709 ] final  -63.93 input   66.30 | X-H torsion
[ 10763 10752 10751 10750 ] final   33.38 input  -60.55 | X-H torsion
[ 11005 11000 10999 10996 ] final  -93.19 input  -57.11 | X-H torsion

> <Gold.Protein.ActiveResidues>
 VAL166  LYS551  ARG553  GLY616  TRP617  ASP618  TYR619  PRO620  LYS621  CYS622 
 ASP623  PHE694  ASN695  SER759  ASP760  ASP761  ALA762  ILE779  LEU786  VAL792 
 PHE793  MET794  SER795  GLU796  ALA797  LYS798  CYS799  TRP800  GLU811  SER814 

> <Gold.Protein.RotatedAtoms>
  152.2990  133.5636  159.5605 H   0  0  0  0  0  0  0  0  0  0  0  0  # atno 6907 bound_to 6896
  150.7269  134.0319  159.3745 H   0  0  0  0  0  0  0  0  0  0  0  0  # atno 6908 bound_to 6896
  151.8220  135.0649  160.0477 H   0  0  0  0  0  0  0  0  0  0  0  0  # atno 6909 bound_to 6896
  144.7404  139.8841  143.6398 H   0  0  0  0  0  0  0  0  0  0  0  0  # atno 7974 bound_to 7965
  154.4003  140.1389  156.3897 H   0  0  0  0  0  0  0  0  0  0  0  0  # atno 8008 bound_to 7997
  155.7925  140.3478  155.5337 H   0  0  0  0  0  0  0  0  0  0  0  0  # atno 8009 bound_to 7997
  155.8564  140.0949  157.1632 H   0  0  0  0  0  0  0  0  0  0  0  0  # atno 8010 bound_to 7997
  140.6644  143.2663  151.4340 H   0  0  0  0  0  0  0  0  0  0  0  0  # atno 10167 bound_to 10162
  156.0760  130.4227  150.1347 H   0  0  0  0  0  0  0  0  0  0  0  0  # atno 10718 bound_to 10713
  153.0215  135.6388  154.1502 H   0  0  0  0  0  0  0  0  0  0  0  0  # atno 10763 bound_to 10752
  154.1236  135.2845  155.3204 H   0  0  0  0  0  0  0  0  0  0  0  0  # atno 10764 bound_to 10752
  154.6246  135.5513  153.7674 H   0  0  0  0  0  0  0  0  0  0  0  0  # atno 10765 bound_to 10752
  141.1503  133.7871  157.0125 H   0  0  0  0  0  0  0  0  0  0  0  0  # atno 11005 bound_to 11000
  146.1190  139.4205  143.0240 LP  0  0  0  0  0  0  0  0  0  0  0  0  # atno 17320 bound_to 7965
  145.7333  141.0034  143.1340 LP  0  0  0  0  0  0  0  0  0  0  0  0  # atno 17321 bound_to 7965
  139.5888  144.1546  152.2062 LP  0  0  0  0  0  0  0  0  0  0  0  0  # atno 17342 bound_to 10162
  140.0894  144.5634  150.7065 LP  0  0  0  0  0  0  0  0  0  0  0  0  # atno 17343 bound_to 10162
  156.9388  130.9738  151.3520 LP  0  0  0  0  0  0  0  0  0  0  0  0  # atno 17370 bound_to 10713
  157.5856  130.8407  149.8585 LP  0  0  0  0  0  0  0  0  0  0  0  0  # atno 17371 bound_to 10713
  140.0868  134.9616  157.1713 LP  0  0  0  0  0  0  0  0  0  0  0  0  # atno 17394 bound_to 11000
  140.3500  134.2609  155.7200 LP  0  0  0  0  0  0  0  0  0  0  0  0  # atno 17395 bound_to 11000

$$$$
