#       Name:                AV-unprocessed.smi:2226
#       Creating user name   scv26
#       Creation time:       Fri Mar 27 12:21:37 2020


#       File generated by GOLD software.
#

@<TRIPOS>MOLECULE
AV-unprocessed.smi:2226
    45    47     1
SMALL
NO_CHARGES


@<TRIPOS>ATOM
      1 ****        -3.0784  -3.0591  -0.4616 C.3            1 S1                 0.0000
      2 ****        -2.4961  -1.6959  -0.4565 N.4            1 S1                 1.0000
      3 ****        -1.7076  -1.3510  -1.6634 C.3            1 S1                 0.0000
      4 ****        -0.3744  -2.1390  -1.7137 C.3            1 S1                 0.0000
      5 ****         0.4596  -2.0519  -0.4226 C.3            1 S1                 0.0000
      6 ****        -0.4032  -2.1371   0.8489 C.3            1 S1                 0.0000
      7 ****        -1.7337  -1.3478   0.7662 C.3            1 S1                 0.0000
      8 ****        -1.5933   0.1900   0.8528 C.3            1 S1                 0.0000
      9 ****        -1.1300   0.9005  -0.4490 C.3            1 S1                 0.0000
     10 ****         0.3003   1.1980  -0.4587 N.am           1 S1                 0.0000
     11 ****         0.9160   2.1684   0.2343 C.2            1 S1                 0.0000
     12 ****         0.2891   2.9304   0.9771 O.2            1 S1                 0.0000
     13 ****         2.2804   2.1310  -0.0109 N.2            1 S1                 0.0000
     14 ****         3.0857   2.7985   0.7563 C.2            1 S1                 0.0000
     15 ****         4.4649   2.8912   0.6591 N.pl3          1 S1                 0.0000
     16 ****         4.9101   3.6929   1.6740 C.2            1 S1                 0.0000
     17 ****         3.8562   4.0874   2.3826 C.2            1 S1                 0.0000
     18 ****         2.7226   3.5554   1.8466 O.3            1 S1                 0.0000
     19 ****        -1.5706   0.1869  -1.7527 C.3            1 S1                 0.0000
     20 ****        -2.3138  -3.8354  -0.4519 H              1 S1                 0.0000
     21 ****        -3.6959  -3.2048  -1.3482 H              1 S1                 0.0000
     22 ****        -3.7167  -3.2029   0.4105 H              1 S1                 0.0000
     23 ****        -2.2875  -1.6546  -2.5364 H              1 S1                 0.0000
     24 ****        -0.5971  -3.1889  -1.9059 H              1 S1                 0.0000
     25 ****         0.2248  -1.8110  -2.5636 H              1 S1                 0.0000
     26 ****         1.1977  -2.8544  -0.4136 H              1 S1                 0.0000
     27 ****         1.0524  -1.1435  -0.4151 H              1 S1                 0.0000
     28 ****        -0.6299  -3.1864   1.0392 H              1 S1                 0.0000
     29 ****         0.1769  -1.8062   1.7111 H              1 S1                 0.0000
     30 ****        -2.3333  -1.6470   1.6272 H              1 S1                 0.0000
     31 ****        -2.5813   0.5840   1.0950 H              1 S1                 0.0000
     32 ****        -0.9672   0.4667   1.7019 H              1 S1                 0.0000
     33 ****        -1.6180   1.8773  -0.4669 H              1 S1                 0.0000
     34 ****         0.8782   0.6115  -1.0434 H              1 S1                 0.0000
     35 ****         5.0753   2.4609  -0.0205 H              1 S1                 0.0000
     36 ****         5.9641   3.9013   1.7841 H              1 S1                 0.0000
     37 ****         3.7510   4.7162   3.2543 H              1 S1                 0.0000
     38 ****        -0.9268   0.4667  -2.5878 H              1 S1                 0.0000
     39 ****        -2.5554   0.5768  -2.0142 H              1 S1                 0.0000
     40 ****        -3.2940  -1.0767  -0.4657 H              1 S1                 0.0000
     41 ****        -0.7015   2.8323   1.0731 LP             1 S1                 0.0000
     42 ****         0.7720   3.6455   1.4825 LP             1 S1                 0.0000
     43 ****         2.6407   1.5936  -0.7733 LP             1 S1                 0.0000
     44 ****         2.2648   2.9788   2.5234 LP             1 S1                 0.0000
     45 ****         2.1052   4.2885   1.5611 LP             1 S1                 0.0000
@<TRIPOS>BOND
    1    1    2 1     
    2    1   20 1     
    3    1   21 1     
    4    1   22 1     
    5    2    7 1     
    6    2    3 1     
    7    2   40 1     
    8    3   19 1     
    9    3    4 1     
   10    3   23 1     
   11    4    5 1     
   12    4   24 1     
   13    4   25 1     
   14    5    6 1     
   15    5   26 1     
   16    5   27 1     
   17    6    7 1     
   18    6   28 1     
   19    6   29 1     
   20    7    8 1     
   21    7   30 1     
   22    8    9 1     
   23    8   31 1     
   24    8   32 1     
   25    9   10 1     
   26    9   19 1     
   27    9   33 1     
   28   10   34 1     
   29   10   11 am    
   30   11   13 1     
   31   11   12 2     
   32   13   14 2     
   33   14   18 1     
   34   14   15 1     
   35   15   35 1     
   36   15   16 1     
   37   16   36 1     
   38   16   17 2     
   39   17   37 1     
   40   17   18 1     
   41   19   38 1     
   42   19   39 1     
   43   12   41 1     
   44   12   42 1     
   45   13   43 1     
   46   18   44 1     
   47   18   45 1     
@<TRIPOS>SUBSTRUCTURE
      1 S1             1
@<TRIPOS>SET
LONE_PAIRS      STATIC     ATOMS    <user>   **** ""
5 41 42 43 44 45
DONOR_HYDROGENS      STATIC     ATOMS    <user>   **** ""
3 40 34 35
ATOM$BLUE        STATIC     ATOMS    COLORGROUP SYSTEM
5 41 42 43 44 45
ATOM$RED        STATIC     ATOMS    COLORGROUP SYSTEM
3 40 34 35
