AV-unprocessed.smi:3350|AV-procd|sdf|12945|dock9
  -GOLD-   2272019383D 1   1.00000     0.00000
 Structure written by MMmdl.
 41 42  0  0  0  0  0  0  0  0  1 V2000
  149.3063  132.4027  153.7662 C   0  0  0  0  0  0  0  0  0  0  0  0
  148.5278  133.4924  154.5156 C   0  0  2  0  0  0  0  0  0  0  0  0
  147.0158  133.4111  154.2119 C   0  0  0  0  0  0  0  0  0  0  0  0
  146.7340  133.0446  152.8350 N   0  0  0  0  0  0  0  0  0  0  0  0
  147.0847  133.7132  151.6811 C   0  0  0  0  0  0  0  0  0  0  0  0
  146.5889  132.9973  150.6296 C   0  0  0  0  0  0  0  0  0  0  0  0
  145.9486  131.8880  151.2490 C   0  0  0  0  0  0  0  0  0  0  0  0
  146.0421  131.9159  152.5686 N   0  0  0  0  0  0  0  0  0  0  0  0
  149.0651  134.8005  154.1418 N   0  0  0  0  0  0  0  0  0  0  0  0
  149.5564  135.7144  154.9912 C   0  0  0  0  0  0  0  0  0  0  0  0
  149.6333  135.5554  156.2093 O   0  0  0  0  0  0  0  0  0  0  0  0
  149.9323  136.8317  154.3524 N   0  0  0  0  0  0  0  0  0  0  0  0
  150.4741  138.0344  154.9833 C   0  0  1  0  0  0  0  0  0  0  0  0
  152.0074  137.9807  154.9137 C   0  0  0  0  0  0  0  0  0  0  0  0
  149.9128  139.3033  154.3066 C   0  0  1  0  0  0  0  0  0  0  0  0
  148.3973  139.4876  154.4254 C   0  0  0  0  0  0  0  0  0  0  0  0
  148.2536  140.9848  154.2888 C   0  0  0  0  0  0  0  0  0  0  0  0
  149.4694  141.4775  155.0649 C   0  0  0  0  0  0  0  0  0  0  0  0
  150.4689  140.4750  154.9015 O   0  0  0  0  0  0  0  0  0  0  0  0
  148.9536  131.4087  154.0435 H   0  0  0  0  0  0  0  0  0  0  0  0
  150.3706  132.4493  153.9993 H   0  0  0  0  0  0  0  0  0  0  0  0
  149.1958  132.5056  152.6862 H   0  0  0  0  0  0  0  0  0  0  0  0
  148.6829  133.3197  155.5823 H   0  0  0  0  0  0  0  0  0  0  0  0
  146.5311  132.6903  154.8719 H   0  0  0  0  0  0  0  0  0  0  0  0
  146.5421  134.3747  154.4052 H   0  0  0  0  0  0  0  0  0  0  0  0
  147.6430  134.6374  151.7046 H   0  0  0  0  0  0  0  0  0  0  0  0
  146.6694  133.2315  149.5786 H   0  0  0  0  0  0  0  0  0  0  0  0
  145.4228  131.0681  150.7823 H   0  0  0  0  0  0  0  0  0  0  0  0
  149.0479  135.0314  153.1593 H   0  0  0  0  0  0  0  0  0  0  0  0
  149.8255  136.8595  153.3490 H   0  0  0  0  0  0  0  0  0  0  0  0
  150.1949  138.0545  156.0383 H   0  0  0  0  0  0  0  0  0  0  0  0
  152.4550  138.8427  155.4090 H   0  0  0  0  0  0  0  0  0  0  0  0
  152.3594  137.9715  153.8816 H   0  0  0  0  0  0  0  0  0  0  0  0
  152.3912  137.0863  155.4054 H   0  0  0  0  0  0  0  0  0  0  0  0
  150.1838  139.3139  153.2495 H   0  0  0  0  0  0  0  0  0  0  0  0
  147.8421  138.9359  153.6670 H   0  0  0  0  0  0  0  0  0  0  0  0
  148.0438  139.1708  155.4077 H   0  0  0  0  0  0  0  0  0  0  0  0
  148.3301  141.2753  153.2401 H   0  0  0  0  0  0  0  0  0  0  0  0
  147.3112  141.3645  154.6841 H   0  0  0  0  0  0  0  0  0  0  0  0
  149.8191  142.4503  154.7191 H   0  0  0  0  0  0  0  0  0  0  0  0
  149.2343  141.5591  156.1266 H   0  0  0  0  0  0  0  0  0  0  0  0
  1  2  1  0  0  0  0
  1 20  1  0  0  0  0
  1 21  1  0  0  0  0
  1 22  1  0  0  0  0
  2  3  1  0  0  0  0
  2  9  1  0  0  0  0
  2 23  1  0  0  0  0
  3  4  1  0  0  0  0
  3 24  1  0  0  0  0
  3 25  1  0  0  0  0
  4  8  1  0  0  0  0
  4  5  1  0  0  0  0
  5  6  2  0  0  0  0
  5 26  1  0  0  0  0
  6  7  1  0  0  0  0
  6 27  1  0  0  0  0
  7  8  2  0  0  0  0
  7 28  1  0  0  0  0
  9 10  1  0  0  0  0
  9 29  1  0  0  0  0
 10 11  2  0  0  0  0
 10 12  1  0  0  0  0
 12 13  1  0  0  0  0
 12 30  1  0  0  0  0
 13 14  1  0  0  0  0
 13 15  1  0  0  0  0
 13 31  1  0  0  0  0
 14 32  1  0  0  0  0
 14 33  1  0  0  0  0
 14 34  1  0  0  0  0
 15 19  1  0  0  0  0
 15 16  1  0  0  0  0
 15 35  1  0  0  0  0
 16 17  1  0  0  0  0
 16 36  1  0  0  0  0
 16 37  1  0  0  0  0
 17 18  1  0  0  0  0
 17 38  1  0  0  0  0
 17 39  1  0  0  0  0
 18 19  1  0  0  0  0
 18 40  1  0  0  0  0
 18 41  1  0  0  0  0
M  END
> <s_m_source_file>
AV-unprocessed.smi

> <i_m_source_file_index>
3350

> <i_lp_mmshare_version>
43012

> <i_f3d_flags>
0

> <s_epik_input>
bjFbY0hdW2NIXVtjSF1uMVtDSDJdW0NAQEhdKFtDSDNdKVtOSF1DKD1PKVtOSF1bQ0BIXShbQ0gzXSlbQ0BASF0yW0NIMl1bQ0gyXVtDSDJdTzI=

> <s_epik_cmdline>
J2VwaWtfcHl0aG9uJywgJy1waCcsICc3LjAnLCAnLXRuJywgJzgnLCAnLW1hJywgJzIwMCcsICctbWV0YWxfYmluZGluZycsICctaW1hZScsICc8aW5maWxlLm1hZT4nLCAnLW9tYWUnLCAnPG91dGZpbGUubWFlPic=

> <r_lp_tautomer_probability>
1

> <r_epik_Ionization_Penalty>
6.42349e-05

> <r_epik_Ionization_Penalty_Charging>
0

> <r_epik_Ionization_Penalty_Neutral>
6.42349e-05

> <r_epik_State_Penalty>
-0

> <r_epik_Charging_Adjusted_Penalty>
0

> <i_epik_Tot_Q>
0

> <i_epik_Tot_abs_Q>
0

> <r_epik_Metal_State_Penalty>
-0

> <b_epik_Metal_Only>
0

> <s_lp_Force_Field>
OPLS_2005

> <r_lp_Energy>
14.6241

> <b_lp_Chiralities_Consistent>
1

> <s_lp_Variant>
AV-unprocessed.smi:3350-7

> <Gold.Version>
5.8.1

> <Gold.Id.Protein>
6NUR|6NUR_protein|mol2

> <Gold.PLP.Fitness>
43.6865

> <Gold.PLP.PLP>
-32.8505

> <Gold.PLP.part.hbond>
-3.3660

> <Gold.PLP.part.metal>
0.0000

> <Gold.PLP.part.buried>
-2.4693

> <Gold.PLP.part.nonpolar>
-27.8964

> <Gold.PLP.part.repulsive>
0.3107

> <Gold.PLP.ligand.clash>
0.0000

> <Gold.PLP.ligand.torsion>
0.5965

> <Gold.PLP.Chemscore.Hbond>
3.0000

> <Gold.PLP.Chemscore.CHOScore>
1.0000

> <Gold.PLP.Chemscore.Metal>
0.0000

> <Gold.Chemscore.Hbonds>
donor molecule, donor type, donor heavy atom, donor atom, acceptor molecule, acceptor atom, score
      L1  H     9    29       P1  7948  0.85
      L1  H    12    30       P1  7948  0.98
      P1  H  7989  7998       L1    19  0.80
      L1  C     5    26       P1  7948  0.95

> <Gold.PLP.Chemscore.Internal.Correction>
0.0291

> <Gold.Rescore>
     Score         DG    S(hbond)    S(metal)    S(lipo)     H(rot)  DE(clash)    DE(int)     intcor
     16.54     -17.32       2.49        0.00      70.09       1.82       0.16       0.62       ----

> <Gold.Chemscore.Fitness>
16.5434

> <Gold.Chemscore.DG>
-17.3232

> <Gold.Chemscore.ZeroCoef>
-5.4800

> <Gold.Chemscore.Hbond>
2.4853

> <Gold.Chemscore.Metal>
0.0000

> <Gold.Chemscore.Lipo>
70.0919

> <Gold.Chemscore.Internal_Hbond>
0.0000

> <Gold.Chemscore.DEClash>
0.1635

> <Gold.Chemscore.DEInternal>
0.6163

> <Gold.Chemscore.Rot>
1.8197

> <Gold.Chemscore.Internal.Correction>
   9.000000E+99

> <Gold.Chemscore.Hbonds>
donor molecule, donor type, donor heavy atom, donor atom, acceptor molecule, acceptor atom, score
      L1  H     9    29       P1  7948  0.14
      L1  H    12    30       P1  7948  0.32
      P1  H  7989  7998       L1    19  0.09

> <Gold.Chemscore.Hbond.Weighted>
-8.3008

> <Gold.Chemscore.Metal.Weighted>
-0.0000

> <Gold.Chemscore.Lipo.Weighted>
-8.2008

> <Gold.Chemscore.Internal_Hbond.Weighted>
0.0000

> <Gold.Chemscore.DEClash.Weighted>
0.1635

> <Gold.Chemscore.DEInternal.Weighted>
0.6163

> <Gold.Chemscore.Rot.Weighted>
4.6583

> <Gold.Chemscore.Internal.Correction.Weighted>
   9.000000E+99

> <Gold.Protein.RotatedTorsions>
[ 6907 6896 6895 6894 ] final   63.91 input  -60.11 | X-H torsion
[ 7974 7965 7964 7962 ] final   29.13 input  175.53 | X-H torsion
[ 8008 7997 7996 7995 ] final   66.61 input   59.86 | X-H torsion
[ 10167 10162 10161 10158 ] final -158.84 input  -65.29 | X-H torsion
[ 10718 10713 10712 10709 ] final  -76.66 input   66.30 | X-H torsion
[ 10763 10752 10751 10750 ] final -111.13 input  -60.55 | X-H torsion
[ 11005 11000 10999 10996 ] final   11.28 input  -57.11 | X-H torsion

> <Gold.Protein.ActiveResidues>
 VAL166  LYS551  ARG553  GLY616  TRP617  ASP618  TYR619  PRO620  LYS621  CYS622 
 ASP623  PHE694  ASN695  SER759  ASP760  ASP761  ALA762  ILE779  LEU786  VAL792 
 PHE793  MET794  SER795  GLU796  ALA797  LYS798  CYS799  TRP800  GLU811  SER814 

> <Gold.Protein.RotatedAtoms>
  152.4290  134.5813  159.9948 H   0  0  0  0  0  0  0  0  0  0  0  0  # atno 6907 bound_to 6896
  151.5941  133.3357  159.3042 H   0  0  0  0  0  0  0  0  0  0  0  0  # atno 6908 bound_to 6896
  150.8182  134.7411  159.6814 H   0  0  0  0  0  0  0  0  0  0  0  0  # atno 6909 bound_to 6896
  146.1689  139.6963  142.8981 H   0  0  0  0  0  0  0  0  0  0  0  0  # atno 7974 bound_to 7965
  155.6800  140.3496  155.4851 H   0  0  0  0  0  0  0  0  0  0  0  0  # atno 8008 bound_to 7997
  155.9615  140.1138  157.0914 H   0  0  0  0  0  0  0  0  0  0  0  0  # atno 8009 bound_to 7997
  154.4144  140.1175  156.5171 H   0  0  0  0  0  0  0  0  0  0  0  0  # atno 8010 bound_to 7997
  139.6661  143.9826  152.2256 H   0  0  0  0  0  0  0  0  0  0  0  0  # atno 10167 bound_to 10162
  156.0168  130.4471  150.3227 H   0  0  0  0  0  0  0  0  0  0  0  0  # atno 10718 bound_to 10713
  154.8284  135.4538  154.0992 H   0  0  0  0  0  0  0  0  0  0  0  0  # atno 10763 bound_to 10752
  153.2286  135.6903  153.7922 H   0  0  0  0  0  0  0  0  0  0  0  0  # atno 10764 bound_to 10752
  153.7313  135.3326  155.3263 H   0  0  0  0  0  0  0  0  0  0  0  0  # atno 10765 bound_to 10752
  140.5050  134.0709  155.7803 H   0  0  0  0  0  0  0  0  0  0  0  0  # atno 11005 bound_to 11000
  145.4393  141.0421  143.2867 LP  0  0  0  0  0  0  0  0  0  0  0  0  # atno 17320 bound_to 7965
  144.8134  139.5921  143.7019 LP  0  0  0  0  0  0  0  0  0  0  0  0  # atno 17321 bound_to 7965
  139.9578  144.6578  150.8109 LP  0  0  0  0  0  0  0  0  0  0  0  0  # atno 17342 bound_to 10162
  140.7600  143.3141  151.2775 LP  0  0  0  0  0  0  0  0  0  0  0  0  # atno 17343 bound_to 10162
  157.1327  131.0276  151.2962 LP  0  0  0  0  0  0  0  0  0  0  0  0  # atno 17370 bound_to 10713
  157.4537  130.7613  149.7174 LP  0  0  0  0  0  0  0  0  0  0  0  0  # atno 17371 bound_to 10713
  141.1416  133.9129  157.2313 LP  0  0  0  0  0  0  0  0  0  0  0  0  # atno 17394 bound_to 11000
  139.9691  135.0133  156.9466 LP  0  0  0  0  0  0  0  0  0  0  0  0  # atno 17395 bound_to 11000

$$$$
