AV-unprocessed.smi:2316|AV-procd|sdf|9270|dock1
  -GOLD-   2272012493D 1   1.00000     0.00000
 Structure written by MMmdl.
 31 32  0  0  0  0  0  0  0  0  1 V2000
  151.0448  140.9881  156.8248 O   0  0  0  0  0  0  0  0  0  0  0  0
  150.4953  142.0268  156.4648 C   0  0  0  0  0  0  0  0  0  0  0  0
  149.5132  142.0987  155.5450 N   0  0  0  0  0  0  0  0  0  0  0  0
  148.9065  141.0541  154.7963 C   0  0  0  0  0  0  0  0  0  0  0  0
  149.4209  139.7383  154.7018 C   0  0  0  0  0  0  0  0  0  0  0  0
  148.7303  138.7995  153.9094 C   0  0  0  0  0  0  0  0  0  0  0  0
  147.6026  139.0884  153.2259 N   0  0  0  0  0  0  0  0  0  0  0  0
  147.1227  140.3473  153.3077 C   0  0  0  0  0  0  0  0  0  0  0  0
  147.7360  141.3610  154.0707 C   0  0  0  0  0  0  0  0  0  0  0  0
  147.2036  142.6066  154.1064 F   0  0  0  0  0  0  0  0  0  0  0  0
  150.8311  143.2128  157.0064 N   0  0  0  0  0  0  0  0  0  0  0  0
  151.8453  143.4990  158.0239 C   0  0  1  0  0  0  0  0  0  0  0  0
  151.7844  144.9606  158.4511 C   0  0  0  0  0  0  0  0  0  0  0  0
  151.8471  145.3686  159.7301 C   0  0  0  0  0  0  0  0  0  0  0  0
  152.0007  144.4205  160.9048 C   0  0  0  0  0  0  0  0  0  0  0  0
  152.4354  143.0134  160.4594 C   0  0  0  0  0  0  0  0  0  0  0  0
  151.6550  142.5439  159.2222 C   0  0  0  0  0  0  0  0  0  0  0  0
  149.1061  143.0128  155.4102 H   0  0  0  0  0  0  0  0  0  0  0  0
  150.3263  139.4347  155.2035 H   0  0  0  0  0  0  0  0  0  0  0  0
  149.0988  137.7885  153.8173 H   0  0  0  0  0  0  0  0  0  0  0  0
  146.2230  140.5540  152.7470 H   0  0  0  0  0  0  0  0  0  0  0  0
  150.3040  144.0121  156.6852 H   0  0  0  0  0  0  0  0  0  0  0  0
  152.8406  143.3251  157.6116 H   0  0  0  0  0  0  0  0  0  0  0  0
  151.6848  145.6973  157.6671 H   0  0  0  0  0  0  0  0  0  0  0  0
  151.7757  146.4213  159.9609 H   0  0  0  0  0  0  0  0  0  0  0  0
  152.7292  144.8296  161.6053 H   0  0  0  0  0  0  0  0  0  0  0  0
  151.0458  144.3730  161.4288 H   0  0  0  0  0  0  0  0  0  0  0  0
  153.5010  143.0208  160.2258 H   0  0  0  0  0  0  0  0  0  0  0  0
  152.3055  142.3071  161.2799 H   0  0  0  0  0  0  0  0  0  0  0  0
  150.5971  142.4835  159.4833 H   0  0  0  0  0  0  0  0  0  0  0  0
  151.9606  141.5343  158.9460 H   0  0  0  0  0  0  0  0  0  0  0  0
  1  2  2  0  0  0  0
  2  3  1  0  0  0  0
  2 11  1  0  0  0  0
  3  4  1  0  0  0  0
  3 18  1  0  0  0  0
  4  9  1  0  0  0  0
  4  5  2  0  0  0  0
  5  6  1  0  0  0  0
  5 19  1  0  0  0  0
  6  7  2  0  0  0  0
  6 20  1  0  0  0  0
  7  8  1  0  0  0  0
  8  9  2  0  0  0  0
  8 21  1  0  0  0  0
  9 10  1  0  0  0  0
 11 12  1  0  0  0  0
 11 22  1  0  0  0  0
 12 17  1  0  0  0  0
 12 13  1  0  0  0  0
 12 23  1  0  0  0  0
 13 14  2  0  0  0  0
 13 24  1  0  0  0  0
 14 15  1  0  0  0  0
 14 25  1  0  0  0  0
 15 16  1  0  0  0  0
 15 26  1  0  0  0  0
 15 27  1  0  0  0  0
 16 17  1  0  0  0  0
 16 28  1  0  0  0  0
 16 29  1  0  0  0  0
 17 30  1  0  0  0  0
 17 31  1  0  0  0  0
M  END
> <s_m_source_file>
AV-unprocessed.smi

> <i_m_source_file_index>
2316

> <i_lp_mmshare_version>
43012

> <i_f3d_flags>
0

> <s_epik_input>
W0NIMl0xW0NIMl1bQ0gyXVtDSF09W0NIXVtDQEhdMVtOSF1DKD1PKVtOSF1jMltjSF1bY0hdbltjSF1jMkY=

> <s_epik_cmdline>
J2VwaWtfcHl0aG9uJywgJy1waCcsICc3LjAnLCAnLXRuJywgJzgnLCAnLW1hJywgJzIwMCcsICctbWV0YWxfYmluZGluZycsICctaW1hZScsICc8aW5maWxlLm1hZT4nLCAnLW9tYWUnLCAnPG91dGZpbGUubWFlPic=

> <r_epik_Ionization_Penalty>
0.0032416

> <r_epik_Ionization_Penalty_Charging>
0

> <r_epik_Ionization_Penalty_Neutral>
0.0032416

> <r_epik_State_Penalty>
0.00226065

> <r_epik_Charging_Adjusted_Penalty>
0.00226065

> <i_epik_Tot_Q>
0

> <i_epik_Tot_abs_Q>
0

> <r_epik_Metal_State_Penalty>
-0

> <b_epik_Metal_Only>
0

> <s_lp_Force_Field>
OPLS_2005

> <r_lp_Energy>
22.3144

> <b_lp_Chiralities_Consistent>
1

> <s_lp_Variant>
AV-unprocessed.smi:2316-2

> <Gold.Version>
5.8.1

> <Gold.Id.Protein>
6NUR|6NUR_protein|mol2

> <Gold.PLP.Fitness>
53.8887

> <Gold.PLP.PLP>
-42.0742

> <Gold.PLP.part.hbond>
-2.0000

> <Gold.PLP.part.metal>
0.0000

> <Gold.PLP.part.buried>
-4.3073

> <Gold.PLP.part.nonpolar>
-36.7046

> <Gold.PLP.part.repulsive>
1.2153

> <Gold.PLP.ligand.clash>
0.0000

> <Gold.PLP.ligand.torsion>
0.0961

> <Gold.PLP.Chemscore.Hbond>
2.0000

> <Gold.PLP.Chemscore.CHOScore>
1.9997

> <Gold.PLP.Chemscore.Metal>
0.0000

> <Gold.Chemscore.Hbonds>
donor molecule, donor type, donor heavy atom, donor atom, acceptor molecule, acceptor atom, score
      L1  H     3    18       P1  8028  1.00
      L1  H    11    22       P1  8028  1.00
      L1  C     6    20       P1  7948  0.98
      L1  C     8    21       P1 10175  0.96

> <Gold.PLP.Chemscore.Internal.Correction>
0.0078

> <Gold.Rescore>
     Score         DG    S(hbond)    S(metal)    S(lipo)     H(rot)  DE(clash)    DE(int)     intcor
     19.29     -21.61       1.94        0.00     104.34       1.00       0.08       2.24       ----

> <Gold.Chemscore.Fitness>
19.2943

> <Gold.Chemscore.DG>
-21.6119

> <Gold.Chemscore.ZeroCoef>
-5.4800

> <Gold.Chemscore.Hbond>
1.9413

> <Gold.Chemscore.Metal>
0.0000

> <Gold.Chemscore.Lipo>
104.3430

> <Gold.Chemscore.Internal_Hbond>
0.0000

> <Gold.Chemscore.DEClash>
0.0786

> <Gold.Chemscore.DEInternal>
2.2390

> <Gold.Chemscore.Rot>
1.0000

> <Gold.Chemscore.Internal.Correction>
   9.000000E+99

> <Gold.Chemscore.Hbonds>
donor molecule, donor type, donor heavy atom, donor atom, acceptor molecule, acceptor atom, score
      L1  H     3    18       P1  8028  0.99
      L1  H    11    22       P1  8028  0.95

> <Gold.Chemscore.Hbond.Weighted>
-6.4838

> <Gold.Chemscore.Metal.Weighted>
-0.0000

> <Gold.Chemscore.Lipo.Weighted>
-12.2081

> <Gold.Chemscore.Internal_Hbond.Weighted>
0.0000

> <Gold.Chemscore.DEClash.Weighted>
0.0786

> <Gold.Chemscore.DEInternal.Weighted>
2.2390

> <Gold.Chemscore.Rot.Weighted>
2.5600

> <Gold.Chemscore.Internal.Correction.Weighted>
   9.000000E+99

> <Gold.Protein.RotatedTorsions>
[ 6907 6896 6895 6894 ] final -115.32 input  -60.11 | X-H torsion
[ 7974 7965 7964 7962 ] final  -36.83 input  175.53 | X-H torsion
[ 8008 7997 7996 7995 ] final    2.07 input   59.86 | X-H torsion
[ 10167 10162 10161 10158 ] final   69.01 input  -65.29 | X-H torsion
[ 10718 10713 10712 10709 ] final  168.75 input   66.30 | X-H torsion
[ 10763 10752 10751 10750 ] final  125.26 input  -60.55 | X-H torsion
[ 11005 11000 10999 10996 ] final  172.05 input  -57.11 | X-H torsion

> <Gold.Protein.ActiveResidues>
 VAL166  LYS551  ARG553  GLY616  TRP617  ASP618  TYR619  PRO620  LYS621  CYS622 
 ASP623  PHE694  ASN695  SER759  ASP760  ASP761  ALA762  ILE779  LEU786  VAL792 
 PHE793  MET794  SER795  GLU796  ALA797  LYS798  CYS799  TRP800  GLU811  SER814 

> <Gold.Protein.RotatedAtoms>
  150.7969  133.8675  159.3249 H   0  0  0  0  0  0  0  0  0  0  0  0  # atno 6907 bound_to 6896
  151.6498  135.1001  160.0168 H   0  0  0  0  0  0  0  0  0  0  0  0  # atno 6908 bound_to 6896
  152.4051  133.6838  159.6385 H   0  0  0  0  0  0  0  0  0  0  0  0  # atno 6909 bound_to 6896
  146.0628  140.6324  142.8989 H   0  0  0  0  0  0  0  0  0  0  0  0  # atno 7974 bound_to 7965
  154.6872  140.2645  155.6849 H   0  0  0  0  0  0  0  0  0  0  0  0  # atno 8008 bound_to 7997
  156.2719  140.2798  156.1360 H   0  0  0  0  0  0  0  0  0  0  0  0  # atno 8009 bound_to 7997
  155.0948  140.0374  157.2669 H   0  0  0  0  0  0  0  0  0  0  0  0  # atno 8010 bound_to 7997
  140.0724  144.5141  150.7218 H   0  0  0  0  0  0  0  0  0  0  0  0  # atno 10167 bound_to 10162
  157.0326  131.0263  151.2740 H   0  0  0  0  0  0  0  0  0  0  0  0  # atno 10718 bound_to 10713
  153.6744  135.3325  155.3162 H   0  0  0  0  0  0  0  0  0  0  0  0  # atno 10763 bound_to 10752
  154.8482  135.4394  154.1671 H   0  0  0  0  0  0  0  0  0  0  0  0  # atno 10764 bound_to 10752
  153.2671  135.6997  153.7595 H   0  0  0  0  0  0  0  0  0  0  0  0  # atno 10765 bound_to 10752
  140.3256  134.7401  157.4096 H   0  0  0  0  0  0  0  0  0  0  0  0  # atno 11005 bound_to 11000
  144.7185  140.4292  143.7026 LP  0  0  0  0  0  0  0  0  0  0  0  0  # atno 17320 bound_to 7965
  145.6530  139.1568  143.2851 LP  0  0  0  0  0  0  0  0  0  0  0  0  # atno 17321 bound_to 7965
  140.7119  143.2512  151.4556 LP  0  0  0  0  0  0  0  0  0  0  0  0  # atno 17342 bound_to 10162
  139.5828  144.1672  152.1990 LP  0  0  0  0  0  0  0  0  0  0  0  0  # atno 17343 bound_to 10162
  157.5166  130.7972  149.7763 LP  0  0  0  0  0  0  0  0  0  0  0  0  # atno 17370 bound_to 10713
  156.0064  130.3853  150.2415 LP  0  0  0  0  0  0  0  0  0  0  0  0  # atno 17371 bound_to 10713
  140.0904  134.5608  155.8450 LP  0  0  0  0  0  0  0  0  0  0  0  0  # atno 17394 bound_to 11000
  141.2076  133.6665  156.6316 LP  0  0  0  0  0  0  0  0  0  0  0  0  # atno 17395 bound_to 11000

$$$$
