#       Name:                AV-unprocessed.smi:1831
#       Creating user name   scv26
#       Creation time:       Fri Mar 27 09:14:59 2020


#       File generated by GOLD software.
#

@<TRIPOS>MOLECULE
AV-unprocessed.smi:1831
    45    46     1
SMALL
NO_CHARGES


@<TRIPOS>ATOM
      1 ****        -6.3421   5.2408  -0.9666 C.3            1 S1                 0.0000
      2 ****        -5.4659   4.0356  -0.9430 C.2            1 S1                 0.0000
      3 ****        -5.9148   2.8249  -0.5913 N.2            1 S1                 0.0000
      4 ****        -4.9194   1.8593  -0.6431 N.2            1 S1                 0.0000
      5 ****        -3.7446   2.3728  -1.0329 C.2            1 S1                 0.0000
      6 ****        -2.5564   1.6073  -1.1721 N.am           1 S1                 0.0000
      7 ****        -2.3938   0.2841  -0.9953 C.2            1 S1                 0.0000
      8 ****        -3.2816  -0.5069  -0.6763 O.2            1 S1                 0.0000
      9 ****        -1.1243  -0.0843  -1.2163 N.am           1 S1                 0.0000
     10 ****        -0.6378  -1.4565  -1.1337 C.3            1 S1                 0.0000
     11 ****         0.8894  -1.4982  -0.9606 C.3            1 S1                 0.0000
     12 ****         1.4643  -2.9115  -0.9033 C.3            1 S1                 0.0000
     13 ****         2.7777  -2.7698  -0.1232 C.3            1 S1                 0.0000
     14 ****         2.7649  -1.4308   0.5190 N.4            1 S1                 1.0000
     15 ****         3.3046  -1.3875   1.9077 C.3            1 S1                 0.0000
     16 ****         3.2038   0.0248   2.5152 C.3            1 S1                 0.0000
     17 ****         4.7704  -1.8592   1.9478 C.3            1 S1                 0.0000
     18 ****         1.3991  -0.8890   0.3460 C.3            1 S1                 0.0000
     19 ****        -3.7590   4.0960  -1.3665 S.3            1 S1                 0.0000
     20 ****        -7.3222   4.9880  -1.3721 H              1 S1                 0.0000
     21 ****        -5.8992   6.0195  -1.5876 H              1 S1                 0.0000
     22 ****        -6.4692   5.6282   0.0442 H              1 S1                 0.0000
     23 ****        -1.7370   2.1284  -1.4463 H              1 S1                 0.0000
     24 ****        -0.4582   0.6265  -1.4817 H              1 S1                 0.0000
     25 ****        -1.1182  -1.9773  -0.3033 H              1 S1                 0.0000
     26 ****        -0.9249  -1.9820  -2.0454 H              1 S1                 0.0000
     27 ****         1.3601  -0.9730  -1.7939 H              1 S1                 0.0000
     28 ****         0.7881  -3.5691  -0.3549 H              1 S1                 0.0000
     29 ****         1.6104  -3.3427  -1.8943 H              1 S1                 0.0000
     30 ****         2.8584  -3.5748   0.6089 H              1 S1                 0.0000
     31 ****         3.6405  -2.8365  -0.7866 H              1 S1                 0.0000
     32 ****         2.7093  -2.0626   2.5245 H              1 S1                 0.0000
     33 ****         3.6449   0.0527   3.5120 H              1 S1                 0.0000
     34 ****         2.1697   0.3532   2.6211 H              1 S1                 0.0000
     35 ****         3.7289   0.7588   1.9029 H              1 S1                 0.0000
     36 ****         5.1707  -1.8043   2.9607 H              1 S1                 0.0000
     37 ****         5.4026  -1.2397   1.3106 H              1 S1                 0.0000
     38 ****         4.8803  -2.8929   1.6203 H              1 S1                 0.0000
     39 ****         1.3986   0.2010   0.3173 H              1 S1                 0.0000
     40 ****         0.7695  -1.2081   1.1788 H              1 S1                 0.0000
     41 ****         3.3639  -0.8471  -0.0474 H              1 S1                 0.0000
     42 ****        -6.8595   2.6375  -0.3220 LP             1 S1                 0.0000
     43 ****        -5.0618   0.8958  -0.4167 LP             1 S1                 0.0000
     44 ****        -4.2142  -0.1782  -0.5270 LP             1 S1                 0.0000
     45 ****        -3.0702  -1.4781  -0.5665 LP             1 S1                 0.0000
@<TRIPOS>BOND
    1    1    2 1     
    2    1   20 1     
    3    1   21 1     
    4    1   22 1     
    5    2   19 1     
    6    2    3 2     
    7    3    4 1     
    8    4    5 2     
    9    5    6 1     
   10    5   19 1     
   11    6    7 am    
   12    6   23 1     
   13    7    8 2     
   14    7    9 am    
   15    9   10 1     
   16    9   24 1     
   17   10   11 1     
   18   10   25 1     
   19   10   26 1     
   20   11   18 1     
   21   11   12 1     
   22   11   27 1     
   23   12   13 1     
   24   12   28 1     
   25   12   29 1     
   26   13   14 1     
   27   13   30 1     
   28   13   31 1     
   29   14   15 1     
   30   14   18 1     
   31   14   41 1     
   32   15   16 1     
   33   15   17 1     
   34   15   32 1     
   35   16   33 1     
   36   16   34 1     
   37   16   35 1     
   38   17   36 1     
   39   17   37 1     
   40   17   38 1     
   41   18   39 1     
   42   18   40 1     
   43    3   42 1     
   44    4   43 1     
   45    8   44 1     
   46    8   45 1     
@<TRIPOS>SUBSTRUCTURE
      1 S1             1
@<TRIPOS>SET
LONE_PAIRS      STATIC     ATOMS    <user>   **** ""
4 42 43 44 45
DONOR_HYDROGENS      STATIC     ATOMS    <user>   **** ""
3 23 24 41
ATOM$BLUE        STATIC     ATOMS    COLORGROUP SYSTEM
4 42 43 44 45
ATOM$RED        STATIC     ATOMS    COLORGROUP SYSTEM
3 23 24 41
